data_PCOD9192700
_publ_section_title
;
Structure prediction by ZEFSAII (Michael W. Deem and Ramdas Pophale) SiO2 
 PCOD9192700
Probable space group: C 2/M
;
_chemical_formula_sum "Si O2"
_cell_formula_units_Z 60
_cell_length_a 9.257174
_cell_length_b 21.409952
_cell_length_c 19.858628
_cell_angle_alpha 90.000000
_cell_angle_beta 47.127918
_cell_angle_gamma 90.000000
_cell_volume 2884.516133
_symmetry_space_group_name_H-M "C 2/M"
_symmetry_group_IT_number 12
_symmetry_cell_setting 'monoclinic'
loop_
_space_group_symop_operation_xyz
x,y,z
-x,y,-z
-x,-y,-z
x,-y,z
1/2+x,1/2+y,z
1/2-x,1/2+y,-z
1/2-x,1/2-y,-z
1/2+x,1/2-y,z
loop_
_atom_site_type_symbol
_atom_site_label
_atom_site_fract_x
_atom_site_fract_y
_atom_site_fract_z
Si Si1 0.500000 0.754772 0.500000
Si Si2 0.308452 0.303650 0.782195
Si Si3 0.287318 0.608007 0.093194
Si Si4 0.923869 0.300835 0.376991
Si Si5 0.356972 0.233332 0.896156
Si Si6 0.623432 0.929732 0.286374
Si Si7 0.671711 0.926881 0.988196
Si Si8 0.967174 0.928145 0.774623
O O1 0.301759 0.714098 0.569797
O O2 0.462382 0.794454 0.444587
O O3 0.442498 0.253355 0.699807
O O4 0.353679 0.291138 0.846682
O O5 0.377768 0.375739 0.753593
O O6 0.081199 0.289905 0.835755
O O7 0.271793 0.682474 0.105125
O O8 0.215404 0.574402 0.182127
O O9 0.500000 0.586819 0.000000
O O10 0.163904 0.598931 0.064845
O O11 0.982392 0.370236 0.336182
O O12 0.250000 0.250000 0.000000
O O13 0.801673 0.920190 0.283131
O O14 0.543130 0.000000 0.321455
O O15 0.864188 0.922508 0.881158
O O16 0.631380 0.000000 0.009394
O O17 0.500000 0.895722 0.000000
O O18 0.929651 0.000000 0.764593
#
# Coordination Sequence:
#
# PCOD9192700 Si02
#       8
#     4   8   8   8   8   8   8   8
#     4  10  24  46  78  98 126 152 206 270 352 436
#     4  12  23  41  67  92 133 172 221 278 320 388
#     4  12  22  36  57  88 131 183 235 264 313 363
#     4  11  23  45  72 103 124 163 210 268 343 411
#     4  12  25  37  56  93 134 183 225 274 321 364
#     4  11  23  40  65  99 138 174 221 272 321 386
#     4  10  20  34  50  73 116 174 231 268 301 348
#     4  10  21  37  58  88 127 177 223 270 315 366
#
# _framework density 20.800715
#
# number of rings (size 3 to 8) (size 9 to 14) (size 15 to 20)
#    0.000    0.933    2.667    5.600    0.000    0.533 
#    0.000    1.333    0.000    3.200    0.000    0.000 
#    0.000    0.000    0.000    0.000    0.000    0.000 
#
# Total GULP energy -167576.894252 kJ/mol
# GULP energy per Si atom -5585.896475 kJ/mol
# Density = 2.075337 g / cm^3
# Si number density = 20.800715 Si / 1000 Ang^3
#
#
#
# Elastic Constant Matrix: (Units=GPa)
#
#
# Indices 1 2 3 4 5 6 
#
# 1 75.4773 11.4522 20.5239 0.0000 -11.0151 0.0000
# 2 11.4522 126.7746 32.5169 0.0000 -11.1659 0.0000
# 3 20.5239 32.5169 73.5049 0.0000 -17.8749 0.0000
# 4 0.0000 0.0000 0.0000 9.7730 0.0000 -6.9634
# 5 -11.0151 -11.1659 -17.8749 0.0000 30.1815 0.0000
# 6 0.0000 0.0000 0.0000 -6.9634 0.0000 10.6498
#
#
#
# Elastic Compliance Matrix: (Units=1/GPa)
#
#
# Indices 1 2 3 4 5 6 
#
# 1 0.014637 -0.000211 -0.003170 0.000000 0.003386 0.000000
# 2 -0.000211 0.008933 -0.003631 0.000000 0.001078 0.000000
# 3 -0.003170 -0.003631 0.018094 0.000000 0.008216 0.000000
# 4 0.000000 0.000000 0.000000 0.191573 0.000000 0.125261
# 5 0.003386 0.001078 0.008216 0.000000 0.039633 0.000000
# 6 0.000000 0.000000 0.000000 0.125261 0.000000 0.175802
#
#
# Mechanical properties :
#
#
# Convention : Reuss Voigt Hill
#
# Bulk Modulus (GPa) = 36.17890 44.97142 40.57516
# Shear Modulus (GPa) = 10.59525 24.20511 17.40018
#
# Velocity S-wave (km/s) = 2.25937 3.41496 2.89540
# Velocity P-wave (km/s) = 4.92313 6.10052 5.54317
#
# Compressibility (1/GPa) = 0.02764042
#
# Stress axis : x y z
#
# Youngs Moduli (GPa) = 68.31873 111.94077 55.26735
#
# Poissons Ratio (x) = 0.02360 0.17521
# Poissons Ratio (y) = 0.01441 0.20067
# Poissons Ratio (z) = 0.21658 0.40645
#
# Static dielectric constant tensor:
#      x y z
#    x 1.434980 0.000000 -0.262540 
#    y 0.000000 1.836140 0.000000 
#    z -0.262540 0.000000 1.576040 
# 
# From -- ./inp_files/301881.got.cif
#   From: 2010.05.17/outbox.cif.g08.bks.cpg/sg12_151_cif.got.tgz:301881.got - 2010.06.03 13:09:07.
