data_PCOD9192687
_publ_section_title
;
Structure prediction by ZEFSAII (Michael W. Deem and Ramdas Pophale) SiO2 
 PCOD9192687
Probable space group: C 2/M
;
_chemical_formula_sum "Si O2"
_cell_formula_units_Z 64
_cell_length_a 8.720370
_cell_length_b 18.632591
_cell_length_c 28.299908
_cell_angle_alpha 90.000000
_cell_angle_beta 133.593335
_cell_angle_gamma 90.000000
_cell_volume 3330.296772
_symmetry_space_group_name_H-M "C 2/M"
_symmetry_group_IT_number 12
_symmetry_cell_setting 'monoclinic'
loop_
_space_group_symop_operation_xyz
x,y,z
-x,y,-z
-x,-y,-z
x,-y,z
1/2+x,1/2+y,z
1/2-x,1/2+y,-z
1/2-x,1/2-y,-z
1/2+x,1/2-y,z
loop_
_atom_site_type_symbol
_atom_site_label
_atom_site_fract_x
_atom_site_fract_y
_atom_site_fract_z
Si Si1 0.578064 0.689187 0.624254
Si Si2 0.754789 0.700149 0.858062
Si Si3 0.541348 0.332063 0.952497
Si Si4 0.776705 0.585337 0.478365
Si Si5 0.241671 0.187418 0.558815
Si Si6 0.639395 0.795456 0.225017
Si Si7 0.546747 0.083602 0.942435
Si Si8 0.345048 0.079221 0.146981
O O1 0.418610 0.621395 0.591501
O O2 0.416652 0.755062 0.581867
O O3 0.738593 0.676057 0.614696
O O4 0.703525 0.709447 0.698106
O O5 0.525773 0.731549 0.821248
O O6 0.745938 0.690235 0.799916
O O7 0.940183 0.759090 0.909530
O O8 0.825620 0.626321 0.897585
O O9 0.395035 0.395506 0.901755
O O10 0.500000 0.324284 0.000000
O O11 0.778245 0.362774 0.997800
O O12 0.752782 0.500000 0.476018
O O13 0.769412 0.620490 0.529243
O O14 0.000000 0.601293 0.500000
O O15 0.000000 0.213558 0.500000
O O16 0.488309 0.863002 0.203014
O O17 0.600631 0.081932 0.897610
O O18 0.550295 0.000000 0.958505
O O19 0.379735 0.000000 0.172109
#
# Coordination Sequence:
#
# PCOD9192687 Si02
#       8
#     8   8   8   8   8   8   8   8
#     4  11  20  34  56  80 107 145 189 225 259 316
#     4  10  20  34  50  72 104 135 170 220 266 312
#     4   9  16  28  50  74  95 127 170 219 272 320
#     4  10  21  37  57  84 117 145 171 214 271 319
#     4  10  20  34  56  82 110 141 178 226 270 307
#     4  10  21  34  52  75 101 140 177 210 255 306
#     4   9  16  27  47  72  95 126 168 213 265 321
#     4   8  15  28  45  69  99 126 163 216 263 304
#
# _framework density 19.217507000000001
#
# number of rings (size 3 to 8) (size 9 to 14) (size 15 to 20)
#    0.000    2.375    0.000    4.875    0.000    4.250 
#    0.000    0.000    0.000    7.125    0.000    0.000 
#    0.000    0.000    0.000    0.000    0.000    0.000 
#
# Total GULP energy -178291.503535 kJ/mol
# GULP energy per Si atom -5571.609485 kJ/mol
# Density = 1.917377 g / cm^3
# Si number density = 19.217507 Si / 1000 Ang^3
#
#
#
# Elastic Constant Matrix: (Units=GPa)
#
#
# Indices 1 2 3 4 5 6 
#
# 1 75.7913 20.5893 31.4165 0.0001 -3.8122 0.0000
# 2 20.5893 70.7673 27.5513 0.0000 9.6810 0.0000
# 3 31.4165 27.5513 80.1655 0.0001 -3.8984 0.0001
# 4 0.0001 0.0000 0.0001 -61.4572 0.0000 -20.5254
# 5 -3.8122 9.6810 -3.8984 0.0000 21.1293 0.0000
# 6 0.0000 0.0000 0.0001 -20.5254 0.0000 12.6821
#
#
#
# Elastic Compliance Matrix: (Units=1/GPa)
#
#
# Indices 1 2 3 4 5 6 
#
# 1 0.016379 -0.003245 -0.005134 0.000000 0.003495 0.000000
# 2 -0.003245 0.018661 -0.005637 0.000000 -0.010176 0.000000
# 3 -0.005134 -0.005637 0.016653 0.000000 0.004729 0.000000
# 4 0.000000 0.000000 0.000000 -0.010562 0.000000 -0.017095
# 5 0.003495 -0.010176 0.004729 0.000000 0.053493 0.000000
# 6 0.000000 0.000000 0.000000 -0.017095 0.000000 0.051185
#
#
# Mechanical properties :
#
#
# Convention : Reuss Voigt Hill
#
# Bulk Modulus (GPa) = 42.25964 42.87093 42.56528
# Shear Modulus (GPa) = 27.51361 4.28196 15.89779
#
# Velocity S-wave (km/s) = 3.78788 1.49432 2.87933
# Velocity P-wave (km/s) = 6.41628 5.03329 5.76640
#
# Compressibility (1/GPa) = 0.02366324
#
# Stress axis : x y z
#
# Youngs Moduli (GPa) = 61.05210 53.58647 60.04791
#
# Poissons Ratio (x) = 0.17388 0.30828
# Poissons Ratio (y) = 0.19810 0.33848
# Poissons Ratio (z) = 0.31344 0.30205
#
# Static dielectric constant tensor:
#      x y z
#    x 1.689390 0.000000 -0.010820 
#    y 0.000000 1.675050 0.000000 
#    z -0.010820 0.000000 1.681530 
# 
# From -- ./inp_files/300811.got.cif
#   From: 2010.05.17/outbox.cif.g08.bks.cpg/sg12_151_cif.got.tgz:300811.got - 2010.06.03 13:09:07.
