data_PCOD9192868
_publ_section_title
;
Structure prediction by ZEFSAII (Michael W. Deem and Ramdas Pophale) SiO2 
 PCOD9192868
Probable space group: C 2/M
;
_chemical_formula_sum "Si O2"
_cell_formula_units_Z 56
_cell_length_a 22.429169
_cell_length_b 8.200764
_cell_length_c 14.985674
_cell_angle_alpha 90.000000
_cell_angle_beta 78.701042
_cell_angle_gamma 90.000000
_cell_volume 2702.985631
_symmetry_space_group_name_H-M "C 2/M"
_symmetry_group_IT_number 12
_symmetry_cell_setting 'monoclinic'
loop_
_space_group_symop_operation_xyz
x,y,z
-x,y,-z
-x,-y,-z
x,-y,z
1/2+x,1/2+y,z
1/2-x,1/2+y,-z
1/2-x,1/2-y,-z
1/2+x,1/2-y,z
loop_
_atom_site_type_symbol
_atom_site_label
_atom_site_fract_x
_atom_site_fract_y
_atom_site_fract_z
Si Si1 0.568191 0.690560 0.957072
Si Si2 0.763723 0.195564 0.395425
Si Si3 0.104839 0.195003 0.609532
Si Si4 0.367881 0.802336 0.598877
Si Si5 0.031414 0.691515 0.788674
Si Si6 0.318192 0.193778 0.958664
Si Si7 0.599120 0.800623 0.219527
O O1 0.567330 0.500000 0.979497
O O2 0.571650 0.715964 0.849435
O O3 0.500000 0.759354 0.000000
O O4 0.627534 0.762687 0.988000
O O5 0.750000 0.250000 0.500000
O O6 0.832239 0.252864 0.360919
O O7 0.702736 0.247736 0.363472
O O8 0.765812 0.000000 0.389803
O O9 0.109525 0.237530 0.503247
O O10 0.052560 0.278827 0.681373
O O11 0.099672 0.000000 0.618721
O O12 0.402262 0.747363 0.677418
O O13 0.369939 0.000000 0.592230
O O14 0.033997 0.500000 0.808097
O O15 0.961860 0.750317 0.813263
O O16 0.343224 0.253930 0.855140
O O17 0.315689 0.000000 0.955222
O O18 0.250000 0.250000 0.000000
O O19 0.599157 0.000000 0.221384
#
# Coordination Sequence:
#
# PCOD9192868 Si02
#       7
#     8   8   8   8   8   8   8
#     4  11  23  41  66  93 121 159 204 256 318 377
#     4   8  15  28  49  72 101 140 185 233 288 345
#     4  10  20  34  51  82 119 152 191 247 304 357
#     4   9  17  34  57  79 106 152 199 240 291 358
#     4  11  22  38  60  86 115 157 206 251 299 369
#     4  11  23  42  66  96 130 165 207 260 315 374
#     4   9  20  37  59  84 115 156 203 249 303 364
#
# _framework density 20.717832999999999
#
# number of rings (size 3 to 8) (size 9 to 14) (size 15 to 20)
#    0.000    2.143    1.429    1.714    0.000    2.857 
#    0.000    8.571    0.000    0.000    0.000    0.000 
#    0.000    0.000    0.000    0.000    0.000    0.000 
#
# Total GULP energy -156051.322791 kJ/mol
# GULP energy per Si atom -5573.261528 kJ/mol
# Density = 2.067068 g / cm^3
# Si number density = 20.717833 Si / 1000 Ang^3
#
#
#
# Elastic Constant Matrix: (Units=GPa)
#
#
# Indices 1 2 3 4 5 6 
#
# 1 107.6542 13.5454 40.1561 0.0000 -7.8500 0.0000
# 2 13.5454 28.4594 3.6659 0.0000 -1.7784 0.0000
# 3 40.1561 3.6659 93.7726 0.0000 2.0393 0.0000
# 4 0.0000 0.0000 0.0000 18.4525 0.0000 -2.6030
# 5 -7.8500 -1.7784 2.0393 0.0000 37.2684 0.0000
# 6 0.0000 0.0000 0.0000 -2.6030 0.0000 22.8381
#
#
#
# Elastic Compliance Matrix: (Units=1/GPa)
#
#
# Indices 1 2 3 4 5 6 
#
# 1 0.011948 -0.004885 -0.004981 0.000000 0.002556 0.000000
# 2 -0.004885 0.037429 0.000613 0.000000 0.000723 0.000000
# 3 -0.004981 0.000613 0.012811 0.000000 -0.001721 0.000000
# 4 0.000000 0.000000 0.000000 0.055079 0.000000 0.006278
# 5 0.002556 0.000723 -0.001721 0.000000 0.027499 0.000000
# 6 0.000000 0.000000 0.000000 0.006278 0.000000 0.044502
#
#
# Mechanical properties :
#
#
# Convention : Reuss Voigt Hill
#
# Bulk Modulus (GPa) = 22.89320 38.29122 30.59221
# Shear Modulus (GPa) = 22.48853 27.21304 24.85078
#
# Velocity S-wave (km/s) = 3.29822 3.62817 3.46712
# Velocity P-wave (km/s) = 5.05750 6.00615 5.55212
#
# Compressibility (1/GPa) = 0.04368110
#
# Stress axis : x y z
#
# Youngs Moduli (GPa) = 83.69534 26.71707 78.06025
#
# Poissons Ratio (x) = 0.13052 0.38883
# Poissons Ratio (y) = 0.40889 -0.04786
# Poissons Ratio (z) = 0.41690 -0.01638
#
# Static dielectric constant tensor:
#      x y z
#    x 1.808250 0.000000 -0.005050 
#    y 0.000000 1.731060 0.000000 
#    z -0.005050 0.000000 1.734530 
# 
# From -- ./inp_files/230947.got.cif
#   From: 2010.05.17/outbox.cif.g08.bks.cpg/sg12_116_cif.got.tgz:230947.got - 2010.06.03 13:09:07.
