data_PCOD9192845
_publ_section_title
;
Structure prediction by ZEFSAII (Michael W. Deem and Ramdas Pophale) SiO2 
 PCOD9192845
Probable space group: C 2/M
;
_chemical_formula_sum "Si O2"
_cell_formula_units_Z 48
_cell_length_a 24.197508
_cell_length_b 7.396781
_cell_length_c 12.639223
_cell_angle_alpha 90.000000
_cell_angle_beta 112.959407
_cell_angle_gamma 90.000000
_cell_volume 2083.005130
_symmetry_space_group_name_H-M "C 2/M"
_symmetry_group_IT_number 12
_symmetry_cell_setting 'monoclinic'
loop_
_space_group_symop_operation_xyz
x,y,z
-x,y,-z
-x,-y,-z
x,-y,z
1/2+x,1/2+y,z
1/2-x,1/2+y,-z
1/2-x,1/2-y,-z
1/2+x,1/2-y,z
loop_
_atom_site_type_symbol
_atom_site_label
_atom_site_fract_x
_atom_site_fract_y
_atom_site_fract_z
Si Si1 0.924997 0.279615 0.761656
Si Si2 0.246301 0.714314 0.122136
Si Si3 0.552330 0.778658 0.776327
Si Si4 0.137534 0.706282 0.659487
Si Si5 0.111580 0.279579 0.040927
Si Si6 0.820039 0.716610 0.533925
O O1 0.925460 0.500000 0.763298
O O2 0.926172 0.223204 0.885012
O O3 0.863815 0.219945 0.659799
O O4 0.983521 0.224141 0.740121
O O5 0.249966 0.500000 0.143175
O O6 0.302005 0.797287 0.225229
O O7 0.180520 0.776617 0.108451
O O8 0.250000 0.750000 0.000000
O O9 0.586305 0.713517 0.696860
O O10 0.554560 0.000000 0.776173
O O11 0.587137 0.721120 0.908943
O O12 0.118252 0.500000 0.623464
O O13 0.155592 0.787811 0.560309
O O14 0.111097 0.500000 0.037673
O O15 0.825560 0.500000 0.535011
O O16 0.750000 0.750000 0.500000
#
# Coordination Sequence:
#
# PCOD9192845 Si02
#       6
#     8   8   8   8   8   8
#     4   9  17  29  48  75 102 134 174 212 258 307
#     4  11  20  32  52  78 108 138 172 213 257 309
#     4   9  16  28  47  73 105 134 167 215 263 307
#     4  10  20  34  51  76 108 137 170 215 266 310
#     4   9  16  27  46  73 104 133 165 211 259 303
#     4  10  21  36  54  76 104 137 175 218 260 311
#
# _framework density 23.043631000000001
#
# number of rings (size 3 to 8) (size 9 to 14) (size 15 to 20)
#    0.000    2.333    1.667    2.000    0.000    4.667 
#    0.000    3.333    0.000    1.000    0.000    3.500 
#    0.000    0.000    0.000    0.000    0.000    0.000 
#
# Total GULP energy -134118.087750 kJ/mol
# GULP energy per Si atom -5588.253656 kJ/mol
# Density = 2.299118 g / cm^3
# Si number density = 23.043631 Si / 1000 Ang^3
#
#
#
# Elastic Constant Matrix: (Units=GPa)
#
#
# Indices 1 2 3 4 5 6 
#
# 1 175.7718 3.1438 51.4364 0.0000 -24.6134 0.0000
# 2 3.1438 81.0649 -2.1604 0.0000 -3.9865 0.0000
# 3 51.4364 -2.1604 85.7020 0.0000 -34.5964 0.0000
# 4 0.0000 0.0000 0.0000 2.5873 0.0000 7.6222
# 5 -24.6134 -3.9865 -34.5964 0.0000 39.9704 0.0000
# 6 0.0000 0.0000 0.0000 7.6222 0.0000 9.5787
#
#
#
# Elastic Compliance Matrix: (Units=1/GPa)
#
#
# Indices 1 2 3 4 5 6 
#
# 1 0.006937 -0.000322 -0.003781 0.000000 0.000967 0.000000
# 2 -0.000322 0.012499 0.001432 0.000000 0.002288 0.000000
# 3 -0.003781 0.001432 0.020122 0.000000 0.015231 0.000000
# 4 0.000000 0.000000 0.000000 -0.287517 0.000000 0.228790
# 5 0.000967 0.002288 0.015231 0.000000 0.039025 0.000000
# 6 0.000000 0.000000 0.000000 0.228790 0.000000 -0.077660
#
#
# Mechanical properties :
#
#
# Convention : Reuss Voigt Hill
#
# Bulk Modulus (GPa) = 29.22678 49.70870 39.46774
# Shear Modulus (GPa) = -18.52916 29.76853 5.61969
#
# Velocity S-wave (km/s) = -2.83872 3.59811 1.56333
# Velocity P-wave (km/s) = 1.40225 6.23540 4.51921
#
# Compressibility (1/GPa) = 0.03421519
#
# Stress axis : x y z
#
# Youngs Moduli (GPa) = 144.15811 80.00670 49.69562
#
# Poissons Ratio (x) = 0.02578 0.18791
# Poissons Ratio (y) = 0.04645 -0.07116
# Poissons Ratio (z) = 0.54510 -0.11457
#
# Static dielectric constant tensor:
#      x y z
#    x 1.838750 0.000000 -0.016930 
#    y 0.000000 1.941280 0.000000 
#    z -0.016930 0.000000 1.803500 
# 
# From -- ./inp_files/165196.got.cif
#   From: 2010.05.17/outbox.cif.g08.bks.cpg/sg12_83_cif.got.tgz:165196.got - 2010.06.03 13:09:07.
