data_PCOD9192821
_publ_section_title
;
Structure prediction by ZEFSAII (Michael W. Deem and Ramdas Pophale) SiO2 
 PCOD9192821
Probable space group: C 2/M
;
_chemical_formula_sum "Si O2"
_cell_formula_units_Z 40
_cell_length_a 14.708659
_cell_length_b 9.545034
_cell_length_c 14.334379
_cell_angle_alpha 90.000000
_cell_angle_beta 59.828783
_cell_angle_gamma 90.000000
_cell_volume 1739.835544
_symmetry_space_group_name_H-M "C 2/M"
_symmetry_group_IT_number 12
_symmetry_cell_setting 'monoclinic'
loop_
_space_group_symop_operation_xyz
x,y,z
-x,y,-z
-x,-y,-z
x,-y,z
1/2+x,1/2+y,z
1/2-x,1/2+y,-z
1/2-x,1/2-y,-z
1/2+x,1/2-y,z
loop_
_atom_site_type_symbol
_atom_site_label
_atom_site_fract_x
_atom_site_fract_y
_atom_site_fract_z
Si Si1 0.467483 0.157704 0.128246
Si Si2 0.783228 0.157148 0.203959
Si Si3 0.852075 0.164842 0.481137
Si Si4 0.410624 0.333642 0.670596
Si Si5 0.848215 0.152604 0.963524
O O1 0.353080 0.219098 0.212264
O O2 0.480346 0.000000 0.157544
O O3 0.500000 0.147398 0.000000
O O4 0.547974 0.272612 0.124038
O O5 0.670371 0.225335 0.240948
O O6 0.848882 0.137866 0.074860
O O7 0.775428 0.000000 0.250484
O O8 0.750000 0.250000 0.500000
O O9 0.876563 0.181198 0.578979
O O10 0.966555 0.202705 0.378853
O O11 0.834334 0.000000 0.472104
O O12 0.397639 0.500000 0.698482
O O13 0.831897 0.000000 0.930802
O O14 0.750000 0.250000 0.000000
#
# Coordination Sequence:
#
# PCOD9192821 Si02
#       5
#     8   8   8   8   8
#     4   9  17  31  52  73  97 135 175 213 264 317
#     4  10  20  34  53  79 107 137 180 226 266 319
#     4   9  19  37  60  84 111 144 183 225 276 334
#     4   9  19  37  58  81 112 149 183 223 277 336
#     4  10  20  34  51  74 106 142 182 226 270 318
#
# _framework density 22.990677999999999
#
# number of rings (size 3 to 8) (size 9 to 14) (size 15 to 20)
#    0.000    2.600    0.000    3.000    0.000    6.400 
#    3.600    2.000    0.000    0.000    0.000    0.000 
#    0.000    0.000    0.000    0.000    0.000    0.000 
#
# Total GULP energy -111518.665400 kJ/mol
# GULP energy per Si atom -5575.933270 kJ/mol
# Density = 2.293835 g / cm^3
# Si number density = 22.990678 Si / 1000 Ang^3
#
#
#
# Elastic Constant Matrix: (Units=GPa)
#
#
# Indices 1 2 3 4 5 6 
#
# 1 90.9013 52.1995 36.8201 0.0000 -40.4910 0.0000
# 2 52.1995 176.6868 39.2279 0.0000 -47.1920 0.0000
# 3 36.8201 39.2279 101.7632 0.0000 -26.8783 0.0000
# 4 0.0000 0.0000 0.0000 19.7525 0.0000 -14.0036
# 5 -40.4910 -47.1920 -26.8783 0.0000 50.7746 0.0000
# 6 0.0000 0.0000 0.0000 -14.0036 0.0000 35.9943
#
#
#
# Elastic Compliance Matrix: (Units=1/GPa)
#
#
# Indices 1 2 3 4 5 6 
#
# 1 0.018251 -0.001687 -0.002933 0.000000 0.011434 0.000000
# 2 -0.001687 0.007818 -0.000976 0.000000 0.005405 0.000000
# 3 -0.002933 -0.000976 0.012098 0.000000 0.003158 0.000000
# 4 0.000000 0.000000 0.000000 0.069909 0.000000 0.027198
# 5 0.011434 0.005405 0.003158 0.000000 0.035508 0.000000
# 6 0.000000 0.000000 0.000000 0.027198 0.000000 0.038364
#
#
# Mechanical properties :
#
#
# Convention : Reuss Voigt Hill
#
# Bulk Modulus (GPa) = 37.07071 69.53849 53.30460
# Shear Modulus (GPa) = 24.73631 37.37785 31.05708
#
# Velocity S-wave (km/s) = 3.28369 4.03647 3.67939
# Velocity P-wave (km/s) = 5.52595 7.21361 6.42543
#
# Compressibility (1/GPa) = 0.02697548
#
# Stress axis : x y z
#
# Youngs Moduli (GPa) = 54.79219 127.90381 82.65526
#
# Poissons Ratio (x) = 0.21574 0.24246
# Poissons Ratio (y) = 0.09242 0.08067
# Poissons Ratio (z) = 0.16072 0.12483
#
# Static dielectric constant tensor:
#      x y z
#    x 2.020300 0.000000 0.120900 
#    y 0.000000 1.869080 0.000000 
#    z 0.120900 0.000000 1.958390 
# 
# From -- ./inp_files/220270.got.cif
#   From: 2010.05.17/outbox.cif.g08.bks.cpg/sg12_111_cif.got.tgz:220270.got - 2010.06.03 13:09:07.
