data_PCOD9192228
_publ_section_title
;
Structure prediction by ZEFSAII (Michael W. Deem and Ramdas Pophale) SiO2 
 PCOD9192228
Probable space group: C 2/M
;
_chemical_formula_sum "Si O2"
_cell_formula_units_Z 52
_cell_length_a 29.189664
_cell_length_b 21.483653
_cell_length_c 4.965607
_cell_angle_alpha 90.000000
_cell_angle_beta 52.800951
_cell_angle_gamma 90.000000
_cell_volume 2480.373791
_symmetry_space_group_name_H-M "C 2/M"
_symmetry_group_IT_number 12
_symmetry_cell_setting 'monoclinic'
loop_
_space_group_symop_operation_xyz
x,y,z
-x,y,-z
-x,-y,-z
x,-y,z
1/2+x,1/2+y,z
1/2-x,1/2+y,-z
1/2-x,1/2-y,-z
1/2+x,1/2-y,z
loop_
_atom_site_type_symbol
_atom_site_label
_atom_site_fract_x
_atom_site_fract_y
_atom_site_fract_z
Si Si1 0.437685 0.571863 0.740941
Si Si2 0.291245 0.069533 0.575447
Si Si3 0.301356 0.772630 0.022050
Si Si4 0.796184 0.154709 0.332210
Si Si5 0.362159 0.572534 0.521973
Si Si6 0.139824 0.604032 0.176766
Si Si7 0.042955 0.500000 0.595620
O O1 0.500000 0.602431 0.500000
O O2 0.443699 0.500000 0.627947
O O3 0.388134 0.594922 0.714789
O O4 0.416214 0.571046 0.121810
O O5 0.230449 0.103402 0.769357
O O6 0.311923 0.072873 0.806420
O O7 0.282253 0.000000 0.514873
O O8 0.341796 0.095372 0.200268
O O9 0.262810 0.812030 0.364107
O O10 0.327263 0.711775 0.073322
O O11 0.250000 0.750000 0.000000
O O12 0.351125 0.822825 0.769804
O O13 0.822924 0.120963 0.495360
O O14 0.340549 0.500000 0.612963
O O15 0.083473 0.562132 0.436525
O O16 0.000000 0.500000 0.500000
O O17 0.000000 0.500000 0.000000
#
# Coordination Sequence:
#
# PCOD9192228 Si02
#       7
#     8   8   8   8   8   8   4
#     4   9  18  33  53  77 110 150 193 236 287 345
#     4  11  19  34  57  87 128 159 192 239 310 379
#     4  10  21  39  58  85 119 164 208 238 301 384
#     4  10  22  34  54  88 120 159 200 244 295 378
#     4  10  20  33  53  85 119 152 191 246 304 345
#     4  11  22  38  61  89 122 158 203 257 313 375
#     4  12  24  42  66  98 126 160 218 276 329 376
#
# _framework density 20.964580999999999
#
# number of rings (size 3 to 8) (size 9 to 14) (size 15 to 20)
#    0.000    1.692    3.077    1.846    2.154    1.846 
#    0.000    3.077    0.000    0.923    0.000    0.000 
#    0.000    0.000    0.000    0.000    0.000    0.000 
#
# Total GULP energy -144819.267753 kJ/mol
# GULP energy per Si atom -5569.971837 kJ/mol
# Density = 2.091686 g / cm^3
# Si number density = 20.964581 Si / 1000 Ang^3
#
#
#
# Elastic Constant Matrix: (Units=GPa)
#
#
# Indices 1 2 3 4 5 6 
#
# 1 76.2598 12.8053 3.7239 0.0000 -9.8963 0.0000
# 2 12.8053 118.1980 7.9745 0.0000 -18.4356 0.0000
# 3 3.7239 7.9745 53.4319 0.0000 -5.1894 0.0000
# 4 0.0000 0.0000 0.0000 24.3770 0.0000 1.4931
# 5 -9.8963 -18.4356 -5.1894 0.0000 35.8109 0.0000
# 6 0.0000 0.0000 0.0000 1.4931 0.0000 13.6021
#
#
#
# Elastic Compliance Matrix: (Units=1/GPa)
#
#
# Indices 1 2 3 4 5 6 
#
# 1 0.013716 -0.000948 -0.000501 0.000000 0.003230 0.000000
# 2 -0.000948 0.009310 -0.000896 0.000000 0.004401 0.000000
# 3 -0.000501 -0.000896 0.019095 0.000000 0.002167 0.000000
# 4 0.000000 0.000000 0.000000 0.041300 0.000000 -0.004533
# 5 0.003230 0.004401 0.002167 0.000000 0.031397 0.000000
# 6 0.000000 0.000000 0.000000 -0.004533 0.000000 0.074016
#
#
# Mechanical properties :
#
#
# Convention : Reuss Voigt Hill
#
# Bulk Modulus (GPa) = 26.71643 32.98859 29.85251
# Shear Modulus (GPa) = 24.27191 29.65040 26.96115
#
# Velocity S-wave (km/s) = 3.40628 3.76481 3.59002
# Velocity P-wave (km/s) = 5.31428 5.88795 5.60845
#
# Compressibility (1/GPa) = 0.03743015
#
# Stress axis : x y z
#
# Youngs Moduli (GPa) = 72.90825 107.41141 52.37105
#
# Poissons Ratio (x) = 0.10187 0.02622
# Poissons Ratio (y) = 0.06915 0.04692
# Poissons Ratio (z) = 0.03651 0.09624
#
# Static dielectric constant tensor:
#      x y z
#    x 1.764350 0.000000 0.001670 
#    y 0.000000 1.890240 0.000000 
#    z 0.001670 0.000000 1.860670 
# 
# From -- ./inp_files/32309.got.cif
#   From: 2010.05.17/outbox.cif.g08.bks.cpg/sg12_17_cif.got.tgz:32309.got - 2010.06.03 13:09:07.
