data_PCOD9192446
_publ_section_title
;
Structure prediction by ZEFSAII (Michael W. Deem and Ramdas Pophale) SiO2 
 PCOD9192446
Probable space group: C 2/M
;
_chemical_formula_sum "Si O2"
_cell_formula_units_Z 56
_cell_length_a 22.899567
_cell_length_b 14.405032
_cell_length_c 12.992656
_cell_angle_alpha 90.000000
_cell_angle_beta 141.446773
_cell_angle_gamma 90.000000
_cell_volume 2671.134351
_symmetry_space_group_name_H-M "C 2/M"
_symmetry_group_IT_number 12
_symmetry_cell_setting 'monoclinic'
loop_
_space_group_symop_operation_xyz
x,y,z
-x,y,-z
-x,-y,-z
x,-y,z
1/2+x,1/2+y,z
1/2-x,1/2+y,-z
1/2-x,1/2-y,-z
1/2+x,1/2-y,z
loop_
_atom_site_type_symbol
_atom_site_label
_atom_site_fract_x
_atom_site_fract_y
_atom_site_fract_z
Si Si1 0.225232 0.105228 0.474762
Si Si2 0.611798 0.100208 0.159678
Si Si3 0.180807 0.205793 0.206575
Si Si4 0.417470 0.389350 0.532907
Si Si5 0.327311 0.257305 0.254979
Si Si6 0.087245 0.104734 0.902972
Si Si7 0.281683 0.108829 0.043512
O O1 0.335135 0.108974 0.657086
O O2 0.194602 0.173014 0.341967
O O3 0.167122 0.120607 0.500317
O O4 0.204531 0.000000 0.411908
O O5 0.647532 0.189282 0.151802
O O6 0.643836 0.000000 0.162205
O O7 0.500000 0.101070 0.000000
O O8 0.278622 0.201348 0.281248
O O9 0.104699 0.149108 0.037160
O O10 0.424855 0.500000 0.517303
O O11 0.399270 0.326967 0.408180
O O12 0.509268 0.354772 0.720090
O O13 0.251965 0.327858 0.098353
O O14 0.350691 0.177180 0.203511
O O15 0.186226 0.104775 0.980177
O O16 0.055347 0.000000 0.876104
O O17 0.308679 0.000000 0.061763
#
# Coordination Sequence:
#
# PCOD9192446 Si02
#       7
#     8   8   8   8   8   8   8
#     4  10  21  36  54  80 112 146 183 224 271 323
#     4  10  22  36  50  71 103 145 189 226 261 304
#     4  11  21  34  57  77 108 146 183 228 268 321
#     4  10  20  34  54  82 115 144 178 221 267 329
#     4  10  20  33  56  82 104 143 184 219 275 330
#     4   9  20  35  53  84 114 140 175 222 281 331
#     4   9  19  37  56  80 110 138 178 229 278 329
#
# _framework density 20.964874999999999
#
# number of rings (size 3 to 8) (size 9 to 14) (size 15 to 20)
#    0.000    2.143    1.429    1.286    2.000    1.714 
#    0.000    4.286    0.000    0.857    0.000    9.000 
#    0.000    0.000    0.000    0.000    0.000    0.000 
#
# Total GULP energy -156031.783496 kJ/mol
# GULP energy per Si atom -5572.563696 kJ/mol
# Density = 2.091716 g / cm^3
# Si number density = 20.964875 Si / 1000 Ang^3
#
#
#
# Elastic Constant Matrix: (Units=GPa)
#
#
# Indices 1 2 3 4 5 6 
#
# 1 29.3563 15.1769 19.7386 0.0000 -4.4803 0.0000
# 2 15.1769 111.1584 52.6560 0.0000 -12.2866 0.0000
# 3 19.7386 52.6560 134.3203 0.0000 -1.0817 0.0000
# 4 0.0000 0.0000 0.0000 39.6128 0.0000 -7.0944
# 5 -4.4803 -12.2866 -1.0817 0.0000 23.0556 0.0000
# 6 0.0000 0.0000 0.0000 -7.0944 0.0000 10.2820
#
#
#
# Elastic Compliance Matrix: (Units=1/GPa)
#
#
# Indices 1 2 3 4 5 6 
#
# 1 0.039489 -0.002440 -0.004797 0.000000 0.006149 0.000000
# 2 -0.002440 0.011998 -0.004299 0.000000 0.005718 0.000000
# 3 -0.004797 -0.004299 0.009813 0.000000 -0.002763 0.000000
# 4 0.000000 0.000000 0.000000 0.028804 0.000000 0.019874
# 5 0.006149 0.005718 -0.002763 0.000000 0.047486 0.000000
# 6 0.000000 0.000000 0.000000 0.019874 0.000000 0.110970
#
#
# Mechanical properties :
#
#
# Convention : Reuss Voigt Hill
#
# Bulk Modulus (GPa) = 26.15830 49.99755 38.07792
# Shear Modulus (GPa) = 17.58258 27.07434 22.32846
#
# Velocity S-wave (km/s) = 2.89912 3.59752 3.26704
# Velocity P-wave (km/s) = 4.86937 6.41531 5.69504
#
# Compressibility (1/GPa) = 0.03822879
#
# Stress axis : x y z
#
# Youngs Moduli (GPa) = 25.32328 83.35018 101.90808
#
# Poissons Ratio (x) = 0.20334 0.48887
# Poissons Ratio (y) = 0.06178 0.43807
# Poissons Ratio (z) = 0.12148 0.35830
#
# Static dielectric constant tensor:
#      x y z
#    x 1.779070 0.000000 0.020830 
#    y 0.000000 1.792090 0.000000 
#    z 0.020830 0.000000 1.780530 
# 
# From -- ./inp_files/183559.got.cif
#   From: 2010.05.17/outbox.cif.g08.bks.cpg/sg12_92_cif.got.tgz:183559.got - 2010.06.03 13:09:07.
