data_PCOD9192910
_publ_section_title
;
Structure prediction by ZEFSAII (Michael W. Deem and Ramdas Pophale) SiO2 
 PCOD9192910
Probable space group: C 2/M
;
_chemical_formula_sum "Si O2"
_cell_formula_units_Z 64
_cell_length_a 21.260664
_cell_length_b 7.416389
_cell_length_c 16.031299
_cell_angle_alpha 90.000000
_cell_angle_beta 95.330813
_cell_angle_gamma 90.000000
_cell_volume 2516.839893
_symmetry_space_group_name_H-M "C 2/M"
_symmetry_group_IT_number 12
_symmetry_cell_setting 'monoclinic'
loop_
_space_group_symop_operation_xyz
x,y,z
-x,y,-z
-x,-y,-z
x,-y,z
1/2+x,1/2+y,z
1/2-x,1/2+y,-z
1/2-x,1/2-y,-z
1/2+x,1/2-y,z
loop_
_atom_site_type_symbol
_atom_site_label
_atom_site_fract_x
_atom_site_fract_y
_atom_site_fract_z
Si Si1 0.204468 0.792280 0.870740
Si Si2 0.929003 0.291987 0.222442
Si Si3 0.883459 0.779250 0.701840
Si Si4 0.948170 0.208358 0.550190
Si Si5 0.743695 0.715195 0.400258
Si Si6 0.622543 0.218435 0.616650
Si Si7 0.163286 0.719951 0.054447
Si Si8 0.956748 0.296549 0.872693
O O1 0.143857 0.708930 0.817072
O O2 0.277401 0.721609 0.878491
O O3 0.206871 0.000000 0.845253
O O4 0.184015 0.779353 0.965213
O O5 0.948895 0.500000 0.232896
O O6 0.923852 0.215474 0.315975
O O7 0.979745 0.214489 0.161961
O O8 0.932670 0.717678 0.637328
O O9 0.817561 0.717536 0.655188
O O10 0.906444 0.701865 0.790796
O O11 0.884213 0.000000 0.707554
O O12 0.890703 0.214513 0.478361
O O13 0.000000 0.301543 0.500000
O O14 0.965182 0.000000 0.565525
O O15 0.740701 0.500000 0.393242
O O16 0.750000 0.750000 0.500000
O O17 0.805932 0.776324 0.359495
O O18 0.619845 0.000000 0.615589
O O19 0.162340 0.500000 0.056156
O O20 0.091211 0.782986 0.064030
O O21 0.973400 0.500000 0.901841
#
# Coordination Sequence:
#
# PCOD9192910 Si02
#       8
#     8   8   8   8   8   8   8   8
#     4  10  21  38  62  90 115 145 185 225 271 330
#     4  10  22  39  58  83 116 151 185 228 279 330
#     4  10  21  35  52  78 111 144 181 230 284 329
#     4  10  20  34  52  73 102 143 185 226 277 329
#     4  10  20  35  53  77 105 140 186 232 281 334
#     4  10  21  35  53  78 107 142 186 229 273 328
#     4   9  20  40  62  86 116 148 183 225 273 327
#     4  10  22  39  59  84 113 148 190 228 272 332
#
# _framework density 25.428712999999998
#
# number of rings (size 3 to 8) (size 9 to 14) (size 15 to 20)
#    0.000    2.125    1.250    1.125    1.750    3.750 
#    0.000    2.500    0.000    0.000    0.000    0.000 
#    0.000    0.000    0.000    0.000    0.000    0.000 
#
# Total GULP energy -178602.509675 kJ/mol
# GULP energy per Si atom -5581.328427 kJ/mol
# Density = 2.537084 g / cm^3
# Si number density = 25.428713 Si / 1000 Ang^3
#
#
#
# Elastic Constant Matrix: (Units=GPa)
#
#
# Indices 1 2 3 4 5 6 
#
# 1 110.3968 5.2647 1.2340 0.0000 -17.4144 0.0000
# 2 5.2647 98.9399 -4.5782 0.0000 -1.6345 0.0000
# 3 1.2340 -4.5782 58.8522 0.0000 -4.2785 0.0000
# 4 0.0000 0.0000 0.0000 -14.8603 0.0000 22.9756
# 5 -17.4144 -1.6345 -4.2785 0.0000 47.2158 0.0000
# 6 0.0000 0.0000 0.0000 22.9756 0.0000 2.8767
#
#
#
# Elastic Compliance Matrix: (Units=1/GPa)
#
#
# Indices 1 2 3 4 5 6 
#
# 1 0.009638 -0.000453 0.000020 0.000000 0.003541 0.000000
# 2 -0.000453 0.010173 0.000820 0.000000 0.000259 0.000000
# 3 0.000020 0.000820 0.017171 0.000000 0.001592 0.000000
# 4 0.000000 0.000000 0.000000 -0.005041 0.000000 0.040264
# 5 0.003541 0.000259 0.001592 0.000000 0.022639 0.000000
# 6 0.000000 0.000000 0.000000 0.040264 0.000000 0.026042
#
#
# Mechanical properties :
#
#
# Convention : Reuss Voigt Hill
#
# Bulk Modulus (GPa) = 26.48637 30.22553 28.35595
# Shear Modulus (GPa) = 54.09269 24.79768 39.44518
#
# Velocity S-wave (km/s) = 4.61719 3.12618 3.94281
# Velocity P-wave (km/s) = 6.23403 4.99428 5.64828
#
# Compressibility (1/GPa) = 0.03775526
#
# Stress axis : x y z
#
# Youngs Moduli (GPa) = 103.75395 98.29466 58.23843
#
# Poissons Ratio (x) = 0.04457 -0.00117
# Poissons Ratio (y) = 0.04705 -0.04774
# Poissons Ratio (z) = -0.00208 -0.08058
#
# Static dielectric constant tensor:
#      x y z
#    x 2.168210 0.000000 0.029720 
#    y 0.000000 1.995310 0.000000 
#    z 0.029720 0.000000 2.016210 
# 
# From -- ./inp_files/281399.got.cif
#   From: 2010.05.17/outbox.cif.g08.bks.cpg/sg12_141_cif.got.tgz:281399.got - 2010.06.03 13:09:07.
