data_PCOD9192828
_publ_section_title
;
Structure prediction by ZEFSAII (Michael W. Deem and Ramdas Pophale) SiO2 
 PCOD9192828
Probable space group: C 2/M
;
_chemical_formula_sum "Si O2"
_cell_formula_units_Z 44
_cell_length_a 9.366759
_cell_length_b 25.210530
_cell_length_c 12.424947
_cell_angle_alpha 90.000000
_cell_angle_beta 120.579650
_cell_angle_gamma 90.000000
_cell_volume 2525.980898
_symmetry_space_group_name_H-M "C 2/M"
_symmetry_group_IT_number 12
_symmetry_cell_setting 'monoclinic'
loop_
_space_group_symop_operation_xyz
x,y,z
-x,y,-z
-x,-y,-z
x,-y,z
1/2+x,1/2+y,z
1/2-x,1/2+y,-z
1/2-x,1/2-y,-z
1/2+x,1/2-y,z
loop_
_atom_site_type_symbol
_atom_site_label
_atom_site_fract_x
_atom_site_fract_y
_atom_site_fract_z
Si Si1 0.143275 0.500000 0.142154
Si Si2 0.966616 0.700600 0.663881
Si Si3 0.779545 0.803431 0.639073
Si Si4 0.577713 0.916398 0.301663
Si Si5 0.376062 0.000000 0.349312
Si Si6 0.901041 0.103049 0.560354
Si Si7 0.998016 0.000000 0.708529
O O1 0.121492 0.449254 0.212381
O O2 0.327832 0.500000 0.162529
O O3 0.000000 0.500000 0.000000
O O4 0.908243 0.755081 0.695220
O O5 0.839488 0.698540 0.513004
O O6 0.947994 0.646371 0.723458
O O7 0.151333 0.700051 0.687351
O O8 0.872899 0.858286 0.650081
O O9 0.728531 0.917782 0.445363
O O10 0.426882 0.947742 0.300779
O O11 0.500000 0.000000 0.500000
O O12 0.181770 0.000000 0.303443
O O13 0.000000 0.130908 0.500000
O O14 0.000208 0.051905 0.635270
#
# Coordination Sequence:
#
# PCOD9192828 Si02
#       7
#     4   8   8   8   4   8   4
#     4  11  24  40  54  74 101 143 191 230 262 303
#     4   9  18  30  43  69 105 144 170 199 254 310
#     4   9  19  27  44  71 109 141 168 200 248 326
#     4  10  20  34  51  74 109 140 169 217 269 318
#     4  11  19  29  50  80 108 135 167 208 269 337
#     4  11  19  28  49  78 110 134 175 210 266 324
#     4  12  20  32  52  79 103 136 172 220 267 324
#
# _framework density 17.418977000000002
#
# number of rings (size 3 to 8) (size 9 to 14) (size 15 to 20)
#    0.000    1.818    3.636    1.909   10.182    0.000 
#    0.000    1.818    0.000    0.000    0.000    5.091 
#    0.000    0.000    0.000    0.000    0.000    0.000 
#
# Total GULP energy -122556.156487 kJ/mol
# GULP energy per Si atom -5570.734386 kJ/mol
# Density = 1.737933 g / cm^3
# Si number density = 17.418977 Si / 1000 Ang^3
#
#
#
# Elastic Constant Matrix: (Units=GPa)
#
#
# Indices 1 2 3 4 5 6 
#
# 1 120.6088 47.4364 26.5257 0.0000 15.6633 0.0000
# 2 47.4364 135.2315 30.5712 0.0000 1.6572 0.0000
# 3 26.5257 30.5712 43.7471 0.0000 14.3391 0.0000
# 4 0.0000 0.0000 0.0000 4.7569 0.0000 0.7085
# 5 15.6633 1.6572 14.3391 0.0000 13.4303 0.0000
# 6 0.0000 0.0000 0.0000 0.7085 0.0000 18.1360
#
#
#
# Elastic Compliance Matrix: (Units=1/GPa)
#
#
# Indices 1 2 3 4 5 6 
#
# 1 0.011493 -0.003863 -0.000050 0.000000 -0.012875 0.000000
# 2 -0.003863 0.010745 -0.009551 0.000000 0.013376 0.000000
# 3 -0.000050 -0.009551 0.044855 0.000000 -0.046654 0.000000
# 4 0.000000 0.000000 0.000000 0.211449 0.000000 -0.008260
# 5 -0.012875 0.013376 -0.046654 0.000000 0.137635 0.000000
# 6 0.000000 0.000000 0.000000 -0.008260 0.000000 0.055462
#
#
# Mechanical properties :
#
#
# Convention : Reuss Voigt Hill
#
# Bulk Modulus (GPa) = 24.89626 56.51711 40.70669
# Shear Modulus (GPa) = 9.76649 20.26824 15.01737
#
# Velocity S-wave (km/s) = 2.37044 3.41482 2.93938
# Velocity P-wave (km/s) = 4.67072 6.93283 5.91100
#
# Compressibility (1/GPa) = 0.04016667
#
# Stress axis : x y z
#
# Youngs Moduli (GPa) = 87.00619 93.06745 22.29403
#
# Poissons Ratio (x) = 0.35949 0.00111
# Poissons Ratio (y) = 0.33607 0.21293
# Poissons Ratio (z) = 0.00432 0.88889
#
# Static dielectric constant tensor:
#      x y z
#    x 1.648440 0.000000 0.004040 
#    y 0.000000 1.631070 0.000000 
#    z 0.004040 0.000000 1.541980 
# 
# From -- ./inp_files/199180.got.cif
#   From: 2010.05.17/outbox.cif.g08.bks.cpg/sg12_100_cif.got.tgz:199180.got - 2010.06.03 13:09:07.
