data_PCOD9192285
_publ_section_title
;
Structure prediction by ZEFSAII (Michael W. Deem and Ramdas Pophale) SiO2 
 PCOD9192285
Probable space group: C 2/M
;
_chemical_formula_sum "Si O2"
_cell_formula_units_Z 64
_cell_length_a 26.568761
_cell_length_b 14.223908
_cell_length_c 10.148803
_cell_angle_alpha 90.000000
_cell_angle_beta 114.118648
_cell_angle_gamma 90.000000
_cell_volume 3500.529121
_symmetry_space_group_name_H-M "C 2/M"
_symmetry_group_IT_number 12
_symmetry_cell_setting 'monoclinic'
loop_
_space_group_symop_operation_xyz
x,y,z
-x,y,-z
-x,-y,-z
x,-y,z
1/2+x,1/2+y,z
1/2-x,1/2+y,-z
1/2-x,1/2-y,-z
1/2+x,1/2-y,z
loop_
_atom_site_type_symbol
_atom_site_label
_atom_site_fract_x
_atom_site_fract_y
_atom_site_fract_z
Si Si1 0.335737 0.757773 0.675554
Si Si2 0.681939 0.245454 0.644535
Si Si3 0.561001 0.827793 0.564586
Si Si4 0.060606 0.611044 0.863751
Si Si5 0.718478 0.390168 0.903342
Si Si6 0.784486 0.887545 0.801733
Si Si7 0.061560 0.391780 0.276292
Si Si8 0.327760 0.889298 0.890247
O O1 0.312735 0.737549 0.506151
O O2 0.327875 0.662670 0.750789
O O3 0.393212 0.814319 0.714393
O O4 0.306046 0.833133 0.740293
O O5 0.617236 0.227473 0.600659
O O6 0.696147 0.326766 0.762674
O O7 0.723944 0.158519 0.714814
O O8 0.500000 0.779747 0.500000
O O9 0.567717 0.872613 0.715597
O O10 0.558485 0.893914 0.432799
O O11 0.061278 0.500000 0.886699
O O12 0.998884 0.640816 0.835342
O O13 0.112743 0.648562 0.000318
O O14 0.706023 0.500000 0.867567
O O15 0.784760 0.379121 0.963324
O O16 0.699988 0.364803 0.030191
O O17 0.782275 0.000000 0.783891
O O18 0.072792 0.500000 0.243967
O O19 0.330540 0.000000 0.863046
#
# Coordination Sequence:
#
# PCOD9192285 Si02
#       8
#     8   8   8   8   8   8   8   8
#     4  11  23  36  52  82 115 153 188 223 269 324
#     4  11  22  38  59  83 115 148 186 225 275 336
#     4   9  18  31  53  83 114 148 187 228 274 323
#     4   9  17  30  51  82 114 152 188 221 274 331
#     4  10  22  39  60  85 110 141 185 234 280 327
#     4  11  24  39  57  83 113 147 187 233 277 326
#     4   9  18  33  52  79 119 154 187 224 269 334
#     4  10  20  33  54  82 116 148 182 224 271 331
#
# _framework density 18.28295
#
# number of rings (size 3 to 8) (size 9 to 14) (size 15 to 20)
#    0.000    2.000    1.250    2.250    1.750    6.500 
#    0.000    1.875    0.000    0.375    0.000    4.375 
#    0.000    0.000    0.000    0.000    0.000    0.000 
#
# Total GULP energy -178206.947237 kJ/mol
# GULP energy per Si atom -5568.967101 kJ/mol
# Density = 1.824134 g / cm^3
# Si number density = 18.282950 Si / 1000 Ang^3
#
#
#
# Elastic Constant Matrix: (Units=GPa)
#
#
# Indices 1 2 3 4 5 6 
#
# 1 99.1921 42.2879 52.8677 0.0000 -3.2554 0.0000
# 2 42.2879 85.1529 56.0637 0.0000 -3.8876 0.0000
# 3 52.8677 56.0637 128.8218 0.0000 -10.8869 0.0000
# 4 0.0000 0.0000 0.0000 16.0137 0.0000 -9.6111
# 5 -3.2554 -3.8876 -10.8869 0.0000 31.5776 0.0000
# 6 0.0000 0.0000 0.0000 -9.6111 0.0000 17.9758
#
#
#
# Elastic Compliance Matrix: (Units=1/GPa)
#
#
# Indices 1 2 3 4 5 6 
#
# 1 0.014016 -0.004442 -0.003855 0.000000 -0.000431 0.000000
# 2 -0.004442 0.017874 -0.005983 0.000000 -0.000320 0.000000
# 3 -0.003855 -0.005983 0.012209 0.000000 0.003075 0.000000
# 4 0.000000 0.000000 0.000000 0.091955 0.000000 0.049166
# 5 -0.000431 -0.000320 0.003075 0.000000 0.032644 0.000000
# 6 0.000000 0.000000 0.000000 0.049166 0.000000 0.081918
#
#
# Mechanical properties :
#
#
# Convention : Reuss Voigt Hill
#
# Bulk Modulus (GPa) = 64.35803 68.40061 66.37932
# Shear Modulus (GPa) = 17.58367 23.90991 20.74679
#
# Velocity S-wave (km/s) = 3.10458 3.62023 3.37228
# Velocity P-wave (km/s) = 6.93749 7.41406 7.17973
#
# Compressibility (1/GPa) = 0.01553808
#
# Stress axis : x y z
#
# Youngs Moduli (GPa) = 71.34829 55.94748 81.90970
#
# Poissons Ratio (x) = 0.24850 0.31579
# Poissons Ratio (y) = 0.31691 0.49006
# Poissons Ratio (z) = 0.27507 0.33473
#
# Static dielectric constant tensor:
#      x y z
#    x 1.735910 0.000000 0.012450 
#    y 0.000000 1.615950 0.000000 
#    z 0.012450 0.000000 1.664660 
# 
# From -- ./inp_files/104690.got.cif
#   From: 2010.05.17/outbox.cif.g08.bks.cpg/sg12_53_cif.got.tgz:104690.got - 2010.06.03 13:09:07.
