data_PCOD9192438
_publ_section_title
;
Structure prediction by ZEFSAII (Michael W. Deem and Ramdas Pophale) SiO2 
 PCOD9192438
Probable space group: C 2/M
;
_chemical_formula_sum "Si O2"
_cell_formula_units_Z 56
_cell_length_a 12.770139
_cell_length_b 23.053954
_cell_length_c 8.923892
_cell_angle_alpha 90.000000
_cell_angle_beta 78.454047
_cell_angle_gamma 90.000000
_cell_volume 2574.050409
_symmetry_space_group_name_H-M "C 2/M"
_symmetry_group_IT_number 12
_symmetry_cell_setting 'monoclinic'
loop_
_space_group_symop_operation_xyz
x,y,z
-x,y,-z
-x,-y,-z
x,-y,z
1/2+x,1/2+y,z
1/2-x,1/2+y,-z
1/2-x,1/2-y,-z
1/2+x,1/2-y,z
loop_
_atom_site_type_symbol
_atom_site_label
_atom_site_fract_x
_atom_site_fract_y
_atom_site_fract_z
Si Si1 0.515048 0.065432 0.819192
Si Si2 0.772998 0.770310 0.237665
Si Si3 0.543436 0.323127 0.656216
Si Si4 0.165820 0.827421 0.094171
Si Si5 0.756330 0.066762 0.777831
Si Si6 0.315462 0.567775 0.427857
Si Si7 0.108801 0.364068 0.373415
O O1 0.636953 0.084928 0.764668
O O2 0.430850 0.107940 0.770041
O O3 0.503723 0.000000 0.758538
O O4 0.500000 0.062632 0.000000
O O5 0.864416 0.776307 0.335156
O O6 0.743180 0.707305 0.186794
O O7 0.668299 0.803674 0.326445
O O8 0.814971 0.804210 0.077324
O O9 0.500000 0.317693 0.500000
O O10 0.451177 0.316818 0.805704
O O11 0.598769 0.386442 0.658423
O O12 0.196148 0.894053 0.106289
O O13 0.824394 0.071154 0.606247
O O14 0.748716 0.000000 0.826306
O O15 0.326558 0.500000 0.382157
O O16 0.199179 0.592981 0.415051
O O17 0.000000 0.359748 0.500000
#
# Coordination Sequence:
#
# PCOD9192438 Si02
#       7
#     8   8   8   8   8   8   8
#     4  10  20  33  55  90 128 167 210 259 320 384
#     4  10  26  44  65  94 127 170 216 259 320 388
#     4  11  23  42  66  98 125 166 211 271 314 374
#     4  11  23  46  68  89 130 172 209 264 322 379
#     4  10  20  36  62  94 127 165 211 260 316 379
#     4  10  21  38  61  95 130 167 214 262 319 381
#     4  11  21  38  61  93 127 169 214 270 319 377
#
# _framework density 21.755595
#
# number of rings (size 3 to 8) (size 9 to 14) (size 15 to 20)
#    0.000    1.571    2.857    1.714    0.000    3.714 
#    0.000    4.286    0.000    4.286    0.000    0.000 
#    0.000    0.000    0.000    0.000    0.000    0.000 
#
# Total GULP energy -156567.993015 kJ/mol
# GULP energy per Si atom -5591.714036 kJ/mol
# Density = 2.170608 g / cm^3
# Si number density = 21.755595 Si / 1000 Ang^3
#
#
#
# Elastic Constant Matrix: (Units=GPa)
#
#
# Indices 1 2 3 4 5 6 
#
# 1 99.9575 32.3397 32.5435 0.0000 -0.7373 0.0000
# 2 32.3397 54.0453 20.6369 0.0000 1.7336 0.0000
# 3 32.5435 20.6369 62.4098 0.0000 -8.9066 0.0000
# 4 0.0000 0.0000 0.0000 26.1457 0.0000 0.3166
# 5 -0.7373 1.7336 -8.9066 0.0000 24.7903 0.0000
# 6 0.0000 0.0000 0.0000 0.3166 0.0000 8.0452
#
#
#
# Elastic Compliance Matrix: (Units=1/GPa)
#
#
# Indices 1 2 3 4 5 6 
#
# 1 0.013700 -0.006156 -0.005258 0.000000 -0.001051 0.000000
# 2 -0.006156 0.024369 -0.005394 0.000000 -0.003825 0.000000
# 3 -0.005258 -0.005394 0.021692 0.000000 0.008014 0.000000
# 4 0.000000 0.000000 0.000000 0.038265 0.000000 -0.001506
# 5 -0.001051 -0.003825 0.008014 0.000000 0.043454 0.000000
# 6 0.000000 0.000000 0.000000 -0.001506 0.000000 0.124357
#
#
# Mechanical properties :
#
#
# Convention : Reuss Voigt Hill
#
# Bulk Modulus (GPa) = 38.24836 43.05030 40.64933
# Shear Modulus (GPa) = 16.22482 20.52241 18.37361
#
# Velocity S-wave (km/s) = 2.73385 3.07468 2.90926
# Velocity P-wave (km/s) = 5.25208 5.69526 5.47815
#
# Compressibility (1/GPa) = 0.02614491
#
# Stress axis : x y z
#
# Youngs Moduli (GPa) = 72.99128 41.03555 46.09933
#
# Poissons Ratio (x) = 0.25263 0.24240
# Poissons Ratio (y) = 0.44936 0.24865
# Poissons Ratio (z) = 0.38381 0.22133
#
# Static dielectric constant tensor:
#      x y z
#    x 1.796930 0.000000 -0.015880 
#    y 0.000000 1.776150 0.000000 
#    z -0.015880 0.000000 1.795350 
# 
# From -- ./inp_files/53152.got.cif
#   From: 2010.05.17/outbox.cif.g08.bks.cpg/sg12_27_cif.got.tgz:53152.got - 2010.06.03 13:09:07.
