data_PCOD9192199
_publ_section_title
;
Structure prediction by ZEFSAII (Michael W. Deem and Ramdas Pophale) SiO2 
 PCOD9192199
Probable space group: C 2/M
;
_chemical_formula_sum "Si O2"
_cell_formula_units_Z 58
_cell_length_a 25.417895
_cell_length_b 10.285522
_cell_length_c 12.033662
_cell_angle_alpha 90.000000
_cell_angle_beta 94.501904
_cell_angle_gamma 90.000000
_cell_volume 3136.329904
_symmetry_space_group_name_H-M "C 2/M"
_symmetry_group_IT_number 12
_symmetry_cell_setting 'monoclinic'
loop_
_space_group_symop_operation_xyz
x,y,z
-x,y,-z
-x,-y,-z
x,-y,z
1/2+x,1/2+y,z
1/2-x,1/2+y,-z
1/2-x,1/2-y,-z
1/2+x,1/2-y,z
loop_
_atom_site_type_symbol
_atom_site_label
_atom_site_fract_x
_atom_site_fract_y
_atom_site_fract_z
Si Si1 0.618236 0.350216 0.095673
Si Si2 0.689881 0.148938 0.240897
Si Si3 0.400598 0.344606 0.160250
Si Si4 0.517563 0.235668 0.177492
Si Si5 0.046760 0.656180 0.428818
Si Si6 0.665952 0.848307 0.498447
Si Si7 0.000000 0.500000 0.000000
Si Si8 0.193414 0.153759 0.689532
O O1 0.635092 0.500000 0.110436
O O2 0.654208 0.252198 0.171648
O O3 0.557788 0.335734 0.126410
O O4 0.619502 0.311338 0.966547
O O5 0.682369 0.161225 0.372476
O O6 0.752316 0.167495 0.232803
O O7 0.675006 0.000000 0.208497
O O8 0.406321 0.500000 0.164753
O O9 0.457928 0.283451 0.185333
O O10 0.357049 0.308967 0.244441
O O11 0.541065 0.204916 0.302556
O O12 0.514728 0.113108 0.095111
O O13 0.042875 0.500000 0.422792
O O14 0.103771 0.685474 0.489175
O O15 0.000000 0.705724 0.500000
O O16 0.694599 0.747626 0.583622
O O17 0.673247 0.000000 0.533204
O O18 0.189747 0.000000 0.658220
#
# Coordination Sequence:
#
# PCOD9192199 Si02
#       8
#     8   8   8   8   8   8   2   8
#     4  11  23  38  61  87 119 156 197 239 296 356
#     4  10  22  39  63  86 116 154 198 249 296 349
#     4  10  22  40  59  82 121 159 192 242 300 353
#     4  12  21  38  59  87 122 151 202 238 293 347
#     4  10  20  33  53  82 119 155 185 233 296 349
#     4  10  20  37  58  85 116 153 192 244 300 351
#     4  12  24  32  64  96 116 164 202 250 276 366
#     4  10  22  41  61  86 116 156 199 245 297 351
#
# _framework density 18.492954000000001
#
# number of rings (size 3 to 8) (size 9 to 14) (size 15 to 20)
#    0.000    1.517    3.448    1.655    0.966    2.759 
#    1.241    0.000    0.000    2.897    0.000    0.000 
#    0.000    0.000    0.000    0.000    0.000    0.000 
#
# Total GULP energy -161628.897100 kJ/mol
# GULP energy per Si atom -5573.410245 kJ/mol
# Density = 1.845086 g / cm^3
# Si number density = 18.492954 Si / 1000 Ang^3
#
#
#
# Elastic Constant Matrix: (Units=GPa)
#
#
# Indices 1 2 3 4 5 6 
#
# 1 79.5358 42.4949 13.4445 0.0000 7.4511 0.0000
# 2 42.4949 65.0528 31.7696 0.0000 18.6213 0.0000
# 3 13.4445 31.7696 46.3590 0.0000 6.8879 0.0000
# 4 0.0000 0.0000 0.0000 50.0992 0.0000 17.4225
# 5 7.4511 18.6213 6.8879 0.0000 17.8613 0.0000
# 6 0.0000 0.0000 0.0000 17.4225 0.0000 19.3388
#
#
#
# Elastic Compliance Matrix: (Units=1/GPa)
#
#
# Indices 1 2 3 4 5 6 
#
# 1 0.020908 -0.018919 0.005587 0.000000 0.008847 0.000000
# 2 -0.018919 0.048561 -0.022746 0.000000 -0.033963 0.000000
# 3 0.005587 -0.022746 0.034328 0.000000 0.008145 0.000000
# 4 0.000000 0.000000 0.000000 0.029067 0.000000 -0.026187
# 5 0.008847 -0.033963 0.008145 0.000000 0.084564 0.000000
# 6 0.000000 0.000000 0.000000 -0.026187 0.000000 0.075301
#
#
# Mechanical properties :
#
#
# Convention : Reuss Voigt Hill
#
# Bulk Modulus (GPa) = 31.60402 40.70730 36.15566
# Shear Modulus (GPa) = 13.31803 24.34244 18.83024
#
# Velocity S-wave (km/s) = 2.68651 3.63203 3.19445
# Velocity P-wave (km/s) = 5.17204 6.29675 5.76190
#
# Compressibility (1/GPa) = 0.03164154
#
# Stress axis : x y z
#
# Youngs Moduli (GPa) = 47.82914 20.59271 29.13079
#
# Poissons Ratio (x) = 0.38959 -0.16275
# Poissons Ratio (y) = 0.90487 0.66260
# Poissons Ratio (z) = -0.26722 0.46840
#
# Static dielectric constant tensor:
#      x y z
#    x 1.667170 0.000000 -0.024070 
#    y 0.000000 1.612930 0.000000 
#    z -0.024070 0.000000 1.620700 
# 
# From -- ./inp_files/180949.got.cif
#   From: 2010.05.17/outbox.cif.g08.bks.cpg/sg12_91_cif.got.tgz:180949.got - 2010.06.03 13:09:07.
