data_PCOD9192420
_publ_section_title
;
Structure prediction by ZEFSAII (Michael W. Deem and Ramdas Pophale) SiO2 
 PCOD9192420
Probable space group: C 2/M
;
_chemical_formula_sum "Si O2"
_cell_formula_units_Z 58
_cell_length_a 30.248728
_cell_length_b 7.257838
_cell_length_c 11.586524
_cell_angle_alpha 90.000000
_cell_angle_beta 81.351368
_cell_angle_gamma 90.000000
_cell_volume 2514.785471
_symmetry_space_group_name_H-M "C 2/M"
_symmetry_group_IT_number 12
_symmetry_cell_setting 'monoclinic'
loop_
_space_group_symop_operation_xyz
x,y,z
-x,y,-z
-x,-y,-z
x,-y,z
1/2+x,1/2+y,z
1/2-x,1/2+y,-z
1/2-x,1/2-y,-z
1/2+x,1/2-y,z
loop_
_atom_site_type_symbol
_atom_site_label
_atom_site_fract_x
_atom_site_fract_y
_atom_site_fract_z
Si Si1 0.104727 0.779946 0.273257
Si Si2 0.000000 0.500000 0.500000
Si Si3 0.581366 0.724010 0.532330
Si Si4 0.310416 0.214147 0.916399
Si Si5 0.475921 0.276639 0.833427
Si Si6 0.775580 0.791462 0.175533
Si Si7 0.643173 0.275522 0.725924
Si Si8 0.935402 0.776496 0.094572
O O1 0.109676 0.734539 0.404585
O O2 0.142646 0.725159 0.167763
O O3 0.055616 0.709107 0.255392
O O4 0.103406 0.000000 0.265581
O O5 0.964489 0.338004 0.463516
O O6 0.572476 0.500000 0.541994
O O7 0.614155 0.773182 0.625382
O O8 0.271483 0.290927 0.847587
O O9 0.300177 0.000000 0.939714
O O10 0.304811 0.298520 0.045375
O O11 0.477361 0.500000 0.828011
O O12 0.526691 0.217179 0.829068
O O13 0.451126 0.222663 0.961825
O O14 0.806925 0.710902 0.263443
O O15 0.765010 0.000000 0.216098
O O16 0.645127 0.500000 0.724975
O O17 0.612282 0.215006 0.845113
O O18 0.935414 0.000000 0.093418
#
# Coordination Sequence:
#
# PCOD9192420 Si02
#       8
#     8   2   8   8   8   8   8   8
#     4  10  20  35  56  80 113 153 200 250 291 358
#     4  12  26  44  64  86 126 168 202 272 300 352
#     4  10  24  42  64  91 117 161 216 251 303 364
#     4  10  20  33  55  87 121 154 194 246 307 371
#     4   8  14  24  42  72 103 134 175 225 283 343
#     4   9  18  35  59  86 116 155 198 244 304 369
#     4   9  17  33  57  81 111 149 199 252 291 357
#     4   8  13  22  42  73 103 132 173 228 285 340
#
# _framework density 23.063597999999999
#
# number of rings (size 3 to 8) (size 9 to 14) (size 15 to 20)
#    0.000    2.759    0.000    2.276    2.897    2.759 
#    1.241    0.690    0.000    0.000    0.000    3.862 
#    0.000    0.000    0.000    0.000    0.000    0.000 
#
# Total GULP energy -161547.060195 kJ/mol
# GULP energy per Si atom -5570.588283 kJ/mol
# Density = 2.301110 g / cm^3
# Si number density = 23.063598 Si / 1000 Ang^3
#
#
#
# Elastic Constant Matrix: (Units=GPa)
#
#
# Indices 1 2 3 4 5 6 
#
# 1 107.8267 0.2929 25.0778 0.0000 36.3439 0.0000
# 2 0.2929 121.4585 -4.8396 0.0000 9.2359 0.0000
# 3 25.0778 -4.8396 41.8096 0.0000 26.2397 0.0000
# 4 0.0000 0.0000 0.0000 -6.3598 0.0000 0.5217
# 5 36.3439 9.2359 26.2397 0.0000 42.3401 0.0000
# 6 0.0000 0.0000 0.0000 0.5217 0.0000 7.1421
#
#
#
# Elastic Compliance Matrix: (Units=1/GPa)
#
#
# Indices 1 2 3 4 5 6 
#
# 1 0.013158 0.000752 -0.001004 0.000000 -0.010836 0.000000
# 2 0.000752 0.008733 0.003536 0.000000 -0.004742 0.000000
# 3 -0.001004 0.003536 0.040705 0.000000 -0.025135 0.000000
# 4 0.000000 0.000000 0.000000 -0.156301 0.000000 0.011417
# 5 -0.010836 -0.004742 -0.025135 0.000000 0.049532 0.000000
# 6 0.000000 0.000000 0.000000 0.011417 0.000000 0.139181
#
#
# Mechanical properties :
#
#
# Convention : Reuss Voigt Hill
#
# Bulk Modulus (GPa) = 14.45868 34.68408 24.57138
# Shear Modulus (GPa) = 44.84537 25.32873 35.08705
#
# Velocity S-wave (km/s) = 4.41434 3.31752 3.90464
# Velocity P-wave (km/s) = 5.68019 5.45396 5.56823
#
# Compressibility (1/GPa) = 0.06916261
#
# Stress axis : x y z
#
# Youngs Moduli (GPa) = 75.99830 114.50928 24.56728
#
# Poissons Ratio (x) = -0.08614 0.02468
# Poissons Ratio (y) = -0.05717 -0.08686
# Poissons Ratio (z) = 0.07634 -0.40487
#
# Static dielectric constant tensor:
#      x y z
#    x 1.852680 0.000000 0.034210 
#    y 0.000000 1.876470 0.000000 
#    z 0.034210 0.000000 1.862170 
# 
# From -- ./inp_files/186667.got.cif
#   From: 2010.05.17/outbox.cif.g08.bks.cpg/sg12_94_cif.got.tgz:186667.got - 2010.06.03 13:09:07.
