data_PCOD9192294
_publ_section_title
;
Structure prediction by ZEFSAII (Michael W. Deem and Ramdas Pophale) SiO2 
 PCOD9192294
Probable space group: C 2/M
;
_chemical_formula_sum "Si O2"
_cell_formula_units_Z 56
_cell_length_a 25.406523
_cell_length_b 8.785094
_cell_length_c 15.300673
_cell_angle_alpha 90.000000
_cell_angle_beta 74.628417
_cell_angle_gamma 90.000000
_cell_volume 3292.922168
_symmetry_space_group_name_H-M "C 2/M"
_symmetry_group_IT_number 12
_symmetry_cell_setting 'monoclinic'
loop_
_space_group_symop_operation_xyz
x,y,z
-x,y,-z
-x,-y,-z
x,-y,z
1/2+x,1/2+y,z
1/2-x,1/2+y,-z
1/2-x,1/2-y,-z
1/2+x,1/2-y,z
loop_
_atom_site_type_symbol
_atom_site_label
_atom_site_fract_x
_atom_site_fract_y
_atom_site_fract_z
Si Si1 0.208008 0.819234 0.892907
Si Si2 0.100695 0.682189 0.271678
Si Si3 0.177190 0.180701 0.100618
Si Si4 0.685915 0.817405 0.389830
Si Si5 0.514138 0.182666 0.594876
Si Si6 0.130818 0.818751 0.585793
Si Si7 0.803042 0.318784 0.285821
O O1 0.270318 0.766767 0.882717
O O2 0.186130 0.733001 0.818116
O O3 0.207393 0.000000 0.877298
O O4 0.176683 0.786427 0.997320
O O5 0.103371 0.500000 0.257401
O O6 0.124708 0.765566 0.176923
O O7 0.140422 0.717548 0.336175
O O8 0.039059 0.722031 0.324857
O O9 0.185620 0.000000 0.107448
O O10 0.665415 0.752777 0.490875
O O11 0.743193 0.744690 0.337308
O O12 0.691494 0.000000 0.392656
O O13 0.500000 0.215524 0.500000
O O14 0.568434 0.268306 0.599402
O O15 0.523470 0.000000 0.596733
O O16 0.154528 0.753281 0.665247
O O17 0.136065 0.000000 0.581638
O O18 0.803357 0.500000 0.292789
#
# Coordination Sequence:
#
# PCOD9192294 Si02
#       7
#     8   8   8   8   8   8   8
#     4  10  20  35  54  80 114 149 183 226 280 333
#     4  10  20  34  58  83 113 150 184 229 280 327
#     4  10  20  33  54  83 115 147 183 228 277 332
#     4  11  21  37  57  82 115 152 186 226 275 331
#     4  10  20  39  60  80 109 148 190 231 276 324
#     4  12  25  39  56  81 113 151 190 232 276 331
#     4  12  24  38  57  82 112 150 189 232 279 334
#
# _framework density 17.006170000000001
#
# number of rings (size 3 to 8) (size 9 to 14) (size 15 to 20)
#    0.000    1.286    2.857    4.286    0.000    3.143 
#    0.000    0.000    0.000    0.857    0.000    6.000 
#    0.000    0.000    0.000    0.000    0.000    0.000 
#
# Total GULP energy -156503.469767 kJ/mol
# GULP energy per Si atom -5589.409635 kJ/mol
# Density = 1.696746 g / cm^3
# Si number density = 17.006170 Si / 1000 Ang^3
#
#
#
# Elastic Constant Matrix: (Units=GPa)
#
#
# Indices 1 2 3 4 5 6 
#
# 1 64.3727 39.9787 40.5367 0.0000 11.8229 0.0000
# 2 39.9787 79.6455 49.0108 0.0000 4.9934 0.0000
# 3 40.5367 49.0108 118.1613 0.0000 0.0505 0.0000
# 4 0.0000 0.0000 0.0000 32.2319 0.0000 -0.9885
# 5 11.8229 4.9934 0.0505 0.0000 22.5323 0.0000
# 6 0.0000 0.0000 0.0000 -0.9885 0.0000 27.6645
#
#
#
# Elastic Compliance Matrix: (Units=1/GPa)
#
#
# Indices 1 2 3 4 5 6 
#
# 1 0.027012 -0.009539 -0.005305 0.000000 -0.012048 0.000000
# 2 -0.009539 0.020545 -0.005249 0.000000 0.000464 0.000000
# 3 -0.005305 -0.005249 0.012459 0.000000 0.003919 0.000000
# 4 0.000000 0.000000 0.000000 0.031059 0.000000 0.001110
# 5 -0.012048 0.000464 0.003919 0.000000 0.050591 0.000000
# 6 0.000000 0.000000 0.000000 0.001110 0.000000 0.036187
#
#
# Mechanical properties :
#
#
# Convention : Reuss Voigt Hill
#
# Bulk Modulus (GPa) = 50.43175 57.91466 54.17320
# Shear Modulus (GPa) = 22.25687 25.32930 23.79308
#
# Velocity S-wave (km/s) = 3.62159 3.86348 3.74449
# Velocity P-wave (km/s) = 6.87075 7.35058 7.11471
#
# Compressibility (1/GPa) = 0.01982878
#
# Stress axis : x y z
#
# Youngs Moduli (GPa) = 37.02015 48.67359 80.26564
#
# Poissons Ratio (x) = 0.46430 0.42582
# Poissons Ratio (y) = 0.35314 0.42134
# Poissons Ratio (z) = 0.19640 0.25550
#
# Static dielectric constant tensor:
#      x y z
#    x 1.544480 0.000000 0.000240 
#    y 0.000000 1.567500 0.000000 
#    z 0.000240 0.000000 1.575640 
# 
# From -- ./inp_files/237471.got.cif
#   From: 2010.05.17/outbox.cif.g08.bks.cpg/sg12_119_cif.got.tgz:237471.got - 2010.06.03 13:09:07.
