data_PCOD9192636
_publ_section_title
;
Structure prediction by ZEFSAII (Michael W. Deem and Ramdas Pophale) SiO2 
 PCOD9192636
Probable space group: C 2/M
;
_chemical_formula_sum "Si O2"
_cell_formula_units_Z 64
_cell_length_a 31.092817
_cell_length_b 8.673044
_cell_length_c 15.528335
_cell_angle_alpha 90.000000
_cell_angle_beta 78.865842
_cell_angle_gamma 90.000000
_cell_volume 4108.697685
_symmetry_space_group_name_H-M "C 2/M"
_symmetry_group_IT_number 12
_symmetry_cell_setting 'monoclinic'
loop_
_space_group_symop_operation_xyz
x,y,z
-x,y,-z
-x,-y,-z
x,-y,z
1/2+x,1/2+y,z
1/2-x,1/2+y,-z
1/2-x,1/2-y,-z
1/2+x,1/2-y,z
loop_
_atom_site_type_symbol
_atom_site_label
_atom_site_fract_x
_atom_site_fract_y
_atom_site_fract_z
Si Si1 0.467481 0.312745 0.390401
Si Si2 0.040776 0.813619 0.799820
Si Si3 0.302693 0.185427 0.067284
Si Si4 0.399829 0.185091 0.072975
Si Si5 0.621435 0.184857 0.245557
Si Si6 0.789453 0.685522 0.873357
Si Si7 0.440268 0.685008 0.881703
Si Si8 0.064807 0.186299 0.414730
O O1 0.467207 0.500000 0.390225
O O2 0.453092 0.261938 0.301510
O O3 0.438931 0.264861 0.484005
O O4 0.518037 0.269499 0.389726
O O5 0.074944 0.742396 0.852767
O O6 0.991066 0.773309 0.846551
O O7 0.044198 0.000000 0.801690
O O8 0.348837 0.234401 0.089786
O O9 0.258650 0.249946 0.126824
O O10 0.300838 0.000000 0.069844
O O11 0.301582 0.233246 0.966804
O O12 0.401153 0.000000 0.067662
O O13 0.423289 0.251803 0.979063
O O14 0.670944 0.234824 0.203600
O O15 0.589593 0.249214 0.183371
O O16 0.603294 0.243308 0.343418
O O17 0.619938 0.000000 0.242988
O O18 0.787412 0.500000 0.873171
O O19 0.437240 0.500000 0.881798
O O20 0.067580 0.000000 0.410454
#
# Coordination Sequence:
#
# PCOD9192636 Si02
#       8
#     8   8   8   8   8   8   8   8
#     4   8  15  30  50  69  94 124 161 205 235 267
#     4  10  20  34  49  69  94 128 171 204 228 268
#     4   9  18  33  48  66  92 122 157 195 234 282
#     4  11  22  35  48  68  99 130 159 198 245 282
#     4  11  20  31  47  72 104 129 152 194 245 289
#     4   9  18  32  48  67  93 123 154 192 239 285
#     4  11  21  33  49  68  94 131 173 202 222 271
#     4   9  16  30  51  71  92 126 163 195 237 283
#
# _framework density 15.576711
#
# number of rings (size 3 to 8) (size 9 to 14) (size 15 to 20)
#    0.000    2.250    2.500    2.250    0.000    4.500 
#    0.000    1.875    0.000    0.000    0.000    0.875 
#    0.000    0.000    0.000    0.000    0.000    0.000 
#
# Total GULP energy -178465.234603 kJ/mol
# GULP energy per Si atom -5577.038581 kJ/mol
# Density = 1.554126 g / cm^3
# Si number density = 15.576711 Si / 1000 Ang^3
#
#
#
# Elastic Constant Matrix: (Units=GPa)
#
#
# Indices 1 2 3 4 5 6 
#
# 1 124.3046 34.0472 89.0438 0.0000 -14.2903 0.0000
# 2 34.0472 22.5130 29.5350 0.0000 -3.9014 0.0000
# 3 89.0438 29.5350 128.7120 0.0000 -14.1091 0.0000
# 4 0.0000 0.0000 0.0000 19.8068 0.0000 -1.9446
# 5 -14.2903 -3.9014 -14.1091 0.0000 23.6848 0.0000
# 6 0.0000 0.0000 0.0000 -1.9446 0.0000 25.4858
#
#
#
# Elastic Compliance Matrix: (Units=1/GPa)
#
#
# Indices 1 2 3 4 5 6 
#
# 1 0.019914 -0.017079 -0.009467 0.000000 0.003562 0.000000
# 2 -0.017079 0.078278 -0.006272 0.000000 -0.001147 0.000000
# 3 -0.009467 -0.006272 0.016068 0.000000 0.002827 0.000000
# 4 0.000000 0.000000 0.000000 0.050869 0.000000 0.003881
# 5 0.003562 -0.001147 0.002827 0.000000 0.045865 0.000000
# 6 0.000000 0.000000 0.000000 0.003881 0.000000 0.039534
#
#
# Mechanical properties :
#
#
# Convention : Reuss Voigt Hill
#
# Bulk Modulus (GPa) = 20.56655 64.53130 42.54892
# Shear Modulus (GPa) = 15.04338 21.98907 18.51622
#
# Velocity S-wave (km/s) = 3.11104 3.76129 3.45151
# Velocity P-wave (km/s) = 5.11242 7.77052 6.57715
#
# Compressibility (1/GPa) = 0.04862264
#
# Stress axis : x y z
#
# Youngs Moduli (GPa) = 50.21645 12.77493 62.23678
#
# Poissons Ratio (x) = 0.21819 0.58919
# Poissons Ratio (y) = 0.85766 0.39037
# Poissons Ratio (z) = 0.47539 0.08013
#
# Static dielectric constant tensor:
#      x y z
#    x 1.505920 0.000000 -0.011520 
#    y 0.000000 1.529000 0.000000 
#    z -0.011520 0.000000 1.517090 
# 
# From -- ./inp_files/248299.got.cif
#   From: 2010.05.17/outbox.cif.g08.bks.cpg/sg12_125_cif.got.tgz:248299.got - 2010.06.03 13:09:07.
