data_PCOD9192060
_publ_section_title
;
Structure prediction by ZEFSAII (Michael W. Deem and Ramdas Pophale) SiO2 
 PCOD9192060
Probable space group: C 2/M
;
_chemical_formula_sum "Si O2"
_cell_formula_units_Z 56
_cell_length_a 14.601942
_cell_length_b 13.266696
_cell_length_c 15.848554
_cell_angle_alpha 90.000000
_cell_angle_beta 62.827677
_cell_angle_gamma 90.000000
_cell_volume 2731.340932
_symmetry_space_group_name_H-M "C 2/M"
_symmetry_group_IT_number 12
_symmetry_cell_setting 'monoclinic'
loop_
_space_group_symop_operation_xyz
x,y,z
-x,y,-z
-x,-y,-z
x,-y,z
1/2+x,1/2+y,z
1/2-x,1/2+y,-z
1/2-x,1/2-y,-z
1/2+x,1/2-y,z
loop_
_atom_site_type_symbol
_atom_site_label
_atom_site_fract_x
_atom_site_fract_y
_atom_site_fract_z
Si Si1 0.235710 0.753537 0.225499
Si Si2 0.775729 0.615380 0.474648
Si Si3 0.068506 0.883120 0.892892
Si Si4 0.896164 0.619365 0.263345
Si Si5 0.543785 0.297609 0.216538
Si Si6 0.948988 0.878637 0.430571
Si Si7 0.106054 0.615245 0.405486
O O1 0.326122 0.678127 0.160616
O O2 0.298248 0.839778 0.250537
O O3 0.166136 0.794215 0.178406
O O4 0.153437 0.691249 0.317652
O O5 0.755443 0.500000 0.455729
O O6 0.864116 0.643744 0.373088
O O7 0.665907 0.666649 0.512676
O O8 0.809708 0.612795 0.556132
O O9 0.001841 0.869844 0.835922
O O10 0.092542 0.000000 0.896081
O O11 0.000000 0.846035 0.000000
O O12 0.912723 0.500000 0.244399
O O13 0.996140 0.689056 0.209173
O O14 0.500516 0.333719 0.325598
O O15 0.000000 0.861836 0.500000
O O16 0.948366 0.000000 0.417640
O O17 0.092745 0.500000 0.377290
O O18 0.000000 0.639588 0.500000
#
# Coordination Sequence:
#
# PCOD9192060 Si02
#       7
#     8   8   8   8   8   8   8
#     4  11  23  37  61  90 119 156 198 248 302 362
#     4   9  17  30  47  68 106 158 202 240 279 326
#     4  10  23  45  70  93 117 148 195 256 313 363
#     4  10  22  37  52  79 120 165 207 245 291 349
#     4  11  23  37  61  90 119 156 198 248 302 362
#     4  10  20  33  52  83 121 158 199 246 295 353
#     4  10  20  33  52  83 121 158 199 246 295 353
#
# _framework density 20.502749999999999
#
# number of rings (size 3 to 8) (size 9 to 14) (size 15 to 20)
#    0.000    1.857    0.000    4.286    0.000   11.429 
#    0.000    0.000    0.000    7.714    0.000    0.000 
#    0.000    0.000    0.000    0.000    0.000    0.000 
#
# Total GULP energy -156326.996128 kJ/mol
# GULP energy per Si atom -5583.107005 kJ/mol
# Density = 2.045608 g / cm^3
# Si number density = 20.502750 Si / 1000 Ang^3
#
#
#
# Elastic Constant Matrix: (Units=GPa)
#
#
# Indices 1 2 3 4 5 6 
#
# 1 75.7453 -10.2815 11.8986 0.0000 2.6523 0.0000
# 2 -10.2815 93.8148 5.6196 0.0000 -5.2692 0.0000
# 3 11.8986 5.6196 72.9570 0.0000 -3.1420 0.0000
# 4 0.0000 0.0000 0.0000 -20.4227 0.0000 -1.8022
# 5 2.6523 -5.2692 -3.1420 0.0000 12.2182 0.0000
# 6 0.0000 0.0000 0.0000 -1.8022 0.0000 16.7155
#
#
#
# Elastic Compliance Matrix: (Units=1/GPa)
#
#
# Indices 1 2 3 4 5 6 
#
# 1 0.013907 0.001505 -0.002514 0.000000 -0.003016 0.000000
# 2 0.001505 0.011117 -0.000920 0.000000 0.004231 0.000000
# 3 -0.002514 -0.000920 0.014353 0.000000 0.003840 0.000000
# 4 0.000000 0.000000 0.000000 -0.048504 0.000000 -0.005229
# 5 -0.003016 0.004231 0.003840 0.000000 0.085312 0.000000
# 6 0.000000 0.000000 0.000000 -0.005229 0.000000 0.059261
#
#
# Mechanical properties :
#
#
# Convention : Reuss Voigt Hill
#
# Bulk Modulus (GPa) = 28.15281 28.55450 28.35365
# Shear Modulus (GPa) = 33.08132 17.38756 25.23444
#
# Velocity S-wave (km/s) = 4.02121 2.91531 3.51206
# Velocity P-wave (km/s) = 5.94316 5.02886 5.50502
#
# Compressibility (1/GPa) = 0.03552043
#
# Stress axis : x y z
#
# Youngs Moduli (GPa) = 71.90632 89.95239 69.67227
#
# Poissons Ratio (x) = -0.13541 0.17515
# Poissons Ratio (y) = -0.10824 0.06407
# Poissons Ratio (z) = 0.18077 0.08272
#
# Static dielectric constant tensor:
#      x y z
#    x 1.752040 0.000000 -0.018880 
#    y 0.000000 1.792490 0.000000 
#    z -0.018880 0.000000 1.716050 
# 
# From -- ./inp_files/269807.got.cif
#   From: 2010.05.17/outbox.cif.g08.bks.cpg/sg12_135_cif.got.tgz:269807.got - 2010.06.03 13:09:07.
