data_PCOD9192377
_publ_section_title
;
Structure prediction by ZEFSAII (Michael W. Deem and Ramdas Pophale) SiO2 
 PCOD9192377
Probable space group: C 2/M
;
_chemical_formula_sum "Si O2"
_cell_formula_units_Z 56
_cell_length_a 19.646162
_cell_length_b 8.892815
_cell_length_c 32.293716
_cell_angle_alpha 90.000000
_cell_angle_beta 34.559477
_cell_angle_gamma 90.000000
_cell_volume 3200.503136
_symmetry_space_group_name_H-M "C 2/M"
_symmetry_group_IT_number 12
_symmetry_cell_setting 'monoclinic'
loop_
_space_group_symop_operation_xyz
x,y,z
-x,y,-z
-x,-y,-z
x,-y,z
1/2+x,1/2+y,z
1/2-x,1/2+y,-z
1/2-x,1/2-y,-z
1/2+x,1/2-y,z
loop_
_atom_site_type_symbol
_atom_site_label
_atom_site_fract_x
_atom_site_fract_y
_atom_site_fract_z
Si Si1 0.287057 0.680231 0.045156
Si Si2 0.358344 0.320401 0.420101
Si Si3 0.118519 0.319960 0.302872
Si Si4 0.843640 0.680848 0.809836
Si Si5 0.103343 0.178835 0.694116
Si Si6 0.187775 0.680592 0.734869
Si Si7 0.937195 0.319762 0.901650
O O1 0.299703 0.500000 0.036980
O O2 0.260477 0.724306 0.105824
O O3 0.166866 0.721909 0.079284
O O4 0.397124 0.752788 0.965610
O O5 0.363629 0.500000 0.423318
O O6 0.250000 0.250000 0.500000
O O7 0.484822 0.247112 0.369682
O O8 0.344800 0.291247 0.377664
O O9 0.113586 0.500000 0.309399
O O10 0.174284 0.283900 0.229471
O O11 0.199688 0.248395 0.297554
O O12 0.859737 0.500000 0.805418
O O13 0.967735 0.757769 0.761323
O O14 0.174831 0.258610 0.694909
O O15 0.101026 0.000000 0.701916
O O16 0.192644 0.500000 0.732247
O O17 0.066112 0.728394 0.820055
O O18 0.937181 0.500000 0.904358
#
# Coordination Sequence:
#
# PCOD9192377 Si02
#       7
#     8   8   8   8   8   8   8
#     4   9  16  29  48  72 100 134 180 227 270 317
#     4  10  21  39  62  88 114 141 173 213 259 313
#     4  10  21  36  57  82 110 143 179 220 268 320
#     4   9  17  33  53  75 104 140 181 225 271 319
#     4  10  20  33  55  84 109 137 179 221 259 311
#     4  11  21  36  54  76 111 147 181 222 271 322
#     4   9  18  30  46  71 102 138 178 224 272 316
#
# _framework density 17.497249
#
# number of rings (size 3 to 8) (size 9 to 14) (size 15 to 20)
#    0.000    2.286    1.429    1.714    0.000    4.000 
#    0.000    1.429    0.000    8.571    0.000    0.000 
#    0.000    0.000    0.000    0.000    0.000    0.000 
#
# Total GULP energy -156216.950596 kJ/mol
# GULP energy per Si atom -5579.176807 kJ/mol
# Density = 1.745742 g / cm^3
# Si number density = 17.497249 Si / 1000 Ang^3
#
#
#
# Elastic Constant Matrix: (Units=GPa)
#
#
# Indices 1 2 3 4 5 6 
#
# 1 121.2457 53.2615 50.3717 -0.0001 9.2362 -0.0008
# 2 53.2615 48.8536 46.1742 0.0003 8.3858 -0.0011
# 3 50.3717 46.1742 116.4275 -0.0002 9.7838 0.0004
# 4 -0.0001 0.0003 -0.0002 30.7392 0.0000 -0.3248
# 5 9.2362 8.3858 9.7838 0.0000 15.9989 0.0001
# 6 -0.0008 -0.0011 0.0004 -0.3248 0.0001 24.9695
#
#
#
# Elastic Compliance Matrix: (Units=1/GPa)
#
#
# Indices 1 2 3 4 5 6 
#
# 1 0.015828 -0.017235 -0.000004 0.000000 -0.000101 0.000000
# 2 -0.017235 0.053009 -0.012721 -0.000001 -0.010055 0.000002
# 3 -0.000004 -0.012721 0.013784 0.000000 -0.001759 -0.000001
# 4 0.000000 -0.000001 0.000000 0.032536 0.000000 0.000423
# 5 -0.000101 -0.010055 -0.001759 0.000000 0.068909 -0.000001
# 6 0.000000 0.000002 -0.000001 0.000423 -0.000001 0.040054
#
#
# Mechanical properties :
#
#
# Convention : Reuss Voigt Hill
#
# Bulk Modulus (GPa) = 44.05287 65.12683 54.58985
# Shear Modulus (GPa) = 17.14630 23.45616 20.30123
#
# Velocity S-wave (km/s) = 3.13380 3.66534 3.40994
# Velocity P-wave (km/s) = 6.19080 7.43068 6.83889
#
# Compressibility (1/GPa) = 0.02270000
#
# Stress axis : x y z
#
# Youngs Moduli (GPa) = 63.17814 18.86477 72.54873
#
# Poissons Ratio (x) = 0.32513 0.00031
# Poissons Ratio (y) = 1.08887 0.92291
# Poissons Ratio (z) = 0.00027 0.23998
#
# Static dielectric constant tensor:
#      x y z
#    x 1.578230 0.000000 0.024340 
#    y 0.000000 1.583880 0.000000 
#    z 0.024340 0.000000 1.592670 
# 
# From -- ./inp_files/275207.got.cif
#   From: 2010.05.17/outbox.cif.g08.bks.cpg/sg12_138_cif.got.tgz:275207.got - 2010.06.03 13:09:07.
