data_PCOD9192654
_publ_section_title
;
Structure prediction by ZEFSAII (Michael W. Deem and Ramdas Pophale) SiO2 
 PCOD9192654
Probable space group: C 2/M
;
_chemical_formula_sum "Si O2"
_cell_formula_units_Z 48
_cell_length_a 34.148343
_cell_length_b 7.210018
_cell_length_c 7.532608
_cell_angle_alpha 90.000000
_cell_angle_beta 76.588907
_cell_angle_gamma 90.000000
_cell_volume 1804.031448
_symmetry_space_group_name_H-M "C 2/M"
_symmetry_group_IT_number 12
_symmetry_cell_setting 'monoclinic'
loop_
_space_group_symop_operation_xyz
x,y,z
-x,y,-z
-x,-y,-z
x,-y,z
1/2+x,1/2+y,z
1/2-x,1/2+y,-z
1/2-x,1/2-y,-z
1/2+x,1/2-y,z
loop_
_atom_site_type_symbol
_atom_site_label
_atom_site_fract_x
_atom_site_fract_y
_atom_site_fract_z
Si Si1 0.572873 0.225214 0.721658
Si Si2 0.814495 0.275358 0.928606
Si Si3 0.096081 0.274821 0.292224
Si Si4 0.784239 0.280133 0.608452
Si Si5 0.656635 0.773758 0.739920
Si Si6 0.488193 0.219736 0.722426
O O1 0.586673 0.272931 0.506387
O O2 0.610220 0.283344 0.804021
O O3 0.526942 0.290620 0.789309
O O4 0.571242 0.000000 0.733628
O O5 0.812318 0.500000 0.938921
O O6 0.859521 0.222923 0.815815
O O7 0.783605 0.208326 0.810400
O O8 0.814475 0.211215 0.131180
O O9 0.095817 0.500000 0.285466
O O10 0.057434 0.210386 0.218675
O O11 0.787726 0.500000 0.622566
O O12 0.750000 0.250000 0.500000
O O13 0.824371 0.214616 0.465626
O O14 0.656607 0.000000 0.740697
O O15 0.500000 0.237913 0.500000
O O16 0.485945 0.000000 0.763088
#
# Coordination Sequence:
#
# PCOD9192654 Si02
#       6
#     8   8   8   8   8   8
#     4   8  11  18  31  48  73 106 142 175 205 241
#     4   9  16  26  41  60  82 110 143 176 211 255
#     4   8  11  18  31  48  73 106 142 175 205 241
#     4  10  20  34  50  67  87 111 141 178 220 262
#     4   9  16  26  41  60  82 110 143 176 211 255
#     4   7  10  14  25  45  69 102 141 174 202 234
#
# _framework density 26.607075999999999
#
# number of rings (size 3 to 8) (size 9 to 14) (size 15 to 20)
#    0.000    3.500    1.667    2.000    0.000    0.667 
#    0.000    0.833    0.000    5.000    0.000    0.000 
#    0.000    0.000    0.000    3.000    0.000    7.333 
#
# Total GULP energy -134020.731763 kJ/mol
# GULP energy per Si atom -5584.197157 kJ/mol
# Density = 2.654652 g / cm^3
# Si number density = 26.607076 Si / 1000 Ang^3
#
#
#
# Elastic Constant Matrix: (Units=GPa)
#
#
# Indices 1 2 3 4 5 6 
#
# 1 128.3313 -4.8987 35.1087 0.0000 44.2820 0.0000
# 2 -4.8987 127.4297 1.6031 0.0000 2.1095 0.0000
# 3 35.1087 1.6031 110.1924 0.0000 28.8576 0.0000
# 4 0.0000 0.0000 0.0000 19.5320 0.0000 8.7911
# 5 44.2820 2.1095 28.8576 0.0000 53.2636 0.0000
# 6 0.0000 0.0000 0.0000 8.7911 0.0000 -25.8870
#
#
#
# Elastic Compliance Matrix: (Units=1/GPa)
#
#
# Indices 1 2 3 4 5 6 
#
# 1 0.011129 0.000586 -0.001311 0.000000 -0.008565 0.000000
# 2 0.000586 0.007884 -0.000107 0.000000 -0.000741 0.000000
# 3 -0.001311 -0.000107 0.010730 0.000000 -0.004719 0.000000
# 4 0.000000 0.000000 0.000000 0.044410 0.000000 0.015082
# 5 -0.008565 -0.000741 -0.004719 0.000000 0.028481 0.000000
# 6 0.000000 0.000000 0.000000 0.015082 0.000000 -0.033508
#
#
# Mechanical properties :
#
#
# Convention : Reuss Voigt Hill
#
# Bulk Modulus (GPa) = 35.61525 47.73108 41.67316
# Shear Modulus (GPa) = 62.38248 31.65773 47.02011
#
# Velocity S-wave (km/s) = 4.84734 3.45312 4.20837
# Velocity P-wave (km/s) = 6.68907 5.82039 6.26979
#
# Compressibility (1/GPa) = 0.02807786
#
# Stress axis : x y z
#
# Youngs Moduli (GPa) = 89.85602 126.84531 93.19455
#
# Poissons Ratio (x) = -0.07435 0.12220
# Poissons Ratio (y) = -0.05267 0.01000
# Poissons Ratio (z) = 0.11783 0.01361
#
# Static dielectric constant tensor:
#      x y z
#    x 2.172460 0.000000 0.107280 
#    y 0.000000 2.751420 0.000000 
#    z 0.107280 0.000000 2.146450 
# 
# From -- ./inp_files/109114.got.cif
#   From: 2010.05.17/outbox.cif.g08.bks.cpg/sg12_55_cif.got.tgz:109114.got - 2010.06.03 13:09:07.
