data_PCOD9192935
_publ_section_title
;
Structure prediction by ZEFSAII (Michael W. Deem and Ramdas Pophale) SiO2 
 PCOD9192935
Probable space group: C 2/M
;
_chemical_formula_sum "Si O2"
_cell_formula_units_Z 48
_cell_length_a 20.793206
_cell_length_b 7.851496
_cell_length_c 16.345726
_cell_angle_alpha 90.000000
_cell_angle_beta 108.918250
_cell_angle_gamma 90.000000
_cell_volume 2524.416556
_symmetry_space_group_name_H-M "C 2/M"
_symmetry_group_IT_number 12
_symmetry_cell_setting 'monoclinic'
loop_
_space_group_symop_operation_xyz
x,y,z
-x,y,-z
-x,-y,-z
x,-y,z
1/2+x,1/2+y,z
1/2-x,1/2+y,-z
1/2-x,1/2-y,-z
1/2+x,1/2-y,z
loop_
_atom_site_type_symbol
_atom_site_label
_atom_site_fract_x
_atom_site_fract_y
_atom_site_fract_z
Si Si1 0.532912 0.797255 0.930703
Si Si2 0.988220 0.294121 0.734459
Si Si3 0.651261 0.794724 0.403151
Si Si4 0.177671 0.203284 0.932986
Si Si5 0.296835 0.705342 0.400538
Si Si6 0.634296 0.295127 0.736827
O O1 0.501562 0.729840 0.832536
O O2 0.613686 0.769674 0.958466
O O3 0.520412 0.000000 0.925170
O O4 0.500000 0.726727 0.000000
O O5 0.985400 0.500000 0.736506
O O6 0.918044 0.231561 0.666452
O O7 0.054639 0.247291 0.709597
O O8 0.658925 0.749675 0.501560
O O9 0.720152 0.732251 0.387107
O O10 0.651124 0.000000 0.397099
O O11 0.167485 0.267777 0.835586
O O12 0.172104 0.000000 0.928698
O O13 0.250000 0.250000 0.000000
O O14 0.293686 0.500000 0.394406
O O15 0.329306 0.770151 0.329804
O O16 0.640588 0.500000 0.738914
#
# Coordination Sequence:
#
# PCOD9192935 Si02
#       6
#     8   8   8   8   8   8
#     4   9  18  33  53  75  99 130 167 204 244 292
#     4   9  18  32  50  72  98 127 159 198 240 284
#     4   9  18  32  49  70  96 125 158 197 240 283
#     4  10  20  34  52  74 101 131 164 203 246 292
#     4   9  18  33  51  70  94 125 161 198 236 281
#     4   9  19  34  51  71  96 127 160 197 239 284
#
# _framework density 19.014295000000001
#
# number of rings (size 3 to 8) (size 9 to 14) (size 15 to 20)
#    0.000    2.833    0.000    0.500    0.000    4.333 
#    0.000    8.333    0.000    4.000    0.000    0.000 
#    0.000    0.000    0.000    0.000    0.000    0.000 
#
# Total GULP energy -133837.913465 kJ/mol
# GULP energy per Si atom -5576.579728 kJ/mol
# Density = 1.897102 g / cm^3
# Si number density = 19.014295 Si / 1000 Ang^3
#
#
#
# Elastic Constant Matrix: (Units=GPa)
#
#
# Indices 1 2 3 4 5 6 
#
# 1 153.6538 -5.0517 129.5311 0.0000 -6.3465 0.0000
# 2 -5.0517 16.6565 -0.0422 0.0000 -5.2387 0.0000
# 3 129.5311 -0.0422 131.1375 0.0000 -5.8965 0.0000
# 4 0.0000 0.0000 0.0000 19.6410 0.0000 2.6128
# 5 -6.3465 -5.2387 -5.8965 0.0000 45.8217 0.0000
# 6 0.0000 0.0000 0.0000 2.6128 0.0000 24.5603
#
#
#
# Elastic Compliance Matrix: (Units=1/GPa)
#
#
# Indices 1 2 3 4 5 6 
#
# 1 0.041490 0.013103 -0.040888 0.000000 0.001983 0.000000
# 2 0.013103 0.066430 -0.012571 0.000000 0.007792 0.000000
# 3 -0.040888 -0.012571 0.047967 0.000000 -0.000928 0.000000
# 4 0.000000 0.000000 0.000000 0.051645 0.000000 -0.005494
# 5 0.001983 0.007792 -0.000928 0.000000 0.022870 0.000000
# 6 0.000000 0.000000 0.000000 -0.005494 0.000000 0.041301
#
#
# Mechanical properties :
#
#
# Convention : Reuss Voigt Hill
#
# Bulk Modulus (GPa) = 13.30237 61.14690 37.22463
# Shear Modulus (GPa) = 13.24602 29.80532 21.52567
#
# Velocity S-wave (km/s) = 2.64225 3.96349 3.36829
# Velocity P-wave (km/s) = 4.03978 7.29204 5.89464
#
# Compressibility (1/GPa) = 0.07517459
#
# Stress axis : x y z
#
# Youngs Moduli (GPa) = 24.10225 15.05355 20.84758
#
# Poissons Ratio (x) = -0.19725 0.85242
# Poissons Ratio (y) = -0.31582 0.26208
# Poissons Ratio (z) = 0.98550 0.18924
#
# Static dielectric constant tensor:
#      x y z
#    x 1.642940 0.000000 -0.005840 
#    y 0.000000 1.699360 0.000000 
#    z -0.005840 0.000000 1.663600 
# 
# From -- ./inp_files/229904.got.cif
#   From: 2010.05.17/outbox.cif.g08.bks.cpg/sg12_115_cif.got.tgz:229904.got - 2010.06.03 13:09:07.
