data_PCOD9192511
_publ_section_title
;
Structure prediction by ZEFSAII (Michael W. Deem and Ramdas Pophale) SiO2 
 PCOD9192511
Probable space group: C 2/M
;
_chemical_formula_sum "Si O2"
_cell_formula_units_Z 56
_cell_length_a 14.478578
_cell_length_b 24.642509
_cell_length_c 14.305917
_cell_angle_alpha 90.000000
_cell_angle_beta 149.226232
_cell_angle_gamma 90.000000
_cell_volume 2611.554726
_symmetry_space_group_name_H-M "C 2/M"
_symmetry_group_IT_number 12
_symmetry_cell_setting 'monoclinic'
loop_
_space_group_symop_operation_xyz
x,y,z
-x,y,-z
-x,-y,-z
x,-y,z
1/2+x,1/2+y,z
1/2-x,1/2+y,-z
1/2-x,1/2-y,-z
1/2+x,1/2-y,z
loop_
_atom_site_type_symbol
_atom_site_label
_atom_site_fract_x
_atom_site_fract_y
_atom_site_fract_z
Si Si1 0.520213 0.127750 0.129146
Si Si2 0.331824 0.441225 0.636491
Si Si3 0.392544 0.674778 0.772002
Si Si4 0.456757 0.231662 0.193425
Si Si5 0.210378 0.667251 0.796776
Si Si6 0.409821 0.062373 0.208101
Si Si7 0.856798 0.940714 0.456451
O O1 0.495544 0.188402 0.145237
O O2 0.401830 0.089950 0.097513
O O3 0.720989 0.107928 0.325421
O O4 0.500000 0.122226 0.000000
O O5 0.363474 0.500000 0.709349
O O6 0.377712 0.387646 0.730749
O O7 0.437760 0.439031 0.630212
O O8 0.121105 0.438998 0.422448
O O9 0.407933 0.717857 0.701074
O O10 0.233228 0.682409 0.708547
O O11 0.590309 0.680951 0.990344
O O12 0.443780 0.199353 0.280046
O O13 0.250000 0.250000 0.000000
O O14 0.180654 0.603859 0.797074
O O15 0.344923 0.000000 0.151811
O O16 0.000000 0.939064 0.500000
O O17 0.760627 0.000000 0.366089
#
# Coordination Sequence:
#
# PCOD9192511 Si02
#       7
#     8   8   8   8   8   8   8
#     4  10  20  33  57  85 108 144 195 230 274 338
#     4   9  19  36  57  79 109 149 186 222 276 335
#     4  10  20  36  58  80 110 144 186 230 275 329
#     4   9  20  36  55  79 111 146 181 233 285 329
#     4   9  20  36  54  81 109 143 185 230 277 323
#     4   9  19  37  55  78 116 147 177 226 275 327
#     4   9  19  36  54  79 119 154 182 229 285 334
#
# _framework density 21.443165
#
# number of rings (size 3 to 8) (size 9 to 14) (size 15 to 20)
#    0.000    2.714    0.000    1.286    4.000    6.286 
#    0.000   10.714    0.000    0.000    0.000    0.000 
#    0.000    0.000    0.000    0.000    0.000    0.000 
#
# Total GULP energy -156036.216141 kJ/mol
# GULP energy per Si atom -5572.722005 kJ/mol
# Density = 2.139436 g / cm^3
# Si number density = 21.443165 Si / 1000 Ang^3
#
#
#
# Elastic Constant Matrix: (Units=GPa)
#
#
# Indices 1 2 3 4 5 6 
#
# 1 122.6820 61.0763 11.3801 0.0000 -2.1793 0.0000
# 2 61.0763 148.7471 15.7325 0.0000 -1.6254 0.0000
# 3 11.3801 15.7325 24.6977 0.0000 -1.8752 0.0000
# 4 0.0000 0.0000 0.0000 18.2547 0.0000 10.8894
# 5 -2.1793 -1.6254 -1.8752 0.0000 18.2580 0.0000
# 6 0.0000 0.0000 0.0000 10.8894 0.0000 37.4847
#
#
#
# Elastic Compliance Matrix: (Units=1/GPa)
#
#
# Indices 1 2 3 4 5 6 
#
# 1 0.010365 -0.004020 -0.002165 0.000000 0.000657 0.000000
# 2 -0.004020 0.008768 -0.003739 0.000000 -0.000083 0.000000
# 3 -0.002165 -0.003739 0.044169 0.000000 0.003945 0.000000
# 4 0.000000 0.000000 0.000000 0.066264 0.000000 -0.019250
# 5 0.000657 -0.000083 0.003945 0.000000 0.055247 0.000000
# 6 0.000000 0.000000 0.000000 -0.019250 0.000000 0.032270
#
#
# Mechanical properties :
#
#
# Convention : Reuss Voigt Hill
#
# Bulk Modulus (GPa) = 23.01351 52.50053 37.75702
# Shear Modulus (GPa) = 19.88746 28.66199 24.27472
#
# Velocity S-wave (km/s) = 3.04871 3.65999 3.36824
# Velocity P-wave (km/s) = 4.81129 6.51133 5.72477
#
# Compressibility (1/GPa) = 0.04345273
#
# Stress axis : x y z
#
# Youngs Moduli (GPa) = 96.48000 114.05241 22.64034
#
# Poissons Ratio (x) = 0.45845 0.04903
# Poissons Ratio (y) = 0.38782 0.08466
# Poissons Ratio (z) = 0.20893 0.42648
#
# Static dielectric constant tensor:
#      x y z
#    x 1.819050 0.000000 -0.020730 
#    y 0.000000 1.121840 0.000000 
#    z -0.020730 0.000000 1.790600 
# 
# From -- ./inp_files/218296.got.cif
#   From: 2010.05.17/outbox.cif.g08.bks.cpg/sg12_110_cif.got.tgz:218296.got - 2010.06.03 13:09:07.
