data_PCOD9192191
_publ_section_title
;
Structure prediction by ZEFSAII (Michael W. Deem and Ramdas Pophale) SiO2 
 PCOD9192191
Probable space group: C 2/M
;
_chemical_formula_sum "Si O2"
_cell_formula_units_Z 56
_cell_length_a 25.229651
_cell_length_b 9.173175
_cell_length_c 14.966864
_cell_angle_alpha 90.000000
_cell_angle_beta 122.072860
_cell_angle_gamma 90.000000
_cell_volume 2935.192797
_symmetry_space_group_name_H-M "C 2/M"
_symmetry_group_IT_number 12
_symmetry_cell_setting 'monoclinic'
loop_
_space_group_symop_operation_xyz
x,y,z
-x,y,-z
-x,-y,-z
x,-y,z
1/2+x,1/2+y,z
1/2-x,1/2+y,-z
1/2-x,1/2-y,-z
1/2+x,1/2-y,z
loop_
_atom_site_type_symbol
_atom_site_label
_atom_site_fract_x
_atom_site_fract_y
_atom_site_fract_z
Si Si1 0.804990 0.674753 0.325734
Si Si2 0.250239 0.670222 0.906515
Si Si3 0.813352 0.668880 0.691676
Si Si4 0.636835 0.835299 0.067607
Si Si5 0.444938 0.825497 0.519657
Si Si6 0.022566 0.838298 0.918210
Si Si7 0.415585 0.328996 0.674907
O O1 0.793324 0.500000 0.321086
O O2 0.797073 0.718295 0.214378
O O3 0.751601 0.755673 0.335958
O O4 0.875557 0.703272 0.418856
O O5 0.241848 0.500000 0.913441
O O6 0.316280 0.711386 0.922711
O O7 0.250000 0.750000 0.000000
O O8 0.802273 0.500000 0.658426
O O9 0.857913 0.671022 0.820168
O O10 0.851634 0.750326 0.648652
O O11 0.656141 0.000000 0.059641
O O12 0.571774 0.792523 0.964617
O O13 0.500000 0.782738 0.500000
O O14 0.445507 0.743385 0.614302
O O15 0.450638 0.000000 0.538987
O O16 0.965748 0.815442 0.799867
O O17 0.049916 0.000000 0.921766
O O18 0.000000 0.845264 0.000000
O O19 0.403508 0.500000 0.649416
#
# Coordination Sequence:
#
# PCOD9192191 Si02
#       7
#     8   8   8   8   8   8   8
#     4   9  20  39  62  85 115 156 195 239 298 354
#     4  10  20  35  56  83 116 152 195 240 289 349
#     4  10  20  35  58  89 120 150 191 241 293 349
#     4  10  20  33  53  82 116 152 192 238 289 341
#     4  10  23  44  65  85 114 154 200 249 297 348
#     4  10  20  35  55  82 120 159 190 227 286 352
#     4  11  23  38  60  89 120 158 200 243 296 354
#
# _framework density 19.078814999999999
#
# number of rings (size 3 to 8) (size 9 to 14) (size 15 to 20)
#    0.000    2.000    1.429    1.714    0.000    5.714 
#    0.000    1.429    0.000    0.000    0.000    0.000 
#    0.000    0.000    0.000    0.000    0.000    0.000 
#
# Total GULP energy -156139.620980 kJ/mol
# GULP energy per Si atom -5576.415035 kJ/mol
# Density = 1.903539 g / cm^3
# Si number density = 19.078815 Si / 1000 Ang^3
#
#
#
# Elastic Constant Matrix: (Units=GPa)
#
#
# Indices 1 2 3 4 5 6 
#
# 1 102.3883 54.0347 57.9557 0.0000 -13.9726 0.0000
# 2 54.0347 61.7269 52.1443 0.0000 -2.3791 0.0000
# 3 57.9557 52.1443 90.3123 0.0000 -9.5847 0.0000
# 4 0.0000 0.0000 0.0000 17.8504 0.0000 -2.9362
# 5 -13.9726 -2.3791 -9.5847 0.0000 30.8241 0.0000
# 6 0.0000 0.0000 0.0000 -2.9362 0.0000 32.4489
#
#
#
# Elastic Compliance Matrix: (Units=1/GPa)
#
#
# Indices 1 2 3 4 5 6 
#
# 1 0.020616 -0.014102 -0.004355 0.000000 0.006903 0.000000
# 2 -0.014102 0.041609 -0.015835 0.000000 -0.008105 0.000000
# 3 -0.004355 -0.015835 0.023445 0.000000 0.004094 0.000000
# 4 0.000000 0.000000 0.000000 0.056868 0.000000 0.005146
# 5 0.006903 -0.008105 0.004094 0.000000 0.036219 0.000000
# 6 0.000000 0.000000 0.000000 0.005146 0.000000 0.031283
#
#
# Mechanical properties :
#
#
# Convention : Reuss Voigt Hill
#
# Bulk Modulus (GPa) = 58.52690 64.74408 61.63549
# Shear Modulus (GPa) = 17.58592 22.24419 19.91506
#
# Velocity S-wave (km/s) = 3.03933 3.41825 3.23434
# Velocity P-wave (km/s) = 6.56199 7.04187 6.80616
#
# Compressibility (1/GPa) = 0.01708616
#
# Stress axis : x y z
#
# Youngs Moduli (GPa) = 48.50587 24.03324 42.65368
#
# Poissons Ratio (x) = 0.33891 0.18577
# Poissons Ratio (y) = 0.68402 0.67541
# Poissons Ratio (z) = 0.21125 0.38056
#
# Static dielectric constant tensor:
#      x y z
#    x 1.681090 0.000000 0.000160 
#    y 0.000000 1.660110 0.000000 
#    z 0.000160 0.000000 1.713540 
# 
# From -- ./inp_files/239019.got.cif
#   From: 2010.05.17/outbox.cif.g08.bks.cpg/sg12_120_cif.got.tgz:239019.got - 2010.06.03 13:09:07.
