data_PCOD9192926
_publ_section_title
;
Structure prediction by ZEFSAII (Michael W. Deem and Ramdas Pophale) SiO2 
 PCOD9192926
Probable space group: C 2/M
;
_chemical_formula_sum "Si O2"
_cell_formula_units_Z 64
_cell_length_a 20.723916
_cell_length_b 8.259022
_cell_length_c 20.663203
_cell_angle_alpha 90.000000
_cell_angle_beta 90.174493
_cell_angle_gamma 90.000000
_cell_volume 3536.682509
_symmetry_space_group_name_H-M "C 2/M"
_symmetry_group_IT_number 12
_symmetry_cell_setting 'monoclinic'
loop_
_space_group_symop_operation_xyz
x,y,z
-x,y,-z
-x,-y,-z
x,-y,z
1/2+x,1/2+y,z
1/2-x,1/2+y,-z
1/2-x,1/2-y,-z
1/2+x,1/2-y,z
loop_
_atom_site_type_symbol
_atom_site_label
_atom_site_fract_x
_atom_site_fract_y
_atom_site_fract_z
Si Si1 0.302485 0.695692 0.698122
Si Si2 0.800982 0.193609 0.053215
Si Si3 0.553390 0.195764 0.301488
Si Si4 0.448317 0.695621 0.052492
Si Si5 0.698518 0.804526 0.802104
Si Si6 0.803550 0.806422 0.550377
Si Si7 0.947211 0.304630 0.550872
Si Si8 0.051359 0.695777 0.802667
O O1 0.300974 0.500000 0.698173
O O2 0.374607 0.749650 0.716346
O O3 0.249093 0.754305 0.748727
O O4 0.290184 0.750698 0.624130
O O5 0.874556 0.251034 0.039510
O O6 0.783725 0.253194 0.125157
O O7 0.802030 0.000000 0.053753
O O8 0.750000 0.250000 0.000000
O O9 0.540825 0.251491 0.375271
O O10 0.499671 0.253178 0.250779
O O11 0.552202 0.000000 0.301776
O O12 0.448156 0.500000 0.050690
O O13 0.465762 0.749020 0.125062
O O14 0.500000 0.754007 0.000000
O O15 0.624883 0.749220 0.789525
O O16 0.698355 0.000000 0.799941
O O17 0.750000 0.750000 0.500000
O O18 0.874758 0.745035 0.532526
O O19 0.804584 0.000000 0.551372
O O20 0.950131 0.500000 0.551404
O O21 0.000000 0.244656 0.500000
O O22 0.051446 0.500000 0.801598
#
# Coordination Sequence:
#
# PCOD9192926 Si02
#       8
#     8   8   8   8   8   8   8   8
#     4   9  19  34  52  73  98 131 167 203 245 295
#     4  10  20  34  52  74 100 129 162 201 244 290
#     4   9  18  32  50  74 102 129 161 203 246 290
#     4   9  19  35  52  70  94 125 160 197 236 282
#     4   9  18  34  53  72  97 129 165 203 242 288
#     4  10  20  34  52  75 103 134 170 212 256 303
#     4   9  18  33  53  75 101 135 171 207 250 300
#     4   9  18  32  50  72  97 125 158 198 241 284
#
# _framework density 18.096053999999999
#
# number of rings (size 3 to 8) (size 9 to 14) (size 15 to 20)
#    0.000    2.750    0.000    0.750    0.000    4.500 
#    0.000    7.500    0.000    3.000    0.000    0.000 
#    0.000    0.000    0.000    0.000    0.000    0.000 
#
# Total GULP energy -178453.332465 kJ/mol
# GULP energy per Si atom -5576.666640 kJ/mol
# Density = 1.805487 g / cm^3
# Si number density = 18.096054 Si / 1000 Ang^3
#
#
#
# Elastic Constant Matrix: (Units=GPa)
#
#
# Indices 1 2 3 4 5 6 
#
# 1 159.5668 12.7716 142.3147 0.0000 -2.6772 0.0000
# 2 12.7716 4.0290 12.6682 0.0000 -3.3542 0.0000
# 3 142.3147 12.6682 149.5785 0.0000 -2.5157 0.0000
# 4 0.0000 0.0000 0.0000 22.0340 0.0000 1.1967
# 5 -2.6772 -3.3542 -2.5157 0.0000 45.2609 0.0000
# 6 0.0000 0.0000 0.0000 1.1967 0.0000 26.1032
#
#
#
# Elastic Compliance Matrix: (Units=1/GPa)
#
#
# Indices 1 2 3 4 5 6 
#
# 1 0.041696 -0.010642 -0.038778 0.000000 -0.000478 0.000000
# 2 -0.010642 0.367955 -0.020609 0.000000 0.025493 0.000000
# 3 -0.038778 -0.020609 0.045304 0.000000 -0.001303 0.000000
# 4 0.000000 0.000000 0.000000 0.045498 0.000000 -0.002086
# 5 -0.000478 0.025493 -0.001303 0.000000 0.023883 0.000000
# 6 0.000000 0.000000 0.000000 -0.002086 0.000000 0.038405
#
#
# Mechanical properties :
#
#
# Convention : Reuss Voigt Hill
#
# Bulk Modulus (GPa) = 3.17565 72.07591 37.62578
# Shear Modulus (GPa) = 6.18993 28.37427 17.28210
#
# Velocity S-wave (km/s) = 1.85149 3.96407 3.09369
# Velocity P-wave (km/s) = 2.51583 7.80179 5.79643
#
# Compressibility (1/GPa) = 0.31489632
#
# Stress axis : x y z
#
# Youngs Moduli (GPa) = 23.98303 2.71773 22.07320
#
# Poissons Ratio (x) = 0.02892 0.85595
# Poissons Ratio (y) = 0.25524 0.45490
# Poissons Ratio (z) = 0.93001 0.05601
#
# Static dielectric constant tensor:
#      x y z
#    x 1.608070 0.000000 -0.008410 
#    y 0.000000 1.634790 0.000000 
#    z -0.008410 0.000000 1.606540 
# 
# From -- ./inp_files/314162.got.cif
#   From: 2010.05.17/outbox.cif.g08.bks.cpg/sg12_158_cif.got.tgz:314162.got - 2010.06.03 13:09:07.
