data_PCOD9192615
_publ_section_title
;
Structure prediction by ZEFSAII (Michael W. Deem and Ramdas Pophale) SiO2 
 PCOD9192615
Probable space group: C 2/M
;
_chemical_formula_sum "Si O2"
_cell_formula_units_Z 56
_cell_length_a 12.662313
_cell_length_b 27.415122
_cell_length_c 14.248475
_cell_angle_alpha 90.000000
_cell_angle_beta 41.291138
_cell_angle_gamma 90.000000
_cell_volume 3263.925011
_symmetry_space_group_name_H-M "C 2/M"
_symmetry_group_IT_number 12
_symmetry_cell_setting 'monoclinic'
loop_
_space_group_symop_operation_xyz
x,y,z
-x,y,-z
-x,-y,-z
x,-y,z
1/2+x,1/2+y,z
1/2-x,1/2+y,-z
1/2-x,1/2-y,-z
1/2+x,1/2-y,z
loop_
_atom_site_type_symbol
_atom_site_label
_atom_site_fract_x
_atom_site_fract_y
_atom_site_fract_z
Si Si1 0.331436 0.898442 0.151688
Si Si2 0.527312 0.830354 0.378235
Si Si3 0.265168 0.132831 0.404615
Si Si4 0.506698 0.554350 0.609038
Si Si5 0.172930 0.803103 0.930720
Si Si6 0.300386 0.307187 0.869618
Si Si7 0.095234 0.224427 0.559482
O O1 0.334856 0.888675 0.261535
O O2 0.296869 0.847417 0.122529
O O3 0.171016 0.930015 0.240520
O O4 0.500000 0.918133 0.000000
O O5 0.500000 0.851727 0.500000
O O6 0.401078 0.851279 0.387328
O O7 0.702538 0.832671 0.216715
O O8 0.501598 0.771914 0.405991
O O9 0.143204 0.094691 0.534301
O O10 0.163513 0.181990 0.447132
O O11 0.500000 0.552979 0.500000
O O12 0.546853 0.500000 0.616127
O O13 0.219808 0.745663 0.907177
O O14 0.189182 0.819839 0.027654
O O15 0.000000 0.807162 0.000000
O O16 0.480641 0.302456 0.709882
O O17 0.250000 0.250000 0.500000
#
# Coordination Sequence:
#
# PCOD9192615 Si02
#       7
#     8   8   8   8   8   8   8
#     4  11  21  32  54  76 108 140 171 215 261 321
#     4  10  22  33  50  75 104 140 181 218 252 302
#     4  10  20  36  53  76 104 138 177 218 263 313
#     4   9  19  35  56  80 103 132 171 217 270 320
#     4  10  22  33  48  70 106 142 179 216 255 297
#     4  10  20  34  47  72 101 141 181 213 256 310
#     4   9  19  30  50  69 100 135 178 215 249 295
#
# _framework density 17.157257999999999
#
# number of rings (size 3 to 8) (size 9 to 14) (size 15 to 20)
#    0.000    2.143    1.429    1.286    8.000    3.714 
#    0.000    0.000    0.000    0.429    0.000    0.000 
#    0.000    3.429    0.000    0.000    0.000    0.000 
#
# Total GULP energy -155971.597601 kJ/mol
# GULP energy per Si atom -5570.414200 kJ/mol
# Density = 1.711821 g / cm^3
# Si number density = 17.157258 Si / 1000 Ang^3
#
#
#
# Elastic Constant Matrix: (Units=GPa)
#
#
# Indices 1 2 3 4 5 6 
#
# 1 91.7217 14.8408 53.9827 0.0000 -2.5137 0.0000
# 2 14.8408 60.4834 19.7028 0.0000 -8.7608 0.0000
# 3 53.9827 19.7028 131.9464 0.0000 -14.5306 0.0000
# 4 0.0000 0.0000 0.0000 10.7568 0.0000 -3.7371
# 5 -2.5137 -8.7608 -14.5306 0.0000 27.9566 0.0000
# 6 0.0000 0.0000 0.0000 -3.7371 0.0000 13.4500
#
#
#
# Elastic Compliance Matrix: (Units=1/GPa)
#
#
# Indices 1 2 3 4 5 6 
#
# 1 0.014674 -0.002005 -0.005970 0.000000 -0.002412 0.000000
# 2 -0.002005 0.018165 -0.001363 0.000000 0.004804 0.000000
# 3 -0.005970 -0.001363 0.010733 0.000000 0.004615 0.000000
# 4 0.000000 0.000000 0.000000 0.102897 0.000000 0.028590
# 5 -0.002412 0.004804 0.004615 0.000000 0.039457 0.000000
# 6 0.000000 0.000000 0.000000 0.028590 0.000000 0.082293
#
#
# Mechanical properties :
#
#
# Convention : Reuss Voigt Hill
#
# Bulk Modulus (GPa) = 40.16665 51.24489 45.70577
# Shear Modulus (GPa) = 16.93794 23.47435 20.20615
#
# Velocity S-wave (km/s) = 3.14541 3.70292 3.43549
# Velocity P-wave (km/s) = 6.05419 6.94368 6.51413
#
# Compressibility (1/GPa) = 0.02489627
#
# Stress axis : x y z
#
# Youngs Moduli (GPa) = 68.14563 55.04985 93.17083
#
# Poissons Ratio (x) = 0.11039 0.55622
# Poissons Ratio (y) = 0.13665 0.12700
# Poissons Ratio (z) = 0.40682 0.07504
#
# Static dielectric constant tensor:
#      x y z
#    x 1.602680 0.000000 0.016730 
#    y 0.000000 1.576500 0.000000 
#    z 0.016730 0.000000 1.630150 
# 
# From -- ./inp_files/209129.got.cif
#   From: 2010.05.17/outbox.cif.g08.bks.cpg/sg12_105_cif.got.tgz:209129.got - 2010.06.03 13:09:07.
