data_PCOD9192920
_publ_section_title
;
Structure prediction by ZEFSAII (Michael W. Deem and Ramdas Pophale) SiO2 
 PCOD9192920
Probable space group: C 2/M
;
_chemical_formula_sum "Si O2"
_cell_formula_units_Z 40
_cell_length_a 16.582794
_cell_length_b 7.363128
_cell_length_c 18.912766
_cell_angle_alpha 90.000000
_cell_angle_beta 39.905818
_cell_angle_gamma 90.000000
_cell_volume 1481.461612
_symmetry_space_group_name_H-M "C 2/M"
_symmetry_group_IT_number 12
_symmetry_cell_setting 'monoclinic'
loop_
_space_group_symop_operation_xyz
x,y,z
-x,y,-z
-x,-y,-z
x,-y,z
1/2+x,1/2+y,z
1/2-x,1/2+y,-z
1/2-x,1/2-y,-z
1/2+x,1/2-y,z
loop_
_atom_site_type_symbol
_atom_site_label
_atom_site_fract_x
_atom_site_fract_y
_atom_site_fract_z
Si Si1 0.662940 0.220964 0.960772
Si Si2 0.068113 0.210438 0.227497
Si Si3 0.298769 0.708297 0.372407
Si Si4 0.888278 0.718779 0.166712
Si Si5 0.975351 0.720011 0.436578
O O1 0.800969 0.288522 0.889445
O O2 0.643846 0.273070 0.891292
O O3 0.665934 0.000000 0.960931
O O4 0.533004 0.277030 0.084886
O O5 0.933270 0.295895 0.299551
O O6 0.068940 0.216137 0.312664
O O7 0.064072 0.000000 0.208828
O O8 0.302613 0.500000 0.393113
O O9 0.297099 0.709717 0.288117
O O10 0.166451 0.783690 0.487244
O O11 0.884631 0.500000 0.171130
O O12 0.976728 0.500000 0.435368
O O13 0.000000 0.780239 0.500000
#
# Coordination Sequence:
#
# PCOD9192920 Si02
#       5
#     8   8   8   8   8
#     4   8  16  32  52  74  98 125 162 205 240 275
#     4  10  20  34  52  73  99 129 161 199 241 287
#     4  10  21  34  48  72 104 130 156 199 248 286
#     4   9  17  32  54  74  95 128 166 199 235 285
#     4  10  21  36  52  71  98 129 161 201 245 286
#
# _framework density 27.000364000000001
#
# number of rings (size 3 to 8) (size 9 to 14) (size 15 to 20)
#    0.000    2.600    0.000    3.000    0.000    2.800 
#    0.000    3.000    0.000    0.000    0.000    0.000 
#    0.000    0.000    0.000    0.000    0.000    0.000 
#
# Total GULP energy -111930.718040 kJ/mol
# GULP energy per Si atom -5596.535902 kJ/mol
# Density = 2.693891 g / cm^3
# Si number density = 27.000364 Si / 1000 Ang^3
#
#
#
# Elastic Constant Matrix: (Units=GPa)
#
#
# Indices 1 2 3 4 5 6 
#
# 1 78.2249 12.3358 14.9583 0.0000 -17.9792 0.0000
# 2 12.3358 119.8685 1.9193 -0.0004 -0.3015 0.0003
# 3 14.9583 1.9193 161.2729 0.0001 -19.6495 0.0000
# 4 0.0000 -0.0004 0.0001 5.2444 0.0000 11.1357
# 5 -17.9792 -0.3015 -19.6495 0.0000 65.9226 0.0000
# 6 0.0000 0.0003 0.0000 11.1357 0.0000 9.2129
#
#
#
# Elastic Compliance Matrix: (Units=1/GPa)
#
#
# Indices 1 2 3 4 5 6 
#
# 1 0.013986 -0.001417 -0.000847 0.000000 0.003556 0.000000
# 2 -0.001417 0.008488 -0.000012 -0.000001 -0.000351 0.000001
# 3 -0.000847 -0.000012 0.006487 0.000000 0.001702 0.000000
# 4 0.000000 -0.000001 0.000000 -0.121721 0.000000 0.147125
# 5 0.003556 -0.000351 0.001702 0.000000 0.016645 0.000000
# 6 0.000000 0.000001 0.000000 0.147125 0.000000 -0.069289
#
#
# Mechanical properties :
#
#
# Convention : Reuss Voigt Hill
#
# Bulk Modulus (GPa) = 40.97040 46.42145 43.69593
# Shear Modulus (GPa) = -37.67467 38.08616 0.20574
#
# Velocity S-wave (km/s) = -3.73948 3.75984 0.27634
# Velocity P-wave (km/s) = 1.85417 6.00656 4.03985
#
# Compressibility (1/GPa) = 0.02440786
#
# Stress axis : x y z
#
# Youngs Moduli (GPa) = 71.49864 117.81895 154.15886
#
# Poissons Ratio (x) = 0.16693 0.13060
# Poissons Ratio (y) = 0.10130 0.00191
# Poissons Ratio (z) = 0.06057 0.00146
#
# Static dielectric constant tensor:
#      x y z
#    x 2.213420 0.000000 -0.022000 
#    y 0.000000 1.977780 0.000000 
#    z -0.022000 0.000000 2.026830 
# 
# From -- ./inp_files/71417.got.cif
#   From: 2010.05.17/outbox.cif.g08.bks.cpg/sg12_36_cif.got.tgz:71417.got - 2010.06.03 13:09:07.
