data_PCOD9192824
_publ_section_title
;
Structure prediction by ZEFSAII (Michael W. Deem and Ramdas Pophale) SiO2 
 PCOD9192824
Probable space group: C 2/M
;
_chemical_formula_sum "Si O2"
_cell_formula_units_Z 56
_cell_length_a 22.712647
_cell_length_b 23.099852
_cell_length_c 8.489632
_cell_angle_alpha 90.000000
_cell_angle_beta 37.900249
_cell_angle_gamma 90.000000
_cell_volume 2736.139844
_symmetry_space_group_name_H-M "C 2/M"
_symmetry_group_IT_number 12
_symmetry_cell_setting 'monoclinic'
loop_
_space_group_symop_operation_xyz
x,y,z
-x,y,-z
-x,-y,-z
x,-y,z
1/2+x,1/2+y,z
1/2-x,1/2+y,-z
1/2-x,1/2-y,-z
1/2+x,1/2-y,z
loop_
_atom_site_type_symbol
_atom_site_label
_atom_site_fract_x
_atom_site_fract_y
_atom_site_fract_z
Si Si1 0.775214 0.323387 0.769962
Si Si2 0.876615 0.246592 0.067949
Si Si3 0.546480 0.066667 0.143705
Si Si4 0.851097 0.567002 0.733986
Si Si5 0.900558 0.149765 0.280999
Si Si6 0.937990 0.232842 0.476462
Si Si7 0.696424 0.860568 0.648051
O O1 0.673549 0.293013 0.957711
O O2 0.774947 0.382323 0.869117
O O3 0.849423 0.276373 0.680944
O O4 0.805537 0.341496 0.528804
O O5 0.884322 0.206685 0.205595
O O6 0.811988 0.301805 0.233559
O O7 0.982720 0.265656 0.798805
O O8 0.439564 0.081611 0.428656
O O9 0.607827 0.070479 0.176282
O O10 0.543120 0.000000 0.101211
O O11 0.605193 0.101928 0.890544
O O12 0.822248 0.500000 0.766324
O O13 0.912860 0.175113 0.430568
O O14 0.802164 0.114194 0.464694
O O15 0.000000 0.124271 0.000000
O O16 0.000000 0.220996 0.500000
#
# Coordination Sequence:
#
# PCOD9192824 Si02
#       7
#     8   8   8   8   8   8   8
#     4  11  21  34  51  78 106 139 179 212 258 306
#     4  10  20  34  51  74 107 140 173 212 261 310
#     4   9  20  36  54  76 103 138 177 213 258 309
#     4   9  20  37  51  72 108 142 169 211 264 306
#     4   9  18  36  51  69 106 143 167 210 266 308
#     4  11  22  31  47  75 109 139 175 210 253 308
#     4  11  19  34  55  76 102 139 178 217 253 305
#
# _framework density 20.466788999999999
#
# number of rings (size 3 to 8) (size 9 to 14) (size 15 to 20)
#    0.000    2.000    2.857    2.571    4.000    4.000 
#    0.000    1.429    0.000    0.429    0.000    3.000 
#    0.000   21.714    0.000    0.000    0.000    0.000 
#
# Total GULP energy -156234.032074 kJ/mol
# GULP energy per Si atom -5579.786860 kJ/mol
# Density = 2.042021 g / cm^3
# Si number density = 20.466789 Si / 1000 Ang^3
#
#
#
# Elastic Constant Matrix: (Units=GPa)
#
#
# Indices 1 2 3 4 5 6 
#
# 1 96.3009 17.8884 -1.8739 0.0000 -0.1482 0.0000
# 2 17.8884 33.8935 1.9029 0.0000 -0.6620 0.0000
# 3 -1.8739 1.9029 63.8351 0.0000 -4.6387 0.0000
# 4 0.0000 0.0000 0.0000 12.4428 0.0000 8.5546
# 5 -0.1482 -0.6620 -4.6387 0.0000 25.2241 0.0000
# 6 0.0000 0.0000 0.0000 8.5546 0.0000 13.3758
#
#
#
# Elastic Compliance Matrix: (Units=1/GPa)
#
#
# Indices 1 2 3 4 5 6 
#
# 1 0.011530 -0.006115 0.000521 0.000000 0.000003 0.000000
# 2 -0.006115 0.032806 -0.001112 0.000000 0.000620 0.000000
# 3 0.000521 -0.001112 0.015925 0.000000 0.002902 0.000000
# 4 0.000000 0.000000 0.000000 0.143438 0.000000 -0.091737
# 5 0.000003 0.000620 0.002902 0.000000 0.040195 0.000000
# 6 0.000000 0.000000 0.000000 -0.091737 0.000000 0.133433
#
#
# Mechanical properties :
#
#
# Convention : Reuss Voigt Hill
#
# Bulk Modulus (GPa) = 21.34521 25.54046 23.44284
# Shear Modulus (GPa) = 12.30453 21.94934 17.12693
#
# Velocity S-wave (km/s) = 2.45459 3.27836 2.89592
# Velocity P-wave (km/s) = 4.29944 5.18037 4.76033
#
# Compressibility (1/GPa) = 0.04684891
#
# Stress axis : x y z
#
# Youngs Moduli (GPa) = 86.72968 30.48227 62.79541
#
# Poissons Ratio (x) = 0.18639 -0.03271
# Poissons Ratio (y) = 0.53031 0.06985
# Poissons Ratio (z) = -0.04518 0.03391
#
# Static dielectric constant tensor:
#      x y z
#    x 1.777580 0.000000 0.009620 
#    y 0.000000 1.699700 0.000000 
#    z 0.009620 0.000000 1.778720 
# 
# From -- ./inp_files/99608.got.cif
#   From: 2010.05.17/outbox.cif.g08.bks.cpg/sg12_50_cif.got.tgz:99608.got - 2010.06.03 13:09:07.
