data_PCOD9192480
_publ_section_title
;
Structure prediction by ZEFSAII (Michael W. Deem and Ramdas Pophale) SiO2 
 PCOD9192480
Probable space group: C 2/M
;
_chemical_formula_sum "Si O2"
_cell_formula_units_Z 56
_cell_length_a 19.595579
_cell_length_b 9.118341
_cell_length_c 19.049688
_cell_angle_alpha 90.000000
_cell_angle_beta 113.011497
_cell_angle_gamma 90.000000
_cell_volume 3132.931347
_symmetry_space_group_name_H-M "C 2/M"
_symmetry_group_IT_number 12
_symmetry_cell_setting 'monoclinic'
loop_
_space_group_symop_operation_xyz
x,y,z
-x,y,-z
-x,-y,-z
x,-y,z
1/2+x,1/2+y,z
1/2-x,1/2+y,-z
1/2-x,1/2-y,-z
1/2+x,1/2-y,z
loop_
_atom_site_type_symbol
_atom_site_label
_atom_site_fract_x
_atom_site_fract_y
_atom_site_fract_z
Si Si1 0.779000 0.323979 0.859851
Si Si2 0.083244 0.823410 0.008295
Si Si3 0.961682 0.169498 0.554580
Si Si4 0.713850 0.173895 0.697953
Si Si5 0.711866 0.330750 0.549012
Si Si6 0.946717 0.672275 0.296649
Si Si7 0.121107 0.824595 0.863103
O O1 0.783470 0.500000 0.856524
O O2 0.853496 0.257088 0.921785
O O3 0.761461 0.252946 0.777350
O O4 0.707001 0.287355 0.879642
O O5 0.092125 0.000000 0.019093
O O6 0.097365 0.785675 0.932282
O O7 0.000000 0.786481 0.000000
O O8 0.875168 0.170668 0.504147
O O9 0.000000 0.231919 0.500000
O O10 0.986878 0.256125 0.633169
O O11 0.986836 0.000000 0.572891
O O12 0.725234 0.246991 0.627207
O O13 0.628053 0.193999 0.687052
O O14 0.729077 0.000000 0.702369
O O15 0.735834 0.500000 0.564720
O O16 0.750000 0.250000 0.500000
O O17 0.958190 0.500000 0.291918
O O18 0.929423 0.747349 0.215531
O O19 0.114042 0.000000 0.852313
#
# Coordination Sequence:
#
# PCOD9192480 Si02
#       7
#     8   8   8   8   8   8   8
#     4  10  20  35  59  86 110 143 185 232 280 330
#     4  10  21  38  58  82 113 149 184 224 277 337
#     4  10  20  36  59  83 111 149 189 230 280 336
#     4  10  20  36  58  84 114 147 187 234 282 334
#     4  11  23  39  58  82 114 152 191 233 281 336
#     4  10  20  33  56  88 115 142 184 240 285 324
#     4   9  19  36  58  82 111 146 186 229 277 336
#
# _framework density 17.874632999999999
#
# number of rings (size 3 to 8) (size 9 to 14) (size 15 to 20)
#    0.000    2.000    1.429    2.143    0.000    4.000 
#    2.571    0.000    0.000    0.000    0.000    0.000 
#    0.000    0.000    0.000    0.000    0.000    0.000 
#
# Total GULP energy -156324.631290 kJ/mol
# GULP energy per Si atom -5583.022546 kJ/mol
# Density = 1.783395 g / cm^3
# Si number density = 17.874633 Si / 1000 Ang^3
#
#
#
# Elastic Constant Matrix: (Units=GPa)
#
#
# Indices 1 2 3 4 5 6 
#
# 1 76.4964 47.4193 72.4553 0.0000 -11.6343 0.0000
# 2 47.4193 73.7124 76.8502 0.0000 -10.5267 0.0000
# 3 72.4553 76.8502 167.5481 0.0000 -10.7647 0.0000
# 4 0.0000 0.0000 0.0000 34.5393 0.0000 3.0004
# 5 -11.6343 -10.5267 -10.7647 0.0000 23.2783 0.0000
# 6 0.0000 0.0000 0.0000 3.0004 0.0000 24.8294
#
#
#
# Elastic Compliance Matrix: (Units=1/GPa)
#
#
# Indices 1 2 3 4 5 6 
#
# 1 0.025759 -0.008655 -0.006796 0.000000 0.005818 0.000000
# 2 -0.008655 0.029877 -0.009658 0.000000 0.004719 0.000000
# 3 -0.006796 -0.009658 0.013231 0.000000 -0.001645 0.000000
# 4 0.000000 0.000000 0.000000 0.029260 0.000000 -0.003536
# 5 0.005818 0.004719 -0.001645 0.000000 0.047239 0.000000
# 6 0.000000 0.000000 0.000000 -0.003536 0.000000 0.040702
#
#
# Mechanical properties :
#
#
# Convention : Reuss Voigt Hill
#
# Bulk Modulus (GPa) = 53.61886 79.02293 66.32090
# Shear Modulus (GPa) = 20.61835 24.59821 22.60828
#
# Velocity S-wave (km/s) = 3.40000 3.71368 3.56030
# Velocity P-wave (km/s) = 6.74356 7.91796 7.35424
#
# Compressibility (1/GPa) = 0.01865015
#
# Stress axis : x y z
#
# Youngs Moduli (GPa) = 38.82083 33.47083 75.57823
#
# Poissons Ratio (x) = 0.28969 0.51362
# Poissons Ratio (y) = 0.33600 0.72991
# Poissons Ratio (z) = 0.26382 0.32325
#
# Static dielectric constant tensor:
#      x y z
#    x 1.598270 0.000000 -0.009390 
#    y 0.000000 1.599340 0.000000 
#    z -0.009390 0.000000 1.577160 
# 
# From -- ./inp_files/275219.got.cif
#   From: 2010.05.17/outbox.cif.g08.bks.cpg/sg12_138_cif.got.tgz:275219.got - 2010.06.03 13:09:07.
