data_PCOD9192782
_publ_section_title
;
Structure prediction by ZEFSAII (Michael W. Deem and Ramdas Pophale) SiO2 
 PCOD9192782
Probable space group: C 2/M
;
_chemical_formula_sum "Si O2"
_cell_formula_units_Z 48
_cell_length_a 28.349161
_cell_length_b 9.143114
_cell_length_c 11.512266
_cell_angle_alpha 90.000000
_cell_angle_beta 78.351208
_cell_angle_gamma 90.000000
_cell_volume 2922.515907
_symmetry_space_group_name_H-M "C 2/M"
_symmetry_group_IT_number 12
_symmetry_cell_setting 'monoclinic'
loop_
_space_group_symop_operation_xyz
x,y,z
-x,y,-z
-x,-y,-z
x,-y,z
1/2+x,1/2+y,z
1/2-x,1/2+y,-z
1/2-x,1/2-y,-z
1/2+x,1/2-y,z
loop_
_atom_site_type_symbol
_atom_site_label
_atom_site_fract_x
_atom_site_fract_y
_atom_site_fract_z
Si Si1 0.587270 0.324458 0.281625
Si Si2 0.105671 0.825305 0.540743
Si Si3 0.822551 0.173902 0.920247
Si Si4 0.777876 0.326819 0.160564
Si Si5 0.790719 0.175649 0.401060
Si Si6 0.009710 0.331443 0.634435
O O1 0.581569 0.500000 0.281140
O O2 0.604470 0.286375 0.404185
O O3 0.628601 0.283770 0.169844
O O4 0.535862 0.249522 0.286999
O O5 0.156892 0.789818 0.571279
O O6 0.060864 0.746736 0.624605
O O7 0.098483 0.000000 0.551599
O O8 0.777023 0.194934 0.856846
O O9 0.824363 0.000000 0.946341
O O10 0.811379 0.264773 0.041160
O O11 0.785135 0.500000 0.173900
O O12 0.786569 0.239803 0.274195
O O13 0.750000 0.250000 0.500000
O O14 0.784965 0.000000 0.404039
O O15 0.011699 0.500000 0.668678
O O16 0.000000 0.325522 0.500000
#
# Coordination Sequence:
#
# PCOD9192782 Si02
#       6
#     8   8   8   8   8   8
#     4   9  16  29  50  72  96 127 163 200 239 287
#     4   9  18  32  49  70  98 132 164 195 237 290
#     4   9  18  33  52  73  98 130 167 204 242 289
#     4  10  20  34  51  73 101 131 165 203 245 290
#     4  11  22  35  52  74 101 132 166 201 240 290
#     4   9  17  28  44  70 100 126 157 199 244 287
#
# _framework density 16.424204
#
# number of rings (size 3 to 8) (size 9 to 14) (size 15 to 20)
#    0.000    2.500    0.000    2.500    0.000    7.333 
#    0.000    3.333    0.000    1.000    0.000    7.000 
#    0.000    0.000    0.000    0.000    0.000    0.000 
#
# Total GULP energy -133858.879817 kJ/mol
# GULP energy per Si atom -5577.453326 kJ/mol
# Density = 1.638682 g / cm^3
# Si number density = 16.424204 Si / 1000 Ang^3
#
#
#
# Elastic Constant Matrix: (Units=GPa)
#
#
# Indices 1 2 3 4 5 6 
#
# 1 143.1675 77.6632 81.3076 0.0000 -27.5680 0.0000
# 2 77.6632 66.3480 56.6681 0.0000 -10.5501 0.0000
# 3 81.3076 56.6681 97.0194 0.0000 -19.2083 0.0000
# 4 0.0000 0.0000 0.0000 27.5037 0.0000 -3.5438
# 5 -27.5680 -10.5501 -19.2083 0.0000 32.4884 0.0000
# 6 0.0000 0.0000 0.0000 -3.5438 0.0000 29.1413
#
#
#
# Elastic Compliance Matrix: (Units=1/GPa)
#
#
# Indices 1 2 3 4 5 6 
#
# 1 0.023497 -0.021522 -0.005161 0.000000 0.009898 0.000000
# 2 -0.021522 0.049803 -0.012987 0.000000 -0.009768 0.000000
# 3 -0.005161 -0.012987 0.023236 0.000000 0.005141 0.000000
# 4 0.000000 0.000000 0.000000 0.036938 0.000000 0.004492
# 5 0.009898 -0.009768 0.005141 0.000000 0.039046 0.000000
# 6 0.000000 0.000000 0.000000 0.004492 0.000000 0.034862
#
#
# Mechanical properties :
#
#
# Convention : Reuss Voigt Hill
#
# Bulk Modulus (GPa) = 58.15345 81.97921 70.06633
# Shear Modulus (GPa) = 17.09668 23.88641 20.49155
#
# Velocity S-wave (km/s) = 3.22987 3.81772 3.53603
# Velocity P-wave (km/s) = 7.02805 8.33399 7.70872
#
# Compressibility (1/GPa) = 0.01719589
#
# Stress axis : x y z
#
# Youngs Moduli (GPa) = 42.55921 20.07895 43.03640
#
# Poissons Ratio (x) = 0.43213 0.22212
# Poissons Ratio (y) = 0.91595 0.55892
# Poissons Ratio (z) = 0.21966 0.26077
#
# Static dielectric constant tensor:
#      x y z
#    x 1.537630 0.000000 -0.002120 
#    y 0.000000 1.547120 0.000000 
#    z -0.002120 0.000000 1.529280 
# 
# From -- ./inp_files/172402.got.cif
#   From: 2010.05.17/outbox.cif.g08.bks.cpg/sg12_87_cif.got.tgz:172402.got - 2010.06.03 13:09:07.
