data_PCOD9192048
_publ_section_title
;
Structure prediction by ZEFSAII (Michael W. Deem and Ramdas Pophale) SiO2 
 PCOD9192048
Probable space group: C 2/M
;
_chemical_formula_sum "Si O2"
_cell_formula_units_Z 58
_cell_length_a 27.638117
_cell_length_b 12.706240
_cell_length_c 9.507188
_cell_angle_alpha 90.000000
_cell_angle_beta 84.164384
_cell_angle_gamma 90.000000
_cell_volume 3321.399303
_symmetry_space_group_name_H-M "C 2/M"
_symmetry_group_IT_number 12
_symmetry_cell_setting 'monoclinic'
loop_
_space_group_symop_operation_xyz
x,y,z
-x,y,-z
-x,-y,-z
x,-y,z
1/2+x,1/2+y,z
1/2-x,1/2+y,-z
1/2-x,1/2-y,-z
1/2+x,1/2-y,z
loop_
_atom_site_type_symbol
_atom_site_label
_atom_site_fract_x
_atom_site_fract_y
_atom_site_fract_z
Si Si1 0.843074 0.873881 0.848733
Si Si2 0.021037 0.211618 0.841915
Si Si3 0.625764 0.376672 0.857185
Si Si4 0.933911 0.690668 0.435219
Si Si5 0.231024 0.874213 0.351836
Si Si6 0.827354 0.739702 0.400877
Si Si7 0.000000 0.500000 0.500000
Si Si8 0.441462 0.376033 0.650856
O O1 0.793037 0.841780 0.789885
O O2 0.888334 0.853773 0.732113
O O3 0.841342 0.000000 0.863902
O O4 0.855722 0.832796 0.998857
O O5 0.067846 0.139806 0.861367
O O6 0.042375 0.299349 0.728102
O O7 0.980089 0.152263 0.761820
O O8 0.000000 0.246607 0.000000
O O9 0.636344 0.500000 0.842838
O O10 0.652268 0.314733 0.726601
O O11 0.875697 0.683122 0.443739
O O12 0.945671 0.799069 0.515944
O O13 0.958251 0.593030 0.503948
O O14 0.198896 0.812941 0.476466
O O15 0.286329 0.838571 0.354964
O O16 0.226073 0.000000 0.369634
O O17 0.445136 0.500000 0.613183
#
# Coordination Sequence:
#
# PCOD9192048 Si02
#       8
#     8   8   8   8   8   8   2   8
#     4   9  18  32  54  81 111 146 178 223 291 345
#     4  11  21  35  55  88 121 148 190 233 294 347
#     4  10  20  33  52  81 117 151 179 225 285 347
#     4  11  24  40  60  85 113 162 198 238 286 342
#     4  10  20  37  58  82 109 141 183 239 292 339
#     4  10  22  36  56  84 108 143 191 235 285 339
#     4  12  24  44  60  80 116 160 210 234 272 340
#     4  11  20  35  57  87 119 148 188 239 291 349
#
# _framework density 17.462520000000001
#
# number of rings (size 3 to 8) (size 9 to 14) (size 15 to 20)
#    0.000    1.655    4.138    0.828    0.966    4.414 
#    0.000    0.345    0.000    0.000    1.793    0.000 
#    0.000    0.000    0.000    0.000    0.000    0.000 
#
# Total GULP energy -161440.843286 kJ/mol
# GULP energy per Si atom -5566.925631 kJ/mol
# Density = 1.742277 g / cm^3
# Si number density = 17.462520 Si / 1000 Ang^3
#
#
#
# Elastic Constant Matrix: (Units=GPa)
#
#
# Indices 1 2 3 4 5 6 
#
# 1 147.6710 30.5013 30.9492 0.0000 26.5006 0.0000
# 2 30.5013 52.1931 3.6358 0.0000 9.8833 0.0000
# 3 30.9492 3.6358 67.1567 0.0000 11.5423 0.0000
# 4 0.0000 0.0000 0.0000 4.0644 0.0000 5.7383
# 5 26.5006 9.8833 11.5423 0.0000 31.9814 0.0000
# 6 0.0000 0.0000 0.0000 5.7383 0.0000 19.3407
#
#
#
# Elastic Compliance Matrix: (Units=1/GPa)
#
#
# Indices 1 2 3 4 5 6 
#
# 1 0.009230 -0.004187 -0.003129 0.000000 -0.005225 0.000000
# 2 -0.004187 0.022249 0.001397 0.000000 -0.003911 0.000000
# 3 -0.003129 0.001397 0.016936 0.000000 -0.003951 0.000000
# 4 0.000000 0.000000 0.000000 0.423388 0.000000 -0.125617
# 5 -0.005225 -0.003911 -0.003951 0.000000 0.038233 0.000000
# 6 0.000000 0.000000 0.000000 -0.125617 0.000000 0.088974
#
#
# Mechanical properties :
#
#
# Convention : Reuss Voigt Hill
#
# Bulk Modulus (GPa) = 27.33849 44.13259 35.73554
# Shear Modulus (GPa) = 8.02517 24.53960 16.28238
#
# Velocity S-wave (km/s) = 2.14607 3.75276 3.05687
# Velocity P-wave (km/s) = 4.67230 6.64118 5.74176
#
# Compressibility (1/GPa) = 0.03657847
#
# Stress axis : x y z
#
# Youngs Moduli (GPa) = 108.34239 44.94488 59.04580
#
# Poissons Ratio (x) = 0.18816 0.18475
# Poissons Ratio (y) = 0.45358 -0.08248
# Poissons Ratio (z) = 0.33900 -0.06279
#
# Static dielectric constant tensor:
#      x y z
#    x 1.612330 0.000000 0.020550 
#    y 0.000000 1.556790 0.000000 
#    z 0.020550 0.000000 1.624780 
# 
# From -- ./inp_files/103205.got.cif
#   From: 2010.05.17/outbox.cif.g08.bks.cpg/sg12_52_cif.got.tgz:103205.got - 2010.06.03 13:09:07.
