data_PCOD9192470
_publ_section_title
;
Structure prediction by ZEFSAII (Michael W. Deem and Ramdas Pophale) SiO2 
 PCOD9192470
Probable space group: C 2/M
;
_chemical_formula_sum "Si O2"
_cell_formula_units_Z 42
_cell_length_a 28.431116
_cell_length_b 13.066821
_cell_length_c 24.767015
_cell_angle_alpha 90.000000
_cell_angle_beta 168.092422
_cell_angle_gamma 90.000000
_cell_volume 1898.486340
_symmetry_space_group_name_H-M "C 2/M"
_symmetry_group_IT_number 12
_symmetry_cell_setting 'monoclinic'
loop_
_space_group_symop_operation_xyz
x,y,z
-x,y,-z
-x,-y,-z
x,-y,z
1/2+x,1/2+y,z
1/2-x,1/2+y,-z
1/2-x,1/2-y,-z
1/2+x,1/2-y,z
loop_
_atom_site_type_symbol
_atom_site_label
_atom_site_fract_x
_atom_site_fract_y
_atom_site_fract_z
Si Si1 0.559272 0.615486 0.141174
Si Si2 0.754108 0.620586 0.590836
Si Si3 0.500000 0.500000 0.500000
Si Si4 0.716600 0.193339 0.159310
Si Si5 0.510289 0.224236 0.630916
Si Si6 0.029907 0.881437 0.831433
O O1 0.484838 0.500000 0.044247
O O2 0.552675 0.624765 0.199356
O O3 0.816997 0.637493 0.412904
O O4 0.397661 0.708487 0.940197
O O5 0.730061 0.500000 0.573040
O O6 0.600766 0.682940 0.460852
O O7 0.662634 0.644791 0.428312
O O8 0.014104 0.652287 0.892658
O O9 0.305853 0.591783 0.288597
O O10 0.914014 0.239205 0.343035
O O11 0.741818 0.184261 0.918261
O O12 0.091827 0.000000 0.891419
#
# Coordination Sequence:
#
# PCOD9192470 Si02
#       6
#     8   8   2   8   8   8
#     4   9  19  38  60  89 123 155 190 238 294 356
#     4  10  20  34  51  82 122 159 198 242 287 345
#     4  12  24  48  68  80 116 158 208 254 314 358
#     4  10  23  40  61  84 112 156 200 252 302 352
#     4  10  20  33  56  87 113 155 199 239 292 351
#     4   9  18  32  54  83 123 163 191 228 287 355
#
# _framework density 22.122888
#
# number of rings (size 3 to 8) (size 9 to 14) (size 15 to 20)
#    0.000    2.286    0.952    1.143    1.333    9.143 
#    0.000   11.905    0.000    1.143    0.000    0.000 
#    0.000    0.000    0.000    0.000    0.000    0.000 
#
# Total GULP energy -117047.105739 kJ/mol
# GULP energy per Si atom -5573.671702 kJ/mol
# Density = 2.207254 g / cm^3
# Si number density = 22.122888 Si / 1000 Ang^3
#
#
#
# Elastic Constant Matrix: (Units=GPa)
#
#
# Indices 1 2 3 4 5 6 
#
# 1 69.0593 19.6672 22.9284 -0.0045 10.1683 0.0003
# 2 19.6672 175.0591 47.7178 -0.0152 -0.9914 -0.0108
# 3 22.9284 47.7178 118.2102 -0.0126 2.0890 -0.0114
# 4 -0.0045 -0.0152 -0.0126 42.3641 -0.0052 -7.0448
# 5 10.1683 -0.9914 2.0890 -0.0052 34.0501 -0.0025
# 6 0.0003 -0.0108 -0.0114 -7.0448 -0.0025 13.7925
#
#
#
# Elastic Compliance Matrix: (Units=1/GPa)
#
#
# Indices 1 2 3 4 5 6 
#
# 1 0.016382 -0.001151 -0.002629 -0.000001 -0.004764 -0.000005
# 2 -0.001151 0.006504 -0.002414 0.000002 0.000681 0.000004
# 3 -0.002629 -0.002414 0.009942 0.000003 0.000105 0.000008
# 4 -0.000001 0.000002 0.000003 0.025796 0.000005 0.013176
# 5 -0.004764 0.000681 0.000105 0.000005 0.030805 0.000009
# 6 -0.000005 0.000004 0.000008 0.013176 0.000009 0.079233
#
#
# Mechanical properties :
#
#
# Convention : Reuss Voigt Hill
#
# Bulk Modulus (GPa) = 48.92277 60.32839 54.62558
# Shear Modulus (GPa) = 26.61522 36.17568 31.39545
#
# Velocity S-wave (km/s) = 3.47228 4.04817 3.77123
# Velocity P-wave (km/s) = 6.18367 7.01278 6.61123
#
# Compressibility (1/GPa) = 0.02044038
#
# Stress axis : x y z
#
# Youngs Moduli (GPa) = 61.04116 153.76220 100.58297
#
# Poissons Ratio (x) = 0.17697 0.26441
# Poissons Ratio (y) = 0.07025 0.24282
# Poissons Ratio (z) = 0.16046 0.37119
#
# Static dielectric constant tensor:
#      x y z
#    x 1.818270 -0.000010 -0.049060 
#    y -0.000010 1.817520 -0.000010 
#    z -0.049060 -0.000010 1.811160 
# 
# From -- ./inp_files/24288.got.cif
#   From: 2010.05.17/outbox.cif.g08.bks.cpg/sg12_13_cif.got.tgz:24288.got - 2010.06.03 13:09:07.
