data_PCOD9192247
_publ_section_title
;
Structure prediction by ZEFSAII (Michael W. Deem and Ramdas Pophale) SiO2 
 PCOD9192247
Probable space group: C 2/M
;
_chemical_formula_sum "Si O2"
_cell_formula_units_Z 56
_cell_length_a 19.545006
_cell_length_b 17.743051
_cell_length_c 9.851225
_cell_angle_alpha 90.000000
_cell_angle_beta 99.366324
_cell_angle_gamma 90.000000
_cell_volume 3370.741010
_symmetry_space_group_name_H-M "C 2/M"
_symmetry_group_IT_number 12
_symmetry_cell_setting 'monoclinic'
loop_
_space_group_symop_operation_xyz
x,y,z
-x,y,-z
-x,-y,-z
x,-y,z
1/2+x,1/2+y,z
1/2-x,1/2+y,-z
1/2-x,1/2-y,-z
1/2+x,1/2-y,z
loop_
_atom_site_type_symbol
_atom_site_label
_atom_site_fract_x
_atom_site_fract_y
_atom_site_fract_z
Si Si1 0.190303 0.184168 0.104225
Si Si2 0.557227 0.410641 0.131735
Si Si3 0.987317 0.330467 0.155604
Si Si4 0.815610 0.267254 0.612207
Si Si5 0.463268 0.302198 0.631674
Si Si6 0.836043 0.659513 0.038567
Si Si7 0.870574 0.411951 0.761444
O O1 0.129162 0.125393 0.105861
O O2 0.198954 0.229850 0.246565
O O3 0.262460 0.146228 0.085238
O O4 0.166443 0.250204 0.993055
O O5 0.561830 0.500000 0.143046
O O6 0.539337 0.374492 0.271454
O O7 0.500000 0.391017 0.000000
O O8 0.907741 0.356400 0.139847
O O9 0.001342 0.261759 0.261957
O O10 0.047326 0.391213 0.207347
O O11 0.000000 0.308875 0.000000
O O12 0.750000 0.250000 0.500000
O O13 0.885230 0.227384 0.581116
O O14 0.833992 0.354961 0.644060
O O15 0.500000 0.313065 0.500000
O O16 0.842106 0.613597 0.900000
O O17 0.859791 0.500000 0.733412
#
# Coordination Sequence:
#
# PCOD9192247 Si02
#       7
#     8   8   8   8   8   8   8
#     4   9  18  32  50  75 103 132 172 220 256 302
#     4  10  20  36  54  71 101 139 170 213 275 323
#     4   9  17  31  53  79 104 137 171 206 258 313
#     4   9  19  35  52  74 103 141 178 207 253 308
#     4  10  20  33  54  79 101 130 178 225 251 302
#     4   9  17  29  52  80 105 129 169 218 255 303
#     4   9  18  33  52  77 109 136 167 213 260 308
#
# _framework density 16.613557
#
# number of rings (size 3 to 8) (size 9 to 14) (size 15 to 20)
#    0.000    2.714    0.000    3.857    2.000    3.429 
#    2.571    2.857    0.000    6.857    0.000    0.000 
#    0.000    0.000    0.000    0.000    0.000    0.000 
#
# Total GULP energy -156012.165593 kJ/mol
# GULP energy per Si atom -5571.863057 kJ/mol
# Density = 1.657574 g / cm^3
# Si number density = 16.613557 Si / 1000 Ang^3
#
#
#
# Elastic Constant Matrix: (Units=GPa)
#
#
# Indices 1 2 3 4 5 6 
#
# 1 128.1760 61.9189 71.1564 0.0000 8.4862 0.0000
# 2 61.9189 104.5683 45.0888 0.0000 7.1793 0.0000
# 3 71.1564 45.0888 70.3881 0.0000 2.1392 0.0000
# 4 0.0000 0.0000 0.0000 7.3194 0.0000 3.0806
# 5 8.4862 7.1793 2.1392 0.0000 32.0602 0.0000
# 6 0.0000 0.0000 0.0000 3.0806 0.0000 10.6475
#
#
#
# Elastic Compliance Matrix: (Units=1/GPa)
#
#
# Indices 1 2 3 4 5 6 
#
# 1 0.019267 -0.003922 -0.016872 0.000000 -0.003096 0.000000
# 2 -0.003922 0.014197 -0.005075 0.000000 -0.001803 0.000000
# 3 -0.016872 -0.005075 0.034413 0.000000 0.003306 0.000000
# 4 0.000000 0.000000 0.000000 0.155566 0.000000 -0.045010
# 5 -0.003096 -0.001803 0.003306 0.000000 0.032194 0.000000
# 6 0.000000 0.000000 0.000000 -0.045010 0.000000 0.106942
#
#
# Mechanical properties :
#
#
# Convention : Reuss Voigt Hill
#
# Bulk Modulus (GPa) = 61.95327 73.27340 67.61333
# Shear Modulus (GPa) = 11.91335 18.33664 15.12500
#
# Velocity S-wave (km/s) = 2.68075 3.32583 3.02056
# Velocity P-wave (km/s) = 6.85227 7.67779 7.27675
#
# Compressibility (1/GPa) = 0.01614120
#
# Stress axis : x y z
#
# Youngs Moduli (GPa) = 51.90138 70.43536 29.05854
#
# Poissons Ratio (x) = 0.27621 0.49026
# Poissons Ratio (y) = 0.20353 0.14748
# Poissons Ratio (z) = 0.87565 0.35749
#
# Static dielectric constant tensor:
#      x y z
#    x 1.569460 0.000000 -0.002570 
#    y 0.000000 1.546680 0.000000 
#    z -0.002570 0.000000 1.556070 
# 
# From -- ./inp_files/87310.got.cif
#   From: 2010.05.17/outbox.cif.g08.bks.cpg/sg12_44_cif.got.tgz:87310.got - 2010.06.03 13:09:07.
