data_PCOD9192090
_publ_section_title
;
Structure prediction by ZEFSAII (Michael W. Deem and Ramdas Pophale) SiO2 
 PCOD9192090
Probable space group: C 2/M
;
_chemical_formula_sum "Si O2"
_cell_formula_units_Z 56
_cell_length_a 19.242251
_cell_length_b 7.656712
_cell_length_c 20.040309
_cell_angle_alpha 90.000000
_cell_angle_beta 59.698691
_cell_angle_gamma 90.000000
_cell_volume 2549.215843
_symmetry_space_group_name_H-M "C 2/M"
_symmetry_group_IT_number 12
_symmetry_cell_setting 'monoclinic'
loop_
_space_group_symop_operation_xyz
x,y,z
-x,y,-z
-x,-y,-z
x,-y,z
1/2+x,1/2+y,z
1/2-x,1/2+y,-z
1/2-x,1/2-y,-z
1/2+x,1/2-y,z
loop_
_atom_site_type_symbol
_atom_site_label
_atom_site_fract_x
_atom_site_fract_y
_atom_site_fract_z
Si Si1 0.998387 0.702889 0.574693
Si Si2 0.247786 0.702475 0.681165
Si Si3 0.252268 0.699768 0.167017
Si Si4 0.428843 0.713973 0.082842
Si Si5 0.929602 0.208050 0.235903
Si Si6 0.825575 0.791406 0.509806
Si Si7 0.080041 0.289168 0.255939
O O1 0.975340 0.500000 0.578272
O O2 0.090465 0.713192 0.554949
O O3 0.000000 0.784100 0.500000
O O4 0.941813 0.779248 0.659451
O O5 0.266636 0.500000 0.684639
O O6 0.250053 0.798906 0.750727
O O7 0.304919 0.771110 0.594949
O O8 0.155613 0.713659 0.700177
O O9 0.253599 0.500000 0.142292
O O10 0.339135 0.777128 0.106768
O O11 0.166353 0.778984 0.188992
O O12 0.427045 0.500000 0.082468
O O13 0.443287 0.765049 0.152642
O O14 0.500000 0.771486 0.000000
O O15 0.005652 0.251299 0.244113
O O16 0.918577 0.000000 0.241694
O O17 0.750000 0.750000 0.500000
O O18 0.834702 0.000000 0.507446
O O19 0.086959 0.500000 0.257469
#
# Coordination Sequence:
#
# PCOD9192090 Si02
#       7
#     8   8   8   8   8   8   8
#     4  10  21  36  53  72  98 135 175 216 260 302
#     4  10  20  34  51  72  99 130 167 213 259 300
#     4   9  18  33  55  78  99 132 171 202 243 301
#     4   8  15  31  55  80 103 129 166 208 247 294
#     4  10  20  33  53  78 102 135 173 207 250 304
#     4  11  23  35  49  71  98 130 169 214 261 304
#     4  10  20  34  51  74 105 136 169 212 257 299
#
# _framework density 21.967541000000001
#
# number of rings (size 3 to 8) (size 9 to 14) (size 15 to 20)
#    0.000    2.286    0.000    3.857    0.000    8.286 
#    0.000    0.714    0.000   10.714    0.000    0.000 
#    0.000    0.000    0.000    0.000    0.000    0.000 
#
# Total GULP energy -156395.878781 kJ/mol
# GULP energy per Si atom -5585.567099 kJ/mol
# Density = 2.191754 g / cm^3
# Si number density = 21.967541 Si / 1000 Ang^3
#
#
#
# Elastic Constant Matrix: (Units=GPa)
#
#
# Indices 1 2 3 4 5 6 
#
# 1 103.1611 -4.6922 17.9551 -0.0004 -23.8436 -0.0018
# 2 -4.6922 56.2169 4.1995 -0.0005 -0.6519 -0.0046
# 3 17.9551 4.1995 97.2939 0.0001 -33.2360 -0.0002
# 4 -0.0004 -0.0005 0.0001 2.4137 0.0000 -2.3759
# 5 -23.8436 -0.6519 -33.2360 0.0000 33.2584 -0.0001
# 6 -0.0018 -0.0046 -0.0002 -2.3759 -0.0001 20.4781
#
#
#
# Elastic Compliance Matrix: (Units=1/GPa)
#
#
# Indices 1 2 3 4 5 6 
#
# 1 0.011749 0.001014 0.001021 0.000004 0.009463 0.000002
# 2 0.001014 0.017942 -0.000900 0.000009 0.000179 0.000005
# 3 0.001021 -0.000900 0.015749 -0.000001 0.016452 0.000000
# 4 0.000004 0.000009 -0.000001 0.467708 0.000002 0.054264
# 5 0.009463 0.000179 0.016452 0.000002 0.053296 0.000001
# 6 0.000002 0.000005 0.000000 0.054264 0.000001 0.055129
#
#
# Mechanical properties :
#
#
# Convention : Reuss Voigt Hill
#
# Bulk Modulus (GPa) = 20.96049 32.39962 26.68006
# Shear Modulus (GPa) = 7.87144 27.17736 17.52440
#
# Velocity S-wave (km/s) = 1.89499 3.52114 2.82749
# Velocity P-wave (km/s) = 3.78818 5.59573 4.77820
#
# Compressibility (1/GPa) = 0.04770881
#
# Stress axis : x y z
#
# Youngs Moduli (GPa) = 85.11171 55.73443 63.49690
#
# Poissons Ratio (x) = -0.05652 -0.06480
# Poissons Ratio (y) = -0.08632 0.05718
# Poissons Ratio (z) = -0.08686 0.05019
#
# Static dielectric constant tensor:
#      x y z
#    x 1.833760 0.000000 -0.018170 
#    y 0.000000 1.819310 0.000000 
#    z -0.018170 0.000000 1.791750 
# 
# From -- ./inp_files/313767.got.cif
#   From: 2010.05.17/outbox.cif.g08.bks.cpg/sg12_157_cif.got.tgz:313767.got - 2010.06.03 13:09:07.
