data_PCOD9192814
_publ_section_title
;
Structure prediction by ZEFSAII (Michael W. Deem and Ramdas Pophale) SiO2 
 PCOD9192814
Probable space group: C 2/M
;
_chemical_formula_sum "Si O2"
_cell_formula_units_Z 56
_cell_length_a 14.464375
_cell_length_b 9.562331
_cell_length_c 24.795486
_cell_angle_alpha 90.000000
_cell_angle_beta 51.674620
_cell_angle_gamma 90.000000
_cell_volume 2690.481369
_symmetry_space_group_name_H-M "C 2/M"
_symmetry_group_IT_number 12
_symmetry_cell_setting 'monoclinic'
loop_
_space_group_symop_operation_xyz
x,y,z
-x,y,-z
-x,-y,-z
x,-y,z
1/2+x,1/2+y,z
1/2-x,1/2+y,-z
1/2-x,1/2-y,-z
1/2+x,1/2-y,z
loop_
_atom_site_type_symbol
_atom_site_label
_atom_site_fract_x
_atom_site_fract_y
_atom_site_fract_z
Si Si1 0.250797 0.163254 0.169203
Si Si2 0.305475 0.332130 0.930376
Si Si3 0.030640 0.164493 0.708845
Si Si4 0.692061 0.848197 0.477861
Si Si5 0.417604 0.666968 0.189048
Si Si6 0.882794 0.156883 0.581853
Si Si7 0.022902 0.343003 0.368695
O O1 0.257396 0.205667 0.103699
O O2 0.111228 0.173374 0.231636
O O3 0.328234 0.253247 0.182273
O O4 0.284289 0.000000 0.161677
O O5 0.293592 0.500000 0.940928
O O6 0.445698 0.302715 0.875348
O O7 0.250000 0.250000 0.000000
O O8 0.091285 0.200447 0.743877
O O9 0.049210 0.277143 0.654795
O O10 0.054660 0.000000 0.688062
O O11 0.750000 0.750000 0.500000
O O12 0.691583 0.775556 0.420895
O O13 0.560802 0.862147 0.548978
O O14 0.747177 0.000000 0.458211
O O15 0.400175 0.500000 0.190310
O O16 0.899576 0.215480 0.636085
O O17 0.000000 0.146240 0.500000
O O18 0.833762 0.000000 0.599939
O O19 0.070558 0.500000 0.339263
#
# Coordination Sequence:
#
# PCOD9192814 Si02
#       7
#     8   8   8   8   8   8   8
#     4   9  19  36  56  78 107 143 181 223 269 316
#     4   9  19  35  54  80 113 146 181 220 266 318
#     4   9  19  37  56  75 104 143 181 221 270 323
#     4  10  20  34  51  74 104 134 168 212 262 318
#     4   9  19  36  56  78 108 144 183 225 268 316
#     4   9  17  31  52  73  95 128 164 201 254 312
#     4  10  20  34  53  77 102 130 170 217 260 314
#
# _framework density 20.814119000000002
#
# number of rings (size 3 to 8) (size 9 to 14) (size 15 to 20)
#    0.000    2.714    0.000    3.000    0.000    6.286 
#    2.571    5.714    0.000    0.000    0.000    0.000 
#    0.000    0.000    0.000    0.000    0.000    0.000 
#
# Total GULP energy -156097.268630 kJ/mol
# GULP energy per Si atom -5574.902451 kJ/mol
# Density = 2.076674 g / cm^3
# Si number density = 20.814119 Si / 1000 Ang^3
#
#
#
# Elastic Constant Matrix: (Units=GPa)
#
#
# Indices 1 2 3 4 5 6 
#
# 1 95.9349 44.9620 37.7964 0.0000 34.6030 0.0000
# 2 44.9620 114.6633 38.2159 0.0000 26.3278 0.0000
# 3 37.7964 38.2159 112.0768 0.0000 22.8139 0.0000
# 4 0.0000 0.0000 0.0000 22.8300 0.0000 11.3067
# 5 34.6030 26.3278 22.8139 0.0000 32.5232 0.0000
# 6 0.0000 0.0000 0.0000 11.3067 0.0000 36.4620
#
#
#
# Elastic Compliance Matrix: (Units=1/GPa)
#
#
# Indices 1 2 3 4 5 6 
#
# 1 0.018193 -0.002887 -0.001967 0.000000 -0.015639 0.000000
# 2 -0.002887 0.011657 -0.001990 0.000000 -0.004969 0.000000
# 3 -0.001967 -0.001990 0.011095 0.000000 -0.004079 0.000000
# 4 0.000000 0.000000 0.000000 0.051750 0.000000 -0.016047
# 5 -0.015639 -0.004969 -0.004079 0.000000 0.054270 0.000000
# 6 0.000000 0.000000 0.000000 -0.016047 0.000000 0.032402
#
#
# Mechanical properties :
#
#
# Convention : Reuss Voigt Hill
#
# Bulk Modulus (GPa) = 36.68899 62.73596 49.71248
# Shear Modulus (GPa) = 24.73523 31.80974 28.27248
#
# Velocity S-wave (km/s) = 3.45104 3.91356 3.68955
# Velocity P-wave (km/s) = 5.79179 7.11532 6.48739
#
# Compressibility (1/GPa) = 0.02725613
#
# Stress axis : x y z
#
# Youngs Moduli (GPa) = 54.96649 85.78177 90.13380
#
# Poissons Ratio (x) = 0.24767 0.17733
# Poissons Ratio (y) = 0.15870 0.17935
# Poissons Ratio (z) = 0.10814 0.17069
#
# Static dielectric constant tensor:
#      x y z
#    x 1.856660 0.000000 -0.071950 
#    y 0.000000 1.758990 0.000000 
#    z -0.071950 0.000000 1.789830 
# 
# From -- ./inp_files/337913.got.cif
#   From: 2010.05.17/outbox.cif.g08.bks.cpg/sg12_169_cif.got.tgz:337913.got - 2010.06.03 13:09:07.
