data_PCOD9192037
_publ_section_title
;
Structure prediction by ZEFSAII (Michael W. Deem and Ramdas Pophale) SiO2 
 PCOD9192037
Probable space group: C 2/M
;
_chemical_formula_sum "Si O2"
_cell_formula_units_Z 56
_cell_length_a 31.415215
_cell_length_b 8.700996
_cell_length_c 19.048783
_cell_angle_alpha 90.000000
_cell_angle_beta 38.224285
_cell_angle_gamma 90.000000
_cell_volume 3221.702506
_symmetry_space_group_name_H-M "C 2/M"
_symmetry_group_IT_number 12
_symmetry_cell_setting 'monoclinic'
loop_
_space_group_symop_operation_xyz
x,y,z
-x,y,-z
-x,-y,-z
x,-y,z
1/2+x,1/2+y,z
1/2-x,1/2+y,-z
1/2-x,1/2-y,-z
1/2+x,1/2-y,z
loop_
_atom_site_type_symbol
_atom_site_label
_atom_site_fract_x
_atom_site_fract_y
_atom_site_fract_z
Si Si1 0.546587 0.185754 0.721673
Si Si2 0.198868 0.684046 0.745060
Si Si3 0.305691 0.183713 0.873360
Si Si4 0.911103 0.183605 0.835572
Si Si5 0.447678 0.813020 0.127023
Si Si6 0.301774 0.315033 0.098773
Si Si7 0.794906 0.315936 0.506350
O O1 0.487384 0.256198 0.750524
O O2 0.533398 0.235842 0.819275
O O3 0.625044 0.230006 0.602783
O O4 0.542221 0.000000 0.724023
O O5 0.204409 0.500000 0.734720
O O6 0.129427 0.730991 0.793899
O O7 0.192144 0.736795 0.833974
O O8 0.261584 0.758939 0.621856
O O9 0.377001 0.251680 0.808604
O O10 0.271843 0.222320 0.842211
O O11 0.307601 0.000000 0.876454
O O12 0.250000 0.250000 0.000000
O O13 0.909402 0.000000 0.835319
O O14 0.861798 0.231251 0.965580
O O15 0.449598 0.000000 0.124310
O O16 0.500000 0.757443 0.000000
O O17 0.305802 0.500000 0.101328
O O18 0.792139 0.500000 0.505398
O O19 0.750000 0.250000 0.500000
#
# Coordination Sequence:
#
# PCOD9192037 Si02
#       7
#     8   8   8   8   8   8   8
#     4  10  20  35  53  74 103 141 180 216 263 317
#     4  11  21  34  54  78 104 139 181 221 264 313
#     4   9  17  31  52  77 109 144 178 215 260 318
#     4  10  20  33  52  81 113 141 176 219 266 319
#     4   9  17  30  48  73 104 135 170 210 253 310
#     4   9  19  34  51  78 112 142 173 212 263 318
#     4  11  22  38  57  75 102 139 183 228 266 313
#
# _framework density 17.382114999999999
#
# number of rings (size 3 to 8) (size 9 to 14) (size 15 to 20)
#    0.000    2.143    1.429    3.429    0.000    5.714 
#    0.000    0.000    0.000    3.857    0.000    6.000 
#    0.000    0.000    0.000    0.000    0.000    0.000 
#
# Total GULP energy -156185.163861 kJ/mol
# GULP energy per Si atom -5578.041566 kJ/mol
# Density = 1.734255 g / cm^3
# Si number density = 17.382115 Si / 1000 Ang^3
#
#
#
# Elastic Constant Matrix: (Units=GPa)
#
#
# Indices 1 2 3 4 5 6 
#
# 1 93.5600 23.4423 3.6419 0.0013 -30.7177 -0.0016
# 2 23.4423 30.6657 12.9381 0.0040 -10.4382 -0.0025
# 3 3.6419 12.9381 55.5218 0.0008 -22.9777 -0.0015
# 4 0.0013 0.0040 0.0008 22.7311 0.0001 -0.1578
# 5 -30.7177 -10.4382 -22.9777 0.0001 26.1544 -0.0002
# 6 -0.0016 -0.0025 -0.0015 -0.1578 -0.0002 28.4573
#
#
#
# Elastic Compliance Matrix: (Units=1/GPa)
#
#
# Indices 1 2 3 4 5 6 
#
# 1 0.028656 -0.015012 0.020533 0.000000 0.045703 0.000002
# 2 -0.015012 0.046182 -0.014843 -0.000007 -0.012240 0.000002
# 3 0.020533 -0.014843 0.043449 0.000000 0.056364 0.000003
# 4 0.000000 -0.000007 0.000000 0.043994 -0.000003 0.000244
# 5 0.045703 -0.012240 0.056364 -0.000003 0.136545 0.000005
# 6 0.000002 0.000002 0.000003 0.000244 0.000005 0.035142
#
#
# Mechanical properties :
#
#
# Convention : Reuss Voigt Hill
#
# Bulk Modulus (GPa) = 10.03586 28.86581 19.45084
# Shear Modulus (GPa) = 12.95925 24.78357 18.87141
#
# Velocity S-wave (km/s) = 2.73344 3.78008 3.29854
# Velocity P-wave (km/s) = 3.96843 5.97451 5.07165
#
# Compressibility (1/GPa) = 0.09964269
#
# Stress axis : x y z
#
# Youngs Moduli (GPa) = 34.89690 21.65365 23.01555
#
# Poissons Ratio (x) = 0.32507 -0.47258
# Poissons Ratio (y) = 0.52388 0.34161
# Poissons Ratio (z) = -0.71654 0.32140
#
# Static dielectric constant tensor:
#      x y z
#    x 1.591190 0.000000 -0.010470 
#    y 0.000000 1.584530 0.000000 
#    z -0.010470 0.000000 1.579280 
# 
# From -- ./inp_files/280858.got.cif
#   From: 2010.05.17/outbox.cif.g08.bks.cpg/sg12_141_cif.got.tgz:280858.got - 2010.06.03 13:09:07.
