data_PCOD9192272
_publ_section_title
;
Structure prediction by ZEFSAII (Michael W. Deem and Ramdas Pophale) SiO2 
 PCOD9192272
Probable space group: C 2/M
;
_chemical_formula_sum "Si O2"
_cell_formula_units_Z 50
_cell_length_a 27.932104
_cell_length_b 13.773381
_cell_length_c 10.932182
_cell_angle_alpha 90.000000
_cell_angle_beta 41.684175
_cell_angle_gamma 90.000000
_cell_volume 2796.974164
_symmetry_space_group_name_H-M "C 2/M"
_symmetry_group_IT_number 12
_symmetry_cell_setting 'monoclinic'
loop_
_space_group_symop_operation_xyz
x,y,z
-x,y,-z
-x,-y,-z
x,-y,z
1/2+x,1/2+y,z
1/2-x,1/2+y,-z
1/2-x,1/2-y,-z
1/2+x,1/2-y,z
loop_
_atom_site_type_symbol
_atom_site_label
_atom_site_fract_x
_atom_site_fract_y
_atom_site_fract_z
Si Si1 0.721644 0.388700 0.195065
Si Si2 0.691931 0.610452 0.968232
Si Si3 0.485469 0.113590 0.382432
Si Si4 0.865921 0.307037 0.002134
Si Si5 0.000000 0.500000 0.000000
Si Si6 0.834510 0.302069 0.584287
Si Si7 0.647613 0.891935 0.708136
O O1 0.715240 0.500000 0.247644
O O2 0.805933 0.358775 0.031348
O O3 0.682943 0.309714 0.353604
O O4 0.690771 0.380187 0.117192
O O5 0.674415 0.500000 0.968324
O O6 0.641797 0.692669 0.005455
O O7 0.772822 0.636644 0.771443
O O8 0.500000 0.120114 0.500000
O O9 0.412658 0.167962 0.484947
O O10 0.477616 0.000000 0.362948
O O11 0.555367 0.154120 0.179872
O O12 0.843032 0.337688 0.181881
O O13 0.062923 0.417335 0.860002
O O14 0.829379 0.330493 0.452295
O O15 0.682931 0.000000 0.642857
#
# Coordination Sequence:
#
# PCOD9192272 Si02
#       7
#     8   8   8   8   2   8   8
#     4  10  21  38  57  79 113 153 190 237 294 339
#     4  10  21  38  57  79 113 153 190 237 294 339
#     4  11  21  32  54  85 109 135 183 242 289 337
#     4  11  21  35  56  82 112 148 191 235 285 345
#     4   8  20  36  52  80 120 148 168 222 300 338
#     4  11  21  35  56  82 112 148 191 235 285 345
#     4  10  20  33  54  81 115 151 178 221 287 346
#
# _framework density 17.876460000000002
#
# number of rings (size 3 to 8) (size 9 to 14) (size 15 to 20)
#    0.480    1.120    0.000    7.680    2.240    5.120 
#    0.000    3.200    0.000    2.880    0.000    3.360 
#    0.000    0.000    0.000    0.000    0.000    0.000 
#
# Total GULP energy -139309.949391 kJ/mol
# GULP energy per Si atom -5572.397976 kJ/mol
# Density = 1.783577 g / cm^3
# Si number density = 17.876460 Si / 1000 Ang^3
#
#
#
# Elastic Constant Matrix: (Units=GPa)
#
#
# Indices 1 2 3 4 5 6 
#
# 1 25.8679 18.9829 20.4296 0.0000 13.9434 0.0000
# 2 18.9829 149.1660 48.5166 0.0000 18.7301 0.0000
# 3 20.4296 48.5166 70.3869 0.0000 0.9822 0.0000
# 4 0.0000 0.0000 0.0000 20.2055 0.0000 -1.4193
# 5 13.9434 18.7301 0.9822 0.0000 30.0387 0.0000
# 6 0.0000 0.0000 0.0000 -1.4193 0.0000 8.8633
#
#
#
# Elastic Compliance Matrix: (Units=1/GPa)
#
#
# Indices 1 2 3 4 5 6 
#
# 1 0.073418 0.002318 -0.022422 0.000000 -0.034792 0.000000
# 2 0.002318 0.009609 -0.007201 0.000000 -0.006832 0.000000
# 3 -0.022422 -0.007201 0.025482 0.000000 0.014064 0.000000
# 4 0.000000 0.000000 0.000000 0.050055 0.000000 0.008015
# 5 -0.034792 -0.006832 0.014064 0.000000 0.053240 0.000000
# 6 0.000000 0.000000 0.000000 0.008015 0.000000 0.114108
#
#
# Mechanical properties :
#
#
# Convention : Reuss Voigt Hill
#
# Bulk Modulus (GPa) = 18.55274 46.80879 32.68077
# Shear Modulus (GPa) = 12.54743 22.32094 17.43419
#
# Velocity S-wave (km/s) = 2.65221 3.53742 3.12630
# Velocity P-wave (km/s) = 4.44745 6.55178 5.59936
#
# Compressibility (1/GPa) = 0.05390040
#
# Stress axis : x y z
#
# Youngs Moduli (GPa) = 13.62060 104.07068 39.24314
#
# Poissons Ratio (x) = -0.24125 0.87990
# Poissons Ratio (y) = -0.03157 0.28258
# Poissons Ratio (z) = 0.30540 0.74939
#
# Static dielectric constant tensor:
#      x y z
#    x 1.638720 0.000000 0.024970 
#    y 0.000000 1.608920 0.000000 
#    z 0.024970 0.000000 1.592670 
# 
# From -- ./inp_files/183186.got.cif
#   From: 2010.05.17/outbox.cif.g08.bks.cpg/sg12_92_cif.got.tgz:183186.got - 2010.06.03 13:09:07.
