data_PCOD9192295
_publ_section_title
;
Structure prediction by ZEFSAII (Michael W. Deem and Ramdas Pophale) SiO2 
 PCOD9192295
Probable space group: C 2/M
;
_chemical_formula_sum "Si O2"
_cell_formula_units_Z 64
_cell_length_a 30.363537
_cell_length_b 7.846731
_cell_length_c 15.878721
_cell_angle_alpha 90.000000
_cell_angle_beta 47.877094
_cell_angle_gamma 90.000000
_cell_volume 2806.011604
_symmetry_space_group_name_H-M "C 2/M"
_symmetry_group_IT_number 12
_symmetry_cell_setting 'monoclinic'
loop_
_space_group_symop_operation_xyz
x,y,z
-x,y,-z
-x,-y,-z
x,-y,z
1/2+x,1/2+y,z
1/2-x,1/2+y,-z
1/2-x,1/2-y,-z
1/2+x,1/2-y,z
loop_
_atom_site_type_symbol
_atom_site_label
_atom_site_fract_x
_atom_site_fract_y
_atom_site_fract_z
Si Si1 0.474432 0.204787 0.889867
Si Si2 0.888499 0.707800 0.846535
Si Si3 0.433486 0.209214 0.606081
Si Si4 0.888576 0.798433 0.292190
Si Si5 0.181349 0.700944 0.333114
Si Si6 0.783728 0.695822 0.089490
Si Si7 0.211930 0.308562 0.469568
Si Si8 0.632496 0.699985 0.867568
O O1 0.437338 0.254751 0.854060
O O2 0.541386 0.267550 0.799528
O O3 0.474673 0.000000 0.895811
O O4 0.435735 0.276123 0.016601
O O5 0.885336 0.500000 0.850599
O O6 0.910488 0.763187 0.727408
O O7 0.823963 0.768452 0.962095
O O8 0.500000 0.264778 0.500000
O O9 0.383748 0.269269 0.604040
O O10 0.433766 0.000000 0.605550
O O11 0.855351 0.703737 0.410015
O O12 0.862193 0.741988 0.235450
O O13 0.877293 0.000000 0.315450
O O14 0.173695 0.500000 0.359197
O O15 0.223879 0.717326 0.197815
O O16 0.211615 0.777204 0.378122
O O17 0.769849 0.500000 0.089273
O O18 0.827880 0.706025 0.113961
O O19 0.232655 0.500000 0.429481
O O20 0.250000 0.250000 0.500000
O O21 0.647901 0.500000 0.852557
#
# Coordination Sequence:
#
# PCOD9192295 Si02
#       8
#     8   8   8   8   8   8   8   8
#     4  10  20  33  54  83 116 150 189 237 288 345
#     4   8  17  33  54  84 116 146 188 235 282 340
#     4   9  18  34  60  87 115 150 190 238 290 342
#     4  11  23  36  53  78 110 151 196 241 288 344
#     4  10  22  38  59  89 115 146 197 245 287 347
#     4  10  20  35  57  84 116 152 188 234 291 349
#     4  11  24  40  58  83 114 148 192 243 293 347
#     4  10  20  35  54  79 114 151 192 241 286 337
#
# _framework density 22.808174999999999
#
# number of rings (size 3 to 8) (size 9 to 14) (size 15 to 20)
#    0.000    2.125    0.000    3.750    1.750    8.000 
#    0.000    0.000    0.000    4.125    0.000    0.000 
#    0.000    0.000    0.000    0.000    0.000    0.000 
#
# Total GULP energy -178809.178977 kJ/mol
# GULP energy per Si atom -5587.786843 kJ/mol
# Density = 2.275626 g / cm^3
# Si number density = 22.808175 Si / 1000 Ang^3
#
#
#
# Elastic Constant Matrix: (Units=GPa)
#
#
# Indices 1 2 3 4 5 6 
#
# 1 95.3795 7.1897 54.7593 0.0000 -8.0292 -0.0001
# 2 7.1897 34.4367 -1.5521 -0.0003 6.4097 -0.0004
# 3 54.7593 -1.5521 145.0042 -0.0001 -2.1301 0.0000
# 4 0.0000 -0.0003 -0.0001 21.1803 0.0000 -7.9875
# 5 -8.0292 6.4097 -2.1301 0.0000 40.7675 -0.0001
# 6 -0.0001 -0.0004 0.0000 -7.9875 -0.0001 11.8237
#
#
#
# Elastic Compliance Matrix: (Units=1/GPa)
#
#
# Indices 1 2 3 4 5 6 
#
# 1 0.014076 -0.003752 -0.005310 0.000000 0.003085 0.000000
# 2 -0.003752 0.030924 0.001667 0.000001 -0.005514 0.000002
# 3 -0.005310 0.001667 0.008907 0.000000 -0.000843 0.000000
# 4 0.000000 0.000001 0.000000 0.063354 0.000000 0.042799
# 5 0.003085 -0.005514 -0.000843 0.000000 0.025960 0.000000
# 6 0.000000 0.000002 0.000000 0.042799 0.000000 0.113489
#
#
# Mechanical properties :
#
#
# Convention : Reuss Voigt Hill
#
# Bulk Modulus (GPa) = 25.56544 43.95713 34.76129
# Shear Modulus (GPa) = 17.57231 29.04922 23.31077
#
# Velocity S-wave (km/s) = 2.77869 3.57267 3.20040
# Velocity P-wave (km/s) = 4.63983 6.02769 5.37871
#
# Compressibility (1/GPa) = 0.03911531
#
# Stress axis : x y z
#
# Youngs Moduli (GPa) = 71.04412 32.33776 112.26828
#
# Poissons Ratio (x) = 0.12134 0.59619
# Poissons Ratio (y) = 0.26657 -0.18715
# Poissons Ratio (z) = 0.37727 -0.05391
#
# Static dielectric constant tensor:
#      x y z
#    x 1.880540 0.000000 0.010660 
#    y 0.000000 1.845100 0.000000 
#    z 0.010660 0.000000 1.847100 
# 
# From -- ./inp_files/249893.got.cif
#   From: 2010.05.17/outbox.cif.g08.bks.cpg/sg12_125_cif.got.tgz:249893.got - 2010.06.03 13:09:07.
