data_PCOD9192575
_publ_section_title
;
Structure prediction by ZEFSAII (Michael W. Deem and Ramdas Pophale) SiO2 
 PCOD9192575
Probable space group: C 2/M
;
_chemical_formula_sum "Si O2"
_cell_formula_units_Z 58
_cell_length_a 5.378365
_cell_length_b 30.168518
_cell_length_c 15.436196
_cell_angle_alpha 90.000000
_cell_angle_beta 92.608869
_cell_angle_gamma 90.000000
_cell_volume 2502.039541
_symmetry_space_group_name_H-M "C 2/M"
_symmetry_group_IT_number 12
_symmetry_cell_setting 'monoclinic'
loop_
_space_group_symop_operation_xyz
x,y,z
-x,y,-z
-x,-y,-z
x,-y,z
1/2+x,1/2+y,z
1/2-x,1/2+y,-z
1/2-x,1/2-y,-z
1/2+x,1/2-y,z
loop_
_atom_site_type_symbol
_atom_site_label
_atom_site_fract_x
_atom_site_fract_y
_atom_site_fract_z
Si Si1 0.194471 0.549219 0.425460
Si Si2 0.101056 0.228092 0.876558
Si Si3 0.561893 0.377254 0.670014
Si Si4 0.000000 0.000000 0.000000
Si Si5 0.296643 0.953110 0.276621
Si Si6 0.462253 0.725909 0.334259
Si Si7 0.785543 0.872134 0.131469
Si Si8 0.210314 0.423963 0.913173
O O1 0.306135 0.500000 0.440881
O O2 0.049191 0.545613 0.332827
O O3 0.000000 0.555202 0.500000
O O4 0.343867 0.594016 0.410160
O O5 0.326497 0.260513 0.906472
O O6 0.064190 0.230236 0.771032
O O7 0.192869 0.178697 0.895476
O O8 0.334718 0.408173 0.696488
O O9 0.509677 0.326369 0.646546
O O10 0.723264 0.375009 0.762729
O O11 0.788065 0.960628 0.984157
O O12 0.328068 0.951528 0.175687
O O13 0.160651 0.000000 0.295611
O O14 0.706659 0.753144 0.365625
O O15 0.537887 0.894218 0.089224
O O16 0.042044 0.894694 0.103380
#
# Coordination Sequence:
#
# PCOD9192575 Si02
#       8
#     8   8   8   2   8   8   8   8
#     4  10  21  36  57  87 120 158 204 257 314 368
#     4   9  16  29  52  86 122 151 194 252 302 350
#     4  10  20  33  59  83 122 161 209 250 314 364
#     4  12  28  46  64  94 126 172 200 250 300 362
#     4  10  20  37  58  87 118 159 203 252 302 364
#     4   9  19  31  52  83 119 155 200 258 306 355
#     4  10  21  36  60  90 123 164 204 250 304 358
#     4  11  23  40  60  88 124 163 203 246 297 359
#
# _framework density 23.181087999999999
#
# number of rings (size 3 to 8) (size 9 to 14) (size 15 to 20)
#    0.000    2.069    2.069    1.241    1.931    5.517 
#    1.241    2.069    0.000    0.828    0.000    9.655 
#    0.000    0.000    0.000    0.000    0.000    0.000 
#
# Total GULP energy -161538.685851 kJ/mol
# GULP energy per Si atom -5570.299512 kJ/mol
# Density = 2.312833 g / cm^3
# Si number density = 23.181088 Si / 1000 Ang^3
#
#
#
# Elastic Constant Matrix: (Units=GPa)
#
#
# Indices 1 2 3 4 5 6 
#
# 1 125.7231 71.6537 21.9583 0.0000 10.9384 0.0000
# 2 71.6537 203.4017 22.7878 0.0000 0.4601 0.0000
# 3 21.9583 22.7878 30.6920 0.0000 -0.5732 0.0000
# 4 0.0000 0.0000 0.0000 27.1512 0.0000 8.9150
# 5 10.9384 0.4601 -0.5732 0.0000 23.0595 0.0000
# 6 0.0000 0.0000 0.0000 8.9150 0.0000 29.9241
#
#
#
# Elastic Compliance Matrix: (Units=1/GPa)
#
#
# Indices 1 2 3 4 5 6 
#
# 1 0.011331 -0.003337 -0.005731 0.000000 -0.005451 0.000000
# 2 -0.003337 0.006346 -0.002298 0.000000 0.001399 0.000000
# 3 -0.005731 -0.002298 0.038458 0.000000 0.003720 0.000000
# 4 0.000000 0.000000 0.000000 0.040824 0.000000 -0.012162
# 5 -0.005451 0.001399 0.003720 0.000000 0.046016 0.000000
# 6 0.000000 0.000000 0.000000 -0.012162 0.000000 0.037041
#
#
# Mechanical properties :
#
#
# Convention : Reuss Voigt Hill
#
# Bulk Modulus (GPa) = 29.93772 65.84626 47.89199
# Shear Modulus (GPa) = 23.37718 32.25476 27.81597
#
# Velocity S-wave (km/s) = 3.17907 3.73423 3.46778
# Velocity P-wave (km/s) = 5.13985 6.85999 6.06125
#
# Compressibility (1/GPa) = 0.03340268
#
# Stress axis : x y z
#
# Youngs Moduli (GPa) = 88.25173 157.57068 26.00265
#
# Poissons Ratio (x) = 0.52587 0.14901
# Poissons Ratio (y) = 0.29453 0.05976
# Poissons Ratio (z) = 0.50575 0.36212
#
# Static dielectric constant tensor:
#      x y z
#    x 1.909550 0.000000 -0.038900 
#    y 0.000000 1.877790 0.000000 
#    z -0.038900 0.000000 1.927340 
# 
# From -- ./inp_files/253622.got.cif
#   From: 2010.05.17/outbox.cif.g08.bks.cpg/sg12_127_cif.got.tgz:253622.got - 2010.06.03 13:09:07.
