data_PCOD9192121
_publ_section_title
;
Structure prediction by ZEFSAII (Michael W. Deem and Ramdas Pophale) SiO2 
 PCOD9192121
Probable space group: C 2/M
;
_chemical_formula_sum "Si O2"
_cell_formula_units_Z 64
_cell_length_a 20.286537
_cell_length_b 8.756743
_cell_length_c 20.885792
_cell_angle_alpha 90.000000
_cell_angle_beta 96.679267
_cell_angle_gamma 90.000000
_cell_volume 3685.053344
_symmetry_space_group_name_H-M "C 2/M"
_symmetry_group_IT_number 12
_symmetry_cell_setting 'monoclinic'
loop_
_space_group_symop_operation_xyz
x,y,z
-x,y,-z
-x,-y,-z
x,-y,z
1/2+x,1/2+y,z
1/2-x,1/2+y,-z
1/2-x,1/2-y,-z
1/2+x,1/2-y,z
loop_
_atom_site_type_symbol
_atom_site_label
_atom_site_fract_x
_atom_site_fract_y
_atom_site_fract_z
Si Si1 0.926441 0.681810 0.301554
Si Si2 0.903680 0.818907 0.169415
Si Si3 0.558157 0.184573 0.554998
Si Si4 0.801612 0.320106 0.955714
Si Si5 0.256206 0.818060 0.174418
Si Si6 0.294701 0.681805 0.449090
Si Si7 0.442185 0.181011 0.040794
Si Si8 0.280196 0.682245 0.304800
O O1 0.931209 0.500000 0.293662
O O2 0.943628 0.763150 0.236884
O O3 0.959535 0.725236 0.373091
O O4 0.850210 0.731469 0.304438
O O5 0.830277 0.742246 0.164465
O O6 0.937244 0.767220 0.107408
O O7 0.895199 0.000000 0.170803
O O8 0.500000 0.231852 0.500000
O O9 0.630345 0.251924 0.545378
O O10 0.563936 0.000000 0.553394
O O11 0.788148 0.500000 0.945740
O O12 0.791808 0.236860 0.887225
O O13 0.750000 0.250000 0.000000
O O14 0.873500 0.301537 0.994932
O O15 0.237856 0.745228 0.240988
O O16 0.258437 0.000000 0.178966
O O17 0.299601 0.500000 0.456942
O O18 0.250000 0.750000 0.500000
O O19 0.260690 0.712182 0.375851
O O20 0.451621 0.000000 0.055110
O O21 0.500000 0.233518 0.000000
O O22 0.289684 0.500000 0.298414
#
# Coordination Sequence:
#
# PCOD9192121 Si02
#       8
#     8   8   8   8   8   8   8   8
#     4   9  16  28  49  75 103 134 171 214 258 307
#     4  11  20  31  51  77 105 135 171 216 259 307
#     4   9  18  33  54  80 108 138 176 219 263 311
#     4  11  21  34  55  81 107 134 170 215 260 307
#     4  11  20  31  51  78 107 136 170 216 262 307
#     4  10  20  33  53  79 108 142 178 218 263 316
#     4  10  22  39  57  76 102 137 175 211 254 313
#     4   9  17  30  48  74 104 134 173 216 260 307
#
# _framework density 17.367456000000001
#
# number of rings (size 3 to 8) (size 9 to 14) (size 15 to 20)
#    0.000    2.000    1.250    5.250    0.000    3.000 
#    0.000    0.000    2.750    0.000    0.000    0.000 
#    0.000    0.000    0.000    0.000    0.000    0.000 
#
# Total GULP energy -178436.750003 kJ/mol
# GULP energy per Si atom -5576.148438 kJ/mol
# Density = 1.732793 g / cm^3
# Si number density = 17.367456 Si / 1000 Ang^3
#
#
#
# Elastic Constant Matrix: (Units=GPa)
#
#
# Indices 1 2 3 4 5 6 
#
# 1 37.6672 29.1303 38.2283 0.0000 -10.8868 0.0000
# 2 29.1303 76.3929 57.2058 0.0000 -3.5243 0.0000
# 3 38.2283 57.2058 170.8884 0.0000 -3.7038 0.0000
# 4 0.0000 0.0000 0.0000 30.2663 0.0000 0.2317
# 5 -10.8868 -3.5243 -3.7038 0.0000 24.9723 0.0000
# 6 0.0000 0.0000 0.0000 0.2317 0.0000 15.1254
#
#
#
# Elastic Compliance Matrix: (Units=1/GPa)
#
#
# Indices 1 2 3 4 5 6 
#
# 1 0.047876 -0.012936 -0.005986 0.000000 0.018158 0.000000
# 2 -0.012936 0.021029 -0.004217 0.000000 -0.003297 0.000000
# 3 -0.005986 -0.004217 0.008561 0.000000 -0.001935 0.000000
# 4 0.000000 0.000000 0.000000 0.033044 0.000000 -0.000506
# 5 0.018158 -0.003297 -0.001935 0.000000 0.047208 0.000000
# 6 0.000000 0.000000 0.000000 -0.000506 0.000000 0.066122
#
#
# Mechanical properties :
#
#
# Convention : Reuss Voigt Hill
#
# Bulk Modulus (GPa) = 32.06451 59.34192 45.70322
# Shear Modulus (GPa) = 17.82448 24.76507 21.29477
#
# Velocity S-wave (km/s) = 3.20709 3.78027 3.50541
# Velocity P-wave (km/s) = 5.67595 7.30045 6.53884
#
# Compressibility (1/GPa) = 0.03118713
#
# Stress axis : x y z
#
# Youngs Moduli (GPa) = 20.88739 47.55379 116.81340
#
# Poissons Ratio (x) = 0.61515 0.69925
# Poissons Ratio (y) = 0.27019 0.49263
# Poissons Ratio (z) = 0.12503 0.20054
#
# Static dielectric constant tensor:
#      x y z
#    x 1.560690 0.000000 0.013290 
#    y 0.000000 1.597160 0.000000 
#    z 0.013290 0.000000 1.632920 
# 
# From -- ./inp_files/314110.got.cif
#   From: 2010.05.17/outbox.cif.g08.bks.cpg/sg12_158_cif.got.tgz:314110.got - 2010.06.03 13:09:07.
