data_PCOD9192707
_publ_section_title
;
Structure prediction by ZEFSAII (Michael W. Deem and Ramdas Pophale) SiO2 
 PCOD9192707
Probable space group: C 2/M
;
_chemical_formula_sum "Si O2"
_cell_formula_units_Z 52
_cell_length_a 22.886041
_cell_length_b 7.390234
_cell_length_c 12.400454
_cell_angle_alpha 90.000000
_cell_angle_beta 99.099271
_cell_angle_gamma 90.000000
_cell_volume 2070.935285
_symmetry_space_group_name_H-M "C 2/M"
_symmetry_group_IT_number 12
_symmetry_cell_setting 'monoclinic'
loop_
_space_group_symop_operation_xyz
x,y,z
-x,y,-z
-x,-y,-z
x,-y,z
1/2+x,1/2+y,z
1/2-x,1/2+y,-z
1/2-x,1/2-y,-z
1/2+x,1/2-y,z
loop_
_atom_site_type_symbol
_atom_site_label
_atom_site_fract_x
_atom_site_fract_y
_atom_site_fract_z
Si Si1 0.237055 0.000000 0.789587
Si Si2 0.568226 0.280502 0.042904
Si Si3 0.258378 0.784829 0.374733
Si Si4 0.145943 0.708067 0.858302
Si Si5 0.593067 0.298848 0.283158
Si Si6 0.881205 0.712306 0.473463
Si Si7 0.533290 0.785017 0.668774
O O1 0.270106 0.840138 0.723812
O O2 0.199250 0.841942 0.845923
O O3 0.565728 0.500000 0.046195
O O4 0.589631 0.210994 0.165503
O O5 0.500000 0.221091 0.000000
O O6 0.615992 0.228618 0.966967
O O7 0.250000 0.750000 0.500000
O O8 0.326586 0.712209 0.390532
O O9 0.253558 0.000000 0.355662
O O10 0.165030 0.500000 0.848474
O O11 0.088846 0.739652 0.764476
O O12 0.617115 0.500000 0.275750
O O13 0.624180 0.230289 0.400558
O O14 0.524480 0.304367 0.300578
O O15 0.880293 0.500000 0.450255
O O16 0.941358 0.780323 0.438478
O O17 0.518449 0.000000 0.657092
#
# Coordination Sequence:
#
# PCOD9192707 Si02
#       7
#     4   8   8   8   8   8   8
#     4  12  22  38  63  85 130 146 187 250 288 352
#     4  10  20  36  53  76 116 160 211 257 287 330
#     4  11  23  40  64  94 121 151 185 231 299 362
#     4  11  22  35  58  85 115 162 203 242 293 340
#     4  11  23  32  52  80 112 159 205 240 289 338
#     4  10  22  38  53  78 120 151 191 236 289 358
#     4  10  20  34  50  75 112 156 198 239 285 343
#
# _framework density 25.109425000000002
#
# number of rings (size 3 to 8) (size 9 to 14) (size 15 to 20)
#    0.000    1.385    4.615    1.385    2.154    4.000 
#    0.000    0.000    0.000    0.000    0.000    1.077 
#    0.000    0.000    0.000    0.000    0.000    0.000 
#
# Total GULP energy -144803.415604 kJ/mol
# GULP energy per Si atom -5569.362139 kJ/mol
# Density = 2.505227 g / cm^3
# Si number density = 25.109425 Si / 1000 Ang^3
#
#
#
# Elastic Constant Matrix: (Units=GPa)
#
#
# Indices 1 2 3 4 5 6 
#
# 1 48.3839 -2.4686 32.3107 0.0000 -14.0932 0.0000
# 2 -2.4686 139.8607 6.0755 0.0000 -4.1989 0.0000
# 3 32.3107 6.0755 152.3419 0.0000 -30.4465 0.0000
# 4 0.0000 0.0000 0.0000 27.0350 0.0000 -10.1508
# 5 -14.0932 -4.1989 -30.4465 0.0000 39.4934 0.0000
# 6 0.0000 0.0000 0.0000 -10.1508 0.0000 10.9710
#
#
#
# Elastic Compliance Matrix: (Units=1/GPa)
#
#
# Indices 1 2 3 4 5 6 
#
# 1 0.025224 0.000804 -0.004215 0.000000 0.005837 0.000000
# 2 0.000804 0.007202 -0.000292 0.000000 0.000827 0.000000
# 3 -0.004215 -0.000292 0.008468 0.000000 0.004993 0.000000
# 4 0.000000 0.000000 0.000000 0.056680 0.000000 0.052442
# 5 0.005837 0.000827 0.004993 0.000000 0.031340 0.000000
# 6 0.000000 0.000000 0.000000 0.052442 0.000000 0.139671
#
#
# Mechanical properties :
#
#
# Convention : Reuss Voigt Hill
#
# Bulk Modulus (GPa) = 29.86389 45.82465 37.84427
# Shear Modulus (GPa) = 17.41221 35.81113 26.61167
#
# Velocity S-wave (km/s) = 2.63621 3.78061 3.25903
# Velocity P-wave (km/s) = 4.60276 6.11121 5.40982
#
# Compressibility (1/GPa) = 0.03348525
#
# Stress axis : x y z
#
# Youngs Moduli (GPa) = 39.64441 138.85645 118.09562
#
# Poissons Ratio (x) = -0.11158 0.49782
# Poissons Ratio (y) = -0.03186 0.03453
# Poissons Ratio (z) = 0.16712 0.04059
#
# Static dielectric constant tensor:
#      x y z
#    x 2.068360 0.000000 0.001910 
#    y 0.000000 1.906580 0.000000 
#    z 0.001910 0.000000 2.056230 
# 
# From -- ./inp_files/179982.got.cif
#   From: 2010.05.17/outbox.cif.g08.bks.cpg/sg12_90_cif.got.tgz:179982.got - 2010.06.03 13:09:07.
