data_PCOD9192681
_publ_section_title
;
Structure prediction by ZEFSAII (Michael W. Deem and Ramdas Pophale) SiO2 
 PCOD9192681
Probable space group: C 2/M
;
_chemical_formula_sum "Si O2"
_cell_formula_units_Z 56
_cell_length_a 18.670282
_cell_length_b 26.160787
_cell_length_c 17.478262
_cell_angle_alpha 90.000000
_cell_angle_beta 157.939413
_cell_angle_gamma 90.000000
_cell_volume 3206.345220
_symmetry_space_group_name_H-M "C 2/M"
_symmetry_group_IT_number 12
_symmetry_cell_setting 'monoclinic'
loop_
_space_group_symop_operation_xyz
x,y,z
-x,y,-z
-x,-y,-z
x,-y,z
1/2+x,1/2+y,z
1/2-x,1/2+y,-z
1/2-x,1/2-y,-z
1/2+x,1/2-y,z
loop_
_atom_site_type_symbol
_atom_site_label
_atom_site_fract_x
_atom_site_fract_y
_atom_site_fract_z
Si Si1 0.091092 0.440472 0.173228
Si Si2 0.343457 0.224459 0.518157
Si Si3 0.679400 0.298859 0.803780
Si Si4 0.460546 0.712472 0.045752
Si Si5 0.514089 0.403406 0.428747
Si Si6 0.809774 0.340401 0.098317
Si Si7 0.745298 0.056814 0.036728
O O1 0.159827 0.500000 0.239682
O O2 0.259815 0.401369 0.359049
O O3 0.000000 0.430011 0.000000
O O4 0.930992 0.437283 0.079237
O O5 0.250000 0.250000 0.500000
O O6 0.495780 0.262714 0.630866
O O7 0.166163 0.214902 0.288253
O O8 0.472924 0.175734 0.669114
O O9 0.604924 0.350579 0.690390
O O10 0.748460 0.312269 0.958399
O O11 0.849938 0.267333 0.933205
O O12 0.500000 0.692923 0.000000
O O13 0.323183 0.679375 0.964625
O O14 0.500000 0.426764 0.500000
O O15 0.425454 0.434892 0.271128
O O16 0.773687 0.399435 0.044752
O O17 0.746642 0.000000 0.006070
#
# Coordination Sequence:
#
# PCOD9192681 Si02
#       7
#     8   8   8   8   8   8   8
#     4  10  20  34  50  71 104 151 200 238 280 323
#     4  11  19  36  61  76 112 156 181 229 286 332
#     4  10  22  35  50  83 113 150 196 224 265 339
#     4  11  23  38  58  85 115 147 188 236 284 338
#     4  11  22  33  50  78 118 158 192 231 278 322
#     4  10  21  38  57  83 109 147 195 227 282 343
#     4  10  22  38  57  81 111 149 197 245 283 337
#
# _framework density 17.465368000000002
#
# number of rings (size 3 to 8) (size 9 to 14) (size 15 to 20)
#    0.000    1.571    4.286    1.286    4.000    2.286 
#    0.000    0.000    0.000    0.429    0.000    1.000 
#    0.000    0.000    0.000    0.000    0.000    0.000 
#
# Total GULP energy -156239.309387 kJ/mol
# GULP energy per Si atom -5579.975335 kJ/mol
# Density = 1.742562 g / cm^3
# Si number density = 17.465368 Si / 1000 Ang^3
#
#
#
# Elastic Constant Matrix: (Units=GPa)
#
#
# Indices 1 2 3 4 5 6 
#
# 1 62.2908 14.2979 30.0913 0.0002 -4.9007 0.0000
# 2 14.2979 86.4443 38.9872 0.0002 -2.9936 0.0000
# 3 30.0913 38.9872 137.6906 0.0010 -5.7607 0.0001
# 4 0.0002 0.0002 0.0010 12.2493 0.0005 3.1639
# 5 -4.9007 -2.9936 -5.7607 0.0005 19.9400 0.0000
# 6 0.0000 0.0000 0.0001 3.1639 0.0000 9.7480
#
#
#
# Elastic Compliance Matrix: (Units=1/GPa)
#
#
# Indices 1 2 3 4 5 6 
#
# 1 0.018303 -0.001343 -0.003482 0.000000 0.003291 0.000000
# 2 -0.001343 0.013377 -0.003466 0.000000 0.000677 0.000000
# 3 -0.003482 -0.003466 0.009057 -0.000001 0.001240 0.000000
# 4 0.000000 0.000000 -0.000001 0.089108 -0.000002 -0.028922
# 5 0.003291 0.000677 0.001240 -0.000002 0.051419 0.000001
# 6 0.000000 0.000000 0.000000 -0.028922 0.000001 0.111973
#
#
# Mechanical properties :
#
#
# Convention : Reuss Voigt Hill
#
# Bulk Modulus (GPa) = 41.39919 50.35315 45.87617
# Shear Modulus (GPa) = 15.72971 21.92409 18.82690
#
# Velocity S-wave (km/s) = 3.00429 3.54685 3.28679
# Velocity P-wave (km/s) = 5.98243 6.75769 6.38184
#
# Compressibility (1/GPa) = 0.02415506
#
# Stress axis : x y z
#
# Youngs Moduli (GPa) = 54.63596 74.75608 110.41312
#
# Poissons Ratio (x) = 0.10039 0.38446
# Poissons Ratio (y) = 0.07337 0.38268
# Poissons Ratio (z) = 0.19025 0.25909
#
# Static dielectric constant tensor:
#      x y z
#    x 1.351210 0.000000 0.228300 
#    y 0.000000 1.630350 0.000000 
#    z 0.228300 0.000000 1.419400 
# 
# From -- ./inp_files/279563.got.cif
#   From: 2010.05.17/outbox.cif.g08.bks.cpg/sg12_140_cif.got.tgz:279563.got - 2010.06.03 13:09:07.
