data_PCOD9192299
_publ_section_title
;
Structure prediction by ZEFSAII (Michael W. Deem and Ramdas Pophale) SiO2 
 PCOD9192299
Probable space group: C 2/M
;
_chemical_formula_sum "Si O2"
_cell_formula_units_Z 56
_cell_length_a 28.958720
_cell_length_b 9.071121
_cell_length_c 19.946975
_cell_angle_alpha 90.000000
_cell_angle_beta 37.196697
_cell_angle_gamma 90.000000
_cell_volume 3167.757196
_symmetry_space_group_name_H-M "C 2/M"
_symmetry_group_IT_number 12
_symmetry_cell_setting 'monoclinic'
loop_
_space_group_symop_operation_xyz
x,y,z
-x,y,-z
-x,-y,-z
x,-y,z
1/2+x,1/2+y,z
1/2-x,1/2+y,-z
1/2-x,1/2-y,-z
1/2+x,1/2-y,z
loop_
_atom_site_type_symbol
_atom_site_label
_atom_site_fract_x
_atom_site_fract_y
_atom_site_fract_z
Si Si1 0.559414 0.324399 0.062060
Si Si2 0.599210 0.823578 0.759461
Si Si3 0.749790 0.677090 0.336380
Si Si4 0.697976 0.823790 0.117292
Si Si5 0.446169 0.326341 0.771697
Si Si6 0.727656 0.677456 0.826966
Si Si7 0.119013 0.176647 0.592784
O O1 0.549038 0.500000 0.064792
O O2 0.483373 0.241936 0.126714
O O3 0.567474 0.300030 0.133006
O O4 0.638569 0.277825 0.936836
O O5 0.666517 0.782106 0.732558
O O6 0.621189 0.759336 0.661079
O O7 0.594913 0.000000 0.760710
O O8 0.746679 0.500000 0.333302
O O9 0.737180 0.751220 0.279558
O O10 0.686702 0.719248 0.464634
O O11 0.612202 0.769326 0.203343
O O12 0.729384 0.781225 0.154131
O O13 0.703626 0.000000 0.104811
O O14 0.750000 0.750000 0.000000
O O15 0.431999 0.500000 0.775979
O O16 0.535601 0.295102 0.657359
O O17 0.729420 0.500000 0.820001
O O18 0.123174 0.000000 0.600744
#
# Coordination Sequence:
#
# PCOD9192299 Si02
#       7
#     8   8   8   8   8   8   8
#     4   9  18  35  54  76 109 144 179 216 264 323
#     4  10  20  33  54  84 110 134 179 230 268 309
#     4  10  22  38  54  77 109 145 181 222 267 313
#     4  11  21  35  56  82 109 137 174 218 266 318
#     4   9  17  33  56  81 106 135 176 223 263 310
#     4  10  22  38  54  76 108 144 181 218 260 323
#     4   9  19  37  58  78 107 144 181 218 262 319
#
# _framework density 17.678124
#
# number of rings (size 3 to 8) (size 9 to 14) (size 15 to 20)
#    0.000    2.286    1.429    2.143    0.000    6.286 
#    0.000    3.571    0.000    4.286    0.000    0.000 
#    0.000    0.000    0.000    0.000    0.000    0.000 
#
# Total GULP energy -156281.927196 kJ/mol
# GULP energy per Si atom -5581.497400 kJ/mol
# Density = 1.763789 g / cm^3
# Si number density = 17.678124 Si / 1000 Ang^3
#
#
#
# Elastic Constant Matrix: (Units=GPa)
#
#
# Indices 1 2 3 4 5 6 
#
# 1 84.9539 31.8463 11.4082 -0.0029 -0.3709 0.0037
# 2 31.8463 23.8329 6.5939 -0.0029 -0.5325 0.0014
# 3 11.4082 6.5939 17.4979 -0.0025 -1.5781 0.0028
# 4 -0.0029 -0.0029 -0.0025 29.0608 0.0039 -1.4890
# 5 -0.3709 -0.5325 -1.5781 0.0039 18.5866 -0.0040
# 6 0.0037 0.0014 0.0028 -1.4890 -0.0040 28.8661
#
#
#
# Elastic Compliance Matrix: (Units=1/GPa)
#
#
# Indices 1 2 3 4 5 6 
#
# 1 0.023837 -0.030757 -0.004018 -0.000001 -0.000747 -0.000001
# 2 -0.030757 0.086528 -0.012482 0.000005 0.000806 0.000001
# 3 -0.004018 -0.012482 0.064931 0.000003 0.005075 -0.000004
# 4 -0.000001 0.000005 0.000003 0.034502 -0.000006 0.001780
# 5 -0.000747 0.000806 0.005075 -0.000006 0.054241 0.000007
# 6 -0.000001 0.000001 -0.000004 0.001780 0.000007 0.034734
#
#
# Mechanical properties :
#
#
# Convention : Reuss Voigt Hill
#
# Bulk Modulus (GPa) = 12.37888 25.10905 18.74397
# Shear Modulus (GPa) = 11.89866 20.39846 16.14856
#
# Velocity S-wave (km/s) = 2.59718 3.40057 3.02566
# Velocity P-wave (km/s) = 4.00142 5.44544 4.77829
#
# Compressibility (1/GPa) = 0.08078275
#
# Stress axis : x y z
#
# Youngs Moduli (GPa) = 41.95130 11.55689 15.40100
#
# Poissons Ratio (x) = 0.35545 0.06189
# Poissons Ratio (y) = 1.29029 0.19223
# Poissons Ratio (z) = 0.16857 0.14425
#
# Static dielectric constant tensor:
#      x y z
#    x 1.589610 0.000000 -0.020160 
#    y 0.000000 1.589670 0.000000 
#    z -0.020160 0.000000 1.597500 
# 
# From -- ./inp_files/288408.got.cif
#   From: 2010.05.17/outbox.cif.g08.bks.cpg/sg12_145_cif.got.tgz:288408.got - 2010.06.03 13:09:07.
