data_PCOD9192635
_publ_section_title
;
Structure prediction by ZEFSAII (Michael W. Deem and Ramdas Pophale) SiO2 
 PCOD9192635
Probable space group: C 2/M
;
_chemical_formula_sum "Si O2"
_cell_formula_units_Z 64
_cell_length_a 30.517085
_cell_length_b 8.450324
_cell_length_c 15.984071
_cell_angle_alpha 90.000000
_cell_angle_beta 118.089333
_cell_angle_gamma 90.000000
_cell_volume 3636.453344
_symmetry_space_group_name_H-M "C 2/M"
_symmetry_group_IT_number 12
_symmetry_cell_setting 'monoclinic'
loop_
_space_group_symop_operation_xyz
x,y,z
-x,y,-z
-x,-y,-z
x,-y,z
1/2+x,1/2+y,z
1/2-x,1/2+y,-z
1/2-x,1/2-y,-z
1/2+x,1/2-y,z
loop_
_atom_site_type_symbol
_atom_site_label
_atom_site_fract_x
_atom_site_fract_y
_atom_site_fract_z
Si Si1 0.674173 0.191605 0.900688
Si Si2 0.928903 0.693297 0.271793
Si Si3 0.809951 0.809101 0.443479
Si Si4 0.633113 0.688666 0.339404
Si Si5 0.595806 0.191127 0.562942
Si Si6 0.728825 0.311107 0.112382
Si Si7 0.038934 0.309069 0.343862
Si Si8 0.793319 0.688656 0.723706
O O1 0.619660 0.243562 0.822952
O O2 0.716131 0.237553 0.870148
O O3 0.674791 0.000000 0.906452
O O4 0.691925 0.259903 0.004952
O O5 0.928972 0.500000 0.271726
O O6 0.922800 0.742723 0.363042
O O7 0.982176 0.745019 0.284695
O O8 0.831665 0.752771 0.552062
O O9 0.849574 0.753693 0.409978
O O10 0.755114 0.751621 0.371190
O O11 0.809274 0.000000 0.444113
O O12 0.632832 0.500000 0.341584
O O13 0.578108 0.748746 0.311141
O O14 0.657580 0.745158 0.275835
O O15 0.560249 0.240279 0.454252
O O16 0.597398 0.000000 0.564574
O O17 0.728584 0.500000 0.120478
O O18 0.714181 0.236887 0.187258
O O19 0.039518 0.500000 0.342710
O O20 0.794421 0.500000 0.718704
#
# Coordination Sequence:
#
# PCOD9192635 Si02
#       8
#     8   8   8   8   8   8   8   8
#     4   9  18  33  52  74 101 131 161 194 236 288
#     4   9  16  28  49  74  98 128 167 204 236 278
#     4   9  19  32  46  69 101 132 161 197 239 285
#     4  10  20  34  49  68  98 132 165 201 241 282
#     4   9  16  27  46  72 101 132 165 199 235 280
#     4  10  20  34  52  75 102 128 156 195 244 292
#     4   9  17  30  48  70  98 132 168 203 238 277
#     4  11  21  33  51  73  96 126 165 202 240 288
#
# _framework density 17.599564999999998
#
# number of rings (size 3 to 8) (size 9 to 14) (size 15 to 20)
#    0.000    2.500    0.000    2.625    0.000    4.500 
#    0.000    1.875    0.000    3.750    0.000    5.250 
#    0.000    0.000    0.000    0.000    0.000    0.000 
#
# Total GULP energy -178541.467721 kJ/mol
# GULP energy per Si atom -5579.420866 kJ/mol
# Density = 1.755951 g / cm^3
# Si number density = 17.599565 Si / 1000 Ang^3
#
#
#
# Elastic Constant Matrix: (Units=GPa)
#
#
# Indices 1 2 3 4 5 6 
#
# 1 150.2996 18.4621 64.2820 0.0000 9.2731 0.0000
# 2 18.4621 9.8559 8.3838 0.0000 3.5909 0.0000
# 3 64.2820 8.3838 51.1463 0.0000 9.3559 0.0000
# 4 0.0000 0.0000 0.0000 17.1924 0.0000 -1.2616
# 5 9.2731 3.5909 9.3559 0.0000 28.1098 0.0000
# 6 0.0000 0.0000 0.0000 -1.2616 0.0000 24.0829
#
#
#
# Elastic Compliance Matrix: (Units=1/GPa)
#
#
# Indices 1 2 3 4 5 6 
#
# 1 0.016299 -0.015903 -0.018386 0.000000 0.002774 0.000000
# 2 -0.015903 0.135690 -0.000047 0.000000 -0.012072 0.000000
# 3 -0.018386 -0.000047 0.044251 0.000000 -0.008657 0.000000
# 4 0.000000 0.000000 0.000000 0.058390 0.000000 0.003059
# 5 0.002774 -0.012072 -0.008657 0.000000 0.039083 0.000000
# 6 0.000000 0.000000 0.000000 0.003059 0.000000 0.041683
#
#
# Mechanical properties :
#
#
# Convention : Reuss Voigt Hill
#
# Bulk Modulus (GPa) = 7.83891 43.72860 25.78376
# Shear Modulus (GPa) = 11.19597 21.88863 16.54230
#
# Velocity S-wave (km/s) = 2.52494 3.53044 3.06915
# Velocity P-wave (km/s) = 3.60057 6.44353 5.21935
#
# Compressibility (1/GPa) = 0.12756879
#
# Stress axis : x y z
#
# Youngs Moduli (GPa) = 61.35305 7.36976 22.59846
#
# Poissons Ratio (x) = 0.11720 0.41549
# Poissons Ratio (y) = 0.97567 0.00106
# Poissons Ratio (z) = 1.12803 0.00035
#
# Static dielectric constant tensor:
#      x y z
#    x 1.595350 0.000000 0.012280 
#    y 0.000000 1.598040 0.000000 
#    z 0.012280 0.000000 1.587960 
# 
# From -- ./inp_files/243740.got.cif
#   From: 2010.05.17/outbox.cif.g08.bks.cpg/sg12_122_cif.got.tgz:243740.got - 2010.06.03 13:09:07.
