data_PCOD9192951
_publ_section_title
;
Structure prediction by ZEFSAII (Michael W. Deem and Ramdas Pophale) SiO2 
 PCOD9192951
Probable space group: C 2/M
;
_chemical_formula_sum "Si O2"
_cell_formula_units_Z 56
_cell_length_a 22.841941
_cell_length_b 8.968809
_cell_length_c 17.844464
_cell_angle_alpha 90.000000
_cell_angle_beta 121.530976
_cell_angle_gamma 90.000000
_cell_volume 3115.968837
_symmetry_space_group_name_H-M "C 2/M"
_symmetry_group_IT_number 12
_symmetry_cell_setting 'monoclinic'
loop_
_space_group_symop_operation_xyz
x,y,z
-x,y,-z
-x,-y,-z
x,-y,z
1/2+x,1/2+y,z
1/2-x,1/2+y,-z
1/2-x,1/2-y,-z
1/2+x,1/2-y,z
loop_
_atom_site_type_symbol
_atom_site_label
_atom_site_fract_x
_atom_site_fract_y
_atom_site_fract_z
Si Si1 0.447332 0.673555 0.030647
Si Si2 0.587063 0.321016 0.759321
Si Si3 0.323454 0.824245 0.633756
Si Si4 0.315118 0.176598 0.455558
Si Si5 0.955656 0.831145 0.759396
Si Si6 0.327457 0.180405 0.047692
Si Si7 0.577018 0.322405 0.579308
O O1 0.429203 0.500000 0.000482
O O2 0.496296 0.672621 0.135988
O O3 0.377730 0.757997 0.013301
O O4 0.500000 0.728451 0.000000
O O5 0.598643 0.500000 0.777893
O O6 0.507538 0.293095 0.727184
O O7 0.634398 0.233143 0.849941
O O8 0.593581 0.283511 0.676566
O O9 0.329013 0.774010 0.550546
O O10 0.256622 0.743751 0.619596
O O11 0.392305 0.778189 0.721225
O O12 0.313186 0.000000 0.628711
O O13 0.373768 0.234474 0.441982
O O14 0.311127 0.000000 0.453178
O O15 0.929750 0.000000 0.731634
O O16 0.323898 0.000000 0.040869
O O17 0.250000 0.250000 0.000000
O O18 0.500000 0.292148 0.500000
O O19 0.588027 0.500000 0.579340
#
# Coordination Sequence:
#
# PCOD9192951 Si02
#       7
#     8   8   8   8   8   8   8
#     4   9  19  38  61  85 114 146 184 231 283 340
#     4   9  19  36  57  82 112 145 184 225 270 330
#     4  10  20  34  52  74 102 140 181 222 269 320
#     4  10  21  35  51  73 104 140 181 225 267 317
#     4   9  17  32  56  81 105 137 175 218 268 325
#     4  11  22  38  61  86 115 153 194 237 288 343
#     4  10  20  35  56  81 110 144 180 221 272 325
#
# _framework density 17.971938000000002
#
# number of rings (size 3 to 8) (size 9 to 14) (size 15 to 20)
#    0.000    2.286    0.000    3.857    0.000    6.286 
#    2.571    0.000    0.000    0.000    0.000    0.000 
#    0.000    0.000    0.000    0.000    0.000    0.000 
#
# Total GULP energy -156039.433266 kJ/mol
# GULP energy per Si atom -5572.836902 kJ/mol
# Density = 1.793103 g / cm^3
# Si number density = 17.971938 Si / 1000 Ang^3
#
#
#
# Elastic Constant Matrix: (Units=GPa)
#
#
# Indices 1 2 3 4 5 6 
#
# 1 191.8936 52.5885 58.3929 0.0000 -15.9844 0.0000
# 2 52.5885 67.8688 23.0724 0.0000 13.9588 0.0000
# 3 58.3929 23.0724 47.1710 0.0000 0.3662 0.0000
# 4 0.0000 0.0000 0.0000 24.8014 0.0000 2.2663
# 5 -15.9844 13.9588 0.3662 0.0000 30.0053 0.0000
# 6 0.0000 0.0000 0.0000 2.2663 0.0000 31.8637
#
#
#
# Elastic Compliance Matrix: (Units=1/GPa)
#
#
# Indices 1 2 3 4 5 6 
#
# 1 0.011018 -0.006923 -0.010324 0.000000 0.009216 0.000000
# 2 -0.006923 0.024248 -0.003175 0.000000 -0.014930 0.000000
# 3 -0.010324 -0.003175 0.035567 0.000000 -0.004457 0.000000
# 4 0.000000 0.000000 0.000000 0.040584 0.000000 -0.002886
# 5 0.009216 -0.014930 -0.004457 0.000000 0.045237 0.000000
# 6 0.000000 0.000000 0.000000 -0.002886 0.000000 0.031589
#
#
# Mechanical properties :
#
#
# Convention : Reuss Voigt Hill
#
# Bulk Modulus (GPa) = 33.34479 63.89344 48.61911
# Shear Modulus (GPa) = 20.91316 28.85938 24.88627
#
# Velocity S-wave (km/s) = 3.41494 4.01159 3.72523
# Velocity P-wave (km/s) = 5.84322 7.55554 6.75386
#
# Compressibility (1/GPa) = 0.02998969
#
# Stress axis : x y z
#
# Youngs Moduli (GPa) = 90.76253 41.23976 28.11566
#
# Poissons Ratio (x) = 0.28550 0.29027
# Poissons Ratio (y) = 0.62833 0.08926
# Poissons Ratio (z) = 0.93706 0.13093
#
# Static dielectric constant tensor:
#      x y z
#    x 1.654660 0.000000 -0.005360 
#    y 0.000000 1.612730 0.000000 
#    z -0.005360 0.000000 1.612330 
# 
# From -- ./inp_files/281615.got.cif
#   From: 2010.05.17/outbox.cif.g08.bks.cpg/sg12_141_cif.got.tgz:281615.got - 2010.06.03 13:09:07.
