data_PCOD9192409
_publ_section_title
;
Structure prediction by ZEFSAII (Michael W. Deem and Ramdas Pophale) SiO2 
 PCOD9192409
Probable space group: C 2/M
;
_chemical_formula_sum "Si O2"
_cell_formula_units_Z 64
_cell_length_a 28.758774
_cell_length_b 8.832347
_cell_length_c 14.437824
_cell_angle_alpha 90.000000
_cell_angle_beta 87.121150
_cell_angle_gamma 90.000000
_cell_volume 3662.686884
_symmetry_space_group_name_H-M "C 2/M"
_symmetry_group_IT_number 12
_symmetry_cell_setting 'monoclinic'
loop_
_space_group_symop_operation_xyz
x,y,z
-x,y,-z
-x,-y,-z
x,-y,z
1/2+x,1/2+y,z
1/2-x,1/2+y,-z
1/2-x,1/2-y,-z
1/2+x,1/2-y,z
loop_
_atom_site_type_symbol
_atom_site_label
_atom_site_fract_x
_atom_site_fract_y
_atom_site_fract_z
Si Si1 0.859650 0.680421 0.141984
Si Si2 0.092878 0.179189 0.040204
Si Si3 0.328814 0.322108 0.808350
Si Si4 0.021377 0.679734 0.184694
Si Si5 0.427857 0.318809 0.273483
Si Si6 0.900030 0.321267 0.666185
Si Si7 0.446440 0.318157 0.485619
Si Si8 0.760762 0.819796 0.099555
O O1 0.856949 0.500000 0.141127
O O2 0.883142 0.741214 0.232920
O O3 0.808997 0.751448 0.130797
O O4 0.892353 0.737786 0.054680
O O5 0.135604 0.199409 0.108723
O O6 0.047637 0.248814 0.094090
O O7 0.086942 0.000000 0.024943
O O8 0.317988 0.500000 0.803993
O O9 0.356940 0.266271 0.716087
O O10 0.282463 0.227970 0.832093
O O11 0.015053 0.500000 0.172666
O O12 0.056262 0.703816 0.268473
O O13 0.973131 0.758784 0.214496
O O14 0.425067 0.500000 0.264528
O O15 0.433962 0.281259 0.381192
O O16 0.890627 0.500000 0.665874
O O17 0.914255 0.261169 0.564545
O O18 0.500000 0.274469 0.500000
O O19 0.443127 0.500000 0.497720
O O20 0.764583 0.000000 0.091350
O O21 0.750000 0.750000 0.000000
#
# Coordination Sequence:
#
# PCOD9192409 Si02
#       8
#     8   8   8   8   8   8   8   8
#     4  12  25  40  58  82 116 153 193 238 288 342
#     4  10  20  35  56  81 113 152 194 234 279 336
#     4  10  20  35  58  86 117 150 188 235 286 337
#     4  10  20  34  53  81 116 152 192 234 283 338
#     4  11  23  39  58  81 114 153 196 239 287 343
#     4  10  20  33  55  86 119 150 187 237 287 338
#     4  10  20  36  59  85 113 150 193 238 286 340
#     4  12  23  38  61  88 117 150 192 236 285 337
#
# _framework density 17.473511999999999
#
# number of rings (size 3 to 8) (size 9 to 14) (size 15 to 20)
#    0.000    1.375    2.500    4.125    0.000    3.750 
#    0.000    2.500    0.000    0.750    0.000    0.000 
#    0.000    0.000    0.000    0.000    0.000    0.000 
#
# Total GULP energy -178905.390446 kJ/mol
# GULP energy per Si atom -5590.793451 kJ/mol
# Density = 1.743374 g / cm^3
# Si number density = 17.473512 Si / 1000 Ang^3
#
#
#
# Elastic Constant Matrix: (Units=GPa)
#
#
# Indices 1 2 3 4 5 6 
#
# 1 87.5735 61.3743 57.5774 0.0000 3.4072 0.0000
# 2 61.3743 114.7727 59.2873 0.0000 6.9462 0.0000
# 3 57.5774 59.2873 93.6612 0.0000 -0.3956 0.0000
# 4 0.0000 0.0000 0.0000 30.8811 0.0000 -4.9540
# 5 3.4072 6.9462 -0.3956 0.0000 22.4421 0.0000
# 6 0.0000 0.0000 0.0000 -4.9540 0.0000 31.2100
#
#
#
# Elastic Compliance Matrix: (Units=1/GPa)
#
#
# Indices 1 2 3 4 5 6 
#
# 1 0.022700 -0.007197 -0.009405 0.000000 -0.001385 0.000000
# 2 -0.007197 0.015626 -0.005484 0.000000 -0.003841 0.000000
# 3 -0.009405 -0.005484 0.019944 0.000000 0.003477 0.000000
# 4 0.000000 0.000000 0.000000 0.033228 0.000000 0.005274
# 5 -0.001385 -0.003841 0.003477 0.000000 0.046019 0.000000
# 6 0.000000 0.000000 0.000000 0.005274 0.000000 0.032878
#
#
# Mechanical properties :
#
#
# Convention : Reuss Voigt Hill
#
# Bulk Modulus (GPa) = 70.92167 72.49838 71.71003
# Shear Modulus (GPa) = 22.80323 24.75786 23.78054
#
# Velocity S-wave (km/s) = 3.61642 3.76823 3.69311
# Velocity P-wave (km/s) = 7.62327 7.77903 7.70154
#
# Compressibility (1/GPa) = 0.01410006
#
# Stress axis : x y z
#
# Youngs Moduli (GPa) = 44.05265 63.99455 50.13995
#
# Poissons Ratio (x) = 0.46055 0.47157
# Poissons Ratio (y) = 0.31703 0.27494
# Poissons Ratio (z) = 0.41432 0.35092
#
# Static dielectric constant tensor:
#      x y z
#    x 1.583350 0.000000 0.008590 
#    y 0.000000 1.577180 0.000000 
#    z 0.008590 0.000000 1.580570 
# 
# From -- ./inp_files/243980.got.cif
#   From: 2010.05.17/outbox.cif.g08.bks.cpg/sg12_122_cif.got.tgz:243980.got - 2010.06.03 13:09:07.
