data_PCOD9192837
_publ_section_title
;
Structure prediction by ZEFSAII (Michael W. Deem and Ramdas Pophale) SiO2 
 PCOD9192837
Probable space group: C 2/M
;
_chemical_formula_sum "Si O2"
_cell_formula_units_Z 40
_cell_length_a 15.749919
_cell_length_b 29.595001
_cell_length_c 9.361941
_cell_angle_alpha 90.000000
_cell_angle_beta 28.918267
_cell_angle_gamma 90.000000
_cell_volume 2110.154604
_symmetry_space_group_name_H-M "C 2/M"
_symmetry_group_IT_number 12
_symmetry_cell_setting 'monoclinic'
loop_
_space_group_symop_operation_xyz
x,y,z
-x,y,-z
-x,-y,-z
x,-y,z
1/2+x,1/2+y,z
1/2-x,1/2+y,-z
1/2-x,1/2-y,-z
1/2+x,1/2-y,z
loop_
_atom_site_type_symbol
_atom_site_label
_atom_site_fract_x
_atom_site_fract_y
_atom_site_fract_z
Si Si1 0.675116 0.616767 0.334250
Si Si2 0.313721 0.948032 0.360243
Si Si3 0.049310 0.712283 0.588910
Si Si4 0.026527 0.607490 0.627127
Si Si5 0.815834 0.287714 0.191197
O O1 0.500000 0.614129 0.500000
O O2 0.686471 0.580990 0.446332
O O3 0.703149 0.666627 0.359042
O O4 0.839685 0.608691 0.984911
O O5 0.350465 0.924532 0.458421
O O6 0.259610 0.000000 0.455254
O O7 0.500000 0.947250 0.000000
O O8 0.095369 0.659209 0.530158
O O9 0.205954 0.744999 0.404111
O O10 0.000000 0.722966 0.500000
O O11 0.879948 0.720295 0.935524
O O12 0.000000 0.594745 0.500000
O O13 0.000000 0.295421 0.000000
#
# Coordination Sequence:
#
# PCOD9192837 Si02
#       5
#     8   8   8   8   8
#     4  10  20  35  55  78 106 140 177 216 258 308
#     4   9  18  35  58  80 104 137 176 215 261 318
#     4  10  20  34  51  75 107 139 173 211 254 308
#     4   9  19  36  55  80 108 137 173 216 262 309
#     4  11  21  34  52  76 106 139 177 215 256 306
#
# _framework density 18.955957000000001
#
# number of rings (size 3 to 8) (size 9 to 14) (size 15 to 20)
#    0.000    2.200    0.000    4.800    0.000    4.000 
#    0.000    1.000    0.000    1.200    0.000    0.000 
#    0.000    0.000    0.000    0.000    0.000    0.000 
#
# Total GULP energy -111617.900305 kJ/mol
# GULP energy per Si atom -5580.895015 kJ/mol
# Density = 1.891281 g / cm^3
# Si number density = 18.955957 Si / 1000 Ang^3
#
#
#
# Elastic Constant Matrix: (Units=GPa)
#
#
# Indices 1 2 3 4 5 6 
#
# 1 165.8258 108.1999 30.2000 0.0000 -10.8204 0.0000
# 2 108.1999 135.3625 41.5038 0.0000 -13.2508 0.0000
# 3 30.2000 41.5038 14.4892 0.0000 -2.3949 0.0000
# 4 0.0000 0.0000 0.0000 12.6350 0.0000 8.3786
# 5 -10.8204 -13.2508 -2.3949 0.0000 37.6919 0.0000
# 6 0.0000 0.0000 0.0000 8.3786 0.0000 20.9289
#
#
#
# Elastic Compliance Matrix: (Units=1/GPa)
#
#
# Indices 1 2 3 4 5 6 
#
# 1 0.013491 -0.018151 0.023708 0.000000 -0.001002 0.000000
# 2 -0.018151 0.089436 -0.216292 0.000000 0.012488 0.000000
# 3 0.023708 -0.216292 0.634382 0.000000 -0.028925 0.000000
# 4 0.000000 0.000000 0.000000 0.107750 0.000000 -0.043136
# 5 -0.001002 0.012488 -0.028925 0.000000 0.028796 0.000000
# 6 0.000000 0.000000 0.000000 -0.043136 0.000000 0.065050
#
#
# Mechanical properties :
#
#
# Convention : Reuss Voigt Hill
#
# Bulk Modulus (GPa) = 3.16615 75.05388 39.11002
# Shear Modulus (GPa) = 3.41145 23.30273 13.35709
#
# Velocity S-wave (km/s) = 1.34297 3.50995 2.65738
# Velocity P-wave (km/s) = 2.01957 7.49040 5.48565
#
# Compressibility (1/GPa) = 0.31584074
#
# Stress axis : x y z
#
# Youngs Moduli (GPa) = 74.12588 11.18116 1.57634
#
# Poissons Ratio (x) = 0.20295 -0.03737
# Poissons Ratio (y) = 1.34544 0.34095
# Poissons Ratio (z) = -1.75738 2.41839
#
# Static dielectric constant tensor:
#      x y z
#    x 1.678840 0.000000 0.018700 
#    y 0.000000 1.652680 0.000000 
#    z 0.018700 0.000000 1.651370 
# 
# From -- ./inp_files/41411.got.cif
#   From: 2010.05.17/outbox.cif.g08.bks.cpg/sg12_21_cif.got.tgz:41411.got - 2010.06.03 13:09:07.
