data_PCOD9192002
_publ_section_title
;
Structure prediction by ZEFSAII (Michael W. Deem and Ramdas Pophale) SiO2 
 PCOD9192002
Probable space group: C 2/M
;
_chemical_formula_sum "Si O2"
_cell_formula_units_Z 48
_cell_length_a 24.185316
_cell_length_b 9.036434
_cell_length_c 17.580372
_cell_angle_alpha 90.000000
_cell_angle_beta 46.113753
_cell_angle_gamma 90.000000
_cell_volume 2769.121389
_symmetry_space_group_name_H-M "C 2/M"
_symmetry_group_IT_number 12
_symmetry_cell_setting 'monoclinic'
loop_
_space_group_symop_operation_xyz
x,y,z
-x,y,-z
-x,-y,-z
x,-y,z
1/2+x,1/2+y,z
1/2-x,1/2+y,-z
1/2-x,1/2-y,-z
1/2+x,1/2-y,z
loop_
_atom_site_type_symbol
_atom_site_label
_atom_site_fract_x
_atom_site_fract_y
_atom_site_fract_z
Si Si1 0.307541 0.321907 0.884547
Si Si2 0.573651 0.676248 0.980770
Si Si3 0.244765 0.675870 0.383841
Si Si4 0.764499 0.323010 0.208069
Si Si5 0.630425 0.175785 0.631328
Si Si6 0.032261 0.176498 0.196524
O O1 0.301999 0.500000 0.897287
O O2 0.281842 0.281591 0.824047
O O3 0.394519 0.280294 0.822531
O O4 0.250000 0.250000 0.000000
O O5 0.588251 0.500000 0.957510
O O6 0.648887 0.764620 0.884906
O O7 0.500000 0.714648 0.000000
O O8 0.554601 0.703662 0.087248
O O9 0.254017 0.500000 0.367037
O O10 0.231192 0.749779 0.315647
O O11 0.321424 0.744078 0.348238
O O12 0.176789 0.704959 0.508986
O O13 0.764157 0.500000 0.215543
O O14 0.544915 0.237726 0.710179
O O15 0.630832 0.000000 0.644270
O O16 0.019234 0.000000 0.217216
#
# Coordination Sequence:
#
# PCOD9192002 Si02
#       6
#     8   8   8   8   8   8
#     4  10  21  37  56  80 110 150 191 228 275 327
#     4  10  20  33  52  79 110 145 182 222 277 338
#     4  10  21  38  59  82 112 149 183 222 281 340
#     4  11  22  35  55  83 111 142 188 235 273 320
#     4  10  21  37  59  86 112 142 184 231 277 328
#     4  10  20  35  55  80 113 150 186 224 277 337
#
# _framework density 17.334018
#
# number of rings (size 3 to 8) (size 9 to 14) (size 15 to 20)
#    0.000    1.833    1.667    2.500    0.000    5.667 
#    0.000    0.833    0.000    5.000    0.000    0.000 
#    0.000    0.000    0.000    0.000    0.000    0.000 
#
# Total GULP energy -134066.040385 kJ/mol
# GULP energy per Si atom -5586.085016 kJ/mol
# Density = 1.729457 g / cm^3
# Si number density = 17.334018 Si / 1000 Ang^3
#
#
#
# Elastic Constant Matrix: (Units=GPa)
#
#
# Indices 1 2 3 4 5 6 
#
# 1 114.5255 38.4364 42.2403 -0.0004 25.6584 0.0003
# 2 38.4364 42.5652 39.4913 0.0002 12.0454 -0.0003
# 3 42.2403 39.4913 62.5500 -0.0001 12.3302 0.0000
# 4 -0.0004 0.0002 -0.0001 34.4958 0.0001 -3.4613
# 5 25.6584 12.0454 12.3302 0.0001 27.1169 -0.0001
# 6 0.0003 -0.0003 0.0000 -3.4613 -0.0001 21.7498
#
#
#
# Elastic Compliance Matrix: (Units=1/GPa)
#
#
# Indices 1 2 3 4 5 6 
#
# 1 0.014436 -0.007498 -0.003272 0.000000 -0.008841 0.000000
# 2 -0.007498 0.063078 -0.033653 0.000000 -0.005622 0.000001
# 3 -0.003272 -0.033653 0.039420 0.000000 0.000120 0.000000
# 4 0.000000 0.000000 0.000000 0.029459 0.000000 0.004688
# 5 -0.008841 -0.005622 0.000120 0.000000 0.047686 0.000000
# 6 0.000000 0.000001 0.000000 0.004688 0.000000 0.046723
#
#
# Mechanical properties :
#
#
# Convention : Reuss Voigt Hill
#
# Bulk Modulus (GPa) = 35.60227 51.10854 43.35540
# Shear Modulus (GPa) = 14.74889 23.30402 19.02645
#
# Velocity S-wave (km/s) = 2.92012 3.67060 3.31665
# Velocity P-wave (km/s) = 5.65270 6.89296 6.30341
#
# Compressibility (1/GPa) = 0.02808810
#
# Stress axis : x y z
#
# Youngs Moduli (GPa) = 69.27359 15.85351 25.36798
#
# Poissons Ratio (x) = 0.11887 0.08300
# Poissons Ratio (y) = 0.51941 0.85370
# Poissons Ratio (z) = 0.22664 0.53351
#
# Static dielectric constant tensor:
#      x y z
#    x 1.577040 0.000000 0.009870 
#    y 0.000000 1.582140 0.000000 
#    z 0.009870 0.000000 1.563750 
# 
# From -- ./inp_files/280772.got.cif
#   From: 2010.05.17/outbox.cif.g08.bks.cpg/sg12_141_cif.got.tgz:280772.got - 2010.06.03 13:09:07.
