data_PCOD9192805
_publ_section_title
;
Structure prediction by ZEFSAII (Michael W. Deem and Ramdas Pophale) SiO2 
 PCOD9192805
Probable space group: C 2/M
;
_chemical_formula_sum "Si O2"
_cell_formula_units_Z 48
_cell_length_a 14.616901
_cell_length_b 7.654033
_cell_length_c 21.277883
_cell_angle_alpha 90.000000
_cell_angle_beta 109.161949
_cell_angle_gamma 90.000000
_cell_volume 2248.637742
_symmetry_space_group_name_H-M "C 2/M"
_symmetry_group_IT_number 12
_symmetry_cell_setting 'monoclinic'
loop_
_space_group_symop_operation_xyz
x,y,z
-x,y,-z
-x,-y,-z
x,-y,z
1/2+x,1/2+y,z
1/2-x,1/2+y,-z
1/2-x,1/2-y,-z
1/2+x,1/2-y,z
loop_
_atom_site_type_symbol
_atom_site_label
_atom_site_fract_x
_atom_site_fract_y
_atom_site_fract_z
Si Si1 0.349451 0.291928 0.484825
Si Si2 0.897730 0.790999 0.001011
Si Si3 0.365197 0.297717 0.255993
Si Si4 0.051657 0.214857 0.371640
Si Si5 0.699616 0.711345 0.893158
Si Si6 0.243495 0.797731 0.340776
O O1 0.359648 0.500000 0.479389
O O2 0.250000 0.250000 0.500000
O O3 0.431892 0.230524 0.552060
O O4 0.329514 0.218061 0.411575
O O5 0.810549 0.757407 0.933049
O O6 0.907460 0.000000 0.009773
O O7 0.862656 0.724159 0.061194
O O8 0.000000 0.720767 0.000000
O O9 0.390694 0.500000 0.250522
O O10 0.456599 0.221689 0.314400
O O11 0.338093 0.221737 0.182284
O O12 0.275932 0.290895 0.284076
O O13 0.146224 0.268632 0.352718
O O14 0.051000 0.000000 0.373777
O O15 0.694736 0.500000 0.891309
O O16 0.227455 0.000000 0.323081
#
# Coordination Sequence:
#
# PCOD9192805 Si02
#       6
#     8   8   8   8   8   8
#     4   9  16  30  51  73  98 132 174 219 263 306
#     4   9  18  34  57  81 103 133 170 203 242 297
#     4  10  20  35  52  72 101 137 171 204 250 308
#     4   8  17  33  52  71  96 133 172 208 254 311
#     4   9  19  34  52  77 107 133 163 207 252 296
#     4  10  20  34  51  74 101 133 174 218 262 304
#
# _framework density 21.346259
#
# number of rings (size 3 to 8) (size 9 to 14) (size 15 to 20)
#    0.000    2.833    0.000    2.000    0.000    3.000 
#    0.000   11.667    0.000    0.000    0.000    0.000 
#    0.000    0.000    0.000    0.000    0.000    0.000 
#
# Total GULP energy -133890.964088 kJ/mol
# GULP energy per Si atom -5578.790170 kJ/mol
# Density = 2.129767 g / cm^3
# Si number density = 21.346259 Si / 1000 Ang^3
#
#
#
# Elastic Constant Matrix: (Units=GPa)
#
#
# Indices 1 2 3 4 5 6 
#
# 1 106.5219 -1.2938 59.1920 0.0000 4.7207 0.0000
# 2 -1.2938 35.7287 -4.9916 0.0000 0.0511 0.0000
# 3 59.1920 -4.9916 161.7212 0.0000 -2.2770 0.0000
# 4 0.0000 0.0000 0.0000 19.9613 0.0000 -0.2622
# 5 4.7207 0.0511 -2.2770 0.0000 10.8102 0.0000
# 6 0.0000 0.0000 0.0000 -0.2622 0.0000 9.0534
#
#
#
# Elastic Compliance Matrix: (Units=1/GPa)
#
#
# Indices 1 2 3 4 5 6 
#
# 1 0.012197 -0.000186 -0.004559 0.000000 -0.006286 0.000000
# 2 -0.000186 0.028113 0.000938 0.000000 0.000146 0.000000
# 3 -0.004559 0.000938 0.007932 0.000000 0.003657 0.000000
# 4 0.000000 0.000000 0.000000 0.050116 0.000000 0.001452
# 5 -0.006286 0.000146 0.003657 0.000000 0.096020 0.000000
# 6 0.000000 0.000000 0.000000 0.001452 0.000000 0.110497
#
#
# Mechanical properties :
#
#
# Convention : Reuss Voigt Hill
#
# Bulk Modulus (GPa) = 24.61316 45.53168 35.07242
# Shear Modulus (GPa) = 15.33590 24.70265 20.01927
#
# Velocity S-wave (km/s) = 2.68327 3.40551 3.06573
# Velocity P-wave (km/s) = 4.59950 6.06957 5.38494
#
# Compressibility (1/GPa) = 0.04062867
#
# Stress axis : x y z
#
# Youngs Moduli (GPa) = 81.98645 35.57099 126.06505
#
# Poissons Ratio (x) = 0.00662 0.57467
# Poissons Ratio (y) = 0.01526 -0.11824
# Poissons Ratio (z) = 0.37374 -0.03336
#
# Static dielectric constant tensor:
#      x y z
#    x 1.781860 0.000000 0.001270 
#    y 0.000000 1.792340 0.000000 
#    z 0.001270 0.000000 1.766720 
# 
# From -- ./inp_files/308603.got.cif
#   From: 2010.05.17/outbox.cif.g08.bks.cpg/sg12_155_cif.got.tgz:308603.got - 2010.06.03 13:09:07.
