data_PCOD9192304
_publ_section_title
;
Structure prediction by ZEFSAII (Michael W. Deem and Ramdas Pophale) SiO2 
 PCOD9192304
Probable space group: C 2/M
;
_chemical_formula_sum "Si O2"
_cell_formula_units_Z 48
_cell_length_a 19.325029
_cell_length_b 14.819380
_cell_length_c 15.207807
_cell_angle_alpha 90.000000
_cell_angle_beta 24.441523
_cell_angle_gamma 90.000000
_cell_volume 1802.062310
_symmetry_space_group_name_H-M "C 2/M"
_symmetry_group_IT_number 12
_symmetry_cell_setting 'monoclinic'
loop_
_space_group_symop_operation_xyz
x,y,z
-x,y,-z
-x,-y,-z
x,-y,z
1/2+x,1/2+y,z
1/2-x,1/2+y,-z
1/2-x,1/2-y,-z
1/2+x,1/2-y,z
loop_
_atom_site_type_symbol
_atom_site_label
_atom_site_fract_x
_atom_site_fract_y
_atom_site_fract_z
Si Si1 0.986329 0.604816 0.658532
Si Si2 0.325606 0.624003 0.165204
Si Si3 0.665636 0.892500 0.629125
Si Si4 0.234523 0.332198 0.738934
Si Si5 0.880520 0.805806 0.743918
Si Si6 0.045035 0.102818 0.176411
O O1 0.915674 0.500000 0.745584
O O2 0.155890 0.590754 0.405141
O O3 0.044181 0.635996 0.690247
O O4 0.911457 0.697930 0.702000
O O5 0.317140 0.728899 0.199228
O O6 0.500000 0.589655 0.000000
O O7 0.357610 0.604490 0.026805
O O8 0.638731 0.872204 0.764574
O O9 0.855274 0.859826 0.386231
O O10 0.666405 0.000000 0.620555
O O11 0.248799 0.349414 0.827842
O O12 0.431393 0.344149 0.489017
O O13 0.848384 0.839817 0.878445
O O14 0.027975 0.000000 0.227830
#
# Coordination Sequence:
#
# PCOD9192304 Si02
#       6
#     8   8   8   8   8   8
#     4  10  20  35  59  86 112 144 185 231 278 330
#     4  11  21  32  55  83 112 146 176 229 284 329
#     4   9  18  33  58  85 108 141 188 238 276 318
#     4   9  20  36  54  81 111 147 189 223 276 332
#     4   9  20  37  56  80 112 150 186 225 274 333
#     4  10  20  33  54  84 113 141 180 230 282 330
#
# _framework density 26.636149
#
# number of rings (size 3 to 8) (size 9 to 14) (size 15 to 20)
#    0.000    2.333    1.667    0.500    2.333    4.000 
#    0.000   10.833    0.000    1.500    0.000    0.000 
#    0.000    0.000    0.000    0.000    0.000    0.000 
#
# Total GULP energy -133953.307846 kJ/mol
# GULP energy per Si atom -5581.387827 kJ/mol
# Density = 2.657552 g / cm^3
# Si number density = 26.636149 Si / 1000 Ang^3
#
#
#
# Elastic Constant Matrix: (Units=GPa)
#
#
# Indices 1 2 3 4 5 6 
#
# 1 187.2420 23.9694 40.9834 0.0004 22.3140 0.0000
# 2 23.9694 41.1939 -5.4235 0.0009 9.7826 -0.0011
# 3 40.9834 -5.4235 80.1887 0.0001 24.2725 -0.0001
# 4 0.0004 0.0009 0.0001 15.9954 -0.0005 6.6907
# 5 22.3140 9.7826 24.2725 -0.0005 47.7162 0.0005
# 6 0.0000 -0.0011 -0.0001 6.6907 0.0005 13.9468
#
#
#
# Elastic Compliance Matrix: (Units=1/GPa)
#
#
# Indices 1 2 3 4 5 6 
#
# 1 0.006728 -0.004284 -0.003596 0.000000 -0.000439 0.000000
# 2 -0.004284 0.029328 0.006367 -0.000004 -0.007248 0.000004
# 3 -0.003596 0.006367 0.017287 -0.000001 -0.008417 0.000002
# 4 0.000000 -0.000004 -0.000001 0.078213 0.000003 -0.037521
# 5 -0.000439 -0.007248 -0.008417 0.000003 0.026930 -0.000003
# 6 0.000000 0.000004 0.000002 -0.037521 -0.000003 0.089701
#
#
# Mechanical properties :
#
#
# Convention : Reuss Voigt Hill
#
# Bulk Modulus (GPa) = 19.87380 47.52037 33.69708
# Shear Modulus (GPa) = 18.65775 32.13800 25.39787
#
# Velocity S-wave (km/s) = 2.64951 3.47732 3.09125
# Velocity P-wave (km/s) = 4.10332 5.83109 5.04177
#
# Compressibility (1/GPa) = 0.05031750
#
# Stress axis : x y z
#
# Youngs Moduli (GPa) = 148.62238 34.09732 57.84759
#
# Poissons Ratio (x) = 0.14608 0.20800
# Poissons Ratio (y) = 0.63673 -0.36832
# Poissons Ratio (z) = 0.53440 -0.21710
#
# Static dielectric constant tensor:
#      x y z
#    x 3.221080 0.000000 -0.167480 
#    y 0.000000 2.018890 0.000000 
#    z -0.167480 0.000000 2.194340 
# 
# From -- ./inp_files/234240.got.cif
#   From: 2010.05.17/outbox.cif.g08.bks.cpg/sg12_118_cif.got.tgz:234240.got - 2010.06.03 13:09:07.
