data_PCOD9192898
_publ_section_title
;
Structure prediction by ZEFSAII (Michael W. Deem and Ramdas Pophale) SiO2 
 PCOD9192898
Probable space group: C 2/M
;
_chemical_formula_sum "Si O2"
_cell_formula_units_Z 48
_cell_length_a 33.052432
_cell_length_b 8.153170
_cell_length_c 16.540175
_cell_angle_alpha 90.000000
_cell_angle_beta 36.030367
_cell_angle_gamma 90.000000
_cell_volume 2621.834898
_symmetry_space_group_name_H-M "C 2/M"
_symmetry_group_IT_number 12
_symmetry_cell_setting 'monoclinic'
loop_
_space_group_symop_operation_xyz
x,y,z
-x,y,-z
-x,-y,-z
x,-y,z
1/2+x,1/2+y,z
1/2-x,1/2+y,-z
1/2-x,1/2-y,-z
1/2+x,1/2-y,z
loop_
_atom_site_type_symbol
_atom_site_label
_atom_site_fract_x
_atom_site_fract_y
_atom_site_fract_z
Si Si1 0.849262 0.698420 0.894953
Si Si2 0.533078 0.200514 0.862916
Si Si3 0.682031 0.196025 0.563537
Si Si4 0.299515 0.302045 0.804238
Si Si5 0.633340 0.695770 0.470366
Si Si6 0.015243 0.697194 0.232513
O O1 0.849660 0.500000 0.896278
O O2 0.843650 0.751447 0.810944
O O3 0.917538 0.759224 0.829651
O O4 0.778689 0.754797 0.052360
O O5 0.612251 0.251485 0.721949
O O6 0.492458 0.254225 0.847961
O O7 0.532097 0.000000 0.865479
O O8 0.500000 0.257441 0.000000
O O9 0.750000 0.250000 0.500000
O O10 0.676106 0.258842 0.481385
O O11 0.680072 0.000000 0.563737
O O12 0.297718 0.500000 0.804132
O O13 0.331394 0.241681 0.668700
O O14 0.629511 0.500000 0.471760
O O15 0.556131 0.760696 0.608094
O O16 0.020197 0.500000 0.221665
#
# Coordination Sequence:
#
# PCOD9192898 Si02
#       6
#     8   8   8   8   8   8
#     4   9  18  33  52  72  97 130 167 208 250 294
#     4   8  15  29  50  73  95 124 163 203 239 281
#     4  10  20  34  53  76 102 131 164 203 245 292
#     4   9  19  34  51  73  99 129 167 207 247 293
#     4  10  20  34  52  73 100 132 164 202 246 294
#     4   9  18  32  50  73  99 127 163 205 247 294
#
# _framework density 18.307789
#
# number of rings (size 3 to 8) (size 9 to 14) (size 15 to 20)
#    0.000    2.833    0.000    2.000    0.000    4.000 
#    0.000    8.333    0.000   16.500    0.000    0.000 
#    0.000    0.000    0.000    0.000    0.000    0.000 
#
# Total GULP energy -133820.933529 kJ/mol
# GULP energy per Si atom -5575.872230 kJ/mol
# Density = 1.826612 g / cm^3
# Si number density = 18.307789 Si / 1000 Ang^3
#
#
#
# Elastic Constant Matrix: (Units=GPa)
#
#
# Indices 1 2 3 4 5 6 
#
# 1 191.4363 3.8852 121.5156 -0.0002 -6.3210 0.0000
# 2 3.8852 4.2532 3.5467 -0.0045 1.6285 -0.0002
# 3 121.5156 3.5467 146.1217 -0.0022 31.2279 0.0000
# 4 -0.0002 -0.0045 -0.0022 20.7602 0.0003 -1.6816
# 5 -6.3210 1.6285 31.2279 0.0003 30.5360 0.0001
# 6 0.0000 -0.0002 0.0000 -1.6816 0.0001 27.1942
#
#
#
# Elastic Compliance Matrix: (Units=1/GPa)
#
#
# Indices 1 2 3 4 5 6 
#
# 1 0.021926 -0.011207 -0.024390 -0.000005 0.030079 -0.000001
# 2 -0.011207 0.247547 0.008483 0.000056 -0.024197 0.000005
# 3 -0.024390 0.008483 0.035954 0.000006 -0.042270 0.000001
# 4 -0.000005 0.000056 0.000006 0.048412 -0.000011 0.002994
# 5 0.030079 -0.024197 -0.042270 -0.000011 0.083493 -0.000001
# 6 -0.000001 0.000005 0.000001 0.002994 -0.000001 0.036958
#
#
# Mechanical properties :
#
#
# Convention : Reuss Voigt Hill
#
# Bulk Modulus (GPa) = 3.98092 66.63399 35.30746
# Shear Modulus (GPa) = 8.16657 29.88901 19.02779
#
# Velocity S-wave (km/s) = 2.11433 4.04491 3.22736
# Velocity P-wave (km/s) = 2.85301 7.63483 5.76326
#
# Compressibility (1/GPa) = 0.25119822
#
# Stress axis : x y z
#
# Youngs Moduli (GPa) = 45.60777 4.03963 27.81307
#
# Poissons Ratio (x) = 0.04527 0.67836
# Poissons Ratio (y) = 0.51114 -0.23593
# Poissons Ratio (z) = 1.11238 -0.03427
#
# Static dielectric constant tensor:
#      x y z
#    x 1.599790 0.000000 0.006440 
#    y 0.000000 1.651950 0.000000 
#    z 0.006440 0.000000 1.619890 
# 
# From -- ./inp_files/229943.got.cif
#   From: 2010.05.17/outbox.cif.g08.bks.cpg/sg12_115_cif.got.tgz:229943.got - 2010.06.03 13:09:07.
