data_PCOD9192890
_publ_section_title
;
Structure prediction by ZEFSAII (Michael W. Deem and Ramdas Pophale) SiO2 
 PCOD9192890
Probable space group: C 2/M
;
_chemical_formula_sum "Si O2"
_cell_formula_units_Z 56
_cell_length_a 23.447262
_cell_length_b 9.033739
_cell_length_c 19.386988
_cell_angle_alpha 90.000000
_cell_angle_beta 128.680421
_cell_angle_gamma 90.000000
_cell_volume 3205.701298
_symmetry_space_group_name_H-M "C 2/M"
_symmetry_group_IT_number 12
_symmetry_cell_setting 'monoclinic'
loop_
_space_group_symop_operation_xyz
x,y,z
-x,y,-z
-x,-y,-z
x,-y,z
1/2+x,1/2+y,z
1/2-x,1/2+y,-z
1/2-x,1/2-y,-z
1/2+x,1/2-y,z
loop_
_atom_site_type_symbol
_atom_site_label
_atom_site_fract_x
_atom_site_fract_y
_atom_site_fract_z
Si Si1 0.448153 0.828777 0.316945
Si Si2 0.845460 0.176187 0.624197
Si Si3 0.380298 0.173589 0.513701
Si Si4 0.658778 0.674950 0.659963
Si Si5 0.996187 0.324277 0.785012
Si Si6 0.971585 0.176888 0.902096
Si Si7 0.303324 0.323406 0.742534
O O1 0.533262 0.811920 0.403102
O O2 0.396581 0.726018 0.322647
O O3 0.446263 0.802524 0.233196
O O4 0.428399 0.000000 0.315802
O O5 0.835677 0.259676 0.544652
O O6 0.926077 0.227618 0.709736
O O7 0.798455 0.212469 0.656758
O O8 0.842824 0.000000 0.611532
O O9 0.366651 0.254258 0.431651
O O10 0.363406 0.000000 0.494559
O O11 0.660043 0.500000 0.654873
O O12 0.739867 0.738010 0.733451
O O13 0.977733 0.500000 0.771060
O O14 0.013571 0.267439 0.874472
O O15 0.885220 0.212597 0.829491
O O16 0.979094 0.000000 0.895058
O O17 0.000000 0.208622 0.000000
O O18 0.293602 0.500000 0.742060
#
# Coordination Sequence:
#
# PCOD9192890 Si02
#       7
#     8   8   8   8   8   8   8
#     4   9  19  35  52  70  97 134 173 209 248 294
#     4   9  17  31  51  73  98 130 168 210 252 294
#     4  10  20  34  52  72  97 132 172 214 257 297
#     4  12  24  33  47  71  99 134 174 215 251 288
#     4   9  17  30  51  78 104 132 163 199 247 298
#     4   9  18  34  58  85 107 128 158 199 247 298
#     4   9  19  35  52  71 101 136 163 196 250 307
#
# _framework density 17.468876999999999
#
# number of rings (size 3 to 8) (size 9 to 14) (size 15 to 20)
#    0.000    2.429    0.000    4.714    0.000    8.857 
#    0.000    0.000    0.000    0.857    0.000    0.000 
#    0.000    0.000    0.000    0.000    0.000    0.000 
#
# Total GULP energy -156192.815350 kJ/mol
# GULP energy per Si atom -5578.314834 kJ/mol
# Density = 1.742912 g / cm^3
# Si number density = 17.468877 Si / 1000 Ang^3
#
#
#
# Elastic Constant Matrix: (Units=GPa)
#
#
# Indices 1 2 3 4 5 6 
#
# 1 86.3963 54.0815 35.2225 0.0000 -10.5365 0.0000
# 2 54.0815 70.8705 34.7693 0.0000 -7.1662 0.0000
# 3 35.2225 34.7693 91.9164 0.0000 -15.8328 0.0000
# 4 0.0000 0.0000 0.0000 22.7773 0.0000 -7.7599
# 5 -10.5365 -7.1662 -15.8328 0.0000 16.9396 0.0000
# 6 0.0000 0.0000 0.0000 -7.7599 0.0000 30.4569
#
#
#
# Elastic Compliance Matrix: (Units=1/GPa)
#
#
# Indices 1 2 3 4 5 6 
#
# 1 0.023156 -0.016231 -0.001711 0.000000 0.005938 0.000000
# 2 -0.016231 0.028731 -0.005118 0.000000 -0.002724 0.000000
# 3 -0.001711 -0.005118 0.015393 0.000000 0.011158 0.000000
# 4 0.000000 0.000000 0.000000 0.048076 0.000000 0.012249
# 5 0.005938 -0.002724 0.011158 0.000000 0.072003 0.000000
# 6 0.000000 0.000000 0.000000 0.012249 0.000000 0.035954
#
#
# Mechanical properties :
#
#
# Convention : Reuss Voigt Hill
#
# Bulk Modulus (GPa) = 47.25637 55.25886 51.25761
# Shear Modulus (GPa) = 18.08403 22.37542 20.22972
#
# Velocity S-wave (km/s) = 3.22096 3.58281 3.40670
# Velocity P-wave (km/s) = 6.39870 6.98690 6.69926
#
# Compressibility (1/GPa) = 0.02116117
#
# Stress axis : x y z
#
# Youngs Moduli (GPa) = 43.18493 34.80525 64.96428
#
# Poissons Ratio (x) = 0.56491 0.11116
# Poissons Ratio (y) = 0.70092 0.33248
# Poissons Ratio (z) = 0.07389 0.17813
#
# Static dielectric constant tensor:
#      x y z
#    x 1.605300 0.000000 -0.002050 
#    y 0.000000 1.579110 0.000000 
#    z -0.002050 0.000000 1.612400 
# 
# From -- ./inp_files/281693.got.cif
#   From: 2010.05.17/outbox.cif.g08.bks.cpg/sg12_141_cif.got.tgz:281693.got - 2010.06.03 13:09:07.
