data_PCOD9192448
_publ_section_title
;
Structure prediction by ZEFSAII (Michael W. Deem and Ramdas Pophale) SiO2 
 PCOD9192448
Probable space group: C 2/M
;
_chemical_formula_sum "Si O2"
_cell_formula_units_Z 58
_cell_length_a 5.410551
_cell_length_b 30.653060
_cell_length_c 17.128035
_cell_angle_alpha 90.000000
_cell_angle_beta 54.247629
_cell_angle_gamma 90.000000
_cell_volume 2305.356262
_symmetry_space_group_name_H-M "C 2/M"
_symmetry_group_IT_number 12
_symmetry_cell_setting 'monoclinic'
loop_
_space_group_symop_operation_xyz
x,y,z
-x,y,-z
-x,-y,-z
x,-y,z
1/2+x,1/2+y,z
1/2-x,1/2+y,-z
1/2-x,1/2-y,-z
1/2+x,1/2-y,z
loop_
_atom_site_type_symbol
_atom_site_label
_atom_site_fract_x
_atom_site_fract_y
_atom_site_fract_z
Si Si1 0.000000 0.500000 0.500000
Si Si2 0.973418 0.452550 0.911588
Si Si3 0.309455 0.046087 0.379749
Si Si4 0.962898 0.726576 0.862891
Si Si5 0.059249 0.128642 0.353533
Si Si6 0.303804 0.867357 0.860500
Si Si7 0.599399 0.585670 0.765077
Si Si8 0.591737 0.274195 0.372316
O O1 0.072229 0.536838 0.555290
O O2 0.850255 0.500000 0.910230
O O3 0.309263 0.445115 0.813741
O O4 0.805625 0.409215 0.915068
O O5 0.000000 0.452536 0.000000
O O6 0.107472 0.088039 0.401382
O O7 0.612173 0.054935 0.273457
O O8 0.150549 0.000000 0.384313
O O9 0.686115 0.758549 0.890667
O O10 0.815362 0.678908 0.899471
O O11 0.185683 0.726083 0.745394
O O12 0.383318 0.132828 0.248122
O O13 0.990744 0.175613 0.401473
O O14 0.839343 0.113164 0.324533
O O15 0.052634 0.878441 0.841446
O O16 0.304782 0.244427 0.401449
#
# Coordination Sequence:
#
# PCOD9192448 Si02
#       8
#     2   8   8   8   8   8   8   8
#     4   8  20  40  58  84 122 152 186 236 280 360
#     4  10  22  38  55  79 111 148 197 249 295 351
#     4   9  19  36  55  81 117 150 187 236 284 355
#     4   9  18  29  52  80 114 152 194 248 306 360
#     4   9  19  31  51  80 117 148 193 240 291 350
#     4   9  20  33  52  79 113 146 194 244 297 353
#     4  10  20  33  56  82 112 154 190 235 300 351
#     4   9  18  28  48  79 119 156 195 248 299 348
#
# _framework density 25.158799999999999
#
# number of rings (size 3 to 8) (size 9 to 14) (size 15 to 20)
#    0.414    2.345    0.000    0.414   13.517    6.621 
#    0.000    2.759    0.000    0.828    0.000    0.966 
#    0.000    0.000    0.000    0.000    0.000    0.000 
#
# Total GULP energy -161818.421431 kJ/mol
# GULP energy per Si atom -5579.945567 kJ/mol
# Density = 2.510154 g / cm^3
# Si number density = 25.158800 Si / 1000 Ang^3
#
#
#
# Elastic Constant Matrix: (Units=GPa)
#
#
# Indices 1 2 3 4 5 6 
#
# 1 71.9960 49.7664 6.1119 0.0000 0.7303 0.0000
# 2 49.7664 213.3079 15.5581 0.0000 5.4644 0.0000
# 3 6.1119 15.5581 52.7876 0.0000 -8.1961 0.0000
# 4 0.0000 0.0000 0.0000 -26.4103 0.0000 17.0694
# 5 0.7303 5.4644 -8.1961 0.0000 31.8367 0.0000
# 6 0.0000 0.0000 0.0000 17.0694 0.0000 14.4228
#
#
#
# Elastic Compliance Matrix: (Units=1/GPa)
#
#
# Indices 1 2 3 4 5 6 
#
# 1 0.016593 -0.003816 -0.000785 0.000000 0.000072 0.000000
# 2 -0.003816 0.005716 -0.001439 0.000000 -0.001264 0.000000
# 3 -0.000785 -0.001439 0.020312 0.000000 0.005494 0.000000
# 4 0.000000 0.000000 0.000000 -0.021454 0.000000 0.025390
# 5 0.000072 -0.001264 0.005494 0.000000 0.033040 0.000000
# 6 0.000000 0.000000 0.000000 0.025390 0.000000 0.039285
#
#
# Mechanical properties :
#
#
# Convention : Reuss Voigt Hill
#
# Bulk Modulus (GPa) = 32.74357 53.44049 43.09203
# Shear Modulus (GPa) = 43.19549 21.74685 32.47117
#
# Velocity S-wave (km/s) = 4.14806 2.94323 3.59646
# Velocity P-wave (km/s) = 5.99874 5.73040 5.86611
#
# Compressibility (1/GPa) = 0.03054035
#
# Stress axis : x y z
#
# Youngs Moduli (GPa) = 60.26530 174.95735 49.23210
#
# Poissons Ratio (x) = 0.66762 0.03866
# Poissons Ratio (y) = 0.22997 0.07085
# Poissons Ratio (z) = 0.04733 0.25177
#
# Static dielectric constant tensor:
#      x y z
#    x 2.034000 0.000000 0.005060 
#    y 0.000000 2.194650 0.000000 
#    z 0.005060 0.000000 2.094840 
# 
# From -- ./inp_files/298279.got.cif
#   From: 2010.05.17/outbox.cif.g08.bks.cpg/sg12_150_cif.got.tgz:298279.got - 2010.06.03 13:09:07.
