data_PCOD9192348
_publ_section_title
;
Structure prediction by ZEFSAII (Michael W. Deem and Ramdas Pophale) SiO2 
 PCOD9192348
Probable space group: C 2/M
;
_chemical_formula_sum "Si O2"
_cell_formula_units_Z 56
_cell_length_a 11.936763
_cell_length_b 30.976782
_cell_length_c 8.278752
_cell_angle_alpha 90.000000
_cell_angle_beta 104.106360
_cell_angle_gamma 90.000000
_cell_volume 2968.862336
_symmetry_space_group_name_H-M "C 2/M"
_symmetry_group_IT_number 12
_symmetry_cell_setting 'monoclinic'
loop_
_space_group_symop_operation_xyz
x,y,z
-x,y,-z
-x,-y,-z
x,-y,z
1/2+x,1/2+y,z
1/2-x,1/2+y,-z
1/2-x,1/2-y,-z
1/2+x,1/2-y,z
loop_
_atom_site_type_symbol
_atom_site_label
_atom_site_fract_x
_atom_site_fract_y
_atom_site_fract_z
Si Si1 0.091271 0.616875 0.395829
Si Si2 0.711597 0.748518 0.796955
Si Si3 0.770026 0.160591 0.682767
Si Si4 0.024730 0.818199 0.818438
Si Si5 0.229806 0.122160 0.969094
Si Si6 0.596018 0.186827 0.153062
Si Si7 0.625393 0.050800 0.128141
O O1 0.204900 0.637071 0.516301
O O2 0.041822 0.655771 0.267911
O O3 0.118733 0.576199 0.294407
O O4 0.000000 0.605635 0.500000
O O5 0.706603 0.795483 0.718076
O O6 0.596206 0.720112 0.759368
O O7 0.817237 0.722739 0.750508
O O8 0.750000 0.750000 0.000000
O O9 0.902532 0.172681 0.694307
O O10 0.772235 0.129926 0.840903
O O11 0.108659 0.860084 0.856363
O O12 0.000000 0.807545 0.000000
O O13 0.323859 0.154657 0.924025
O O14 0.274770 0.075135 0.937390
O O15 0.500000 0.205232 0.000000
O O16 0.645271 0.000000 0.150997
O O17 0.500000 0.057313 0.000000
#
# Coordination Sequence:
#
# PCOD9192348 Si02
#       7
#     8   8   8   8   8   8   8
#     4  11  23  37  54  86 119 147 179 234 298 349
#     4  11  20  32  55  81 107 153 206 243 265 313
#     4  11  21  34  55  82 119 154 192 238 291 326
#     4   9  18  32  53  83 111 154 199 236 277 320
#     4   9  17  34  55  82 108 144 194 228 271 345
#     4  10  20  33  55  73 107 152 196 234 271 327
#     4  10  21  40  66  88 108 140 184 232 289 363
#
# _framework density 18.862445000000001
#
# number of rings (size 3 to 8) (size 9 to 14) (size 15 to 20)
#    0.000    1.857    4.286    3.429    2.000    0.857 
#    0.000    7.143    0.000    5.571    0.000    0.000 
#    0.000    0.000    0.000    0.000    0.000    0.000 
#
# Total GULP energy -156443.482245 kJ/mol
# GULP energy per Si atom -5587.267223 kJ/mol
# Density = 1.881951 g / cm^3
# Si number density = 18.862445 Si / 1000 Ang^3
#
#
#
# Elastic Constant Matrix: (Units=GPa)
#
#
# Indices 1 2 3 4 5 6 
#
# 1 109.4094 64.3259 34.6404 0.0000 15.9466 0.0000
# 2 64.3259 148.8737 53.8203 0.0000 5.3611 0.0000
# 3 34.6404 53.8203 65.1001 0.0000 15.1116 0.0000
# 4 0.0000 0.0000 0.0000 18.6127 0.0000 -0.5499
# 5 15.9466 5.3611 15.1116 0.0000 29.8653 0.0000
# 6 0.0000 0.0000 0.0000 -0.5499 0.0000 24.6343
#
#
#
# Elastic Compliance Matrix: (Units=1/GPa)
#
#
# Indices 1 2 3 4 5 6 
#
# 1 0.013398 -0.004947 -0.001796 0.000000 -0.005357 0.000000
# 2 -0.004947 0.011587 -0.008020 0.000000 0.004619 0.000000
# 3 -0.001796 -0.008020 0.025370 0.000000 -0.010438 0.000000
# 4 0.000000 0.000000 0.000000 0.053762 0.000000 0.001200
# 5 -0.005357 0.004619 -0.010438 0.000000 0.040797 0.000000
# 6 0.000000 0.000000 0.000000 0.001200 0.000000 0.040621
#
#
# Mechanical properties :
#
#
# Convention : Reuss Voigt Hill
#
# Bulk Modulus (GPa) = 48.00730 69.88407 58.94568
# Shear Modulus (GPa) = 22.52227 25.99557 24.25892
#
# Velocity S-wave (km/s) = 3.45922 3.71639 3.59011
# Velocity P-wave (km/s) = 6.43906 7.45286 6.96443
#
# Compressibility (1/GPa) = 0.02083016
#
# Stress axis : x y z
#
# Youngs Moduli (GPa) = 74.63915 86.30027 39.41707
#
# Poissons Ratio (x) = 0.42691 0.07079
# Poissons Ratio (y) = 0.36923 0.31611
# Poissons Ratio (z) = 0.13404 0.69210
#
# Static dielectric constant tensor:
#      x y z
#    x 1.697220 0.000000 -0.013220 
#    y 0.000000 1.653680 0.000000 
#    z -0.013220 0.000000 1.687700 
# 
# From -- ./inp_files/54342.got.cif
#   From: 2010.05.17/outbox.cif.g08.bks.cpg/sg12_28_cif.got.tgz:54342.got - 2010.06.03 13:09:07.
