data_PCOD9192333
_publ_section_title
;
Structure prediction by ZEFSAII (Michael W. Deem and Ramdas Pophale) SiO2 
 PCOD9192333
Probable space group: C 2/M
;
_chemical_formula_sum "Si O2"
_cell_formula_units_Z 64
_cell_length_a 30.429326
_cell_length_b 8.639035
_cell_length_c 11.132666
_cell_angle_alpha 90.000000
_cell_angle_beta 85.995785
_cell_angle_gamma 90.000000
_cell_volume 2919.411408
_symmetry_space_group_name_H-M "C 2/M"
_symmetry_group_IT_number 12
_symmetry_cell_setting 'monoclinic'
loop_
_space_group_symop_operation_xyz
x,y,z
-x,y,-z
-x,-y,-z
x,-y,z
1/2+x,1/2+y,z
1/2-x,1/2+y,-z
1/2-x,1/2-y,-z
1/2+x,1/2-y,z
loop_
_atom_site_type_symbol
_atom_site_label
_atom_site_fract_x
_atom_site_fract_y
_atom_site_fract_z
Si Si1 0.440043 0.822559 0.555456
Si Si2 0.657722 0.316753 0.720381
Si Si3 0.615677 0.323083 0.073149
Si Si4 0.202806 0.681640 0.488524
Si Si5 0.706838 0.687164 0.938454
Si Si6 0.527073 0.315106 0.200562
Si Si7 0.647303 0.827308 0.290139
Si Si8 0.937423 0.314803 0.278887
O O1 0.460178 0.730450 0.664172
O O2 0.388727 0.831113 0.597803
O O3 0.444492 0.764836 0.418196
O O4 0.456549 0.000000 0.560309
O O5 0.652329 0.500000 0.732569
O O6 0.670520 0.270811 0.583900
O O7 0.698554 0.272562 0.800156
O O8 0.610094 0.242454 0.756853
O O9 0.610535 0.500000 0.033174
O O10 0.566214 0.256181 0.103447
O O11 0.633976 0.308132 0.205006
O O12 0.658700 0.257601 0.997634
O O13 0.199859 0.500000 0.517307
O O14 0.250000 0.750000 0.500000
O O15 0.192153 0.698036 0.349928
O O16 0.708691 0.500000 0.950325
O O17 0.750000 0.750000 0.000000
O O18 0.526278 0.500000 0.190160
O O19 0.478309 0.247954 0.193923
O O20 0.646068 0.000000 0.232638
O O21 0.937752 0.500000 0.279681
#
# Coordination Sequence:
#
# PCOD9192333 Si02
#       8
#     8   8   8   8   8   8   8   8
#     4   9  17  32  51  76 114 159 196 233 284 347
#     4  11  24  42  63  89 121 157 204 255 304 362
#     4   9  20  39  60  85 118 154 198 247 299 354
#     4  11  23  39  58  86 123 160 197 242 301 364
#     4  10  24  45  67  90 116 153 200 253 307 362
#     4  10  20  33  54  86 119 155 199 246 294 353
#     4   9  18  34  55  81 115 153 192 236 290 349
#     4  11  21  36  57  83 119 162 201 242 300 363
#
# _framework density 21.922226999999999
#
# number of rings (size 3 to 8) (size 9 to 14) (size 15 to 20)
#    0.000    2.000    1.250    1.875    1.750    5.500 
#    0.000    0.625    0.000    3.750    0.000    0.000 
#    0.000    0.000    0.000    0.000    0.000    0.000 
#
# Total GULP energy -178335.010155 kJ/mol
# GULP energy per Si atom -5572.969067 kJ/mol
# Density = 2.187233 g / cm^3
# Si number density = 21.922227 Si / 1000 Ang^3
#
#
#
# Elastic Constant Matrix: (Units=GPa)
#
#
# Indices 1 2 3 4 5 6 
#
# 1 112.3326 19.1792 13.0166 0.0000 1.8992 0.0000
# 2 19.1792 32.3780 8.1850 0.0000 6.1215 0.0000
# 3 13.0166 8.1850 37.9721 0.0000 -1.6951 0.0000
# 4 0.0000 0.0000 0.0000 12.1925 0.0000 1.7505
# 5 1.8992 6.1215 -1.6951 0.0000 23.8127 0.0000
# 6 0.0000 0.0000 0.0000 1.7505 0.0000 32.4899
#
#
#
# Elastic Compliance Matrix: (Units=1/GPa)
#
#
# Indices 1 2 3 4 5 6 
#
# 1 0.010094 -0.005493 -0.002256 0.000000 0.000446 0.000000
# 2 -0.005493 0.037662 -0.006669 0.000000 -0.009718 0.000000
# 3 -0.002256 -0.006669 0.028722 0.000000 0.003939 0.000000
# 4 0.000000 0.000000 0.000000 0.082657 0.000000 -0.004453
# 5 0.000446 -0.009718 0.003939 0.000000 0.044737 0.000000
# 6 0.000000 0.000000 0.000000 -0.004453 0.000000 0.031019
#
#
# Mechanical properties :
#
#
# Convention : Reuss Voigt Hill
#
# Bulk Modulus (GPa) = 20.99014 29.27158 25.13086
# Shear Modulus (GPa) = 17.88214 23.18581 20.53398
#
# Velocity S-wave (km/s) = 2.85916 3.25567 3.06383
# Velocity P-wave (km/s) = 4.52718 5.24537 4.89945
#
# Compressibility (1/GPa) = 0.04764141
#
# Stress axis : x y z
#
# Youngs Moduli (GPa) = 99.06972 26.55164 34.81669
#
# Poissons Ratio (x) = 0.14585 0.07855
# Poissons Ratio (y) = 0.54421 0.23220
# Poissons Ratio (z) = 0.22351 0.17707
#
# Static dielectric constant tensor:
#      x y z
#    x 1.850700 0.000000 -0.012010 
#    y 0.000000 1.765240 0.000000 
#    z -0.012010 0.000000 1.870770 
# 
# From -- ./inp_files/187589.got.cif
#   From: 2010.05.17/outbox.cif.g08.bks.cpg/sg12_94_cif.got.tgz:187589.got - 2010.06.03 13:09:07.
