data_PCOD9192914
_publ_section_title
;
Structure prediction by ZEFSAII (Michael W. Deem and Ramdas Pophale) SiO2 
 PCOD9192914
Probable space group: C 2/M
;
_chemical_formula_sum "Si O2"
_cell_formula_units_Z 56
_cell_length_a 15.033833
_cell_length_b 7.511762
_cell_length_c 24.202120
_cell_angle_alpha 90.000000
_cell_angle_beta 113.746463
_cell_angle_gamma 90.000000
_cell_volume 2501.760065
_symmetry_space_group_name_H-M "C 2/M"
_symmetry_group_IT_number 12
_symmetry_cell_setting 'monoclinic'
loop_
_space_group_symop_operation_xyz
x,y,z
-x,y,-z
-x,-y,-z
x,-y,z
1/2+x,1/2+y,z
1/2-x,1/2+y,-z
1/2-x,1/2-y,-z
1/2+x,1/2-y,z
loop_
_atom_site_type_symbol
_atom_site_label
_atom_site_fract_x
_atom_site_fract_y
_atom_site_fract_z
Si Si1 0.352657 0.787253 0.496580
Si Si2 0.464731 0.784960 0.792558
Si Si3 0.618465 0.208542 0.920599
Si Si4 0.838364 0.785235 0.951334
Si Si5 0.060114 0.717640 0.595292
Si Si6 0.204832 0.792120 0.176604
Si Si7 0.093615 0.718118 0.727599
O O1 0.250000 0.750000 0.500000
O O2 0.369990 0.724710 0.437670
O O3 0.449304 0.726475 0.553622
O O4 0.359828 0.000000 0.496355
O O5 0.539813 0.718007 0.858471
O O6 0.359820 0.724670 0.785460
O O7 0.501938 0.729644 0.741951
O O8 0.464462 0.000000 0.793872
O O9 0.727516 0.277463 0.936782
O O10 0.624816 0.000000 0.909765
O O11 0.597606 0.227574 0.980467
O O12 0.851619 0.721725 0.891663
O O13 0.844470 0.000000 0.954856
O O14 0.061068 0.500000 0.596233
O O15 0.089886 0.777860 0.663611
O O16 0.310750 0.718057 0.215999
O O17 0.220157 0.000000 0.168230
O O18 0.096535 0.500000 0.727589
#
# Coordination Sequence:
#
# PCOD9192914 Si02
#       7
#     8   8   8   8   8   8   8
#     4   9  17  31  52  80 108 133 167 207 242 284
#     4  10  20  34  52  73  97 127 166 207 249 297
#     4   9  17  31  50  70  92 122 160 202 248 299
#     4   9  17  31  50  70  92 122 160 202 248 299
#     4   8  16  31  52  75 101 138 175 199 234 294
#     4  10  20  34  52  73  97 127 166 207 249 297
#     4   9  17  34  55  71  97 138 173 201 239 294
#
# _framework density 22.384239999999998
#
# number of rings (size 3 to 8) (size 9 to 14) (size 15 to 20)
#    0.000    2.857    1.429    0.857    0.000    2.857 
#    0.000    5.000    0.000    1.714    0.000    0.000 
#    0.000    0.000    0.000    0.000    0.000    0.000 
#
# Total GULP energy -156201.709325 kJ/mol
# GULP energy per Si atom -5578.632476 kJ/mol
# Density = 2.233329 g / cm^3
# Si number density = 22.384240 Si / 1000 Ang^3
#
#
#
# Elastic Constant Matrix: (Units=GPa)
#
#
# Indices 1 2 3 4 5 6 
#
# 1 115.7925 -9.2022 36.7527 0.0000 -26.2323 0.0000
# 2 -9.2022 53.6518 0.9346 0.0000 0.9860 0.0000
# 3 36.7527 0.9346 101.2767 0.0000 -33.7352 0.0000
# 4 0.0000 0.0000 0.0000 3.9498 0.0000 -3.8250
# 5 -26.2323 0.9860 -33.7352 0.0000 26.0407 0.0000
# 6 0.0000 0.0000 0.0000 -3.8250 0.0000 19.2068
#
#
#
# Elastic Compliance Matrix: (Units=1/GPa)
#
#
# Indices 1 2 3 4 5 6 
#
# 1 0.011371 0.001766 -0.000615 0.000000 0.010591 0.000000
# 2 0.001766 0.018956 -0.000813 0.000000 0.000008 0.000000
# 3 -0.000615 -0.000813 0.017430 0.000000 0.021992 0.000000
# 4 0.000000 0.000000 0.000000 0.313673 0.000000 0.062467
# 5 0.010591 0.000008 0.021992 0.000000 0.077560 0.000000
# 6 0.000000 0.000000 0.000000 0.062467 0.000000 0.064505
#
#
# Mechanical properties :
#
#
# Convention : Reuss Voigt Hill
#
# Bulk Modulus (GPa) = 20.64688 36.41013 28.52850
# Shear Modulus (GPa) = 9.63460 25.98851 17.81155
#
# Velocity S-wave (km/s) = 2.07690 3.41107 2.82391
# Velocity P-wave (km/s) = 3.87237 5.64049 4.83789
#
# Compressibility (1/GPa) = 0.04843347
#
# Stress axis : x y z
#
# Youngs Moduli (GPa) = 87.94231 52.75462 57.37240
#
# Poissons Ratio (x) = -0.09319 0.03527
# Poissons Ratio (y) = -0.15534 0.04666
# Poissons Ratio (z) = 0.05407 0.04290
#
# Static dielectric constant tensor:
#      x y z
#    x 1.830790 0.000000 -0.016190 
#    y 0.000000 1.864280 0.000000 
#    z -0.016190 0.000000 1.831590 
# 
# From -- ./inp_files/338155.got.cif
#   From: 2010.05.17/outbox.cif.g08.bks.cpg/sg12_170_cif.got.tgz:338155.got - 2010.06.03 13:09:07.
