data_PCOD9192861
_publ_section_title
;
Structure prediction by ZEFSAII (Michael W. Deem and Ramdas Pophale) SiO2 
 PCOD9192861
Probable space group: C 2/M
;
_chemical_formula_sum "Si O2"
_cell_formula_units_Z 56
_cell_length_a 27.554631
_cell_length_b 7.475779
_cell_length_c 18.622149
_cell_angle_alpha 90.000000
_cell_angle_beta 38.862504
_cell_angle_gamma 90.000000
_cell_volume 2406.924564
_symmetry_space_group_name_H-M "C 2/M"
_symmetry_group_IT_number 12
_symmetry_cell_setting 'monoclinic'
loop_
_space_group_symop_operation_xyz
x,y,z
-x,y,-z
-x,-y,-z
x,-y,z
1/2+x,1/2+y,z
1/2-x,1/2+y,-z
1/2-x,1/2-y,-z
1/2+x,1/2-y,z
loop_
_atom_site_type_symbol
_atom_site_label
_atom_site_fract_x
_atom_site_fract_y
_atom_site_fract_z
Si Si1 0.465955 0.217328 0.115371
Si Si2 0.870718 0.218253 0.459431
Si Si3 0.748302 0.292025 0.795183
Si Si4 0.582870 0.284261 0.432204
Si Si5 0.816706 0.785003 0.980149
Si Si6 0.482800 0.292577 0.791628
Si Si7 0.793422 0.704993 0.317977
O O1 0.517126 0.279755 0.122720
O O2 0.378361 0.285013 0.228331
O O3 0.464963 0.000000 0.116056
O O4 0.500000 0.275461 0.000000
O O5 0.902298 0.264939 0.502129
O O6 0.782405 0.285190 0.556476
O O7 0.935828 0.283844 0.329653
O O8 0.865274 0.000000 0.462035
O O9 0.727877 0.500000 0.810575
O O10 0.840970 0.277715 0.697573
O O11 0.707494 0.217626 0.913065
O O12 0.725900 0.204400 0.745181
O O13 0.500000 0.220055 0.500000
O O14 0.582562 0.500000 0.428692
O O15 0.823322 0.000000 0.979041
O O16 0.750000 0.750000 0.000000
O O17 0.901171 0.715965 0.859699
O O18 0.484535 0.500000 0.766686
O O19 0.799665 0.500000 0.335088
#
# Coordination Sequence:
#
# PCOD9192861 Si02
#       7
#     8   8   8   8   8   8   8
#     4  10  21  36  56  82 110 141 180 225 270 320
#     4   8  16  32  52  77 107 137 178 224 261 309
#     4  10  20  34  51  78 110 137 173 226 278 320
#     4   9  18  32  55  80 101 140 187 221 260 322
#     4  10  23  38  54  77 107 144 183 224 274 328
#     4  10  21  37  56  79 109 142 178 226 272 320
#     4   9  18  35  57  79 106 143 182 220 264 324
#
# _framework density 23.266206
#
# number of rings (size 3 to 8) (size 9 to 14) (size 15 to 20)
#    0.000    2.571    0.000    2.143    2.000    3.429 
#    0.000    2.857    0.000    0.000    0.000    0.000 
#    0.000    0.000    0.000    0.000    0.000    0.000 
#
# Total GULP energy -156393.347038 kJ/mol
# GULP energy per Si atom -5585.476680 kJ/mol
# Density = 2.321325 g / cm^3
# Si number density = 23.266206 Si / 1000 Ang^3
#
#
#
# Elastic Constant Matrix: (Units=GPa)
#
#
# Indices 1 2 3 4 5 6 
#
# 1 80.9800 -9.4268 38.1606 -0.0095 -35.8055 0.0071
# 2 -9.4268 68.9922 2.3375 0.0102 -3.2262 0.0010
# 3 38.1606 2.3375 140.7792 -0.0130 -21.3169 0.0166
# 4 -0.0095 0.0102 -0.0130 1.7069 -0.0064 4.7004
# 5 -35.8055 -3.2262 -21.3169 -0.0064 39.6045 0.0024
# 6 0.0071 0.0010 0.0166 4.7004 0.0024 5.3894
#
#
#
# Elastic Compliance Matrix: (Units=1/GPa)
#
#
# Indices 1 2 3 4 5 6 
#
# 1 0.022935 0.004149 -0.003370 -0.000164 0.019259 0.000114
# 2 0.004149 0.015301 -0.000677 0.000023 0.004633 -0.000029
# 3 -0.003370 -0.000677 0.008229 -0.000080 0.001328 0.000048
# 4 -0.000164 0.000023 -0.000080 -0.417954 -0.000279 0.364522
# 5 0.019259 0.004633 0.001328 -0.000279 0.043753 0.000194
# 6 0.000114 -0.000029 0.000048 0.364522 0.000194 -0.132372
#
#
# Mechanical properties :
#
#
# Convention : Reuss Voigt Hill
#
# Bulk Modulus (GPa) = 21.42778 39.21045 30.31911
# Shear Modulus (GPa) = -11.24213 26.65217 7.70502
#
# Velocity S-wave (km/s) = -2.20056 3.38824 1.82178
# Velocity P-wave (km/s) = 1.66530 5.67419 4.18149
#
# Compressibility (1/GPa) = 0.04666840
#
# Stress axis : x y z
#
# Youngs Moduli (GPa) = 43.60146 65.35609 121.52180
#
# Poissons Ratio (x) = -0.27113 0.40948
# Poissons Ratio (y) = -0.18088 0.08228
# Poissons Ratio (z) = 0.14692 0.04425
#
# Static dielectric constant tensor:
#      x y z
#    x 1.832830 -0.000010 -0.032220 
#    y -0.000010 1.875400 0.000000 
#    z -0.032220 0.000000 1.902840 
# 
# From -- ./inp_files/292409.got.cif
#   From: 2010.05.17/outbox.cif.g08.bks.cpg/sg12_147_cif.got.tgz:292409.got - 2010.06.03 13:09:07.
