data_PCOD9192795
_publ_section_title
;
Structure prediction by ZEFSAII (Michael W. Deem and Ramdas Pophale) SiO2 
 PCOD9192795
Probable space group: C 2/M
;
_chemical_formula_sum "Si O2"
_cell_formula_units_Z 64
_cell_length_a 19.260461
_cell_length_b 9.627439
_cell_length_c 20.602838
_cell_angle_alpha 90.000000
_cell_angle_beta 65.622022
_cell_angle_gamma 90.000000
_cell_volume 3479.747465
_symmetry_space_group_name_H-M "C 2/M"
_symmetry_group_IT_number 12
_symmetry_cell_setting 'monoclinic'
loop_
_space_group_symop_operation_xyz
x,y,z
-x,y,-z
-x,-y,-z
x,-y,z
1/2+x,1/2+y,z
1/2-x,1/2+y,-z
1/2-x,1/2-y,-z
1/2+x,1/2-y,z
loop_
_atom_site_type_symbol
_atom_site_label
_atom_site_fract_x
_atom_site_fract_y
_atom_site_fract_z
Si Si1 0.344006 0.841536 0.396852
Si Si2 0.570692 0.152905 0.424794
Si Si3 0.466563 0.333417 0.825193
Si Si4 0.296488 0.337920 0.930617
Si Si5 0.887755 0.664402 0.231082
Si Si6 0.913405 0.662020 0.723729
Si Si7 0.733234 0.662366 0.209419
Si Si8 0.839598 0.842780 0.521905
O O1 0.369511 0.802952 0.314042
O O2 0.251725 0.842579 0.435353
O O3 0.364575 0.741045 0.448112
O O4 0.370384 0.000000 0.399134
O O5 0.500000 0.155191 0.500000
O O6 0.545073 0.169991 0.361003
O O7 0.627106 0.269454 0.427810
O O8 0.608062 0.000000 0.414741
O O9 0.474512 0.500000 0.816763
O O10 0.387139 0.304918 0.893570
O O11 0.543025 0.259607 0.820475
O O12 0.451945 0.259408 0.761798
O O13 0.289245 0.500000 0.949313
O O14 0.264491 0.319343 0.869601
O O15 0.250000 0.250000 0.000000
O O16 0.907980 0.500000 0.220880
O O17 0.812232 0.683099 0.216631
O O18 0.910241 0.500000 0.745403
O O19 0.829916 0.727297 0.743997
O O20 0.709528 0.500000 0.229572
O O21 0.866370 0.000000 0.506531
#
# Coordination Sequence:
#
# PCOD9192795 Si02
#       8
#     8   8   8   8   8   8   8   8
#     4   9  19  34  52  72 101 137 172 220 275 327
#     4  10  22  36  49  68 100 138 176 226 280 325
#     4  10  22  38  56  83 118 147 179 229 280 322
#     4   9  19  37  61  86 114 149 182 218 265 319
#     4  10  20  35  57  81 109 147 186 224 275 332
#     4  10  20  35  56  79 104 144 192 230 276 338
#     4   9  19  37  59  85 115 145 180 227 276 318
#     4  10  20  34  51  73  97 131 181 227 275 330
#
# _framework density 18.392139
#
# number of rings (size 3 to 8) (size 9 to 14) (size 15 to 20)
#    0.000    2.375    0.000    2.625    1.750    6.250 
#    0.000    0.625    0.000    3.750    0.000    0.000 
#    0.000    0.000    0.000    0.000    0.000    0.000 
#
# Total GULP energy -178507.188120 kJ/mol
# GULP energy per Si atom -5578.349629 kJ/mol
# Density = 1.835028 g / cm^3
# Si number density = 18.392139 Si / 1000 Ang^3
#
#
#
# Elastic Constant Matrix: (Units=GPa)
#
#
# Indices 1 2 3 4 5 6 
#
# 1 61.9840 31.2924 13.5204 0.0000 -14.2823 0.0000
# 2 31.2924 70.3172 35.5112 0.0000 -13.6658 0.0000
# 3 13.5204 35.5112 84.3909 0.0000 -16.3264 0.0000
# 4 0.0000 0.0000 0.0000 24.7160 0.0000 4.0709
# 5 -14.2823 -13.6658 -16.3264 0.0000 12.7570 0.0000
# 6 0.0000 0.0000 0.0000 4.0709 0.0000 31.0289
#
#
#
# Elastic Compliance Matrix: (Units=1/GPa)
#
#
# Indices 1 2 3 4 5 6 
#
# 1 0.025196 -0.008642 0.004341 0.000000 0.024506 0.000000
# 2 -0.008642 0.022742 -0.007102 0.000000 0.005597 0.000000
# 3 0.004341 -0.007102 0.018090 0.000000 0.020403 0.000000
# 4 0.000000 0.000000 0.000000 0.041353 0.000000 -0.005425
# 5 0.024506 0.005597 0.020403 0.000000 0.137932 0.000000
# 6 0.000000 0.000000 0.000000 -0.005425 0.000000 0.032940
#
#
# Mechanical properties :
#
#
# Convention : Reuss Voigt Hill
#
# Bulk Modulus (GPa) = 23.13715 41.92667 32.53191
# Shear Modulus (GPa) = 15.84955 22.79160 19.32058
#
# Velocity S-wave (km/s) = 2.93875 3.52405 3.24463
# Velocity P-wave (km/s) = 4.91144 6.27726 5.63588
#
# Compressibility (1/GPa) = 0.04322054
#
# Stress axis : x y z
#
# Youngs Moduli (GPa) = 39.68887 43.97223 55.27929
#
# Poissons Ratio (x) = 0.38002 -0.23996
# Poissons Ratio (y) = 0.34300 0.39260
# Poissons Ratio (z) = -0.17229 0.31230
#
# Static dielectric constant tensor:
#      x y z
#    x 1.663100 0.000000 -0.005700 
#    y 0.000000 1.634300 0.000000 
#    z -0.005700 0.000000 1.628000 
# 
# From -- ./inp_files/319936.got.cif
#   From: 2010.05.17/outbox.cif.g08.bks.cpg/sg12_160_cif.got.tgz:319936.got - 2010.06.03 13:09:07.
