data_PCOD9192356
_publ_section_title
;
Structure prediction by ZEFSAII (Michael W. Deem and Ramdas Pophale) SiO2 
 PCOD9192356
Probable space group: C 2/M
;
_chemical_formula_sum "Si O2"
_cell_formula_units_Z 58
_cell_length_a 25.663040
_cell_length_b 7.592363
_cell_length_c 26.735889
_cell_angle_alpha 90.000000
_cell_angle_beta 34.246661
_cell_angle_gamma 90.000000
_cell_volume 2931.570966
_symmetry_space_group_name_H-M "C 2/M"
_symmetry_group_IT_number 12
_symmetry_cell_setting 'monoclinic'
loop_
_space_group_symop_operation_xyz
x,y,z
-x,y,-z
-x,-y,-z
x,-y,z
1/2+x,1/2+y,z
1/2-x,1/2+y,-z
1/2-x,1/2-y,-z
1/2+x,1/2-y,z
loop_
_atom_site_type_symbol
_atom_site_label
_atom_site_fract_x
_atom_site_fract_y
_atom_site_fract_z
Si Si1 0.234921 0.215257 0.089334
Si Si2 0.401460 0.795087 0.893213
Si Si3 0.658547 0.199829 0.365239
Si Si4 0.000000 0.000000 0.500000
Si Si5 0.164102 0.794141 0.252758
Si Si6 0.571254 0.793271 0.701874
Si Si7 0.233385 0.709391 0.408722
Si Si8 0.456143 0.786137 0.389258
O O1 0.159423 0.280712 0.109217
O O2 0.208152 0.273186 0.166153
O O3 0.231797 0.000000 0.090307
O O4 0.334544 0.277132 0.989585
O O5 0.500532 0.717056 0.799144
O O6 0.414890 0.000000 0.895716
O O7 0.579550 0.345292 0.431673
O O8 0.694256 0.205214 0.280199
O O9 0.732131 0.241617 0.350439
O O10 0.624514 0.000000 0.402953
O O11 0.052651 0.776106 0.335788
O O12 0.186342 0.000000 0.238913
O O13 0.677163 0.779918 0.634154
O O14 0.553394 0.722512 0.660386
O O15 0.548331 0.000000 0.716257
O O16 0.235446 0.500000 0.415545
O O17 0.134840 0.773809 0.508533
O O18 0.457766 0.000000 0.389097
#
# Coordination Sequence:
#
# PCOD9192356 Si02
#       8
#     8   8   8   2   8   8   8   8
#     4   9  18  31  52  81 114 142 181 234 290 349
#     4   9  17  32  52  80 111 145 183 230 291 348
#     4  11  24  40  59  86 117 153 198 246 293 339
#     4  12  22  40  64  86 112 150 198 244 292 344
#     4  11  21  34  55  84 114 152 191 239 291 347
#     4  10  20  33  55  79 109 150 192 231 280 345
#     4  10  23  38  54  75 110 154 191 234 281 332
#     4  10  20  35  52  78 110 146 186 232 285 338
#
# _framework density 19.784613
#
# number of rings (size 3 to 8) (size 9 to 14) (size 15 to 20)
#    0.000    1.931    2.069    1.862    0.966    3.310 
#    0.000    0.000    0.000    0.828    0.000    5.793 
#    0.000    0.000    0.000    0.000    0.000    0.000 
#
# Total GULP energy -161603.888462 kJ/mol
# GULP energy per Si atom -5572.547878 kJ/mol
# Density = 1.973958 g / cm^3
# Si number density = 19.784613 Si / 1000 Ang^3
#
#
#
# Elastic Constant Matrix: (Units=GPa)
#
#
# Indices 1 2 3 4 5 6 
#
# 1 63.5844 -5.2905 18.0753 0.0011 -5.4228 0.0022
# 2 -5.2905 65.9050 -8.6678 0.0027 -2.2439 -0.0064
# 3 18.0753 -8.6678 89.7068 0.0026 -1.5919 -0.0029
# 4 0.0011 0.0027 0.0026 2.8144 0.0046 1.4006
# 5 -5.4228 -2.2439 -1.5919 0.0046 -12.1353 0.0010
# 6 0.0022 -0.0064 -0.0029 1.4006 0.0010 16.2183
#
#
#
# Elastic Compliance Matrix: (Units=1/GPa)
#
#
# Indices 1 2 3 4 5 6 
#
# 1 0.016133 0.000625 -0.003313 0.000009 -0.006890 -0.000003
# 2 0.000625 0.015282 0.001293 -0.000014 -0.003275 0.000008
# 3 -0.003313 0.001293 0.011934 -0.000013 -0.000324 0.000004
# 4 0.000009 -0.000014 -0.000013 0.371274 0.000139 -0.032064
# 5 -0.006890 -0.003275 -0.000324 0.000139 -0.078677 -0.000008
# 6 -0.000003 0.000008 0.000004 -0.032064 -0.000008 0.064428
#
#
# Mechanical properties :
#
#
# Convention : Reuss Voigt Hill
#
# Bulk Modulus (GPa) = 24.65554 25.27003 24.96278
# Shear Modulus (GPa) = 11.99950 15.71808 13.85879
#
# Velocity S-wave (km/s) = 2.46541 2.82167 2.64954
# Velocity P-wave (km/s) = 4.53799 4.83902 4.69092
#
# Compressibility (1/GPa) = 0.04055883
#
# Stress axis : x y z
#
# Youngs Moduli (GPa) = 61.98402 65.43636 83.79395
#
# Poissons Ratio (x) = -0.04089 0.27758
# Poissons Ratio (y) = -0.03873 -0.10831
# Poissons Ratio (z) = 0.20533 -0.08458
#
# Static dielectric constant tensor:
#      x y z
#    x 1.675670 0.000000 0.050060 
#    y 0.000000 1.710140 0.000000 
#    z 0.050060 0.000000 1.732820 
# 
# From -- ./inp_files/243193.got.cif
#   From: 2010.05.17/outbox.cif.g08.bks.cpg/sg12_122_cif.got.tgz:243193.got - 2010.06.03 13:09:07.
