data_PCOD9192392
_publ_section_title
;
Structure prediction by ZEFSAII (Michael W. Deem and Ramdas Pophale) SiO2 
 PCOD9192392
Probable space group: C 2/M
;
_chemical_formula_sum "Si O2"
_cell_formula_units_Z 48
_cell_length_a 9.705852
_cell_length_b 15.384781
_cell_length_c 19.644709
_cell_angle_alpha 90.000000
_cell_angle_beta 130.977687
_cell_angle_gamma 90.000000
_cell_volume 2214.610784
_symmetry_space_group_name_H-M "C 2/M"
_symmetry_group_IT_number 12
_symmetry_cell_setting 'monoclinic'
loop_
_space_group_symop_operation_xyz
x,y,z
-x,y,-z
-x,-y,-z
x,-y,z
1/2+x,1/2+y,z
1/2-x,1/2+y,-z
1/2-x,1/2-y,-z
1/2+x,1/2-y,z
loop_
_atom_site_type_symbol
_atom_site_label
_atom_site_fract_x
_atom_site_fract_y
_atom_site_fract_z
Si Si1 0.489201 0.604577 0.743067
Si Si2 0.689528 0.901489 0.242319
Si Si3 0.490198 0.326456 0.892124
Si Si4 0.283754 0.398810 0.418057
Si Si5 0.802812 0.347535 0.084444
Si Si6 0.695055 0.893615 0.534883
O O1 0.480370 0.500000 0.747350
O O2 0.690325 0.633067 0.781636
O O3 0.441182 0.641174 0.801352
O O4 0.352487 0.631899 0.638506
O O5 0.731598 0.858006 0.328750
O O6 0.474643 0.905022 0.160837
O O7 0.762182 0.000000 0.272905
O O8 0.321881 0.325041 0.890182
O O9 0.586518 0.233770 0.911481
O O10 0.655054 0.380589 0.981496
O O11 0.500000 0.400623 0.500000
O O12 0.218541 0.500000 0.394973
O O13 0.208883 0.358651 0.462918
O O14 0.500000 0.869140 0.500000
O O15 0.706500 0.000000 0.535072
#
# Coordination Sequence:
#
# PCOD9192392 Si02
#       6
#     8   8   8   8   8   8
#     4  10  20  34  54  84 116 145 179 223 270 315
#     4  10  20  33  55  85 114 145 181 222 269 316
#     4  10  22  40  60  79 105 140 182 226 271 331
#     4   9  15  28  48  73 108 146 180 214 256 313
#     4  10  22  40  60  80 103 141 183 223 275 329
#     4   9  17  28  46  75 110 146 180 216 261 312
#
# _framework density 21.674237999999999
#
# number of rings (size 3 to 8) (size 9 to 14) (size 15 to 20)
#    0.000    2.333    1.667    1.000    2.333    3.333 
#    0.000    3.333    0.000    2.000    0.000    0.000 
#    0.000    0.000    0.000    0.000    0.000    0.000 
#
# Total GULP energy -133771.914768 kJ/mol
# GULP energy per Si atom -5573.829782 kJ/mol
# Density = 2.162491 g / cm^3
# Si number density = 21.674238 Si / 1000 Ang^3
#
#
#
# Elastic Constant Matrix: (Units=GPa)
#
#
# Indices 1 2 3 4 5 6 
#
# 1 124.2880 -5.2017 16.2406 0.0000 -8.5133 0.0000
# 2 -5.2017 13.2170 -0.2491 0.0000 2.4407 0.0000
# 3 16.2406 -0.2491 60.9243 0.0000 -9.0056 0.0000
# 4 0.0000 0.0000 0.0000 10.0986 0.0000 1.6923
# 5 -8.5133 2.4407 -9.0056 0.0000 40.7111 0.0000
# 6 0.0000 0.0000 0.0000 1.6923 0.0000 6.8596
#
#
#
# Elastic Compliance Matrix: (Units=1/GPa)
#
#
# Indices 1 2 3 4 5 6 
#
# 1 0.008527 0.003107 -0.002093 0.000000 0.001134 0.000000
# 2 0.003107 0.077648 -0.001140 0.000000 -0.004258 0.000000
# 3 -0.002093 -0.001140 0.017484 0.000000 0.003498 0.000000
# 4 0.000000 0.000000 0.000000 0.103293 0.000000 -0.025483
# 5 0.001134 -0.004258 0.003498 0.000000 0.025830 0.000000
# 6 0.000000 0.000000 0.000000 -0.025483 0.000000 0.152068
#
#
# Mechanical properties :
#
#
# Convention : Reuss Voigt Hill
#
# Bulk Modulus (GPa) = 9.67050 24.44545 17.05798
# Shear Modulus (GPa) = 11.91693 24.04316 17.98005
#
# Velocity S-wave (km/s) = 2.34737 3.33422 2.88333
# Velocity P-wave (km/s) = 3.43777 5.11134 4.35569
#
# Compressibility (1/GPa) = 0.10340726
#
# Stress axis : x y z
#
# Youngs Moduli (GPa) = 117.27467 12.87866 57.19474
#
# Poissons Ratio (x) = -0.04001 0.11969
# Poissons Ratio (y) = -0.36438 0.06521
# Poissons Ratio (z) = 0.24542 0.01468
#
# Static dielectric constant tensor:
#      x y z
#    x 1.527880 0.000000 0.097670 
#    y 0.000000 1.859740 0.000000 
#    z 0.097670 0.000000 1.765330 
# 
# From -- ./inp_files/256706.got.cif
#   From: 2010.05.17/outbox.cif.g08.bks.cpg/sg12_129_cif.got.tgz:256706.got - 2010.06.03 13:09:07.
