data_PCOD9192231
_publ_section_title
;
Structure prediction by ZEFSAII (Michael W. Deem and Ramdas Pophale) SiO2 
 PCOD9192231
Probable space group: C 2/M
;
_chemical_formula_sum "Si O2"
_cell_formula_units_Z 58
_cell_length_a 26.888651
_cell_length_b 10.535469
_cell_length_c 22.399028
_cell_angle_alpha 90.000000
_cell_angle_beta 28.015297
_cell_angle_gamma 90.000000
_cell_volume 2980.432909
_symmetry_space_group_name_H-M "C 2/M"
_symmetry_group_IT_number 12
_symmetry_cell_setting 'monoclinic'
loop_
_space_group_symop_operation_xyz
x,y,z
-x,y,-z
-x,-y,-z
x,-y,z
1/2+x,1/2+y,z
1/2-x,1/2+y,-z
1/2-x,1/2-y,-z
1/2+x,1/2-y,z
loop_
_atom_site_type_symbol
_atom_site_label
_atom_site_fract_x
_atom_site_fract_y
_atom_site_fract_z
Si Si1 0.000000 0.500000 0.500000
Si Si2 0.833248 0.142317 0.581711
Si Si3 0.766151 0.359285 0.567509
Si Si4 0.245951 0.354443 0.808783
Si Si5 0.434639 0.644127 0.008373
Si Si6 0.943117 0.277892 0.657463
Si Si7 0.494497 0.139732 0.733060
Si Si8 0.962853 0.141228 0.228274
O O1 0.034159 0.388347 0.414804
O O2 0.770193 0.246591 0.610642
O O3 0.793116 0.144036 0.691821
O O4 0.955337 0.184759 0.451372
O O5 0.820837 0.000000 0.570433
O O6 0.756935 0.500000 0.606573
O O7 0.879283 0.358975 0.415236
O O8 0.664405 0.345852 0.633382
O O9 0.216692 0.500000 0.855015
O O10 0.150715 0.254331 0.908812
O O11 0.338354 0.299122 0.752309
O O12 0.388016 0.500000 0.059718
O O13 0.500000 0.661581 0.000000
O O14 0.509347 0.648989 0.871134
O O15 0.939660 0.334518 0.727766
O O16 0.478311 0.251281 0.797157
O O17 0.466380 0.000000 0.785549
O O18 0.991570 0.000000 0.219174
#
# Coordination Sequence:
#
# PCOD9192231 Si02
#       8
#     2   8   8   8   8   8   8   8
#     4  12  20  36  62  92 122 156 196 240 284 336
#     4  10  20  33  53  85 123 152 184 233 292 349
#     4   9  19  34  57  84 115 152 197 233 278 344
#     4  11  23  37  57  85 119 154 190 240 299 351
#     4  10  23  42  64  87 111 148 200 248 291 343
#     4  11  22  36  59  89 120 156 193 233 290 345
#     4  10  21  35  56  88 119 151 192 231 284 353
#     4  10  21  39  58  83 115 155 194 244 293 340
#
# _framework density 19.460260000000002
#
# number of rings (size 3 to 8) (size 9 to 14) (size 15 to 20)
#    0.000    1.793    2.069    1.655    1.931    6.897 
#    0.000    0.690    0.000    0.000    0.000    0.000 
#    0.000    0.000    0.000    0.000    0.000    0.000 
#
# Total GULP energy -161628.626833 kJ/mol
# GULP energy per Si atom -5573.400925 kJ/mol
# Density = 1.941597 g / cm^3
# Si number density = 19.460260 Si / 1000 Ang^3
#
#
#
# Elastic Constant Matrix: (Units=GPa)
#
#
# Indices 1 2 3 4 5 6 
#
# 1 75.9022 76.4500 7.4696 -0.0001 7.7417 0.0000
# 2 76.4500 195.2055 29.2796 -0.0005 -9.1321 0.0002
# 3 7.4696 29.2796 17.6990 -0.0002 -6.1540 0.0001
# 4 -0.0001 -0.0005 -0.0002 19.9896 0.0002 6.7501
# 5 7.7417 -9.1321 -6.1540 0.0002 20.4529 -0.0001
# 6 0.0000 0.0002 0.0001 6.7501 -0.0001 27.1464
#
#
#
# Elastic Compliance Matrix: (Units=1/GPa)
#
#
# Indices 1 2 3 4 5 6 
#
# 1 0.025363 -0.010978 0.002697 0.000000 -0.013691 0.000000
# 2 -0.010978 0.011568 -0.012579 0.000000 0.005536 0.000000
# 3 0.002697 -0.012579 0.082495 0.000001 0.018184 0.000000
# 4 0.000000 0.000000 0.000001 0.054611 0.000000 -0.013579
# 5 -0.013691 0.005536 0.018184 0.000000 0.062018 0.000000
# 6 0.000000 0.000000 0.000000 -0.013579 0.000000 0.040214
#
#
# Mechanical properties :
#
#
# Convention : Reuss Voigt Hill
#
# Bulk Modulus (GPa) = 12.86915 57.24501 35.05708
# Shear Modulus (GPa) = 14.53942 25.22495 19.88219
#
# Velocity S-wave (km/s) = 2.73634 3.60422 3.19984
# Velocity P-wave (km/s) = 4.07564 6.84111 5.63079
#
# Compressibility (1/GPa) = 0.07770521
#
# Stress axis : x y z
#
# Youngs Moduli (GPa) = 39.42700 86.44468 12.12194
#
# Poissons Ratio (x) = 0.94901 -0.03269
# Poissons Ratio (y) = 0.43284 0.15248
# Poissons Ratio (z) = -0.10633 1.08741
#
# Static dielectric constant tensor:
#      x y z
#    x 1.667410 0.000000 0.005870 
#    y 0.000000 1.697780 0.000000 
#    z 0.005870 0.000000 1.673750 
# 
# From -- ./inp_files/351432.got.cif
#   From: 2010.05.17/outbox.cif.g08.bks.cpg/sg12_176_cif.got.tgz:351432.got - 2010.06.03 13:09:07.
