data_PCOD9192226
_publ_section_title
;
Structure prediction by ZEFSAII (Michael W. Deem and Ramdas Pophale) SiO2 
 PCOD9192226
Probable space group: C 2/M
;
_chemical_formula_sum "Si O2"
_cell_formula_units_Z 56
_cell_length_a 15.567466
_cell_length_b 13.297761
_cell_length_c 27.110632
_cell_angle_alpha 90.000000
_cell_angle_beta 30.291161
_cell_angle_gamma 90.000000
_cell_volume 2830.781614
_symmetry_space_group_name_H-M "C 2/M"
_symmetry_group_IT_number 12
_symmetry_cell_setting 'monoclinic'
loop_
_space_group_symop_operation_xyz
x,y,z
-x,y,-z
-x,-y,-z
x,-y,z
1/2+x,1/2+y,z
1/2-x,1/2+y,-z
1/2-x,1/2-y,-z
1/2+x,1/2-y,z
loop_
_atom_site_type_symbol
_atom_site_label
_atom_site_fract_x
_atom_site_fract_y
_atom_site_fract_z
Si Si1 0.334833 0.759655 0.205961
Si Si2 0.321922 0.382556 0.117078
Si Si3 0.703345 0.121341 0.453426
Si Si4 0.816126 0.120664 0.570481
Si Si5 0.334172 0.119128 0.641568
Si Si6 0.496310 0.879522 0.797548
Si Si7 0.979336 0.121881 0.388563
O O1 0.335982 0.704707 0.152061
O O2 0.309691 0.665922 0.254568
O O3 0.482922 0.824520 0.159612
O O4 0.164193 0.827768 0.297380
O O5 0.291379 0.500000 0.150595
O O6 0.171428 0.359966 0.152280
O O7 0.500000 0.384152 0.000000
O O8 0.522453 0.149894 0.566929
O O9 0.687335 0.148741 0.404467
O O10 0.877742 0.155390 0.390561
O O11 0.708161 0.000000 0.453948
O O12 0.657100 0.151292 0.682889
O O13 0.842361 0.144923 0.500017
O O14 0.000000 0.151186 0.500000
O O15 0.808751 0.000000 0.576579
O O16 0.328497 0.000000 0.645804
O O17 0.504725 0.000000 0.801521
O O18 0.004567 0.000000 0.377757
#
# Coordination Sequence:
#
# PCOD9192226 Si02
#       7
#     8   8   8   8   8   8   8
#     4  12  23  34  63  92 118 154 205 254 302 373
#     4  10  25  49  70  89 117 155 205 265 323 374
#     4   8  17  33  49  68 114 168 201 239 288 339
#     4   9  16  30  51  81 124 166 198 227 276 350
#     4   9  19  34  48  74 115 160 205 245 288 345
#     4  10  22  41  65  92 127 167 204 251 307 364
#     4  10  20  33  53  84 125 168 201 241 292 353
#
# _framework density 19.782522
#
# number of rings (size 3 to 8) (size 9 to 14) (size 15 to 20)
#    0.000    2.286    1.429    1.714    4.000    3.429 
#    0.000    0.000    0.000    1.714    0.000    0.000 
#    0.000    0.000    0.000    0.000    0.000    0.000 
#
# Total GULP energy -156014.693418 kJ/mol
# GULP energy per Si atom -5571.953336 kJ/mol
# Density = 1.973750 g / cm^3
# Si number density = 19.782522 Si / 1000 Ang^3
#
#
#
# Elastic Constant Matrix: (Units=GPa)
#
#
# Indices 1 2 3 4 5 6 
#
# 1 126.7538 39.9070 40.8224 0.0000 -12.6818 0.0000
# 2 39.9070 100.5471 18.3349 -0.0007 -1.5476 -0.0004
# 3 40.8224 18.3349 49.7280 -0.0013 -15.1200 0.0004
# 4 0.0000 -0.0007 -0.0013 15.5007 -0.0004 -1.3108
# 5 -12.6818 -1.5476 -15.1200 -0.0004 21.5527 -0.0002
# 6 0.0000 -0.0004 0.0004 -1.3108 -0.0002 21.9364
#
#
#
# Elastic Compliance Matrix: (Units=1/GPa)
#
#
# Indices 1 2 3 4 5 6 
#
# 1 0.011554 -0.003102 -0.008062 -0.000001 0.000920 0.000000
# 2 -0.003102 0.011605 -0.002586 0.000000 -0.002806 0.000000
# 3 -0.008062 -0.002586 0.033281 0.000003 0.018418 0.000000
# 4 -0.000001 0.000000 0.000003 0.064841 0.000003 0.003875
# 5 0.000920 -0.002806 0.018418 0.000003 0.059659 0.000000
# 6 0.000000 0.000000 0.000000 0.003875 0.000000 0.045818
#
#
# Mechanical properties :
#
#
# Convention : Reuss Voigt Hill
#
# Bulk Modulus (GPa) = 34.55169 52.79529 43.67349
# Shear Modulus (GPa) = 18.94636 23.66228 21.30432
#
# Velocity S-wave (km/s) = 3.09808 3.46225 3.28522
# Velocity P-wave (km/s) = 5.50465 6.53672 6.04276
#
# Compressibility (1/GPa) = 0.02894214
#
# Stress axis : x y z
#
# Youngs Moduli (GPa) = 86.54836 86.17021 30.04734
#
# Poissons Ratio (x) = 0.26727 0.24223
# Poissons Ratio (y) = 0.26844 0.07769
# Poissons Ratio (z) = 0.69772 0.22281
#
# Static dielectric constant tensor:
#      x y z
#    x 1.777260 0.000000 0.016630 
#    y 0.000000 1.782970 0.000000 
#    z 0.016630 0.000000 1.659970 
# 
# From -- ./inp_files/361399.got.cif
#   From: 2010.05.17/outbox.cif.g08.bks.cpg/sg12_181_cif.got.tgz:361399.got - 2010.06.03 13:09:07.
