data_PCOD9192646
_publ_section_title
;
Structure prediction by ZEFSAII (Michael W. Deem and Ramdas Pophale) SiO2 
 PCOD9192646
Probable space group: C 2/M
;
_chemical_formula_sum "Si O2"
_cell_formula_units_Z 56
_cell_length_a 15.698476
_cell_length_b 27.810785
_cell_length_c 15.881966
_cell_angle_alpha 90.000000
_cell_angle_beta 27.042262
_cell_angle_gamma 90.000000
_cell_volume 3152.462278
_symmetry_space_group_name_H-M "C 2/M"
_symmetry_group_IT_number 12
_symmetry_cell_setting 'monoclinic'
loop_
_space_group_symop_operation_xyz
x,y,z
-x,y,-z
-x,-y,-z
x,-y,z
1/2+x,1/2+y,z
1/2-x,1/2+y,-z
1/2-x,1/2-y,-z
1/2+x,1/2-y,z
loop_
_atom_site_type_symbol
_atom_site_label
_atom_site_fract_x
_atom_site_fract_y
_atom_site_fract_z
Si Si1 0.435913 0.055731 0.458970
Si Si2 0.705007 0.183648 0.282642
Si Si3 0.304637 0.879337 0.871829
Si Si4 0.007066 0.782820 0.283454
Si Si5 0.566773 0.191402 0.108363
Si Si6 0.392246 0.368455 0.266861
Si Si7 0.687390 0.712955 0.370212
O O1 0.500000 0.060477 0.500000
O O2 0.603004 0.075774 0.254750
O O3 0.265100 0.091181 0.587809
O O4 0.392725 0.000000 0.481961
O O5 0.500000 0.171419 0.500000
O O6 0.711991 0.163740 0.182690
O O7 0.852290 0.157544 0.213006
O O8 0.724343 0.240285 0.280097
O O9 0.420871 0.855876 0.844866
O O10 0.097234 0.890896 0.084636
O O11 0.026813 0.737799 0.203165
O O12 0.900941 0.826465 0.329064
O O13 0.888669 0.770340 0.470632
O O14 0.222176 0.799825 0.112512
O O15 0.387396 0.187980 0.205608
O O16 0.500000 0.686837 0.500000
#
# Coordination Sequence:
#
# PCOD9192646 Si02
#       7
#     8   8   8   8   8   8   8
#     4  11  23  36  50  74 104 134 174 221 260 295
#     4  11  19  31  47  73  97 134 177 209 244 292
#     4  11  21  35  55  72 100 139 180 215 249 297
#     4  10  21  33  50  73  99 134 171 214 253 295
#     4  10  20  34  49  73 100 131 173 213 251 298
#     4  11  20  35  54  72  98 137 177 215 253 295
#     4  11  22  32  47  70 102 139 168 211 250 295
#
# _framework density 17.763891999999998
#
# number of rings (size 3 to 8) (size 9 to 14) (size 15 to 20)
#    0.000    1.286    4.286    3.429    0.000    1.143 
#    5.143    1.429    0.000    0.000    0.000    0.000 
#    0.000    9.143    0.000   25.143    0.000    0.000 
#
# Total GULP energy -156343.810257 kJ/mol
# GULP energy per Si atom -5583.707509 kJ/mol
# Density = 1.772346 g / cm^3
# Si number density = 17.763892 Si / 1000 Ang^3
#
#
#
# Elastic Constant Matrix: (Units=GPa)
#
#
# Indices 1 2 3 4 5 6 
#
# 1 65.7249 21.5336 11.5945 -0.0277 -28.9632 0.0004
# 2 21.5336 63.3701 4.7044 -0.0313 -7.0701 -0.0024
# 3 11.5945 4.7044 38.7266 -0.1157 -16.9283 -0.0347
# 4 -0.0277 -0.0313 -0.1157 -10.1310 0.0162 -3.1593
# 5 -28.9632 -7.0701 -16.9283 0.0162 36.8076 -0.0031
# 6 0.0004 -0.0024 -0.0347 -3.1593 -0.0031 15.8825
#
#
#
# Elastic Compliance Matrix: (Units=1/GPa)
#
#
# Indices 1 2 3 4 5 6 
#
# 1 0.025854 -0.006699 0.001757 -0.000038 0.019865 -0.000001
# 2 -0.006699 0.017880 -0.001213 -0.000025 -0.002395 -0.000005
# 3 0.001757 -0.001213 0.032473 -0.000348 0.016084 0.000005
# 4 -0.000038 -0.000025 -0.000348 -0.092938 -0.000155 -0.018487
# 5 0.019865 -0.002395 0.016084 -0.000155 0.049737 0.000013
# 6 -0.000001 -0.000005 0.000005 -0.018487 0.000013 0.059285
#
#
# Mechanical properties :
#
#
# Convention : Reuss Voigt Hill
#
# Bulk Modulus (GPa) = 15.65070 27.05407 21.35239
# Shear Modulus (GPa) = 39.71340 17.17775 28.44557
#
# Velocity S-wave (km/s) = 4.73337 3.11304 4.00598
# Velocity P-wave (km/s) = 6.22114 5.30888 5.78303
#
# Compressibility (1/GPa) = 0.06389490
#
# Stress axis : x y z
#
# Youngs Moduli (GPa) = 38.67872 55.92945 30.79449
#
# Poissons Ratio (x) = 0.37470 -0.05410
# Poissons Ratio (y) = 0.25913 0.03736
# Poissons Ratio (z) = -0.06795 0.06786
#
# Static dielectric constant tensor:
#      x y z
#    x 1.433970 0.001720 -0.649230 
#    y 0.001720 1.575400 0.004680 
#    z -0.649230 0.004680 -0.040530 
# 
# From -- ./inp_files/219055.got.cif
#   From: 2010.05.17/outbox.cif.g08.bks.cpg/sg12_110_cif.got.tgz:219055.got - 2010.06.03 13:09:07.
