data_PCOD9192869
_publ_section_title
;
Structure prediction by ZEFSAII (Michael W. Deem and Ramdas Pophale) SiO2 
 PCOD9192869
Probable space group: C 2/M
;
_chemical_formula_sum "Si O2"
_cell_formula_units_Z 44
_cell_length_a 13.732827
_cell_length_b 19.926306
_cell_length_c 5.778716
_cell_angle_alpha 90.000000
_cell_angle_beta 89.018623
_cell_angle_gamma 90.000000
_cell_volume 1581.081971
_symmetry_space_group_name_H-M "C 2/M"
_symmetry_group_IT_number 12
_symmetry_cell_setting 'monoclinic'
loop_
_space_group_symop_operation_xyz
x,y,z
-x,y,-z
-x,-y,-z
x,-y,z
1/2+x,1/2+y,z
1/2-x,1/2+y,-z
1/2-x,1/2-y,-z
1/2+x,1/2-y,z
loop_
_atom_site_type_symbol
_atom_site_label
_atom_site_fract_x
_atom_site_fract_y
_atom_site_fract_z
Si Si1 0.622174 0.106681 0.631495
Si Si2 0.607314 0.747122 0.094927
Si Si3 0.000000 0.268380 0.500000
Si Si4 0.851189 0.919694 0.609138
Si Si5 0.635947 0.906597 0.125211
Si Si6 0.647219 0.615926 0.891546
O O1 0.567978 0.178612 0.637989
O O2 0.740547 0.111948 0.624866
O O3 0.596258 0.072646 0.876461
O O4 0.597177 0.075773 0.381152
O O5 0.582289 0.727228 0.360892
O O6 0.667111 0.695369 0.939630
O O7 0.500000 0.738385 0.000000
O O8 0.630213 0.825271 0.114565
O O9 0.898527 0.905517 0.860143
O O10 0.839733 0.000000 0.595989
O O11 0.895932 0.897364 0.359933
O O12 0.750001 0.922752 0.121609
#
# Coordination Sequence:
#
# PCOD9192869 Si02
#       6
#     8   8   4   8   8   8
#     4   9  18  32  54  79 110 144 180 217 267 329
#     4  11  21  33  54  82 120 151 174 212 275 340
#     4  10  20  34  51  84 123 150 168 206 276 346
#     4  10  21  40  60  79 103 142 194 244 274 299
#     4   9  18  34  50  80 111 146 178 217 266 326
#     4  10  22  35  59  83 108 141 190 230 270 325
#
# _framework density 27.829046000000002
#
# number of rings (size 3 to 8) (size 9 to 14) (size 15 to 20)
#    0.000    2.182    1.818    1.091    2.545    0.000 
#    0.000    7.727    0.000    3.273    0.000   10.182 
#    0.000    0.000    0.000    0.000    0.000    0.000 
#
# Total GULP energy -122713.670285 kJ/mol
# GULP energy per Si atom -5577.894104 kJ/mol
# Density = 2.776571 g / cm^3
# Si number density = 27.829046 Si / 1000 Ang^3
#
#
#
# Elastic Constant Matrix: (Units=GPa)
#
#
# Indices 1 2 3 4 5 6 
#
# 1 74.9688 11.1580 49.5843 0.0000 -9.1903 0.0000
# 2 11.1580 141.4117 48.6472 0.0000 -2.5204 0.0000
# 3 49.5843 48.6472 331.8978 0.0000 7.0635 0.0000
# 4 0.0000 0.0000 0.0000 -41.9558 0.0000 6.2811
# 5 -9.1903 -2.5204 7.0635 0.0000 51.3291 0.0000
# 6 0.0000 0.0000 0.0000 6.2811 0.0000 -52.2726
#
#
#
# Elastic Compliance Matrix: (Units=1/GPa)
#
#
# Indices 1 2 3 4 5 6 
#
# 1 0.015282 -0.000362 -0.002295 0.000000 0.003034 0.000000
# 2 -0.000362 0.007469 -0.001050 0.000000 0.000446 0.000000
# 3 -0.002295 -0.001050 0.003530 0.000000 -0.000948 0.000000
# 4 0.000000 0.000000 0.000000 -0.024271 0.000000 -0.002916
# 5 0.003034 0.000446 -0.000948 0.000000 0.020178 0.000000
# 6 0.000000 0.000000 0.000000 -0.002916 0.000000 -0.019481
#
#
# Mechanical properties :
#
#
# Convention : Reuss Voigt Hill
#
# Bulk Modulus (GPa) = 53.00161 85.22858 69.11510
# Shear Modulus (GPa) = 304.67908 20.67941 162.67924
#
# Velocity S-wave (km/s) = 10.47474 2.72892 7.65399
# Velocity P-wave (km/s) = 12.86002 6.37351 10.14894
#
# Compressibility (1/GPa) = 0.01886735
#
# Stress axis : x y z
#
# Youngs Moduli (GPa) = 65.43468 133.88005 283.29541
#
# Poissons Ratio (x) = 0.04852 0.65005
# Poissons Ratio (y) = 0.02371 0.29751
# Poissons Ratio (z) = 0.15015 0.14060
#
# Static dielectric constant tensor:
#      x y z
#    x 2.139930 0.000000 -0.061180 
#    y 0.000000 2.134430 0.000000 
#    z -0.061180 0.000000 2.609390 
# 
# From -- ./inp_files/16080.got.cif
#   From: 2010.05.17/outbox.cif.g08.bks.cpg/sg12_9_cif.got.tgz:16080.got - 2010.06.03 13:09:07.
