data_PCOD9192496
_publ_section_title
;
Structure prediction by ZEFSAII (Michael W. Deem and Ramdas Pophale) SiO2 
 PCOD9192496
Probable space group: C 2/M
;
_chemical_formula_sum "Si O2"
_cell_formula_units_Z 48
_cell_length_a 13.969846
_cell_length_b 20.085531
_cell_length_c 16.640690
_cell_angle_alpha 90.000000
_cell_angle_beta 149.321777
_cell_angle_gamma 90.000000
_cell_volume 2382.321653
_symmetry_space_group_name_H-M "C 2/M"
_symmetry_group_IT_number 12
_symmetry_cell_setting 'monoclinic'
loop_
_space_group_symop_operation_xyz
x,y,z
-x,y,-z
-x,-y,-z
x,-y,z
1/2+x,1/2+y,z
1/2-x,1/2+y,-z
1/2-x,1/2-y,-z
1/2+x,1/2-y,z
loop_
_atom_site_type_symbol
_atom_site_label
_atom_site_fract_x
_atom_site_fract_y
_atom_site_fract_z
Si Si1 0.388054 0.694034 0.634316
Si Si2 0.881390 0.645408 0.073136
Si Si3 0.113681 0.077242 0.759029
Si Si4 0.776248 0.769761 0.899077
Si Si5 0.211850 0.714845 0.671811
Si Si6 0.713724 0.374072 0.667380
O O1 0.250000 0.750000 0.500000
O O2 0.422362 0.621687 0.620787
O O3 0.585670 0.727287 0.758951
O O4 0.340602 0.687148 0.693500
O O5 0.776739 0.672665 0.076560
O O6 0.088758 0.614634 0.235911
O O7 0.738382 0.596006 0.926234
O O8 0.906363 0.712455 0.034132
O O9 0.244185 0.100395 0.779506
O O10 0.071905 0.000000 0.724293
O O11 0.795131 0.796057 0.821492
O O12 0.195640 0.794447 0.649899
O O13 0.000000 0.689078 0.500000
O O14 0.500000 0.401166 0.500000
#
# Coordination Sequence:
#
# PCOD9192496 Si02
#       6
#     8   8   8   8   8   8
#     4  11  19  36  63  92 123 159 206 263 312 361
#     4  10  21  37  56  85 127 165 205 254 308 377
#     4  11  25  42  58  87 130 172 207 252 324 396
#     4  10  20  33  56  92 123 157 206 267 314 355
#     4  11  19  31  58  94 125 152 200 268 316 359
#     4  11  21  34  60  91 124 160 207 258 314 379
#
# _framework density 20.148413000000001
#
# number of rings (size 3 to 8) (size 9 to 14) (size 15 to 20)
#    0.000    1.333    6.667    1.500    0.000    1.667 
#    0.000    0.000    0.000    2.500    0.000    0.000 
#    0.000    0.000    0.000    0.000    0.000    0.000 
#
# Total GULP energy -133689.067665 kJ/mol
# GULP energy per Si atom -5570.377819 kJ/mol
# Density = 2.010255 g / cm^3
# Si number density = 20.148413 Si / 1000 Ang^3
#
#
#
# Elastic Constant Matrix: (Units=GPa)
#
#
# Indices 1 2 3 4 5 6 
#
# 1 111.3545 18.8989 3.3122 -0.0027 -9.5826 -0.0005
# 2 18.8989 70.4604 -4.2396 -0.0045 15.8586 -0.0023
# 3 3.3122 -4.2396 76.4820 -0.0139 23.3290 -0.0079
# 4 -0.0027 -0.0045 -0.0139 17.0466 -0.0077 -2.1019
# 5 -9.5826 15.8586 23.3290 -0.0077 29.7874 -0.0025
# 6 -0.0005 -0.0023 -0.0079 -2.1019 -0.0025 7.3718
#
#
#
# Elastic Compliance Matrix: (Units=1/GPa)
#
#
# Indices 1 2 3 4 5 6 
#
# 1 0.010702 -0.005066 -0.003439 0.000001 0.008833 -0.000001
# 2 -0.005066 0.019865 0.006627 0.000003 -0.017395 0.000008
# 3 -0.003439 0.006627 0.019714 0.000010 -0.020074 0.000019
# 4 0.000001 0.000003 0.000010 0.060800 0.000008 0.017336
# 5 0.008833 -0.017395 -0.020074 0.000008 0.061396 -0.000003
# 6 -0.000001 0.000008 0.000019 0.017336 -0.000003 0.140596
#
#
# Mechanical properties :
#
#
# Convention : Reuss Voigt Hill
#
# Bulk Modulus (GPa) = 21.49298 32.69332 27.09315
# Shear Modulus (GPa) = 15.04497 26.86286 20.95391
#
# Velocity S-wave (km/s) = 2.73556 3.65533 3.22837
# Velocity P-wave (km/s) = 4.54623 5.83753 5.23187
#
# Compressibility (1/GPa) = 0.04652682
#
# Stress axis : x y z
#
# Youngs Moduli (GPa) = 93.43682 50.33991 50.72450
#
# Poissons Ratio (x) = 0.25500 0.17442
# Poissons Ratio (y) = 0.47330 -0.33613
# Poissons Ratio (z) = 0.32129 -0.33358
#
# Static dielectric constant tensor:
#      x y z
#    x 1.787000 0.000000 -0.036600 
#    y 0.000000 1.727690 0.000000 
#    z -0.036600 0.000000 1.896190 
# 
# From -- ./inp_files/272109.got.cif
#   From: 2010.05.17/outbox.cif.g08.bks.cpg/sg12_137_cif.got.tgz:272109.got - 2010.06.03 13:09:07.
