data_PCOD9192257
_publ_section_title
;
Structure prediction by ZEFSAII (Michael W. Deem and Ramdas Pophale) SiO2 
 PCOD9192257
Probable space group: C 2/M
;
_chemical_formula_sum "Si O2"
_cell_formula_units_Z 48
_cell_length_a 27.064921
_cell_length_b 7.485779
_cell_length_c 18.078033
_cell_angle_alpha 90.000000
_cell_angle_beta 31.815810
_cell_angle_gamma 90.000000
_cell_volume 1930.911390
_symmetry_space_group_name_H-M "C 2/M"
_symmetry_group_IT_number 12
_symmetry_cell_setting 'monoclinic'
loop_
_space_group_symop_operation_xyz
x,y,z
-x,y,-z
-x,-y,-z
x,-y,z
1/2+x,1/2+y,z
1/2-x,1/2+y,-z
1/2-x,1/2-y,-z
1/2+x,1/2-y,z
loop_
_atom_site_type_symbol
_atom_site_label
_atom_site_fract_x
_atom_site_fract_y
_atom_site_fract_z
Si Si1 0.672471 0.788573 0.161180
Si Si2 0.934132 0.718067 0.977703
Si Si3 0.339610 0.284386 0.512686
Si Si4 0.461676 0.789655 0.786462
Si Si5 0.598359 0.292450 0.405393
Si Si6 0.137200 0.717411 0.776176
O O1 0.578929 0.717299 0.238425
O O2 0.672864 0.713760 0.243313
O O3 0.669077 0.000000 0.176242
O O4 0.750000 0.750000 0.000000
O O5 0.932998 0.500000 0.977678
O O6 0.913269 0.783312 0.921877
O O7 0.040555 0.774852 0.861729
O O8 0.870344 0.770076 0.127683
O O9 0.336066 0.500000 0.518291
O O10 0.427224 0.231468 0.351361
O O11 0.363811 0.218500 0.565218
O O12 0.236953 0.220882 0.619190
O O13 0.440887 0.000000 0.810918
O O14 0.500000 0.212904 0.500000
O O15 0.579768 0.500000 0.444346
O O16 0.135192 0.500000 0.776095
#
# Coordination Sequence:
#
# PCOD9192257 Si02
#       6
#     8   8   8   8   8   8
#     4  11  24  38  55  79 108 141 178 220 265 316
#     4   8  15  30  51  76 104 133 171 217 260 305
#     4  10  20  33  54  80 106 138 177 216 258 309
#     4  10  21  35  53  77 107 138 171 216 264 312
#     4  10  20  36  56  77 107 143 176 218 264 311
#     4   8  15  29  52  78 101 132 175 217 257 307
#
# _framework density 24.858726999999998
#
# number of rings (size 3 to 8) (size 9 to 14) (size 15 to 20)
#    0.000    2.500    1.667    1.500    2.333    2.333 
#    0.000    0.000    0.000    0.000    0.000    2.333 
#    0.000    0.000    0.000    0.000    0.000    0.000 
#
# Total GULP energy -134056.411197 kJ/mol
# GULP energy per Si atom -5585.683800 kJ/mol
# Density = 2.480215 g / cm^3
# Si number density = 24.858727 Si / 1000 Ang^3
#
#
#
# Elastic Constant Matrix: (Units=GPa)
#
#
# Indices 1 2 3 4 5 6 
#
# 1 17.5845 -0.0291 -2.6962 -0.0095 13.4469 0.0016
# 2 -0.0291 77.2386 -16.3383 -0.0264 0.4426 0.0090
# 3 -2.6962 -16.3383 81.5046 -0.0296 3.4536 0.0058
# 4 -0.0095 -0.0264 -0.0296 21.1787 0.0092 -1.0158
# 5 13.4469 0.4426 3.4536 0.0092 46.1359 0.0012
# 6 0.0016 0.0090 0.0058 -1.0158 0.0012 -1.2181
#
#
#
# Elastic Compliance Matrix: (Units=1/GPa)
#
#
# Indices 1 2 3 4 5 6 
#
# 1 0.074154 0.000907 0.003562 0.000052 -0.021889 0.000059
# 2 0.000907 0.013536 0.002769 0.000026 -0.000601 0.000092
# 3 0.003562 0.002769 0.013029 0.000027 -0.002040 0.000063
# 4 0.000052 0.000026 0.000027 0.045401 -0.000025 -0.037860
# 5 -0.021889 -0.000601 -0.002040 -0.000025 0.028213 0.000005
# 6 0.000059 0.000092 0.000063 -0.037860 0.000005 -0.789356
#
#
# Mechanical properties :
#
#
# Convention : Reuss Voigt Hill
#
# Bulk Modulus (GPa) = 8.68087 15.35561 12.01824
# Shear Modulus (GPa) = -8.45881 26.24539 8.89329
#
# Velocity S-wave (km/s) = -1.84666 3.25280 1.89349
# Velocity P-wave (km/s) = 1.02332 4.50535 3.10250
#
# Compressibility (1/GPa) = 0.11519583
#
# Stress axis : x y z
#
# Youngs Moduli (GPa) = 13.48540 73.87490 76.75419
#
# Poissons Ratio (x) = -0.06700 -0.27343
# Poissons Ratio (y) = -0.01223 -0.21253
# Poissons Ratio (z) = -0.04804 -0.20456
#
# Static dielectric constant tensor:
#      x y z
#    x 2.009410 0.000000 -0.025630 
#    y 0.000000 1.936910 0.000010 
#    z -0.025630 0.000010 1.978820 
# 
# From -- ./inp_files/244717.got.cif
#   From: 2010.05.17/outbox.cif.g08.bks.cpg/sg12_123_cif.got.tgz:244717.got - 2010.06.03 13:09:07.
