data_PCOD9192178
_publ_section_title
;
Structure prediction by ZEFSAII (Michael W. Deem and Ramdas Pophale) SiO2 
 PCOD9192178
Probable space group: C 2/M
;
_chemical_formula_sum "Si O2"
_cell_formula_units_Z 64
_cell_length_a 10.910656
_cell_length_b 24.637546
_cell_length_c 20.442744
_cell_angle_alpha 90.000000
_cell_angle_beta 33.437673
_cell_angle_gamma 90.000000
_cell_volume 3028.045450
_symmetry_space_group_name_H-M "C 2/M"
_symmetry_group_IT_number 12
_symmetry_cell_setting 'monoclinic'
loop_
_space_group_symop_operation_xyz
x,y,z
-x,y,-z
-x,-y,-z
x,-y,z
1/2+x,1/2+y,z
1/2-x,1/2+y,-z
1/2-x,1/2-y,-z
1/2+x,1/2-y,z
loop_
_atom_site_type_symbol
_atom_site_label
_atom_site_fract_x
_atom_site_fract_y
_atom_site_fract_z
Si Si1 0.462846 0.937637 0.364639
Si Si2 0.261683 0.129761 0.567448
Si Si3 0.425955 0.439295 0.238479
Si Si4 0.909219 0.660617 0.768443
Si Si5 0.095997 0.559778 0.030080
Si Si6 0.591997 0.175335 0.079088
Si Si7 0.757551 0.243101 0.390451
Si Si8 0.933878 0.787597 0.170667
O O1 0.295915 0.907416 0.488855
O O2 0.699278 0.937720 0.297931
O O3 0.498662 0.899369 0.286072
O O4 0.402958 0.000000 0.378173
O O5 0.500000 0.130729 0.500000
O O6 0.091819 0.102781 0.694306
O O7 0.209799 0.192427 0.575195
O O8 0.443001 0.500000 0.259816
O O9 0.638278 0.432737 0.097368
O O10 0.850851 0.672733 0.869312
O O11 0.701085 0.671835 0.814599
O O12 0.090727 0.705102 0.666017
O O13 0.054692 0.500000 0.079111
O O14 0.007593 0.615462 0.099923
O O15 0.000000 0.557474 0.000000
O O16 0.428917 0.226520 0.143228
O O17 0.811960 0.192305 0.941157
O O18 0.500000 0.258132 0.500000
O O19 0.829402 0.217609 0.288473
#
# Coordination Sequence:
#
# PCOD9192178 Si02
#       8
#     8   8   8   8   8   8   8   8
#     4  10  20  33  53  82 112 142 177 219 268 321
#     4   9  16  29  51  77 106 134 166 215 271 320
#     4   9  17  31  52  79 109 137 173 225 275 316
#     4  11  22  37  57  80 109 146 183 217 265 328
#     4  10  21  36  54  77 106 143 186 226 265 313
#     4  10  22  37  56  81 111 144 180 225 271 319
#     4  10  21  35  54  82 110 139 176 224 276 321
#     4  10  21  37  56  82 111 141 180 225 276 329
#
# _framework density 21.135746000000001
#
# number of rings (size 3 to 8) (size 9 to 14) (size 15 to 20)
#    0.000    2.125    0.000    4.500    0.000    8.000 
#    0.000    1.250    0.000    4.125    0.000    0.000 
#    0.000    0.000    0.000    0.000    0.000    0.000 
#
# Total GULP energy -178674.029159 kJ/mol
# GULP energy per Si atom -5583.563411 kJ/mol
# Density = 2.108764 g / cm^3
# Si number density = 21.135746 Si / 1000 Ang^3
#
#
#
# Elastic Constant Matrix: (Units=GPa)
#
#
# Indices 1 2 3 4 5 6 
#
# 1 13.1286 1.4095 -1.2768 0.0001 7.8125 -0.0004
# 2 1.4095 154.9881 16.2789 0.0010 -2.6532 -0.0010
# 3 -1.2768 16.2789 46.9721 -0.0202 11.6328 0.0038
# 4 0.0001 0.0010 -0.0202 29.2817 -0.0032 6.5234
# 5 7.8125 -2.6532 11.6328 -0.0032 14.7215 0.0017
# 6 -0.0004 -0.0010 0.0038 6.5234 0.0017 27.8567
#
#
#
# Elastic Compliance Matrix: (Units=1/GPa)
#
#
# Indices 1 2 3 4 5 6 
#
# 1 0.138343 -0.006121 0.030258 0.000009 -0.098430 0.000001
# 2 -0.006121 0.007140 -0.004680 -0.000003 0.008233 0.000001
# 3 0.030258 -0.004680 0.034712 0.000021 -0.044330 -0.000007
# 4 0.000009 -0.000003 0.000021 0.036031 -0.000013 -0.008438
# 5 -0.098430 0.008233 -0.044330 -0.000013 0.156677 -0.000002
# 6 0.000001 0.000001 -0.000007 -0.008438 -0.000002 0.037874
#
#
# Mechanical properties :
#
#
# Convention : Reuss Voigt Hill
#
# Bulk Modulus (GPa) = 4.56394 27.54577 16.05486
# Shear Modulus (GPa) = 11.23852 27.61714 19.42783
#
# Velocity S-wave (km/s) = 2.30843 3.61869 3.03511
# Velocity P-wave (km/s) = 3.04453 5.52458 4.46039
#
# Compressibility (1/GPa) = 0.21910912
#
# Stress axis : x y z
#
# Youngs Moduli (GPa) = 7.22843 140.05065 28.80832
#
# Poissons Ratio (x) = 0.85728 -0.87169
# Poissons Ratio (y) = 0.04425 0.13482
# Poissons Ratio (z) = -0.21872 0.65543
#
# Static dielectric constant tensor:
#      x y z
#    x 1.739510 0.000000 -0.000900 
#    y 0.000000 1.818940 0.000010 
#    z -0.000900 0.000010 1.765410 
# 
# From -- ./inp_files/337105.got.cif
#   From: 2010.05.17/outbox.cif.g08.bks.cpg/sg12_169_cif.got.tgz:337105.got - 2010.06.03 13:09:07.
