data_PCOD9192667
_publ_section_title
;
Structure prediction by ZEFSAII (Michael W. Deem and Ramdas Pophale) SiO2 
 PCOD9192667
Probable space group: C 2/M
;
_chemical_formula_sum "Si O2"
_cell_formula_units_Z 56
_cell_length_a 24.302328
_cell_length_b 9.088766
_cell_length_c 17.007325
_cell_angle_alpha 90.000000
_cell_angle_beta 90.949276
_cell_angle_gamma 90.000000
_cell_volume 3756.031293
_symmetry_space_group_name_H-M "C 2/M"
_symmetry_group_IT_number 12
_symmetry_cell_setting 'monoclinic'
loop_
_space_group_symop_operation_xyz
x,y,z
-x,y,-z
-x,-y,-z
x,-y,z
1/2+x,1/2+y,z
1/2-x,1/2+y,-z
1/2-x,1/2-y,-z
1/2+x,1/2-y,z
loop_
_atom_site_type_symbol
_atom_site_label
_atom_site_fract_x
_atom_site_fract_y
_atom_site_fract_z
Si Si1 0.758481 0.172372 0.917581
Si Si2 0.116797 0.825181 0.650032
Si Si3 0.806593 0.675026 0.778326
Si Si4 0.309755 0.324381 0.503087
Si Si5 0.494592 0.824352 0.406859
Si Si6 0.697287 0.172454 0.763590
Si Si7 0.116811 0.323812 0.360647
O O1 0.804748 0.249314 0.863855
O O2 0.705355 0.186150 0.858206
O O3 0.769915 0.000000 0.927765
O O4 0.750000 0.250000 0.000000
O O5 0.156794 0.794449 0.576617
O O6 0.057042 0.761218 0.629211
O O7 0.144462 0.746806 0.725242
O O8 0.114518 0.000000 0.661132
O O9 0.799935 0.500000 0.786037
O O10 0.752215 0.743092 0.735156
O O11 0.858549 0.706270 0.724900
O O12 0.303928 0.500000 0.511279
O O13 0.250000 0.250000 0.500000
O O14 0.346301 0.259301 0.574540
O O15 0.500000 0.793590 0.500000
O O16 0.552924 0.785225 0.369140
O O17 0.485654 0.000000 0.397820
O O18 0.699970 0.000000 0.743857
O O19 0.121906 0.500000 0.374985
#
# Coordination Sequence:
#
# PCOD9192667 Si02
#       7
#     8   8   8   8   8   8   8
#     4   9  18  31  51  78 105 133 161 190 240 301
#     4  11  22  34  48  69  96 129 169 213 255 291
#     4   9  17  30  49  73 104 129 158 201 243 292
#     4  11  23  33  46  67  94 128 166 207 252 298
#     4  10  20  35  53  68  90 130 176 217 253 293
#     4   9  19  32  49  73 101 130 163 196 240 298
#     4  10  20  34  50  70  94 129 171 209 250 292
#
# _framework density 14.909352999999999
#
# number of rings (size 3 to 8) (size 9 to 14) (size 15 to 20)
#    0.857    1.286    1.429    2.571    0.000    7.143 
#    0.000    0.000    0.000    0.000    0.000    1.000 
#    0.000    8.000    0.000    0.000    0.000    0.000 
#
# Total GULP energy -155969.477913 kJ/mol
# GULP energy per Si atom -5570.338497 kJ/mol
# Density = 1.487542 g / cm^3
# Si number density = 14.909353 Si / 1000 Ang^3
#
#
#
# Elastic Constant Matrix: (Units=GPa)
#
#
# Indices 1 2 3 4 5 6 
#
# 1 119.5884 61.4523 56.6763 0.0000 -4.0821 0.0000
# 2 61.4523 83.8006 64.8912 0.0000 -2.0584 0.0000
# 3 56.6763 64.8912 94.7686 0.0000 -7.1602 0.0000
# 4 0.0000 0.0000 0.0000 22.8936 0.0000 3.8992
# 5 -4.0821 -2.0584 -7.1602 0.0000 10.5613 0.0000
# 6 0.0000 0.0000 0.0000 3.8992 0.0000 25.7058
#
#
#
# Elastic Compliance Matrix: (Units=1/GPa)
#
#
# Indices 1 2 3 4 5 6 
#
# 1 0.013801 -0.008084 -0.002566 0.000000 0.002019 0.000000
# 2 -0.008084 0.030669 -0.016811 0.000000 -0.008544 0.000000
# 3 -0.002566 -0.016811 0.024531 0.000000 0.012363 0.000000
# 4 0.000000 0.000000 0.000000 0.044839 0.000000 -0.006801
# 5 0.002019 -0.008544 0.012363 0.000000 0.102183 0.000000
# 6 0.000000 0.000000 0.000000 -0.006801 0.000000 0.039933
#
#
# Mechanical properties :
#
#
# Convention : Reuss Voigt Hill
#
# Bulk Modulus (GPa) = 71.02231 73.79967 72.41099
# Shear Modulus (GPa) = 15.84427 19.50799 17.67613
#
# Velocity S-wave (km/s) = 3.26345 3.62116 3.44695
# Velocity P-wave (km/s) = 7.87018 8.19085 8.03212
#
# Compressibility (1/GPa) = 0.01408008
#
# Stress axis : x y z
#
# Youngs Moduli (GPa) = 72.45814 32.60605 40.76395
#
# Poissons Ratio (x) = 0.26360 0.10458
# Poissons Ratio (y) = 0.58577 0.68528
# Poissons Ratio (z) = 0.18590 0.54814
#
# Static dielectric constant tensor:
#      x y z
#    x 1.476470 0.000000 -0.007930 
#    y 0.000000 1.497120 0.000000 
#    z -0.007930 0.000000 1.490060 
# 
# From -- ./inp_files/287049.got.cif
#   From: 2010.05.17/outbox.cif.g08.bks.cpg/sg12_144_cif.got.tgz:287049.got - 2010.06.03 13:09:07.
