data_PCOD9192401
_publ_section_title
;
Structure prediction by ZEFSAII (Michael W. Deem and Ramdas Pophale) SiO2 
 PCOD9192401
Probable space group: C 2/M
;
_chemical_formula_sum "Si O2"
_cell_formula_units_Z 56
_cell_length_a 14.520877
_cell_length_b 21.489365
_cell_length_c 19.502772
_cell_angle_alpha 90.000000
_cell_angle_beta 151.396188
_cell_angle_gamma 90.000000
_cell_volume 2913.545505
_symmetry_space_group_name_H-M "C 2/M"
_symmetry_group_IT_number 12
_symmetry_cell_setting 'monoclinic'
loop_
_space_group_symop_operation_xyz
x,y,z
-x,y,-z
-x,-y,-z
x,-y,z
1/2+x,1/2+y,z
1/2-x,1/2+y,-z
1/2-x,1/2-y,-z
1/2+x,1/2-y,z
loop_
_atom_site_type_symbol
_atom_site_label
_atom_site_fract_x
_atom_site_fract_y
_atom_site_fract_z
Si Si1 0.247904 0.929204 0.470374
Si Si2 0.801628 0.737079 0.348954
Si Si3 0.813272 0.432222 0.272518
Si Si4 0.695061 0.804697 0.410058
Si Si5 0.983705 0.930714 0.170223
Si Si6 0.266655 0.198774 0.175281
Si Si7 0.612011 0.695985 0.935476
O O1 0.456168 0.926202 0.567648
O O2 0.249069 0.872024 0.523707
O O3 0.070325 0.921517 0.302490
O O4 0.238538 0.000000 0.492629
O O5 0.786393 0.792633 0.394688
O O6 0.799213 0.741547 0.264365
O O7 0.603103 0.702304 0.234463
O O8 0.000000 0.703828 0.500000
O O9 0.782304 0.500000 0.218384
O O10 0.675011 0.431402 0.247617
O O11 0.750396 0.372021 0.189941
O O12 0.750000 0.750000 0.500000
O O13 0.464180 0.800605 0.260178
O O14 0.843536 0.875359 0.054274
O O15 0.897502 0.000000 0.108740
O O16 0.106959 0.208790 0.013187
O O17 0.750000 0.750000 0.000000
#
# Coordination Sequence:
#
# PCOD9192401 Si02
#       7
#     8   8   8   8   8   8   8
#     4   9  19  34  56  87 124 159 198 253 309 360
#     4  12  24  39  61  87 119 164 207 255 301 358
#     4   9  18  31  53  84 123 161 195 233 292 372
#     4  11  21  36  60  91 119 159 207 254 296 362
#     4  10  20  33  55  85 120 165 205 240 297 376
#     4  11  23  37  57  85 124 165 199 247 302 357
#     4  12  25  40  58  87 130 167 204 253 305 365
#
# _framework density 19.220569000000001
#
# number of rings (size 3 to 8) (size 9 to 14) (size 15 to 20)
#    0.000    1.429    4.286    1.714    2.000    2.286 
#    0.000    1.429    0.000    0.429    0.000    1.000 
#    0.000    4.571    0.000    0.000    0.000    0.000 
#
# Total GULP energy -155912.996469 kJ/mol
# GULP energy per Si atom -5568.321302 kJ/mol
# Density = 1.917682 g / cm^3
# Si number density = 19.220569 Si / 1000 Ang^3
#
#
#
# Elastic Constant Matrix: (Units=GPa)
#
#
# Indices 1 2 3 4 5 6 
#
# 1 73.1777 59.7585 19.4829 -0.0011 -16.5779 0.0013
# 2 59.7585 144.1963 44.5006 0.0019 -16.9933 0.0008
# 3 19.4829 44.5006 79.1242 0.0003 -9.6924 -0.0001
# 4 -0.0011 0.0019 0.0003 22.5448 -0.0012 2.2754
# 5 -16.5779 -16.9933 -9.6924 -0.0012 28.0895 -0.0014
# 6 0.0013 0.0008 -0.0001 2.2754 -0.0014 28.0250
#
#
#
# Elastic Compliance Matrix: (Units=1/GPa)
#
#
# Indices 1 2 3 4 5 6 
#
# 1 0.022261 -0.008325 0.000202 0.000002 0.008171 -0.000001
# 2 -0.008325 0.011868 -0.004539 -0.000001 0.000701 0.000000
# 3 0.000202 -0.004539 0.015474 0.000000 0.002712 0.000000
# 4 0.000002 -0.000001 0.000000 0.044723 0.000002 -0.003631
# 5 0.008171 0.000701 0.002712 0.000002 0.041783 0.000002
# 6 -0.000001 0.000000 0.000000 -0.003631 0.000002 0.035977
#
#
# Mechanical properties :
#
#
# Convention : Reuss Voigt Hill
#
# Bulk Modulus (GPa) = 41.18898 60.44248 50.81573
# Shear Modulus (GPa) = 24.33044 27.24895 25.78970
#
# Velocity S-wave (km/s) = 3.56174 3.76932 3.66700
# Velocity P-wave (km/s) = 6.19604 7.10343 6.66519
#
# Compressibility (1/GPa) = 0.02427834
#
# Stress axis : x y z
#
# Youngs Moduli (GPa) = 44.92151 84.25723 64.62474
#
# Poissons Ratio (x) = 0.70142 -0.01302
# Poissons Ratio (y) = 0.37396 0.29335
# Poissons Ratio (z) = -0.00905 0.38247
#
# Static dielectric constant tensor:
#      x y z
#    x 1.767050 0.000000 0.021830 
#    y 0.000000 1.710920 0.000000 
#    z 0.021830 0.000000 1.756130 
# 
# From -- ./inp_files/272391.got.cif
#   From: 2010.05.17/outbox.cif.g08.bks.cpg/sg12_137_cif.got.tgz:272391.got - 2010.06.03 13:09:07.
