data_PCOD9192745
_publ_section_title
;
Structure prediction by ZEFSAII (Michael W. Deem and Ramdas Pophale) SiO2 
 PCOD9192745
Probable space group: C 2/M
;
_chemical_formula_sum "Si O2"
_cell_formula_units_Z 64
_cell_length_a 14.678513
_cell_length_b 8.007051
_cell_length_c 29.308685
_cell_angle_alpha 90.000000
_cell_angle_beta 88.987133
_cell_angle_gamma 90.000000
_cell_volume 3444.158475
_symmetry_space_group_name_H-M "C 2/M"
_symmetry_group_IT_number 12
_symmetry_cell_setting 'monoclinic'
loop_
_space_group_symop_operation_xyz
x,y,z
-x,y,-z
-x,-y,-z
x,-y,z
1/2+x,1/2+y,z
1/2-x,1/2+y,-z
1/2-x,1/2-y,-z
1/2+x,1/2-y,z
loop_
_atom_site_type_symbol
_atom_site_label
_atom_site_fract_x
_atom_site_fract_y
_atom_site_fract_z
Si Si1 0.748165 0.701889 0.803321
Si Si2 0.743939 0.295803 0.699373
Si Si3 0.757475 0.300651 0.052258
Si Si4 0.598817 0.700378 0.876934
Si Si5 0.748822 0.701136 0.552478
Si Si6 0.608268 0.200864 0.374699
Si Si7 0.392494 0.298529 0.874606
Si Si8 0.398873 0.299125 0.374292
O O1 0.744382 0.500000 0.802673
O O2 0.743719 0.762290 0.751418
O O3 0.664074 0.763027 0.835465
O O4 0.840023 0.752100 0.828777
O O5 0.743844 0.500000 0.700256
O O6 0.832840 0.243220 0.669709
O O7 0.656404 0.243151 0.670282
O O8 0.757242 0.500000 0.054847
O O9 0.848527 0.238972 0.076716
O O10 0.672068 0.237569 0.083440
O O11 0.750000 0.250000 0.000000
O O12 0.594460 0.500000 0.872443
O O13 0.495768 0.765069 0.876090
O O14 0.748737 0.500000 0.554220
O O15 0.750000 0.750000 0.500000
O O16 0.836535 0.759567 0.580904
O O17 0.659769 0.759652 0.581421
O O18 0.503594 0.250138 0.374434
O O19 0.612139 0.000000 0.374848
O O20 0.395588 0.500000 0.877444
O O21 0.394856 0.500000 0.374430
#
# Coordination Sequence:
#
# PCOD9192745 Si02
#       8
#     8   8   8   8   8   8   8   8
#     4   9  17  31  52  73  94 125 162 195 229 279
#     4   8  16  32  50  69  97 129 157 190 236 284
#     4  10  20  34  51  71  97 127 159 197 239 282
#     4   9  18  33  51  71  96 126 159 193 234 283
#     4   9  19  34  50  69  96 128 159 196 241 288
#     4   9  18  33  50  69  96 127 158 194 238 284
#     4   9  19  34  50  71 100 128 155 196 244 282
#     4   9  18  33  51  71  96 126 161 199 238 282
#
# _framework density 18.582187999999999
#
# number of rings (size 3 to 8) (size 9 to 14) (size 15 to 20)
#    0.000    3.000    0.000    1.875    0.000    4.000 
#    0.000    9.375    0.000    0.000    0.000    0.000 
#    0.000    0.000    0.000    0.000    0.000    0.000 
#
# Total GULP energy -178386.069360 kJ/mol
# GULP energy per Si atom -5574.564668 kJ/mol
# Density = 1.853989 g / cm^3
# Si number density = 18.582188 Si / 1000 Ang^3
#
#
#
# Elastic Constant Matrix: (Units=GPa)
#
#
# Indices 1 2 3 4 5 6 
#
# 1 190.4664 10.6494 102.4637 0.0000 19.1904 0.0000
# 2 10.6494 7.9568 4.8155 0.0000 -0.6505 0.0000
# 3 102.4637 4.8155 189.7892 0.0000 6.8101 0.0000
# 4 0.0000 0.0000 0.0000 22.3379 0.0000 4.0351
# 5 19.1904 -0.6505 6.8101 0.0000 10.1190 0.0000
# 6 0.0000 0.0000 0.0000 4.0351 0.0000 23.1145
#
#
#
# Elastic Compliance Matrix: (Units=1/GPa)
#
#
# Indices 1 2 3 4 5 6 
#
# 1 0.010047 -0.012087 -0.004515 0.000000 -0.016792 0.000000
# 2 -0.012087 0.143309 0.001779 0.000000 0.030938 0.000000
# 3 -0.004515 0.001779 0.007532 0.000000 0.003608 0.000000
# 4 0.000000 0.000000 0.000000 0.046225 0.000000 -0.008069
# 5 -0.016792 0.030938 0.003608 0.000000 0.130231 0.000000
# 6 0.000000 0.000000 0.000000 -0.008069 0.000000 0.044672
#
#
# Mechanical properties :
#
#
# Convention : Reuss Voigt Hill
#
# Bulk Modulus (GPa) = 7.61949 69.34107 38.48028
# Shear Modulus (GPa) = 10.97918 29.13318 20.05618
#
# Velocity S-wave (km/s) = 2.43337 3.96384 3.28887
# Velocity P-wave (km/s) = 3.46473 7.63847 5.93088
#
# Compressibility (1/GPa) = 0.13124238
#
# Stress axis : x y z
#
# Youngs Moduli (GPa) = 99.53437 6.97793 132.76887
#
# Poissons Ratio (x) = 0.08434 0.59943
# Poissons Ratio (y) = 1.20308 -0.23624
# Poissons Ratio (z) = 0.44938 -0.01242
#
# Static dielectric constant tensor:
#      x y z
#    x 1.636160 0.000000 -0.013160 
#    y 0.000000 1.670280 0.000000 
#    z -0.013160 0.000000 1.634910 
# 
# From -- ./inp_files/338695.got.cif
#   From: 2010.05.17/outbox.cif.g08.bks.cpg/sg12_170_cif.got.tgz:338695.got - 2010.06.03 13:09:07.
