data_PCOD9192731
_publ_section_title
;
Structure prediction by ZEFSAII (Michael W. Deem and Ramdas Pophale) SiO2 
 PCOD9192731
Probable space group: C 2/M
;
_chemical_formula_sum "Si O2"
_cell_formula_units_Z 64
_cell_length_a 22.555290
_cell_length_b 25.355050
_cell_length_c 19.839893
_cell_angle_alpha 90.000000
_cell_angle_beta 160.880867
_cell_angle_gamma 90.000000
_cell_volume 3716.275028
_symmetry_space_group_name_H-M "C 2/M"
_symmetry_group_IT_number 12
_symmetry_cell_setting 'monoclinic'
loop_
_space_group_symop_operation_xyz
x,y,z
-x,y,-z
-x,-y,-z
x,-y,z
1/2+x,1/2+y,z
1/2-x,1/2+y,-z
1/2-x,1/2-y,-z
1/2+x,1/2-y,z
loop_
_atom_site_type_symbol
_atom_site_label
_atom_site_fract_x
_atom_site_fract_y
_atom_site_fract_z
Si Si1 0.131391 0.870735 0.333723
Si Si2 0.582134 0.062756 0.419974
Si Si3 0.429562 0.695419 0.212086
Si Si4 0.293785 0.439407 0.929357
Si Si5 0.359417 0.765011 0.011775
Si Si6 0.208872 0.909504 0.217722
Si Si7 0.284542 0.213079 0.278756
Si Si8 0.267081 0.741118 0.625180
O O1 0.306914 0.907314 0.518366
O O2 0.186155 0.817229 0.352688
O O3 0.049207 0.854003 0.317388
O O4 0.967280 0.902045 0.121695
O O5 0.682980 0.077375 0.598503
O O6 0.589802 0.000000 0.420156
O O7 0.372358 0.078530 0.202193
O O8 0.273178 0.691120 0.099699
O O9 0.573584 0.738833 0.392512
O O10 0.345262 0.718014 0.052008
O O11 0.342337 0.500000 0.996948
O O12 0.220653 0.436633 0.774389
O O13 0.297675 0.742590 0.873748
O O14 0.571738 0.777084 0.231739
O O15 0.218502 0.847032 0.213895
O O16 0.000000 0.926084 0.000000
O O17 0.500000 0.211969 0.500000
O O18 0.234472 0.239803 0.295856
#
# Coordination Sequence:
#
# PCOD9192731 Si02
#       8
#     8   8   8   8   8   8   8   8
#     4  11  21  35  53  70  96 131 176 216 264 312
#     4  11  23  36  50  70  98 133 174 222 267 307
#     4  10  22  36  51  75 100 134 174 222 267 321
#     4  11  23  36  50  70  98 132 174 222 267 310
#     4  10  20  34  51  70 101 131 167 217 265 309
#     4  12  21  32  48  72  96 132 174 221 269 307
#     4  12  21  33  52  75 105 136 179 224 263 311
#     4  11  21  36  52  77 100 133 176 221 266 318
#
# _framework density 17.221544999999999
#
# number of rings (size 3 to 8) (size 9 to 14) (size 15 to 20)
#    0.000    1.000    3.750    6.000    0.000    5.500 
#    0.000    0.000    0.000    0.000    0.000    0.000 
#    0.000    0.000    0.000    9.000    0.000   63.000 
#
# Total GULP energy -178687.569021 kJ/mol
# GULP energy per Si atom -5583.986532 kJ/mol
# Density = 1.718235 g / cm^3
# Si number density = 17.221545 Si / 1000 Ang^3
#
#
#
# Elastic Constant Matrix: (Units=GPa)
#
#
# Indices 1 2 3 4 5 6 
#
# 1 98.8506 26.6760 19.9895 0.0000 19.0046 0.0001
# 2 26.6760 33.3446 9.1284 0.0000 5.7536 0.0001
# 3 19.9895 9.1284 56.9354 0.0005 16.0656 -0.0002
# 4 0.0000 0.0000 0.0005 15.9006 0.0001 9.1866
# 5 19.0046 5.7536 16.0656 0.0001 38.9569 0.0000
# 6 0.0001 0.0001 -0.0002 9.1866 0.0000 17.4481
#
#
#
# Elastic Compliance Matrix: (Units=1/GPa)
#
#
# Indices 1 2 3 4 5 6 
#
# 1 0.014087 -0.009917 -0.002071 0.000000 -0.004553 0.000000
# 2 -0.009917 0.038639 -0.002793 0.000000 0.000283 0.000000
# 3 -0.002071 -0.002793 0.020752 -0.000001 -0.007135 0.000001
# 4 0.000000 0.000000 -0.000001 0.090385 0.000000 -0.047589
# 5 -0.004553 0.000283 -0.007135 0.000000 0.030791 0.000000
# 6 0.000000 0.000000 0.000001 -0.047589 0.000000 0.082369
#
#
# Mechanical properties :
#
#
# Convention : Reuss Voigt Hill
#
# Bulk Modulus (GPa) = 22.77067 33.41315 28.09191
# Shear Modulus (GPa) = 15.56546 23.35024 19.45785
#
# Velocity S-wave (km/s) = 3.00965 3.68621 3.36498
# Velocity P-wave (km/s) = 5.03272 6.12875 5.60758
#
# Compressibility (1/GPa) = 0.04391613
#
# Stress axis : x y z
#
# Youngs Moduli (GPa) = 70.98931 25.88043 48.18807
#
# Poissons Ratio (x) = 0.25665 0.09979
# Poissons Ratio (y) = 0.70399 0.13460
# Poissons Ratio (z) = 0.14701 0.07229
#
# Static dielectric constant tensor:
#      x y z
#    x 1.621070 0.000000 0.036290 
#    y 0.000000 1.592270 0.000000 
#    z 0.036290 0.000000 1.631310 
# 
# From -- ./inp_files/286709.got.cif
#   From: 2010.05.17/outbox.cif.g08.bks.cpg/sg12_144_cif.got.tgz:286709.got - 2010.06.03 13:09:07.
