data_PCOD9192726
_publ_section_title
;
Structure prediction by ZEFSAII (Michael W. Deem and Ramdas Pophale) SiO2 
 PCOD9192726
Probable space group: C 2/M
;
_chemical_formula_sum "Si O2"
_cell_formula_units_Z 48
_cell_length_a 13.363898
_cell_length_b 21.486226
_cell_length_c 18.033257
_cell_angle_alpha 90.000000
_cell_angle_beta 32.602638
_cell_angle_gamma 90.000000
_cell_volume 2789.990770
_symmetry_space_group_name_H-M "C 2/M"
_symmetry_group_IT_number 12
_symmetry_cell_setting 'monoclinic'
loop_
_space_group_symop_operation_xyz
x,y,z
-x,y,-z
-x,-y,-z
x,-y,z
1/2+x,1/2+y,z
1/2-x,1/2+y,-z
1/2-x,1/2-y,-z
1/2+x,1/2-y,z
loop_
_atom_site_type_symbol
_atom_site_label
_atom_site_fract_x
_atom_site_fract_y
_atom_site_fract_z
Si Si1 0.465009 0.694403 0.864605
Si Si2 0.383370 0.929987 0.147965
Si Si3 0.077601 0.335523 0.135924
Si Si4 0.925552 0.163617 0.713997
Si Si5 0.380758 0.785527 0.644295
Si Si6 0.173263 0.679353 0.562795
O O1 0.439659 0.768506 0.893557
O O2 0.429210 0.676793 0.800289
O O3 0.682137 0.685749 0.747887
O O4 0.299219 0.660312 0.012799
O O5 0.502661 0.891326 0.133008
O O6 0.208387 0.889112 0.232819
O O7 0.339315 0.000000 0.201102
O O8 0.500000 0.934397 0.000000
O O9 0.940155 0.327622 0.291121
O O10 0.862979 0.227936 0.712625
O O11 0.134061 0.143968 0.561066
O O12 0.500000 0.760664 0.500000
O O13 0.523008 0.833664 0.593216
O O14 0.250000 0.750000 0.500000
#
# Coordination Sequence:
#
# PCOD9192726 Si02
#       6
#     8   8   8   8   8   8
#     4  11  20  32  54  84 113 148 188 235 298 337
#     4  11  24  40  59  83 116 161 196 235 284 340
#     4  11  21  35  53  82 115 144 194 239 282 345
#     4  11  20  35  54  81 115 149 191 232 283 347
#     4  11  19  31  54  83 118 150 179 224 296 356
#     4  10  20  34  50  81 116 150 178 232 301 340
#
# _framework density 17.204357999999999
#
# number of rings (size 3 to 8) (size 9 to 14) (size 15 to 20)
#    0.000    1.167    8.333    1.000    0.000    0.667 
#    0.000    1.667    0.000    0.000    0.000    7.000 
#    0.000    0.000    0.000    0.000    0.000    0.000 
#
# Total GULP energy -133651.858195 kJ/mol
# GULP energy per Si atom -5568.827425 kJ/mol
# Density = 1.716520 g / cm^3
# Si number density = 17.204358 Si / 1000 Ang^3
#
#
#
# Elastic Constant Matrix: (Units=GPa)
#
#
# Indices 1 2 3 4 5 6 
#
# 1 98.8378 38.2036 42.7772 0.0094 -31.3171 -0.0039
# 2 38.2036 67.5638 22.8320 0.0203 -10.7556 -0.0102
# 3 42.7772 22.8320 121.1482 0.0435 -21.3430 -0.0233
# 4 0.0094 0.0203 0.0435 11.9976 -0.0144 4.5321
# 5 -31.3171 -10.7556 -21.3430 -0.0144 42.7777 0.0055
# 6 -0.0039 -0.0102 -0.0233 4.5321 0.0055 6.1365
#
#
#
# Elastic Compliance Matrix: (Units=1/GPa)
#
#
# Indices 1 2 3 4 5 6 
#
# 1 0.017146 -0.007189 -0.003077 0.000040 0.009210 -0.000051
# 2 -0.007189 0.019118 -0.001255 -0.000045 -0.001083 0.000057
# 3 -0.003077 -0.001255 0.010004 -0.000057 0.002423 0.000074
# 4 0.000040 -0.000045 -0.000057 0.115602 0.000040 -0.085378
# 5 0.009210 -0.001083 0.002423 0.000040 0.031056 -0.000044
# 6 -0.000051 0.000057 0.000074 -0.085378 -0.000044 0.226015
#
#
# Mechanical properties :
#
#
# Convention : Reuss Voigt Hill
#
# Bulk Modulus (GPa) = 43.05603 55.01949 49.03776
# Shear Modulus (GPa) = 11.11788 24.43149 17.77469
#
# Velocity S-wave (km/s) = 2.54485 3.77248 3.21775
# Velocity P-wave (km/s) = 5.80651 7.14317 6.50924
#
# Compressibility (1/GPa) = 0.02322555
#
# Stress axis : x y z
#
# Youngs Moduli (GPa) = 58.32135 52.30707 99.95699
#
# Poissons Ratio (x) = 0.37606 0.30756
# Poissons Ratio (y) = 0.41930 0.12546
# Poissons Ratio (z) = 0.17945 0.06565
#
# Static dielectric constant tensor:
#      x y z
#    x 1.644960 0.000000 -0.011420 
#    y 0.000000 1.567640 0.000000 
#    z -0.011420 0.000000 1.677960 
# 
# From -- ./inp_files/207913.got.cif
#   From: 2010.05.17/outbox.cif.g08.bks.cpg/sg12_104_cif.got.tgz:207913.got - 2010.06.03 13:09:07.
