data_PCOD9192500
_publ_section_title
;
Structure prediction by ZEFSAII (Michael W. Deem and Ramdas Pophale) SiO2 
 PCOD9192500
Probable space group: C 2/M
;
_chemical_formula_sum "Si O2"
_cell_formula_units_Z 48
_cell_length_a 18.753875
_cell_length_b 16.337425
_cell_length_c 16.859648
_cell_angle_alpha 90.000000
_cell_angle_beta 25.181812
_cell_angle_gamma 90.000000
_cell_volume 2197.933600
_symmetry_space_group_name_H-M "C 2/M"
_symmetry_group_IT_number 12
_symmetry_cell_setting 'monoclinic'
loop_
_space_group_symop_operation_xyz
x,y,z
-x,y,-z
-x,-y,-z
x,-y,z
1/2+x,1/2+y,z
1/2-x,1/2+y,-z
1/2-x,1/2-y,-z
1/2+x,1/2-y,z
loop_
_atom_site_type_symbol
_atom_site_label
_atom_site_fract_x
_atom_site_fract_y
_atom_site_fract_z
Si Si1 0.352101 0.153520 0.315471
Si Si2 0.304322 0.406994 0.682570
Si Si3 0.297624 0.907982 0.048713
Si Si4 0.474671 0.685629 0.115540
Si Si5 0.671474 0.098218 0.490306
Si Si6 0.280460 0.099252 0.890542
O O1 0.231904 0.138695 0.362378
O O2 0.441697 0.239232 0.208135
O O3 0.277452 0.139501 0.477067
O O4 0.502857 0.088643 0.159767
O O5 0.500000 0.411969 0.500000
O O6 0.234856 0.500000 0.745240
O O7 0.235589 0.367511 0.832965
O O8 0.224890 0.000000 0.127446
O O9 0.242289 0.872628 0.019938
O O10 0.306558 0.630415 0.291564
O O11 0.500000 0.713994 0.000000
O O12 0.639222 0.636713 0.977218
O O13 0.474825 0.120245 0.674482
O O14 0.681661 0.000000 0.486187
O O15 0.270974 0.000000 0.899677
#
# Coordination Sequence:
#
# PCOD9192500 Si02
#       6
#     8   8   8   8   8   8
#     4  11  22  41  60  91 130 166 205 257 320 389
#     4  10  20  33  56  92 126 166 213 257 308 374
#     4   9  18  35  60  87 119 165 211 257 314 371
#     4  12  26  42  63  96 132 170 213 261 328 384
#     4  10  23  44  70  96 123 167 220 268 318 373
#     4   9  21  42  66  91 121 165 221 271 314 372
#
# _framework density 21.838694
#
# number of rings (size 3 to 8) (size 9 to 14) (size 15 to 20)
#    0.000    1.833    0.000    5.000    2.333    6.000 
#    6.000    1.667    0.000    0.000    0.000    0.000 
#    0.000    0.000    0.000    0.000    0.000    0.000 
#
# Total GULP energy -133932.446826 kJ/mol
# GULP energy per Si atom -5580.518618 kJ/mol
# Density = 2.178899 g / cm^3
# Si number density = 21.838694 Si / 1000 Ang^3
#
#
#
# Elastic Constant Matrix: (Units=GPa)
#
#
# Indices 1 2 3 4 5 6 
#
# 1 61.3065 10.7562 13.0684 0.0119 -15.5382 -0.0025
# 2 10.7562 64.3251 23.2885 0.0019 -5.5028 -0.0010
# 3 13.0684 23.2885 82.2842 0.0050 9.6598 -0.0010
# 4 0.0119 0.0019 0.0050 0.6333 -0.0044 13.8339
# 5 -15.5382 -5.5028 9.6598 -0.0044 24.6320 0.0017
# 6 -0.0025 -0.0010 -0.0010 13.8339 0.0017 3.0801
#
#
#
# Elastic Compliance Matrix: (Units=1/GPa)
#
#
# Indices 1 2 3 4 5 6 
#
# 1 0.021365 -0.000418 -0.005080 0.000004 0.015376 -0.000012
# 2 -0.000418 0.018241 -0.005811 0.000000 0.006090 0.000002
# 3 -0.005080 -0.005811 0.015863 0.000002 -0.010724 -0.000004
# 4 0.000004 0.000000 0.000002 -0.016260 -0.000006 0.073031
# 5 0.015376 0.006090 -0.010724 -0.000006 0.055863 0.000008
# 6 -0.000012 0.000002 -0.000004 0.073031 0.000008 -0.003343
#
#
# Mechanical properties :
#
#
# Convention : Reuss Voigt Hill
#
# Bulk Modulus (GPa) = 30.44071 33.57136 32.00603
# Shear Modulus (GPa) = 39.90505 16.38924 28.14715
#
# Velocity S-wave (km/s) = 4.27929 2.74244 3.59397
# Velocity P-wave (km/s) = 6.19561 5.04319 5.64886
#
# Compressibility (1/GPa) = 0.03285075
#
# Stress axis : x y z
#
# Youngs Moduli (GPa) = 46.80607 54.82197 63.03799
#
# Poissons Ratio (x) = 0.02292 0.32023
# Poissons Ratio (y) = 0.01957 0.36633
# Poissons Ratio (z) = 0.23777 0.31858
#
# Static dielectric constant tensor:
#      x y z
#    x 1.797330 0.000000 0.038300 
#    y 0.000000 1.839640 0.000000 
#    z 0.038300 0.000000 1.823030 
# 
# From -- ./inp_files/226743.got.cif
#   From: 2010.05.17/outbox.cif.g08.bks.cpg/sg12_114_cif.got.tgz:226743.got - 2010.06.03 13:09:07.
