data_PCOD9192744
_publ_section_title
;
Structure prediction by ZEFSAII (Michael W. Deem and Ramdas Pophale) SiO2 
 PCOD9192744
Probable space group: C 2/M
;
_chemical_formula_sum "Si O2"
_cell_formula_units_Z 48
_cell_length_a 14.704684
_cell_length_b 7.743705
_cell_length_c 23.180719
_cell_angle_alpha 90.000000
_cell_angle_beta 71.014602
_cell_angle_gamma 90.000000
_cell_volume 2495.971135
_symmetry_space_group_name_H-M "C 2/M"
_symmetry_group_IT_number 12
_symmetry_cell_setting 'monoclinic'
loop_
_space_group_symop_operation_xyz
x,y,z
-x,y,-z
-x,-y,-z
x,-y,z
1/2+x,1/2+y,z
1/2-x,1/2+y,-z
1/2-x,1/2-y,-z
1/2+x,1/2-y,z
loop_
_atom_site_type_symbol
_atom_site_label
_atom_site_fract_x
_atom_site_fract_y
_atom_site_fract_z
Si Si1 0.779642 0.294087 0.429296
Si Si2 0.184252 0.295417 0.332715
Si Si3 0.050463 0.788636 0.901301
Si Si4 0.521274 0.206675 0.664295
Si Si5 0.617001 0.709039 0.762185
Si Si6 0.144462 0.793066 0.999754
O O1 0.781490 0.500000 0.423268
O O2 0.750000 0.250000 0.500000
O O3 0.706484 0.227732 0.395696
O O4 0.885899 0.226341 0.390110
O O5 0.181976 0.500000 0.321222
O O6 0.277627 0.226036 0.279371
O O7 0.081421 0.222948 0.334876
O O8 0.085086 0.729321 0.831671
O O9 0.118934 0.733281 0.940155
O O10 0.051116 0.000000 0.899964
O O11 0.942463 0.733124 0.940835
O O12 0.543702 0.240916 0.726603
O O13 0.519368 0.000000 0.655955
O O14 0.620393 0.500000 0.762795
O O15 0.137368 0.000000 0.999757
O O16 0.250000 0.750000 0.000000
#
# Coordination Sequence:
#
# PCOD9192744 Si02
#       6
#     8   8   8   8   8   8
#     4  10  20  34  51  71  97 126 157 193 233 277
#     4   9  18  33  51  70  94 124 157 192 233 282
#     4   8  16  31  48  67  95 129 157 188 237 288
#     4   9  19  34  50  71  99 126 152 192 242 279
#     4   9  17  31  51  71  92 123 162 195 227 280
#     4   9  17  31  49  68  94 126 160 196 235 280
#
# _framework density 19.230992000000001
#
# number of rings (size 3 to 8) (size 9 to 14) (size 15 to 20)
#    0.000    3.000    0.000    1.500    0.000    3.333 
#    0.000    8.333    0.000    0.000    0.000    0.000 
#    0.000    0.000    0.000    0.000    0.000    0.000 
#
# Total GULP energy -133808.961152 kJ/mol
# GULP energy per Si atom -5575.373381 kJ/mol
# Density = 1.918722 g / cm^3
# Si number density = 19.230992 Si / 1000 Ang^3
#
#
#
# Elastic Constant Matrix: (Units=GPa)
#
#
# Indices 1 2 3 4 5 6 
#
# 1 205.3724 0.4881 100.2935 0.0000 11.2038 0.0000
# 2 0.4881 19.3273 -13.1911 0.0000 -4.7413 0.0000
# 3 100.2935 -13.1911 175.7850 0.0000 7.8085 0.0000
# 4 0.0000 0.0000 0.0000 15.0631 0.0000 4.3742
# 5 11.2038 -4.7413 7.8085 0.0000 7.4464 0.0000
# 6 0.0000 0.0000 0.0000 4.3742 0.0000 16.9343
#
#
#
# Elastic Compliance Matrix: (Units=1/GPa)
#
#
# Indices 1 2 3 4 5 6 
#
# 1 0.007534 -0.005667 -0.004258 0.000000 -0.010478 0.000000
# 2 -0.005667 0.067135 0.006286 0.000000 0.044681 0.000000
# 3 -0.004258 0.006286 0.008525 0.000000 0.001470 0.000000
# 4 0.000000 0.000000 0.000000 0.071771 0.000000 -0.018539
# 5 -0.010478 0.044681 0.001470 0.000000 0.176965 0.000000
# 6 0.000000 0.000000 0.000000 -0.018539 0.000000 0.063840
#
#
# Mechanical properties :
#
#
# Convention : Reuss Voigt Hill
#
# Bulk Modulus (GPa) = 13.17248 63.96285 38.56766
# Shear Modulus (GPa) = 11.67262 28.74838 20.21050
#
# Velocity S-wave (km/s) = 2.46635 3.87059 3.24533
# Velocity P-wave (km/s) = 3.86975 7.30122 5.84306
#
# Compressibility (1/GPa) = 0.07591588
#
# Stress axis : x y z
#
# Youngs Moduli (GPa) = 132.73544 14.89537 117.30641
#
# Poissons Ratio (x) = 0.08441 0.49951
# Poissons Ratio (y) = 0.75222 -0.73744
# Poissons Ratio (z) = 0.56521 -0.09364
#
# Static dielectric constant tensor:
#      x y z
#    x 1.670220 0.000000 -0.024550 
#    y 0.000000 1.708180 0.000000 
#    z -0.024550 0.000000 1.624580 
# 
# From -- ./inp_files/308264.got.cif
#   From: 2010.05.17/outbox.cif.g08.bks.cpg/sg12_155_cif.got.tgz:308264.got - 2010.06.03 13:09:07.
