data_PCOD9192902
_publ_section_title
;
Structure prediction by ZEFSAII (Michael W. Deem and Ramdas Pophale) SiO2 
 PCOD9192902
Probable space group: C 2/M
;
_chemical_formula_sum "Si O2"
_cell_formula_units_Z 56
_cell_length_a 19.438715
_cell_length_b 7.453417
_cell_length_c 19.749699
_cell_angle_alpha 90.000000
_cell_angle_beta 120.389921
_cell_angle_gamma 90.000000
_cell_volume 2468.279025
_symmetry_space_group_name_H-M "C 2/M"
_symmetry_group_IT_number 12
_symmetry_cell_setting 'monoclinic'
loop_
_space_group_symop_operation_xyz
x,y,z
-x,y,-z
-x,-y,-z
x,-y,z
1/2+x,1/2+y,z
1/2-x,1/2+y,-z
1/2-x,1/2-y,-z
1/2+x,1/2-y,z
loop_
_atom_site_type_symbol
_atom_site_label
_atom_site_fract_x
_atom_site_fract_y
_atom_site_fract_z
Si Si1 0.572109 0.717371 0.082891
Si Si2 0.328409 0.287369 0.494749
Si Si3 0.932642 0.710707 0.760897
Si Si4 0.256338 0.218401 0.679522
Si Si5 0.747270 0.294027 0.164775
Si Si6 0.918611 0.721641 0.251006
Si Si7 0.003301 0.706040 0.576527
O O1 0.574588 0.500000 0.081447
O O2 0.558624 0.767262 0.154207
O O3 0.660310 0.784867 0.105842
O O4 0.500000 0.779367 0.000000
O O5 0.339505 0.500000 0.499185
O O6 0.250000 0.250000 0.500000
O O7 0.307686 0.225585 0.408042
O O8 0.412551 0.207768 0.559431
O O9 0.930441 0.500000 0.744058
O O10 0.844443 0.779653 0.699144
O O11 0.008797 0.783396 0.759717
O O12 0.246069 0.289586 0.749945
O O13 0.256214 0.000000 0.683111
O O14 0.744991 0.500000 0.140457
O O15 0.831671 0.216309 0.183619
O O16 0.917040 0.500000 0.250684
O O17 0.939381 0.783118 0.337579
O O18 0.028426 0.500000 0.580117
O O19 0.000000 0.789802 0.500000
#
# Coordination Sequence:
#
# PCOD9192902 Si02
#       7
#     8   8   8   8   8   8   8
#     4   9  18  33  52  75 102 126 152 194 244 291
#     4  11  22  34  49  70  98 131 169 214 260 302
#     4   9  17  31  51  71  94 126 162 198 237 285
#     4   9  18  32  48  67  93 124 158 202 249 286
#     4   9  17  31  53  74  92 124 165 195 230 290
#     4   9  17  31  50  72  98 128 165 207 245 284
#     4  10  20  34  52  73 100 135 173 214 259 303
#
# _framework density 22.687873
#
# number of rings (size 3 to 8) (size 9 to 14) (size 15 to 20)
#    0.000    2.571    0.000    2.143    0.000    5.143 
#    0.000    5.714    0.000    0.000    0.000    0.000 
#    0.000    0.000    0.000    0.000    0.000    0.000 
#
# Total GULP energy -156372.955455 kJ/mol
# GULP energy per Si atom -5584.748409 kJ/mol
# Density = 2.263623 g / cm^3
# Si number density = 22.687873 Si / 1000 Ang^3
#
#
#
# Elastic Constant Matrix: (Units=GPa)
#
#
# Indices 1 2 3 4 5 6 
#
# 1 112.1249 -0.4856 20.0080 0.0000 32.2048 0.0000
# 2 -0.4856 78.0324 -5.9560 -0.0001 3.5673 0.0000
# 3 20.0080 -5.9560 85.1113 0.0000 36.6487 0.0000
# 4 0.0000 -0.0001 0.0000 68.7580 0.0000 -12.4511
# 5 32.2048 3.5673 36.6487 0.0000 34.5437 0.0000
# 6 0.0000 0.0000 0.0000 -12.4511 0.0000 15.0740
#
#
#
# Elastic Compliance Matrix: (Units=1/GPa)
#
#
# Indices 1 2 3 4 5 6 
#
# 1 0.012961 0.001165 0.004215 0.000000 -0.016676 0.000000
# 2 0.001165 0.013330 0.003165 0.000000 -0.005821 0.000000
# 3 0.004215 0.003165 0.023589 0.000000 -0.029284 0.000000
# 4 0.000000 0.000000 0.000000 0.017102 0.000000 0.014126
# 5 -0.016676 -0.005821 -0.029284 0.000000 0.076165 0.000000
# 6 0.000000 0.000000 0.000000 0.014126 0.000000 0.078007
#
#
# Mechanical properties :
#
#
# Convention : Reuss Voigt Hill
#
# Bulk Modulus (GPa) = 14.93170 33.60015 24.26592
# Shear Modulus (GPa) = 22.08600 41.12196 31.60398
#
# Velocity S-wave (km/s) = 3.12344 4.26198 3.73633
# Velocity P-wave (km/s) = 4.42758 6.24989 5.41593
#
# Compressibility (1/GPa) = 0.06697163
#
# Stress axis : x y z
#
# Youngs Moduli (GPa) = 77.15323 75.01789 42.39204
#
# Poissons Ratio (x) = -0.08738 -0.17869
# Poissons Ratio (y) = -0.08986 -0.13419
# Poissons Ratio (z) = -0.32522 -0.23747
#
# Static dielectric constant tensor:
#      x y z
#    x 1.886740 0.000000 0.025350 
#    y 0.000000 1.854520 0.000000 
#    z 0.025350 0.000000 1.806120 
# 
# From -- ./inp_files/320237.got.cif
#   From: 2010.05.17/outbox.cif.g08.bks.cpg/sg12_161_cif.got.tgz:320237.got - 2010.06.03 13:09:07.
