data_PCOD9192749
_publ_section_title
;
Structure prediction by ZEFSAII (Michael W. Deem and Ramdas Pophale) SiO2 
 PCOD9192749
Probable space group: C 2/M
;
_chemical_formula_sum "Si O2"
_cell_formula_units_Z 56
_cell_length_a 19.604877
_cell_length_b 8.240647
_cell_length_c 26.466766
_cell_angle_alpha 90.000000
_cell_angle_beta 40.231791
_cell_angle_gamma 90.000000
_cell_volume 2761.716402
_symmetry_space_group_name_H-M "C 2/M"
_symmetry_group_IT_number 12
_symmetry_cell_setting 'monoclinic'
loop_
_space_group_symop_operation_xyz
x,y,z
-x,y,-z
-x,-y,-z
x,-y,z
1/2+x,1/2+y,z
1/2-x,1/2+y,-z
1/2-x,1/2-y,-z
1/2+x,1/2-y,z
loop_
_atom_site_type_symbol
_atom_site_label
_atom_site_fract_x
_atom_site_fract_y
_atom_site_fract_z
Si Si1 0.836553 0.307818 0.813608
Si Si2 0.427091 0.191490 0.497877
Si Si3 0.172799 0.306239 0.765993
Si Si4 0.891306 0.196071 0.086215
Si Si5 0.964899 0.806869 0.250565
Si Si6 0.284979 0.696712 0.424749
Si Si7 0.098775 0.808887 0.331985
O O1 0.840183 0.500000 0.802318
O O2 0.713171 0.261663 0.887395
O O3 0.877770 0.219296 0.739937
O O4 0.918191 0.266197 0.811657
O O5 0.500000 0.266388 0.500000
O O6 0.309963 0.256913 0.557664
O O7 0.495009 0.217179 0.409003
O O8 0.415810 0.000000 0.514262
O O9 0.174446 0.500000 0.760045
O O10 0.126790 0.261139 0.847044
O O11 0.101924 0.234424 0.761527
O O12 0.295743 0.250168 0.698028
O O13 0.895948 0.000000 0.086890
O O14 0.000000 0.254173 0.000000
O O15 0.894661 0.747895 0.338276
O O16 0.974800 0.000000 0.248412
O O17 0.287000 0.500000 0.423628
O O18 0.250000 0.750000 0.500000
O O19 0.083779 0.000000 0.349408
#
# Coordination Sequence:
#
# PCOD9192749 Si02
#       7
#     8   8   8   8   8   8   8
#     4  10  20  35  57  82 108 139 175 216 264 319
#     4  10  20  34  51  71  97 133 180 229 275 319
#     4  10  21  36  56  83 113 145 181 223 271 321
#     4   9  19  38  63  88 113 142 176 215 263 322
#     4  11  22  37  56  79 110 146 186 228 271 322
#     4  10  22  36  51  73 102 140 182 227 275 320
#     4  10  20  34  52  76 105 138 180 225 269 321
#
# _framework density 20.277244
#
# number of rings (size 3 to 8) (size 9 to 14) (size 15 to 20)
#    0.000    2.000    0.000    3.429    0.000    8.000 
#    0.000    0.714    0.000    0.000    0.000    0.000 
#    0.000    0.000    0.000    0.000    0.000    0.000 
#
# Total GULP energy -156334.241869 kJ/mol
# GULP energy per Si atom -5583.365781 kJ/mol
# Density = 2.023109 g / cm^3
# Si number density = 20.277244 Si / 1000 Ang^3
#
#
#
# Elastic Constant Matrix: (Units=GPa)
#
#
# Indices 1 2 3 4 5 6 
#
# 1 107.7617 9.8974 26.0274 -0.0001 -27.6782 0.0004
# 2 9.8974 18.4794 4.8542 -0.0003 -7.1169 0.0006
# 3 26.0274 4.8542 83.3509 0.0001 -25.7867 -0.0001
# 4 -0.0001 -0.0003 0.0001 17.5927 -0.0001 3.5207
# 5 -27.6782 -7.1169 -25.7867 -0.0001 29.6279 -0.0002
# 6 0.0004 0.0006 -0.0001 3.5207 -0.0002 28.6905
#
#
#
# Elastic Compliance Matrix: (Units=1/GPa)
#
#
# Indices 1 2 3 4 5 6 
#
# 1 0.012316 -0.002422 -0.000445 0.000000 0.010536 0.000000
# 2 -0.002422 0.060212 0.001402 0.000001 0.013421 -0.000001
# 3 -0.000445 0.001402 0.016463 0.000000 0.014250 0.000000
# 4 0.000000 0.000001 0.000000 0.058273 0.000001 -0.007151
# 5 0.010536 0.013421 0.014250 0.000001 0.059221 0.000000
# 6 0.000000 -0.000001 0.000000 -0.007151 0.000000 0.035732
#
#
# Mechanical properties :
#
#
# Convention : Reuss Voigt Hill
#
# Bulk Modulus (GPa) = 11.61961 32.35000 21.98480
# Shear Modulus (GPa) = 18.25922 26.43640 22.34781
#
# Velocity S-wave (km/s) = 3.00405 3.61466 3.32341
# Velocity P-wave (km/s) = 4.21607 5.78010 5.05889
#
# Compressibility (1/GPa) = 0.08606144
#
# Stress axis : x y z
#
# Youngs Moduli (GPa) = 81.19609 16.60803 60.74098
#
# Poissons Ratio (x) = 0.04022 0.02704
# Poissons Ratio (y) = 0.19662 -0.08515
# Poissons Ratio (z) = 0.03614 -0.02328
#
# Static dielectric constant tensor:
#      x y z
#    x 1.769680 0.000000 -0.017360 
#    y 0.000000 1.705520 0.000000 
#    z -0.017360 0.000000 1.712410 
# 
# From -- ./inp_files/342335.got.cif
#   From: 2010.05.17/outbox.cif.g08.bks.cpg/sg12_172_cif.got.tgz:342335.got - 2010.06.03 13:09:07.
