data_PCOD9192067
_publ_section_title
;
Structure prediction by ZEFSAII (Michael W. Deem and Ramdas Pophale) SiO2 
 PCOD9192067
Probable space group: C 2/M
;
_chemical_formula_sum "Si O2"
_cell_formula_units_Z 32
_cell_length_a 9.114664
_cell_length_b 13.460850
_cell_length_c 23.179845
_cell_angle_alpha 90.000000
_cell_angle_beta 30.529195
_cell_angle_gamma 90.000000
_cell_volume 1444.667873
_symmetry_space_group_name_H-M "C 2/M"
_symmetry_group_IT_number 12
_symmetry_cell_setting 'monoclinic'
loop_
_space_group_symop_operation_xyz
x,y,z
-x,y,-z
-x,-y,-z
x,-y,z
1/2+x,1/2+y,z
1/2-x,1/2+y,-z
1/2-x,1/2-y,-z
1/2+x,1/2-y,z
loop_
_atom_site_type_symbol
_atom_site_label
_atom_site_fract_x
_atom_site_fract_y
_atom_site_fract_z
Si Si1 0.241963 0.385751 0.961992
Si Si2 0.725066 0.615945 0.635151
Si Si3 0.161544 0.609787 0.119439
Si Si4 0.745988 0.233393 0.260579
O O1 0.310628 0.500000 0.924286
O O2 0.536673 0.324081 0.856942
O O3 0.090922 0.386614 0.075199
O O4 0.000000 0.348495 0.000000
O O5 0.616307 0.500000 0.675457
O O6 0.498927 0.696076 0.684255
O O7 0.824068 0.655257 0.664929
O O8 0.000000 0.615164 0.500000
O O9 0.119152 0.500000 0.157552
O O10 0.963599 0.687952 0.217007
O O11 0.500000 0.627736 0.000000
#
# Coordination Sequence:
#
# PCOD9192067 Si02
#       4
#     8   8   8   8
#     4  10  20  34  56  91 131 167 203 244 298 370
#     4  11  26  46  66  92 124 160 213 275 325 372
#     4  10  20  33  52  86 128 162 198 245 298 367
#     4  12  21  39  67  91 123 170 211 255 315 374
#
# _framework density 22.15042
#
# number of rings (size 3 to 8) (size 9 to 14) (size 15 to 20)
#    0.000    1.250    0.000    6.750    0.000    2.000 
#    0.000    3.750    0.000    9.000    0.000    0.000 
#    0.000    0.000    0.000    0.000    0.000    0.000 
#
# Total GULP energy -89294.029670 kJ/mol
# GULP energy per Si atom -5580.876854 kJ/mol
# Density = 2.210000 g / cm^3
# Si number density = 22.150420 Si / 1000 Ang^3
#
#
#
# Elastic Constant Matrix: (Units=GPa)
#
#
# Indices 1 2 3 4 5 6 
#
# 1 69.3535 17.8183 11.8257 0.0348 -1.9228 0.0067
# 2 17.8183 172.3565 43.6078 0.0144 1.9358 0.0031
# 3 11.8257 43.6078 77.9169 0.0300 2.7367 0.0140
# 4 0.0348 0.0144 0.0300 31.5054 -0.0335 -7.8690
# 5 -1.9228 1.9358 2.7367 -0.0335 21.8804 -0.0085
# 6 0.0067 0.0031 0.0140 -7.8690 -0.0085 29.3612
#
#
#
# Elastic Compliance Matrix: (Units=1/GPa)
#
#
# Indices 1 2 3 4 5 6 
#
# 1 0.015048 -0.001144 -0.001701 -0.000014 0.001636 -0.000006
# 2 -0.001144 0.006846 -0.003649 0.000002 -0.000250 0.000002
# 3 -0.001701 -0.003649 0.015195 -0.000016 -0.001727 -0.000011
# 4 -0.000014 0.000002 -0.000016 0.034018 0.000056 0.009117
# 5 0.001636 -0.000250 -0.001727 0.000056 0.046085 0.000029
# 6 -0.000006 0.000002 -0.000011 0.009117 0.000029 0.036502
#
#
# Mechanical properties :
#
#
# Convention : Reuss Voigt Hill
#
# Bulk Modulus (GPa) = 41.49133 51.79228 46.64181
# Shear Modulus (GPa) = 28.61769 32.97441 30.79605
#
# Velocity S-wave (km/s) = 3.59830 3.86250 3.73274
# Velocity P-wave (km/s) = 6.00300 6.58215 6.29923
#
# Compressibility (1/GPa) = 0.02410142
#
# Stress axis : x y z
#
# Youngs Moduli (GPa) = 66.45326 146.06491 65.80903
#
# Poissons Ratio (x) = 0.16704 0.11196
# Poissons Ratio (y) = 0.07600 0.24016
# Poissons Ratio (z) = 0.11306 0.53304
#
# Static dielectric constant tensor:
#      x y z
#    x 1.960910 -0.000010 -0.019120 
#    y -0.000010 1.907470 -0.000010 
#    z -0.019120 -0.000010 1.770490 
# 
# From -- ./inp_files/117451.got.cif
#   From: 2010.05.17/outbox.cif.g08.bks.cpg/sg12_59_cif.got.tgz:117451.got - 2010.06.03 13:09:07.
