data_PCOD9192073
_publ_section_title
;
Structure prediction by ZEFSAII (Michael W. Deem and Ramdas Pophale) SiO2 
 PCOD9192073
Probable space group: C 2/M
;
_chemical_formula_sum "Si O2"
_cell_formula_units_Z 56
_cell_length_a 25.874044
_cell_length_b 8.659186
_cell_length_c 15.453036
_cell_angle_alpha 90.000000
_cell_angle_beta 74.489586
_cell_angle_gamma 90.000000
_cell_volume 3336.136522
_symmetry_space_group_name_H-M "C 2/M"
_symmetry_group_IT_number 12
_symmetry_cell_setting 'monoclinic'
loop_
_space_group_symop_operation_xyz
x,y,z
-x,y,-z
-x,-y,-z
x,-y,z
1/2+x,1/2+y,z
1/2-x,1/2+y,-z
1/2-x,1/2-y,-z
1/2+x,1/2-y,z
loop_
_atom_site_type_symbol
_atom_site_label
_atom_site_fract_x
_atom_site_fract_y
_atom_site_fract_z
Si Si1 0.711861 0.184550 0.895800
Si Si2 0.819108 0.685273 0.612600
Si Si3 0.898307 0.185164 0.724223
Si Si4 0.326296 0.184462 0.899884
Si Si5 0.990474 0.187994 0.405050
Si Si6 0.129644 0.812888 0.584045
Si Si7 0.197926 0.186121 0.718710
O O1 0.770757 0.258472 0.881505
O O2 0.687537 0.242176 0.817047
O O3 0.717871 0.000000 0.892129
O O4 0.678417 0.227130 0.996822
O O5 0.822055 0.500000 0.612449
O O6 0.859261 0.751607 0.666713
O O7 0.837050 0.747310 0.511442
O O8 0.758140 0.730746 0.662411
O O9 0.875075 0.243122 0.825383
O O10 0.958790 0.236303 0.675071
O O11 0.896514 0.000000 0.722409
O O12 0.328606 0.000000 0.891583
O O13 0.000000 0.237818 0.500000
O O14 0.932155 0.237432 0.398353
O O15 0.990150 0.000000 0.405848
O O16 0.156587 0.767058 0.662430
O O17 0.131245 0.000000 0.578055
O O18 0.196683 0.000000 0.726728
#
# Coordination Sequence:
#
# PCOD9192073 Si02
#       7
#     8   8   8   8   8   8   8
#     4  10  20  33  53  76 103 138 169 203 253 309
#     4  11  21  32  47  75 109 138 168 210 255 305
#     4  11  20  32  54  78 101 136 172 209 259 306
#     4  10  20  34  51  77 107 132 166 212 256 302
#     4   9  17  32  53  75  99 130 176 221 250 291
#     4  10  20  36  54  72 100 141 179 213 253 298
#     4  10  21  34  51  75 106 139 171 211 256 301
#
# _framework density 16.785883999999999
#
# number of rings (size 3 to 8) (size 9 to 14) (size 15 to 20)
#    0.000    1.857    2.857    2.143    0.000    2.857 
#    0.000    2.143    0.000    0.857    0.000    6.000 
#    0.000    0.000    0.000    0.000    0.000    0.000 
#
# Total GULP energy -156305.593914 kJ/mol
# GULP energy per Si atom -5582.342640 kJ/mol
# Density = 1.674768 g / cm^3
# Si number density = 16.785884 Si / 1000 Ang^3
#
#
#
# Elastic Constant Matrix: (Units=GPa)
#
#
# Indices 1 2 3 4 5 6 
#
# 1 101.0792 25.9557 74.5229 0.0000 8.8812 0.0000
# 2 25.9557 24.9965 33.3617 0.0000 1.3121 0.0000
# 3 74.5229 33.3617 153.8701 0.0000 0.5856 0.0000
# 4 0.0000 0.0000 0.0000 31.2318 0.0000 0.7224
# 5 8.8812 1.3121 0.5856 0.0000 24.6231 0.0000
# 6 0.0000 0.0000 0.0000 0.7224 0.0000 16.5700
#
#
#
# Elastic Compliance Matrix: (Units=1/GPa)
#
#
# Indices 1 2 3 4 5 6 
#
# 1 0.017541 -0.009296 -0.006458 0.000000 -0.005678 0.000000
# 2 -0.009296 0.061405 -0.008812 0.000000 0.000291 0.000000
# 3 -0.006458 -0.008812 0.011528 0.000000 0.002525 0.000000
# 4 0.000000 0.000000 0.000000 0.032051 0.000000 -0.001397
# 5 -0.005678 0.000291 0.002525 0.000000 0.042585 0.000000
# 6 0.000000 0.000000 0.000000 -0.001397 0.000000 0.060411
#
#
# Mechanical properties :
#
#
# Convention : Reuss Voigt Hill
#
# Bulk Modulus (GPa) = 24.18975 60.84739 42.51857
# Shear Modulus (GPa) = 17.33501 24.22536 20.78018
#
# Velocity S-wave (km/s) = 3.21707 3.80307 3.52228
# Velocity P-wave (km/s) = 5.31427 7.45736 6.47509
#
# Compressibility (1/GPa) = 0.04133983
#
# Stress axis : x y z
#
# Youngs Moduli (GPa) = 57.01028 16.28533 86.74623
#
# Poissons Ratio (x) = 0.15139 0.56022
# Poissons Ratio (y) = 0.52999 0.76444
# Poissons Ratio (z) = 0.36818 0.14351
#
# Static dielectric constant tensor:
#      x y z
#    x 1.548390 0.000000 -0.004650 
#    y 0.000000 1.572480 0.000000 
#    z -0.004650 0.000000 1.565670 
# 
# From -- ./inp_files/243022.got.cif
#   From: 2010.05.17/outbox.cif.g08.bks.cpg/sg12_122_cif.got.tgz:243022.got - 2010.06.03 13:09:07.
