data_PCOD9192866
_publ_section_title
;
Structure prediction by ZEFSAII (Michael W. Deem and Ramdas Pophale) SiO2 
 PCOD9192866
Probable space group: C 2/M
;
_chemical_formula_sum "Si O2"
_cell_formula_units_Z 64
_cell_length_a 13.875838
_cell_length_b 30.182004
_cell_length_c 11.675217
_cell_angle_alpha 90.000000
_cell_angle_beta 41.821086
_cell_angle_gamma 90.000000
_cell_volume 3260.410314
_symmetry_space_group_name_H-M "C 2/M"
_symmetry_group_IT_number 12
_symmetry_cell_setting 'monoclinic'
loop_
_space_group_symop_operation_xyz
x,y,z
-x,y,-z
-x,-y,-z
x,-y,z
1/2+x,1/2+y,z
1/2-x,1/2+y,-z
1/2-x,1/2-y,-z
1/2+x,1/2-y,z
loop_
_atom_site_type_symbol
_atom_site_label
_atom_site_fract_x
_atom_site_fract_y
_atom_site_fract_z
Si Si1 0.327509 0.644009 0.173334
Si Si2 0.710106 0.257404 0.736126
Si Si3 0.737684 0.696074 0.129751
Si Si4 0.357630 0.118951 0.871348
Si Si5 0.453083 0.246421 0.350802
Si Si6 0.170498 0.354519 0.549661
Si Si7 0.661375 0.620602 0.373652
Si Si8 0.838799 0.550221 0.093330
O O1 0.282515 0.695875 0.206217
O O2 0.241519 0.617235 0.153026
O O3 0.265154 0.633279 0.354658
O O4 0.500000 0.640384 0.000000
O O5 0.659156 0.222477 0.875091
O O6 0.612025 0.263961 0.711088
O O7 0.861126 0.240442 0.545712
O O8 0.613046 0.732227 0.210253
O O9 0.671748 0.657730 0.266439
O O10 0.818573 0.667457 0.961830
O O11 0.526958 0.116345 0.691758
O O12 0.327474 0.080560 0.989893
O O13 0.404892 0.194402 0.392773
O O14 0.276460 0.358727 0.564344
O O15 0.500000 0.604879 0.500000
O O16 0.755859 0.578008 0.262157
O O17 0.788390 0.500000 0.119163
O O18 0.000000 0.548680 0.000000
#
# Coordination Sequence:
#
# PCOD9192866 Si02
#       8
#     8   8   8   8   8   8   8   8
#     4  11  25  40  61  88 125 175 224 264 314 371
#     4  10  20  34  51  79 121 169 216 265 308 358
#     4  11  22  35  60  88 124 168 224 265 321 363
#     4  11  24  41  64  94 126 168 215 263 320 396
#     4  10  20  34  54  81 125 173 218 264 309 360
#     4  11  23  42  62  89 129 175 220 269 317 377
#     4  11  23  38  68 101 128 165 213 273 325 381
#     4  10  22  44  73 102 134 161 196 260 336 407
#
# _framework density 19.629431
#
# number of rings (size 3 to 8) (size 9 to 14) (size 15 to 20)
#    0.000    1.375    2.500    3.000    7.000    5.250 
#    0.000    0.000    0.000    2.625    0.000    0.000 
#    0.000    0.000    0.000    0.000    0.000    0.000 
#
# Total GULP energy -178454.915247 kJ/mol
# GULP energy per Si atom -5576.716101 kJ/mol
# Density = 1.958475 g / cm^3
# Si number density = 19.629431 Si / 1000 Ang^3
#
#
#
# Elastic Constant Matrix: (Units=GPa)
#
#
# Indices 1 2 3 4 5 6 
#
# 1 107.4561 37.4999 56.0151 0.0000 0.0707 0.0000
# 2 37.4999 83.8922 23.6836 0.0000 9.7953 0.0000
# 3 56.0151 23.6836 100.4879 0.0000 3.8287 0.0000
# 4 0.0000 0.0000 0.0000 -20.5325 0.0000 -2.4762
# 5 0.0707 9.7953 3.8287 0.0000 32.0278 0.0000
# 6 0.0000 0.0000 0.0000 -2.4762 0.0000 21.4678
#
#
#
# Elastic Compliance Matrix: (Units=1/GPa)
#
#
# Indices 1 2 3 4 5 6 
#
# 1 0.014719 -0.004828 -0.007155 0.000000 0.002299 0.000000
# 2 -0.004828 0.014771 -0.000621 0.000000 -0.004433 0.000000
# 3 -0.007155 -0.000621 0.014143 0.000000 -0.001485 0.000000
# 4 0.000000 0.000000 0.000000 -0.048035 0.000000 -0.005541
# 5 0.002299 -0.004433 -0.001485 0.000000 0.032751 0.000000
# 6 0.000000 0.000000 0.000000 -0.005541 0.000000 0.045942
#
#
# Mechanical properties :
#
#
# Convention : Reuss Voigt Hill
#
# Bulk Modulus (GPa) = 54.27345 58.47037 56.37191
# Shear Modulus (GPa) = 47.33034 18.23512 32.78273
#
# Velocity S-wave (km/s) = 4.91572 3.05120 4.09110
# Velocity P-wave (km/s) = 7.74132 6.50115 7.14818
#
# Compressibility (1/GPa) = 0.01842521
#
# Stress axis : x y z
#
# Youngs Moduli (GPa) = 67.93892 67.69955 70.70833
#
# Poissons Ratio (x) = 0.32686 0.50589
# Poissons Ratio (y) = 0.32802 0.04392
# Poissons Ratio (z) = 0.48607 0.04205
#
# Static dielectric constant tensor:
#      x y z
#    x 1.643940 0.000000 0.085950 
#    y 0.000000 1.683300 0.000000 
#    z 0.085950 0.000000 1.580100 
# 
# From -- ./inp_files/150260.got.cif
#   From: 2010.05.17/outbox.cif.g08.bks.cpg/sg12_76_cif.got.tgz:150260.got - 2010.06.03 13:09:07.
