data_PCOD9192443
_publ_section_title
;
Structure prediction by ZEFSAII (Michael W. Deem and Ramdas Pophale) SiO2 
 PCOD9192443
Probable space group: C 2/M
;
_chemical_formula_sum "Si O2"
_cell_formula_units_Z 64
_cell_length_a 10.679702
_cell_length_b 14.661457
_cell_length_c 29.939424
_cell_angle_alpha 90.000000
_cell_angle_beta 137.799034
_cell_angle_gamma 90.000000
_cell_volume 3149.027416
_symmetry_space_group_name_H-M "C 2/M"
_symmetry_group_IT_number 12
_symmetry_cell_setting 'monoclinic'
loop_
_space_group_symop_operation_xyz
x,y,z
-x,y,-z
-x,-y,-z
x,-y,z
1/2+x,1/2+y,z
1/2-x,1/2+y,-z
1/2-x,1/2-y,-z
1/2+x,1/2-y,z
loop_
_atom_site_type_symbol
_atom_site_label
_atom_site_fract_x
_atom_site_fract_y
_atom_site_fract_z
Si Si1 0.308452 0.701204 0.078360
Si Si2 0.099938 0.594952 0.705714
Si Si3 0.465881 0.317814 0.420484
Si Si4 0.708896 0.166235 0.434549
Si Si5 0.845342 0.600599 0.724420
Si Si6 0.686390 0.763222 0.209443
Si Si7 0.764491 0.603787 0.847327
Si Si8 0.710009 0.104367 0.960230
O O1 0.531846 0.713680 0.138777
O O2 0.256453 0.651253 0.110305
O O3 0.230959 0.805475 0.052801
O O4 0.250733 0.638668 0.021434
O O5 0.207235 0.500000 0.729288
O O6 0.933266 0.598003 0.626216
O O7 0.002964 0.597469 0.728468
O O8 0.214436 0.686886 0.734923
O O9 0.577967 0.236376 0.426623
O O10 0.631517 0.371274 0.490202
O O11 0.322533 0.290020 0.422453
O O12 0.342874 0.369373 0.351181
O O13 0.819159 0.500000 0.736781
O O14 0.902045 0.668851 0.778054
O O15 0.812226 0.827041 0.210784
O O16 0.691970 0.500000 0.827380
O O17 0.986158 0.598915 0.896351
O O18 0.780663 0.000000 0.970715
#
# Coordination Sequence:
#
# PCOD9192443 Si02
#       8
#     8   8   8   8   8   8   8   8
#     4  10  20  33  56  81 105 136 174 220 264 317
#     4  10  21  35  52  76 109 147 183 224 276 331
#     4   9  17  31  56  82 107 141 184 236 284 332
#     4   9  17  32  54  81 109 142 185 231 285 337
#     4  10  20  35  55  78 105 141 186 231 271 320
#     4  11  21  36  52  75 109 143 179 218 268 322
#     4  10  20  35  57  80 103 136 177 220 265 315
#     4   9  19  36  57  80 105 134 172 217 268 320
#
# _framework density 20.323734999999999
#
# number of rings (size 3 to 8) (size 9 to 14) (size 15 to 20)
#    0.000    2.250    1.250    1.875    0.000    3.000 
#    0.000    3.125    0.000   12.750    0.000    3.500 
#    0.000    0.000    0.000    0.000    0.000    0.000 
#
# Total GULP energy -178235.804115 kJ/mol
# GULP energy per Si atom -5569.868879 kJ/mol
# Density = 2.027748 g / cm^3
# Si number density = 20.323735 Si / 1000 Ang^3
#
#
#
# Elastic Constant Matrix: (Units=GPa)
#
#
# Indices 1 2 3 4 5 6 
#
# 1 34.7464 25.8214 -4.3433 0.0000 -3.9491 0.0000
# 2 25.8214 117.7747 9.8916 0.0000 -6.7481 0.0000
# 3 -4.3433 9.8916 41.6554 0.0000 -7.3245 0.0000
# 4 0.0000 0.0000 0.0000 39.6563 0.0000 -30.7293
# 5 -3.9491 -6.7481 -7.3245 0.0000 25.5887 0.0000
# 6 0.0000 0.0000 0.0000 -30.7293 0.0000 44.3997
#
#
#
# Elastic Compliance Matrix: (Units=1/GPa)
#
#
# Indices 1 2 3 4 5 6 
#
# 1 0.036332 -0.008220 0.006681 0.000000 0.005352 0.000000
# 2 -0.008220 0.010602 -0.003271 0.000000 0.000591 0.000000
# 3 0.006681 -0.003271 0.026861 0.000000 0.007857 0.000000
# 4 0.000000 0.000000 0.000000 0.054382 0.000000 0.037638
# 5 0.005352 0.000591 0.007857 0.000000 0.042311 0.000000
# 6 0.000000 0.000000 0.000000 0.037638 0.000000 0.048572
#
#
# Mechanical properties :
#
#
# Convention : Reuss Voigt Hill
#
# Bulk Modulus (GPa) = 15.58218 28.54621 22.06419
# Shear Modulus (GPa) = 19.99434 32.78272 26.38853
#
# Velocity S-wave (km/s) = 3.13995 4.02061 3.60725
# Velocity P-wave (km/s) = 4.56392 5.96908 5.31316
#
# Compressibility (1/GPa) = 0.06417588
#
# Stress axis : x y z
#
# Youngs Moduli (GPa) = 27.52394 94.32588 37.22821
#
# Poissons Ratio (x) = 0.77537 -0.24873
# Poissons Ratio (y) = 0.22625 0.12176
# Poissons Ratio (z) = -0.18389 0.30850
#
# Static dielectric constant tensor:
#      x y z
#    x 1.727170 0.000000 0.018510 
#    y 0.000000 1.799820 0.000000 
#    z 0.018510 0.000000 1.746550 
# 
# From -- ./inp_files/374103.got.cif
#   From: 2010.05.17/outbox.cif.g08.bks.cpg/sg12_188_cif.got.tgz:374103.got - 2010.06.03 13:09:07.
