data_PCOD9192275
_publ_section_title
;
Structure prediction by ZEFSAII (Michael W. Deem and Ramdas Pophale) SiO2 
 PCOD9192275
Probable space group: C 2/M
;
_chemical_formula_sum "Si O2"
_cell_formula_units_Z 40
_cell_length_a 26.604504
_cell_length_b 8.766195
_cell_length_c 16.474063
_cell_angle_alpha 90.000000
_cell_angle_beta 143.827578
_cell_angle_gamma 90.000000
_cell_volume 2267.664851
_symmetry_space_group_name_H-M "C 2/M"
_symmetry_group_IT_number 12
_symmetry_cell_setting 'monoclinic'
loop_
_space_group_symop_operation_xyz
x,y,z
-x,y,-z
-x,-y,-z
x,-y,z
1/2+x,1/2+y,z
1/2-x,1/2+y,-z
1/2-x,1/2-y,-z
1/2+x,1/2-y,z
loop_
_atom_site_type_symbol
_atom_site_label
_atom_site_fract_x
_atom_site_fract_y
_atom_site_fract_z
Si Si1 0.368357 0.317607 0.842926
Si Si2 0.187606 0.183511 0.657016
Si Si3 0.418774 0.676089 0.332962
Si Si4 0.467809 0.819070 0.646906
Si Si5 0.480272 0.816849 0.852825
O O1 0.371280 0.500000 0.843781
O O2 0.275305 0.258829 0.744755
O O3 0.400774 0.249011 0.799725
O O4 0.436460 0.255701 0.997215
O O5 0.158339 0.229279 0.710236
O O6 0.112051 0.234421 0.498275
O O7 0.193970 0.000000 0.664385
O O8 0.500000 0.678409 0.500000
O O9 0.404904 0.500000 0.291203
O O10 0.448198 0.771773 0.294116
O O11 0.475350 0.780801 0.751386
O O12 0.454667 0.000000 0.621792
O O13 0.483243 0.000000 0.866436
#
# Coordination Sequence:
#
# PCOD9192275 Si02
#       5
#     8   8   8   8   8
#     4  11  22  36  56  79 102 134 177 219 259 305
#     4  10  20  35  55  78 107 141 173 210 259 309
#     4   8  16  31  51  75 104 139 172 206 256 309
#     4  10  20  33  54  82 107 135 173 215 256 303
#     4  10  21  38  56  75 105 141 172 208 262 317
#
# _framework density 17.639289999999999
#
# number of rings (size 3 to 8) (size 9 to 14) (size 15 to 20)
#    0.000    2.200    0.000    6.000    0.000    8.400 
#    0.000    1.000    0.000    0.000    0.000    0.000 
#    0.000    0.000    0.000    0.000    0.000    0.000 
#
# Total GULP energy -111585.438214 kJ/mol
# GULP energy per Si atom -5579.271911 kJ/mol
# Density = 1.759914 g / cm^3
# Si number density = 17.639290 Si / 1000 Ang^3
#
#
#
# Elastic Constant Matrix: (Units=GPa)
#
#
# Indices 1 2 3 4 5 6 
#
# 1 168.7107 78.6013 69.0349 0.0000 -52.1473 0.0000
# 2 78.6013 89.2421 38.3586 0.0000 -0.9509 0.0000
# 3 69.0349 38.3586 44.0255 0.0000 -17.1361 0.0000
# 4 0.0000 0.0000 0.0000 25.1663 0.0000 0.8951
# 5 -52.1473 -0.9509 -17.1361 0.0000 -86.1538 0.0000
# 6 0.0000 0.0000 0.0000 0.8951 0.0000 34.0687
#
#
#
# Elastic Compliance Matrix: (Units=1/GPa)
#
#
# Indices 1 2 3 4 5 6 
#
# 1 0.015714 -0.003973 -0.023077 0.000000 -0.004877 0.000000
# 2 -0.003973 0.018268 -0.008195 0.000000 0.003833 0.000000
# 3 -0.023077 -0.008195 0.066373 0.000000 0.000857 0.000000
# 4 0.000000 0.000000 0.000000 0.039773 0.000000 -0.001045
# 5 -0.004877 0.003833 0.000857 0.000000 -0.008868 0.000000
# 6 0.000000 0.000000 0.000000 -0.001045 0.000000 0.029380
#
#
# Mechanical properties :
#
#
# Convention : Reuss Voigt Hill
#
# Bulk Modulus (GPa) = 33.48290 74.88532 54.18411
# Shear Modulus (GPa) = 20.73970 2.34845 11.54408
#
# Velocity S-wave (km/s) = 3.43267 1.15510 2.56100
# Velocity P-wave (km/s) = 5.89357 6.65769 6.28725
#
# Compressibility (1/GPa) = 0.02986599
#
# Stress axis : x y z
#
# Youngs Moduli (GPa) = 63.63950 54.74111 15.06632
#
# Poissons Ratio (x) = 0.21748 0.34768
# Poissons Ratio (y) = 0.25283 0.12346
# Poissons Ratio (z) = 1.46859 0.44858
#
# Static dielectric constant tensor:
#      x y z
#    x 1.617900 0.000000 0.001650 
#    y 0.000000 1.590540 0.000000 
#    z 0.001650 0.000000 1.571170 
# 
# From -- ./inp_files/230600.got.cif
#   From: 2010.05.17/outbox.cif.g08.bks.cpg/sg12_116_cif.got.tgz:230600.got - 2010.06.03 13:09:07.
