data_PCOD9192424
_publ_section_title
;
Structure prediction by ZEFSAII (Michael W. Deem and Ramdas Pophale) SiO2 
 PCOD9192424
Probable space group: C 2/M
;
_chemical_formula_sum "Si O2"
_cell_formula_units_Z 64
_cell_length_a 19.697882
_cell_length_b 13.053314
_cell_length_c 30.833500
_cell_angle_alpha 90.000000
_cell_angle_beta 159.372788
_cell_angle_gamma 90.000000
_cell_volume 2792.921623
_symmetry_space_group_name_H-M "C 2/M"
_symmetry_group_IT_number 12
_symmetry_cell_setting 'monoclinic'
loop_
_space_group_symop_operation_xyz
x,y,z
-x,y,-z
-x,-y,-z
x,-y,z
1/2+x,1/2+y,z
1/2-x,1/2+y,-z
1/2-x,1/2-y,-z
1/2+x,1/2-y,z
loop_
_atom_site_type_symbol
_atom_site_label
_atom_site_fract_x
_atom_site_fract_y
_atom_site_fract_z
Si Si1 0.139457 0.619835 0.792376
Si Si2 0.560665 0.792715 0.190640
Si Si3 0.182200 0.377443 0.077486
Si Si4 0.992442 0.623353 0.382479
Si Si5 0.588866 0.666638 0.637144
Si Si6 0.055215 0.120320 0.353208
Si Si7 0.819296 0.798073 0.983850
Si Si8 0.230297 0.616061 0.369080
O O1 0.175037 0.500000 0.810242
O O2 0.296712 0.654330 0.922521
O O3 0.112958 0.650156 0.726272
O O4 0.928905 0.633054 0.688627
O O5 0.690568 0.864313 0.237714
O O6 0.364455 0.828084 0.097089
O O7 0.698038 0.794215 0.315021
O O8 0.497324 0.696147 0.123276
O O9 0.183486 0.500000 0.074300
O O10 0.383684 0.339174 0.219800
O O11 0.177214 0.321477 0.028285
O O12 0.000000 0.351474 0.000000
O O13 0.973394 0.500000 0.378958
O O14 0.221432 0.650501 0.517059
O O15 0.915159 0.709257 0.368917
O O16 0.513697 0.636343 0.639156
O O17 0.440714 0.619986 0.514885
O O18 0.057725 0.000000 0.345518
O O19 0.194697 0.500000 0.330742
#
# Coordination Sequence:
#
# PCOD9192424 Si02
#       8
#     8   8   8   8   8   8   8   8
#     4   9  18  36  62  89 114 147 193 242 297 354
#     4  10  24  38  54  82 113 156 203 234 280 349
#     4  10  21  36  58  87 113 144 190 240 294 355
#     4  10  21  36  56  87 119 150 191 243 301 356
#     4  12  21  34  59  85 117 154 192 239 291 348
#     4  10  20  33  55  88 117 143 182 235 305 365
#     4  10  21  41  59  77 118 157 191 238 292 347
#     4  10  21  37  59  89 121 150 191 247 299 348
#
# _framework density 22.915071999999999
#
# number of rings (size 3 to 8) (size 9 to 14) (size 15 to 20)
#    0.000    1.875    1.250    2.625    3.500    2.000 
#    0.000    3.125    0.000    4.125    0.000    0.000 
#    0.000    0.000    0.000    0.000    0.000    0.000 
#
# Total GULP energy -178255.519828 kJ/mol
# GULP energy per Si atom -5570.484995 kJ/mol
# Density = 2.286292 g / cm^3
# Si number density = 22.915072 Si / 1000 Ang^3
#
#
#
# Elastic Constant Matrix: (Units=GPa)
#
#
# Indices 1 2 3 4 5 6 
#
# 1 62.7609 26.3379 18.4646 0.0018 -1.2167 0.0003
# 2 26.3379 65.8080 24.4579 -0.0037 -6.5097 0.0007
# 3 18.4646 24.4579 115.7921 -0.0238 -12.9509 0.0055
# 4 0.0018 -0.0037 -0.0238 25.0869 0.0060 -5.0402
# 5 -1.2167 -6.5097 -12.9509 0.0060 32.9214 0.0023
# 6 0.0003 0.0007 0.0055 -5.0402 0.0023 17.2137
#
#
#
# Elastic Compliance Matrix: (Units=1/GPa)
#
#
# Indices 1 2 3 4 5 6 
#
# 1 0.019473 -0.007292 -0.001721 -0.000004 -0.001399 0.000000
# 2 -0.007292 0.019345 -0.002642 0.000000 0.002516 0.000000
# 3 -0.001721 -0.002642 0.009836 0.000008 0.003283 -0.000001
# 4 -0.000004 0.000000 0.000008 0.042353 -0.000006 0.012401
# 5 -0.001399 0.002516 0.003283 -0.000006 0.032113 -0.000007
# 6 0.000000 0.000000 -0.000001 0.012401 -0.000007 0.061724
#
#
# Mechanical properties :
#
#
# Convention : Reuss Voigt Hill
#
# Bulk Modulus (GPa) = 39.45868 42.54243 41.00056
# Shear Modulus (GPa) = 23.08376 26.71778 24.90077
#
# Velocity S-wave (km/s) = 3.17734 3.41830 3.30002
# Velocity P-wave (km/s) = 5.54234 5.84682 5.69662
#
# Compressibility (1/GPa) = 0.02534296
#
# Stress axis : x y z
#
# Youngs Moduli (GPa) = 51.35301 51.69292 101.66811
#
# Poissons Ratio (x) = 0.37696 0.17502
# Poissons Ratio (y) = 0.37448 0.26859
# Poissons Ratio (z) = 0.08840 0.13656
#
# Static dielectric constant tensor:
#      x y z
#    x 1.873520 0.000000 0.017460 
#    y 0.000000 1.915890 -0.000010 
#    z 0.017460 -0.000010 1.925460 
# 
# From -- ./inp_files/381483.got.cif
#   From: 2010.05.17/outbox.cif.g08.bks.cpg/sg12_191_cif.got.tgz:381483.got - 2010.06.03 13:09:07.
