data_PCOD9192306
_publ_section_title
;
Structure prediction by ZEFSAII (Michael W. Deem and Ramdas Pophale) SiO2 
 PCOD9192306
Probable space group: C 2/M
;
_chemical_formula_sum "Si O2"
_cell_formula_units_Z 48
_cell_length_a 18.314633
_cell_length_b 13.922812
_cell_length_c 21.885184
_cell_angle_alpha 90.000000
_cell_angle_beta 153.673068
_cell_angle_gamma 90.000000
_cell_volume 2474.923035
_symmetry_space_group_name_H-M "C 2/M"
_symmetry_group_IT_number 12
_symmetry_cell_setting 'monoclinic'
loop_
_space_group_symop_operation_xyz
x,y,z
-x,y,-z
-x,-y,-z
x,-y,z
1/2+x,1/2+y,z
1/2-x,1/2+y,-z
1/2-x,1/2-y,-z
1/2+x,1/2-y,z
loop_
_atom_site_type_symbol
_atom_site_label
_atom_site_fract_x
_atom_site_fract_y
_atom_site_fract_z
Si Si1 0.147706 0.106244 0.158786
Si Si2 0.353243 0.250468 0.239760
Si Si3 0.970117 0.386925 0.216994
Si Si4 0.739550 0.386076 0.929779
Si Si5 0.794684 0.781044 0.464910
Si Si6 0.114274 0.890054 0.273794
O O1 0.265207 0.191662 0.226830
O O2 0.078750 0.116733 0.175259
O O3 0.228593 0.000000 0.216519
O O4 0.000000 0.106487 0.000000
O O5 0.410239 0.172445 0.231175
O O6 0.242630 0.324400 0.118155
O O7 0.513063 0.303146 0.387606
O O8 0.946697 0.500000 0.209895
O O9 0.161287 0.361650 0.348323
O O10 0.862625 0.358947 0.076962
O O11 0.758172 0.500000 0.932937
O O12 0.552188 0.369744 0.813286
O O13 0.750000 0.750000 0.500000
O O14 0.752589 0.687006 0.393752
O O15 0.164357 0.000000 0.325050
#
# Coordination Sequence:
#
# PCOD9192306 Si02
#       6
#     8   8   8   8   8   8
#     4  10  22  37  58  89 122 155 187 232 293 348
#     4  11  21  36  56  86 117 152 193 235 286 346
#     4  10  20  33  54  84 115 146 191 246 289 334
#     4  10  20  35  60  87 111 148 197 243 286 333
#     4  10  21  34  52  84 115 152 193 230 288 339
#     4  10  20  36  57  85 121 152 188 235 288 345
#
# _framework density 19.394542000000001
#
# number of rings (size 3 to 8) (size 9 to 14) (size 15 to 20)
#    0.000    1.833    3.333    2.000    2.333    7.333 
#    0.000    1.667    0.000    1.500    0.000    2.333 
#    0.000    0.000    0.000    0.000    0.000    0.000 
#
# Total GULP energy -133946.835502 kJ/mol
# GULP energy per Si atom -5581.118146 kJ/mol
# Density = 1.935040 g / cm^3
# Si number density = 19.394542 Si / 1000 Ang^3
#
#
#
# Elastic Constant Matrix: (Units=GPa)
#
#
# Indices 1 2 3 4 5 6 
#
# 1 26.5068 3.9524 -15.7494 0.0004 -6.2643 0.0004
# 2 3.9524 55.9501 6.2280 0.0021 -8.2936 -0.0026
# 3 -15.7494 6.2280 69.2058 0.0006 -4.7392 0.0021
# 4 0.0004 0.0021 0.0006 5.7484 0.0011 3.2616
# 5 -6.2643 -8.2936 -4.7392 0.0011 23.8585 0.0004
# 6 0.0004 -0.0026 0.0021 3.2616 0.0004 25.8408
#
#
#
# Elastic Compliance Matrix: (Units=1/GPa)
#
#
# Indices 1 2 3 4 5 6 
#
# 1 0.048851 -0.002699 0.012342 -0.000005 0.014339 -0.000002
# 2 -0.002699 0.019103 -0.001954 -0.000010 0.005544 0.000003
# 3 0.012342 -0.001954 0.017852 -0.000002 0.006108 -0.000002
# 4 -0.000005 -0.000010 -0.000002 0.187382 -0.000013 -0.023651
# 5 0.014339 0.005544 0.006108 -0.000013 0.048819 0.000001
# 6 -0.000002 0.000003 -0.000002 -0.023651 0.000001 0.041684
#
#
# Mechanical properties :
#
#
# Convention : Reuss Voigt Hill
#
# Bulk Modulus (GPa) = 9.88299 15.61388 12.74843
# Shear Modulus (GPa) = 13.08760 21.57164 17.32962
#
# Velocity S-wave (km/s) = 2.60053 3.33866 2.99244
# Velocity P-wave (km/s) = 3.75816 4.78857 4.30431
#
# Compressibility (1/GPa) = 0.10118396
#
# Stress axis : x y z
#
# Youngs Moduli (GPa) = 20.47062 52.34782 56.01488
#
# Poissons Ratio (x) = 0.14129 -0.69133
# Poissons Ratio (y) = 0.05525 0.10944
# Poissons Ratio (z) = -0.25265 0.10227
#
# Static dielectric constant tensor:
#      x y z
#    x 1.665380 0.000000 0.025340 
#    y 0.000000 1.707240 0.000000 
#    z 0.025340 0.000000 1.653300 
# 
# From -- ./inp_files/105035.got.cif
#   From: 2010.05.17/outbox.cif.g08.bks.cpg/sg12_53_cif.got.tgz:105035.got - 2010.06.03 13:09:07.
