data_PCOD9192487
_publ_section_title
;
Structure prediction by ZEFSAII (Michael W. Deem and Ramdas Pophale) SiO2 
 PCOD9192487
Probable space group: C 2/M
;
_chemical_formula_sum "Si O2"
_cell_formula_units_Z 58
_cell_length_a 21.623456
_cell_length_b 7.912561
_cell_length_c 18.709567
_cell_angle_alpha 90.000000
_cell_angle_beta 111.984778
_cell_angle_gamma 90.000000
_cell_volume 2968.372327
_symmetry_space_group_name_H-M "C 2/M"
_symmetry_group_IT_number 12
_symmetry_cell_setting 'monoclinic'
loop_
_space_group_symop_operation_xyz
x,y,z
-x,y,-z
-x,-y,-z
x,-y,z
1/2+x,1/2+y,z
1/2-x,1/2+y,-z
1/2-x,1/2-y,-z
1/2+x,1/2-y,z
loop_
_atom_site_type_symbol
_atom_site_label
_atom_site_fract_x
_atom_site_fract_y
_atom_site_fract_z
Si Si1 0.301570 0.199972 0.961572
Si Si2 0.696365 0.703274 0.195339
Si Si3 0.500000 0.500000 0.500000
Si Si4 0.249973 0.202392 0.369104
Si Si5 0.549400 0.800617 0.960516
Si Si6 0.401752 0.795097 0.479044
Si Si7 0.444881 0.303528 0.810545
Si Si8 0.891106 0.303418 0.638307
O O1 0.279460 0.246164 0.871957
O O2 0.306754 0.000000 0.967439
O O3 0.250000 0.250000 0.000000
O O4 0.376255 0.273119 0.005396
O O5 0.693622 0.500000 0.196542
O O6 0.739472 0.758579 0.282305
O O7 0.620799 0.767215 0.177171
O O8 0.445404 0.654222 0.458346
O O9 0.323813 0.235026 0.428571
O O10 0.188444 0.277724 0.386928
O O11 0.240108 0.000000 0.367311
O O12 0.511220 0.780867 0.869058
O O13 0.555621 0.000000 0.978229
O O14 0.500000 0.728129 0.000000
O O15 0.412216 0.754853 0.567842
O O16 0.414671 0.000000 0.472857
O O17 0.450760 0.500000 0.830683
O O18 0.427931 0.287686 0.719552
O O19 0.905655 0.500000 0.653618
#
# Coordination Sequence:
#
# PCOD9192487 Si02
#       8
#     8   8   2   8   8   8   8   8
#     4  11  23  38  57  81 114 154 194 246 297 357
#     4   9  18  34  56  85 117 153 187 236 300 357
#     4  12  26  40  68  82 120 176 216 248 292 374
#     4   9  19  36  61  92 126 152 193 252 308 365
#     4  10  20  36  58  83 112 149 198 246 297 358
#     4  10  23  42  62  92 123 164 214 254 300 358
#     4  10  20  33  56  89 121 152 190 242 302 362
#     4  10  20  34  60  92 127 155 190 252 313 359
#
# _framework density 19.539328000000001
#
# number of rings (size 3 to 8) (size 9 to 14) (size 15 to 20)
#    0.000    2.069    1.379    2.690    2.897    3.586 
#    0.000    1.379    0.000    3.310    0.000    0.000 
#    0.000    0.000    0.000    0.000    0.000    0.000 
#
# Total GULP energy -161476.862076 kJ/mol
# GULP energy per Si atom -5568.167658 kJ/mol
# Density = 1.949486 g / cm^3
# Si number density = 19.539328 Si / 1000 Ang^3
#
#
#
# Elastic Constant Matrix: (Units=GPa)
#
#
# Indices 1 2 3 4 5 6 
#
# 1 65.1281 14.3629 32.3459 0.0000 2.4082 0.0000
# 2 14.3629 39.3481 7.6367 0.0000 0.6972 0.0000
# 3 32.3459 7.6367 72.2166 0.0000 -3.2005 0.0000
# 4 0.0000 0.0000 0.0000 23.9877 0.0000 4.8176
# 5 2.4082 0.6972 -3.2005 0.0000 21.0339 0.0000
# 6 0.0000 0.0000 0.0000 4.8176 0.0000 18.7658
#
#
#
# Elastic Compliance Matrix: (Units=1/GPa)
#
#
# Indices 1 2 3 4 5 6 
#
# 1 0.021308 -0.005952 -0.009075 0.000000 -0.003623 0.000000
# 2 -0.005952 0.027644 -0.000269 0.000000 -0.000276 0.000000
# 3 -0.009075 -0.000269 0.018109 0.000000 0.003803 0.000000
# 4 0.000000 0.000000 0.000000 0.043954 0.000000 -0.011284
# 5 -0.003623 -0.000276 0.003803 0.000000 0.048545 0.000000
# 6 0.000000 0.000000 0.000000 -0.011284 0.000000 0.056185
#
#
# Mechanical properties :
#
#
# Convention : Reuss Voigt Hill
#
# Bulk Modulus (GPa) = 27.42171 31.70933 29.56552
# Shear Modulus (GPa) = 19.34270 20.91398 20.12834
#
# Velocity S-wave (km/s) = 3.14974 3.27517 3.21307
# Velocity P-wave (km/s) = 5.22421 5.52866 5.37859
#
# Compressibility (1/GPa) = 0.03646746
#
# Stress axis : x y z
#
# Youngs Moduli (GPa) = 46.93036 36.17403 55.22112
#
# Poissons Ratio (x) = 0.21532 0.50114
# Poissons Ratio (y) = 0.27935 0.01488
# Poissons Ratio (z) = 0.42590 0.00975
#
# Static dielectric constant tensor:
#      x y z
#    x 1.529520 0.000000 0.183610 
#    y 0.000000 1.703240 0.000000 
#    z 0.183610 0.000000 1.510060 
# 
# From -- ./inp_files/281540.got.cif
#   From: 2010.05.17/outbox.cif.g08.bks.cpg/sg12_141_cif.got.tgz:281540.got - 2010.06.03 13:09:07.
