data_PCOD9192031
_publ_section_title
;
Structure prediction by ZEFSAII (Michael W. Deem and Ramdas Pophale) SiO2 
 PCOD9192031
Probable space group: C 2/M
;
_chemical_formula_sum "Si O2"
_cell_formula_units_Z 64
_cell_length_a 22.189679
_cell_length_b 14.789204
_cell_length_c 9.084143
_cell_angle_alpha 90.000000
_cell_angle_beta 83.279694
_cell_angle_gamma 90.000000
_cell_volume 2960.639638
_symmetry_space_group_name_H-M "C 2/M"
_symmetry_group_IT_number 12
_symmetry_cell_setting 'monoclinic'
loop_
_space_group_symop_operation_xyz
x,y,z
-x,y,-z
-x,-y,-z
x,-y,z
1/2+x,1/2+y,z
1/2-x,1/2+y,-z
1/2-x,1/2-y,-z
1/2+x,1/2-y,z
loop_
_atom_site_type_symbol
_atom_site_label
_atom_site_fract_x
_atom_site_fract_y
_atom_site_fract_z
Si Si1 0.268542 0.344196 0.066563
Si Si2 0.233501 0.391596 0.403692
Si Si3 0.159194 0.895105 0.423635
Si Si4 0.100974 0.602198 0.350416
Si Si5 0.397604 0.287815 0.044466
Si Si6 0.553038 0.604139 0.698188
Si Si7 0.563136 0.288172 0.289719
Si Si8 0.148217 0.404505 0.996485
O O1 0.255430 0.347875 0.244684
O O2 0.339971 0.352607 0.028339
O O3 0.220681 0.406801 0.997139
O O4 0.250000 0.250000 0.000000
O O5 0.243451 0.500000 0.383254
O O6 0.276323 0.364302 0.527265
O O7 0.161047 0.379567 0.431971
O O8 0.109318 0.892915 0.569339
O O9 0.128851 0.828957 0.314786
O O10 0.163950 0.000000 0.372628
O O11 0.078494 0.500000 0.387955
O O12 0.058288 0.689703 0.366132
O O13 0.124212 0.601390 0.172802
O O14 0.430257 0.331457 0.171929
O O15 0.436692 0.280054 0.886367
O O16 0.372947 0.185911 0.079199
O O17 0.544929 0.500000 0.745643
O O18 0.489781 0.642578 0.655758
O O19 0.126908 0.500000 0.938019
#
# Coordination Sequence:
#
# PCOD9192031 Si02
#       8
#     8   8   8   8   8   8   8   8
#     4   9  15  26  48  78 107 135 171 210 255 313
#     4   9  16  31  55  79 102 138 182 214 255 323
#     4  10  21  37  57  78 103 141 183 217 260 322
#     4   8  16  32  54  79 107 138 175 215 263 321
#     4  10  20  33  52  81 108 136 178 223 271 315
#     4  11  23  39  56  74 105 148 183 215 262 325
#     4  11  22  35  53  81 110 139 177 227 268 304
#     4   8  15  29  51  77 108 140 172 215 261 315
#
# _framework density 21.616949999999999
#
# number of rings (size 3 to 8) (size 9 to 14) (size 15 to 20)
#    0.000    2.500    1.250    3.000    0.000    3.500 
#    0.000    0.625    0.000    5.250    0.000    0.000 
#    0.000    0.000    0.000    0.000    0.000    0.000 
#
# Total GULP energy -178467.421624 kJ/mol
# GULP energy per Si atom -5577.106926 kJ/mol
# Density = 2.156775 g / cm^3
# Si number density = 21.616950 Si / 1000 Ang^3
#
#
#
# Elastic Constant Matrix: (Units=GPa)
#
#
# Indices 1 2 3 4 5 6 
#
# 1 47.4941 20.0618 6.0501 0.0000 8.5426 0.0000
# 2 20.0618 115.4581 16.2789 0.0000 13.5862 0.0000
# 3 6.0501 16.2789 37.0629 0.0000 15.9842 0.0000
# 4 0.0000 0.0000 0.0000 -5.7104 0.0000 16.8381
# 5 8.5426 13.5862 15.9842 0.0000 24.4465 0.0000
# 6 0.0000 0.0000 0.0000 16.8381 0.0000 24.8245
#
#
#
# Elastic Compliance Matrix: (Units=1/GPa)
#
#
# Indices 1 2 3 4 5 6 
#
# 1 0.023628 -0.003390 0.000530 0.000000 -0.006719 0.000000
# 2 -0.003390 0.009933 -0.002701 0.000000 -0.002570 0.000000
# 3 0.000530 -0.002701 0.038319 0.000000 -0.023738 0.000000
# 4 0.000000 0.000000 0.000000 -0.058372 0.000000 0.039593
# 5 -0.006719 -0.002570 -0.023738 0.000000 0.060203 0.000000
# 6 0.000000 0.000000 0.000000 0.039593 0.000000 0.013427
#
#
# Mechanical properties :
#
#
# Convention : Reuss Voigt Hill
#
# Bulk Modulus (GPa) = 16.45886 31.64406 24.05146
# Shear Modulus (GPa) = 42.18913 19.22042 30.70478
#
# Velocity S-wave (km/s) = 4.42256 2.98507 3.77291
# Velocity P-wave (km/s) = 5.80596 5.15279 5.48910
#
# Compressibility (1/GPa) = 0.06075754
#
# Stress axis : x y z
#
# Youngs Moduli (GPa) = 42.32245 100.67057 26.09679
#
# Poissons Ratio (x) = 0.34123 -0.01382
# Poissons Ratio (y) = 0.14346 0.07050
# Poissons Ratio (z) = -0.02241 0.27195
#
# Static dielectric constant tensor:
#      x y z
#    x 1.825260 0.000000 0.007630 
#    y 0.000000 1.816240 0.000000 
#    z 0.007630 0.000000 1.771710 
# 
# From -- ./inp_files/96919.got.cif
#   From: 2010.05.17/outbox.cif.g08.bks.cpg/sg12_49_cif.got.tgz:96919.got - 2010.06.03 13:09:07.
