data_PCOD9192397
_publ_section_title
;
Structure prediction by ZEFSAII (Michael W. Deem and Ramdas Pophale) SiO2 
 PCOD9192397
Probable space group: C 2/M
;
_chemical_formula_sum "Si O2"
_cell_formula_units_Z 64
_cell_length_a 20.874356
_cell_length_b 8.813137
_cell_length_c 19.696659
_cell_angle_alpha 90.000000
_cell_angle_beta 90.000000
_cell_angle_gamma 90.000000
_cell_volume 3623.565978
_symmetry_space_group_name_H-M "C 2/M"
_symmetry_group_IT_number 12
_symmetry_cell_setting 'monoclinic'
loop_
_space_group_symop_operation_xyz
x,y,z
-x,y,-z
-x,-y,-z
x,-y,z
1/2+x,1/2+y,z
1/2-x,1/2+y,-z
1/2-x,1/2-y,-z
1/2+x,1/2-y,z
loop_
_atom_site_type_symbol
_atom_site_label
_atom_site_fract_x
_atom_site_fract_y
_atom_site_fract_z
Si Si1 0.360346 0.682227 0.676472
Si Si2 0.189482 0.817631 0.039254
Si Si3 0.061669 0.317738 0.544005
Si Si4 0.689482 0.817631 0.460746
Si Si5 0.360346 0.817773 0.823528
Si Si6 0.510531 0.319172 0.677560
Si Si7 0.989469 0.319172 0.177560
Si Si8 0.938331 0.182262 0.044005
O O1 0.355228 0.500000 0.677852
O O2 0.320025 0.750013 0.614450
O O3 0.342630 0.750000 0.750000
O O4 0.435627 0.723131 0.664827
O O5 0.179975 0.750014 0.114450
O O6 0.193866 0.000000 0.043197
O O7 0.250000 0.750000 0.000000
O O8 0.125936 0.777546 0.996018
O O9 0.059663 0.500000 0.551250
O O10 0.125936 0.277546 0.503982
O O11 0.053796 0.243725 0.617278
O O12 0.000000 0.270326 0.500000
O O13 0.750000 0.750000 0.500000
O O14 0.693866 0.000000 0.456803
O O15 0.435627 0.776870 0.835173
O O16 0.355227 0.000000 0.822148
O O17 0.513907 0.500000 0.680364
O O18 0.528535 0.250001 0.750000
O O19 0.986093 0.500000 0.180365
O O20 0.946204 0.256275 0.117278
O O21 0.940337 0.000000 0.051250
O O22 0.000000 0.229674 0.000000
#
# Coordination Sequence:
#
# PCOD9192397 Si02
#       8
#     8   8   8   8   8   8   8   8
#     4  10  20  35  57  85 115 149 190 234 283 339
#     4  11  23  39  59  84 117 154 191 236 285 341
#     4  10  20  36  58  83 113 147 186 232 283 334
#     4  11  23  39  59  84 117 154 191 236 285 341
#     4  10  20  35  57  85 115 149 190 234 283 339
#     4  10  20  33  55  85 117 149 187 236 285 338
#     4  10  20  33  55  85 117 149 187 236 285 338
#     4  10  20  36  58  83 113 147 186 232 283 334
#
# _framework density 17.66216
#
# number of rings (size 3 to 8) (size 9 to 14) (size 15 to 20)
#    0.000    1.750    2.500    2.250    0.000    4.500 
#    0.000    1.250    0.000    6.000    0.000    0.000 
#    0.000    0.000    0.000    0.000    0.000    0.000 
#
# Total GULP energy -178734.524266 kJ/mol
# GULP energy per Si atom -5585.453883 kJ/mol
# Density = 1.762196 g / cm^3
# Si number density = 17.662160 Si / 1000 Ang^3
#
#
#
# Elastic Constant Matrix: (Units=GPa)
#
#
# Indices 1 2 3 4 5 6 
#
# 1 103.6234 47.1585 76.8133 0.0000 0.0000 0.0000
# 2 47.1585 46.7214 61.4942 0.0000 -0.0004 0.0000
# 3 76.8133 61.4942 185.3872 0.0000 -0.0003 0.0000
# 4 0.0000 0.0000 0.0000 38.1049 0.0000 0.0001
# 5 0.0000 -0.0004 -0.0003 0.0000 29.6526 0.0000
# 6 0.0000 0.0000 0.0000 0.0001 0.0000 21.9646
#
#
#
# Elastic Compliance Matrix: (Units=1/GPa)
#
#
# Indices 1 2 3 4 5 6 
#
# 1 0.018538 -0.015267 -0.002617 0.000000 0.000000 0.000000
# 2 -0.015267 0.050563 -0.010446 0.000000 0.000000 0.000000
# 3 -0.002617 -0.010446 0.009943 0.000000 0.000000 0.000000
# 4 0.000000 0.000000 0.000000 0.026243 0.000000 0.000000
# 5 0.000000 0.000000 0.000000 0.000000 0.033724 0.000000
# 6 0.000000 0.000000 0.000000 0.000000 0.000000 0.045528
#
#
# Mechanical properties :
#
#
# Convention : Reuss Voigt Hill
#
# Bulk Modulus (GPa) = 44.67533 78.51822 61.59677
# Shear Modulus (GPa) = 20.10764 27.96215 24.03489
#
# Velocity S-wave (km/s) = 3.37777 3.98322 3.69292
# Velocity P-wave (km/s) = 6.36881 8.10598 7.28933
#
# Compressibility (1/GPa) = 0.02238372
#
# Stress axis : x y z
#
# Youngs Moduli (GPa) = 53.94254 19.77735 100.56897
#
# Poissons Ratio (x) = 0.30195 0.26317
# Poissons Ratio (y) = 0.82357 1.05056
# Poissons Ratio (z) = 0.14116 0.20660
#
# Static dielectric constant tensor:
#      x y z
#    x 1.588880 0.000000 0.000000 
#    y 0.000000 1.587510 0.000000 
#    z 0.000000 0.000000 1.581360 
# 
# From -- ./inp_files/281244.got.cif
#   From: 2010.05.17/outbox.cif.g08.bks.cpg/sg12_141_cif.got.tgz:281244.got - 2010.06.03 13:09:07.
