data_PCOD9192699
_publ_section_title
;
Structure prediction by ZEFSAII (Michael W. Deem and Ramdas Pophale) SiO2 
 PCOD9192699
Probable space group: C 2/M
;
_chemical_formula_sum "Si O2"
_cell_formula_units_Z 50
_cell_length_a 9.150463
_cell_length_b 16.564143
_cell_length_c 14.004276
_cell_angle_alpha 90.000000
_cell_angle_beta 63.472817
_cell_angle_gamma 90.000000
_cell_volume 1899.157989
_symmetry_space_group_name_H-M "C 2/M"
_symmetry_group_IT_number 12
_symmetry_cell_setting 'monoclinic'
loop_
_space_group_symop_operation_xyz
x,y,z
-x,y,-z
-x,-y,-z
x,-y,z
1/2+x,1/2+y,z
1/2-x,1/2+y,-z
1/2-x,1/2-y,-z
1/2+x,1/2-y,z
loop_
_atom_site_type_symbol
_atom_site_label
_atom_site_fract_x
_atom_site_fract_y
_atom_site_fract_z
Si Si1 0.154466 0.905618 0.900633
Si Si2 0.000000 0.000000 0.500000
Si Si3 0.443343 0.406861 0.273973
Si Si4 0.103315 0.297932 0.095704
Si Si5 0.169430 0.590028 0.842543
Si Si6 0.976112 0.753662 0.661809
Si Si7 0.738108 0.138828 0.614118
O O1 0.313066 0.885086 0.912336
O O2 0.156927 0.881141 0.789905
O O3 0.127904 0.000000 0.902680
O O4 0.000000 0.867462 0.000000
O O5 0.141663 0.928840 0.458791
O O6 0.412229 0.500000 0.313929
O O7 0.636764 0.406297 0.189170
O O8 0.422942 0.337395 0.356489
O O9 0.077083 0.263791 0.211467
O O10 0.928874 0.327418 0.104372
O O11 0.250000 0.250000 0.000000
O O12 0.117308 0.500000 0.888221
O O13 0.164411 0.595176 0.729482
O O14 0.836355 0.784073 0.631100
O O15 0.089494 0.678985 0.599702
#
# Coordination Sequence:
#
# PCOD9192699 Si02
#       7
#     8   2   8   8   8   8   8
#     4  10  20  34  50  73 111 157 207 263 313 357
#     4  12  24  44  76 102 124 172 216 274 332 424
#     4   9  18  34  59  84 113 161 212 254 318 384
#     4  11  22  35  56  87 126 168 218 263 308 374
#     4   9  18  38  62  87 118 161 212 260 317 378
#     4  10  21  39  63  95 132 172 211 263 325 386
#     4  10  22  40  70  98 131 167 212 266 337 397
#
# _framework density 26.327456000000002
#
# number of rings (size 3 to 8) (size 9 to 14) (size 15 to 20)
#    0.000    2.080    0.800    2.400    1.120    3.200 
#    0.000    8.800    1.760   15.360    0.000    0.000 
#    0.000    0.000    0.000    0.000    0.000    0.000 
#
# Total GULP energy -139297.270271 kJ/mol
# GULP energy per Si atom -5571.890811 kJ/mol
# Density = 2.626753 g / cm^3
# Si number density = 26.327456 Si / 1000 Ang^3
#
#
#
# Elastic Constant Matrix: (Units=GPa)
#
#
# Indices 1 2 3 4 5 6 
#
# 1 73.4259 43.8683 -7.0392 0.0000 -16.1381 0.0000
# 2 43.8683 127.1125 46.8127 0.0000 -16.6152 0.0000
# 3 -7.0392 46.8127 90.2220 0.0000 -18.3152 0.0000
# 4 0.0000 0.0000 0.0000 28.6157 0.0000 -17.1588
# 5 -16.1381 -16.6152 -18.3152 0.0000 23.3639 0.0000
# 6 0.0000 0.0000 0.0000 -17.1588 0.0000 51.1562
#
#
#
# Elastic Compliance Matrix: (Units=1/GPa)
#
#
# Indices 1 2 3 4 5 6 
#
# 1 0.024834 -0.010196 0.010987 0.000000 0.018515 0.000000
# 2 -0.010196 0.014162 -0.008954 0.000000 -0.003991 0.000000
# 3 0.010987 -0.008954 0.020021 0.000000 0.016916 0.000000
# 4 0.000000 0.000000 0.000000 0.043744 0.000000 0.014673
# 5 0.018515 -0.003991 0.016916 0.000000 0.066012 0.000000
# 6 0.000000 0.000000 0.000000 0.014673 0.000000 0.024469
#
#
# Mechanical properties :
#
#
# Convention : Reuss Voigt Hill
#
# Bulk Modulus (GPa) = 23.42529 50.89376 37.15953
# Shear Modulus (GPa) = 22.34159 34.43509 28.38834
#
# Velocity S-wave (km/s) = 2.91624 3.62049 3.28728
# Velocity P-wave (km/s) = 4.50070 6.07044 5.34353
#
# Compressibility (1/GPa) = 0.04268891
#
# Stress axis : x y z
#
# Youngs Moduli (GPa) = 40.26807 70.61274 49.94865
#
# Poissons Ratio (x) = 0.72000 -0.54876
# Poissons Ratio (y) = 0.41059 0.44722
# Poissons Ratio (z) = -0.44241 0.63224
#
# Static dielectric constant tensor:
#      x y z
#    x 2.109950 0.000000 0.044470 
#    y 0.000000 2.037290 0.000000 
#    z 0.044470 0.000000 2.257930 
# 
# From -- ./inp_files/256961.got.cif
#   From: 2010.05.17/outbox.cif.g08.bks.cpg/sg12_129_cif.got.tgz:256961.got - 2010.06.03 13:09:07.
