data_PCOD9192916
_publ_section_title
;
Structure prediction by ZEFSAII (Michael W. Deem and Ramdas Pophale) SiO2 
 PCOD9192916
Probable space group: C 2/M
;
_chemical_formula_sum "Si O2"
_cell_formula_units_Z 64
_cell_length_a 20.155354
_cell_length_b 9.244112
_cell_length_c 25.916317
_cell_angle_alpha 90.000000
_cell_angle_beta 125.678010
_cell_angle_gamma 90.000000
_cell_volume 3922.377035
_symmetry_space_group_name_H-M "C 2/M"
_symmetry_group_IT_number 12
_symmetry_cell_setting 'monoclinic'
loop_
_space_group_symop_operation_xyz
x,y,z
-x,y,-z
-x,-y,-z
x,-y,z
1/2+x,1/2+y,z
1/2-x,1/2+y,-z
1/2-x,1/2-y,-z
1/2+x,1/2-y,z
loop_
_atom_site_type_symbol
_atom_site_label
_atom_site_fract_x
_atom_site_fract_y
_atom_site_fract_z
Si Si1 0.022594 0.327447 0.951575
Si Si2 0.448534 0.673290 0.193570
Si Si3 0.410870 0.173069 0.804780
Si Si4 0.336290 0.672953 0.045996
Si Si5 0.133209 0.669042 0.569469
Si Si6 0.026868 0.330985 0.429302
Si Si7 0.726785 0.674057 0.697186
Si Si8 0.073341 0.173961 0.698316
O O1 0.040606 0.500000 0.956598
O O2 0.099288 0.237630 0.965603
O O3 0.947978 0.297727 0.878360
O O4 0.000000 0.293295 0.000000
O O5 0.460760 0.500000 0.198492
O O6 0.529044 0.749948 0.208178
O O7 0.375916 0.704714 0.120158
O O8 0.428490 0.717794 0.242814
O O9 0.317222 0.218716 0.755363
O O10 0.414839 0.000000 0.798815
O O11 0.328998 0.500000 0.037348
O O12 0.250000 0.750000 0.000000
O O13 0.155869 0.500000 0.576196
O O14 0.052555 0.676750 0.569273
O O15 0.200775 0.758746 0.630583
O O16 0.102610 0.719189 0.499200
O O17 0.039157 0.500000 0.422335
O O18 0.001426 0.241456 0.367811
O O19 0.724795 0.500000 0.692585
O O20 0.657568 0.716760 0.707671
O O21 0.068228 0.000000 0.693479
#
# Coordination Sequence:
#
# PCOD9192916 Si02
#       8
#     8   8   8   8   8   8   8   8
#     4   9  18  33  53  74  96 126 161 195 237 288
#     4   9  19  34  50  68  93 126 157 187 228 276
#     4   9  18  32  49  69  94 124 156 189 227 275
#     4  10  20  34  52  73  98 127 160 198 238 282
#     4   8  14  25  41  62  90 121 150 183 226 275
#     4   8  14  25  41  63  91 120 149 184 228 273
#     4   9  17  28  44  68  94 118 149 191 232 269
#     4   9  17  29  46  69  94 119 151 190 230 272
#
# _framework density 16.316635999999999
#
# number of rings (size 3 to 8) (size 9 to 14) (size 15 to 20)
#    0.000    3.125    0.000    1.125    0.000    3.250 
#    0.000    6.250    0.000    3.750    0.000    0.000 
#    0.000    0.000    0.000    0.000    0.000    0.000 
#
# Total GULP energy -178179.739143 kJ/mol
# GULP energy per Si atom -5568.116848 kJ/mol
# Density = 1.627950 g / cm^3
# Si number density = 16.316636 Si / 1000 Ang^3
#
#
#
# Elastic Constant Matrix: (Units=GPa)
#
#
# Indices 1 2 3 4 5 6 
#
# 1 78.8790 39.4191 97.4664 0.0000 1.5449 0.0000
# 2 39.4191 29.5881 57.8286 0.0000 0.1853 0.0000
# 3 97.4664 57.8286 156.9321 0.0000 1.2212 0.0000
# 4 0.0000 0.0000 0.0000 26.8036 0.0000 0.4550
# 5 1.5449 0.1853 1.2212 0.0000 23.4253 0.0000
# 6 0.0000 0.0000 0.0000 0.4550 0.0000 22.5431
#
#
#
# Elastic Compliance Matrix: (Units=1/GPa)
#
#
# Indices 1 2 3 4 5 6 
#
# 1 0.059424 -0.025220 -0.027596 0.000000 -0.002281 0.000000
# 2 -0.025220 0.131540 -0.032827 0.000000 0.002334 0.000000
# 3 -0.027596 -0.032827 0.035606 0.000000 0.000223 0.000000
# 4 0.000000 0.000000 0.000000 0.037321 0.000000 -0.000753
# 5 -0.002281 0.002334 0.000223 0.000000 0.042809 0.000000
# 6 0.000000 0.000000 0.000000 -0.000753 0.000000 0.044375
#
#
# Mechanical properties :
#
#
# Convention : Reuss Voigt Hill
#
# Bulk Modulus (GPa) = 18.08778 72.75861 45.42319
# Shear Modulus (GPa) = 9.24575 19.26673 14.25624
#
# Velocity S-wave (km/s) = 2.38301 3.44001 2.95909
# Velocity P-wave (km/s) = 4.32218 7.77603 6.29078
#
# Compressibility (1/GPa) = 0.05528596
#
# Stress axis : x y z
#
# Youngs Moduli (GPa) = 16.82811 7.60223 28.08526
#
# Poissons Ratio (x) = 0.19173 0.77503
# Poissons Ratio (y) = 0.42440 0.92194
# Poissons Ratio (z) = 0.46438 0.24956
#
# Static dielectric constant tensor:
#      x y z
#    x 1.524770 0.000000 -0.000700 
#    y 0.000000 1.544460 0.000000 
#    z -0.000700 0.000000 1.558700 
# 
# From -- ./inp_files/341998.got.cif
#   From: 2010.05.17/outbox.cif.g08.bks.cpg/sg12_171_cif.got.tgz:341998.got - 2010.06.03 13:09:07.
