data_PCOD9192366
_publ_section_title
;
Structure prediction by ZEFSAII (Michael W. Deem and Ramdas Pophale) SiO2 
 PCOD9192366
Probable space group: C 2/M
;
_chemical_formula_sum "Si O2"
_cell_formula_units_Z 48
_cell_length_a 17.279425
_cell_length_b 9.183697
_cell_length_c 21.782574
_cell_angle_alpha 90.000000
_cell_angle_beta 142.299075
_cell_angle_gamma 90.000000
_cell_volume 2113.882132
_symmetry_space_group_name_H-M "C 2/M"
_symmetry_group_IT_number 12
_symmetry_cell_setting 'monoclinic'
loop_
_space_group_symop_operation_xyz
x,y,z
-x,y,-z
-x,-y,-z
x,-y,z
1/2+x,1/2+y,z
1/2-x,1/2+y,-z
1/2-x,1/2-y,-z
1/2+x,1/2-y,z
loop_
_atom_site_type_symbol
_atom_site_label
_atom_site_fract_x
_atom_site_fract_y
_atom_site_fract_z
Si Si1 0.721378 0.661634 0.592719
Si Si2 0.031566 0.176113 0.294369
Si Si3 0.440637 0.666832 0.109524
Si Si4 0.353304 0.669687 0.928287
Si Si5 0.777610 0.237194 0.754441
Si Si6 0.496975 0.837198 0.399322
O O1 0.725126 0.500000 0.567384
O O2 0.826486 0.232333 0.629784
O O3 0.052105 0.226755 0.817072
O O4 0.755519 0.350221 0.686065
O O5 0.412933 0.264140 0.503533
O O6 0.991471 0.257172 0.330444
O O7 0.027155 0.000000 0.295621
O O8 0.398863 0.500000 0.087619
O O9 0.588445 0.666091 0.180532
O O10 0.359750 0.729747 0.002019
O O11 0.305016 0.500000 0.895644
O O12 0.292154 0.766895 0.836314
O O13 0.500000 0.659630 0.000000
O O14 0.646496 0.151450 0.667565
O O15 0.550210 0.000000 0.428127
#
# Coordination Sequence:
#
# PCOD9192366 Si02
#       6
#     8   8   8   8   8   8
#     4  11  24  41  59  79 108 146 188 232 279 331
#     4  10  21  39  61  82 109 146 188 228 272 329
#     4   8  15  31  57  84 107 140 185 226 266 321
#     4   8  13  26  52  83 110 138 179 224 265 318
#     4  10  20  33  55  82 112 144 178 224 275 323
#     4  12  24  36  54  82 116 149 185 229 276 326
#
# _framework density 22.707038000000001
#
# number of rings (size 3 to 8) (size 9 to 14) (size 15 to 20)
#    0.000    2.167    0.000    5.000    0.000    6.000 
#    0.000    0.833    0.000   13.500    0.000    0.000 
#    0.000    0.000    0.000    0.000    0.000    0.000 
#
# Total GULP energy -133690.903564 kJ/mol
# GULP energy per Si atom -5570.454315 kJ/mol
# Density = 2.265536 g / cm^3
# Si number density = 22.707038 Si / 1000 Ang^3
#
#
#
# Elastic Constant Matrix: (Units=GPa)
#
#
# Indices 1 2 3 4 5 6 
#
# 1 59.5731 19.7784 33.6403 0.0000 -22.9954 0.0000
# 2 19.7784 82.5606 6.4456 0.0000 -5.3743 0.0000
# 3 33.6403 6.4456 93.7142 0.0000 -16.3239 0.0000
# 4 0.0000 0.0000 0.0000 10.6440 0.0000 -7.0398
# 5 -22.9954 -5.3743 -16.3239 0.0000 48.0640 0.0000
# 6 0.0000 0.0000 0.0000 -7.0398 0.0000 -5.3355
#
#
#
# Elastic Compliance Matrix: (Units=1/GPa)
#
#
# Indices 1 2 3 4 5 6 
#
# 1 0.026366 -0.005115 -0.007456 0.000000 0.009510 0.000000
# 2 -0.005115 0.013230 0.000805 0.000000 -0.000694 0.000000
# 3 -0.007456 0.000805 0.013484 0.000000 0.001102 0.000000
# 4 0.000000 0.000000 0.000000 0.050169 0.000000 -0.066195
# 5 0.009510 -0.000694 0.001102 0.000000 0.025652 0.000000
# 6 0.000000 0.000000 0.000000 -0.066195 0.000000 -0.100085
#
#
# Mechanical properties :
#
#
# Convention : Reuss Voigt Hill
#
# Bulk Modulus (GPa) = 33.84402 39.50850 36.67626
# Shear Modulus (GPa) = 80.39062 22.40675 51.39868
#
# Velocity S-wave (km/s) = 5.95653 3.14471 4.76285
# Velocity P-wave (km/s) = 7.88949 5.53377 6.81420
#
# Compressibility (1/GPa) = 0.02954731
#
# Stress axis : x y z
#
# Youngs Moduli (GPa) = 37.92835 75.58800 74.16291
#
# Poissons Ratio (x) = 0.38664 0.55296
# Poissons Ratio (y) = 0.19401 -0.05972
# Poissons Ratio (z) = 0.28279 -0.06087
#
# Static dielectric constant tensor:
#      x y z
#    x 1.902050 0.000000 -0.040130 
#    y 0.000000 1.785060 0.000000 
#    z -0.040130 0.000000 1.881450 
# 
# From -- ./inp_files/365549.got.cif
#   From: 2010.05.17/outbox.cif.g08.bks.cpg/sg12_183_cif.got.tgz:365549.got - 2010.06.03 13:09:07.
