data_PCOD9192979
_publ_section_title
;
Structure prediction by ZEFSAII (Michael W. Deem and Ramdas Pophale) SiO2 
 PCOD9192979
Probable space group: C 2/M
;
_chemical_formula_sum "Si O2"
_cell_formula_units_Z 56
_cell_length_a 16.056590
_cell_length_b 9.059355
_cell_length_c 28.754155
_cell_angle_alpha 90.000000
_cell_angle_beta 35.281916
_cell_angle_gamma 90.000000
_cell_volume 2415.896873
_symmetry_space_group_name_H-M "C 2/M"
_symmetry_group_IT_number 12
_symmetry_cell_setting 'monoclinic'
loop_
_space_group_symop_operation_xyz
x,y,z
-x,y,-z
-x,-y,-z
x,-y,z
1/2+x,1/2+y,z
1/2-x,1/2+y,-z
1/2-x,1/2-y,-z
1/2+x,1/2-y,z
loop_
_atom_site_type_symbol
_atom_site_label
_atom_site_fract_x
_atom_site_fract_y
_atom_site_fract_z
Si Si1 0.222270 0.673225 0.372757
Si Si2 0.667985 0.829487 0.764569
Si Si3 0.101533 0.328097 0.523276
Si Si4 0.252351 0.327824 0.048427
Si Si5 0.992431 0.169955 0.660092
Si Si6 0.851892 0.176742 0.816193
Si Si7 0.581134 0.327797 0.893517
O O1 0.264071 0.500000 0.353329
O O2 0.318686 0.764959 0.293210
O O3 0.204410 0.724810 0.434285
O O4 0.060220 0.680128 0.424986
O O5 0.831601 0.826684 0.710807
O O6 0.581205 0.726677 0.839868
O O7 0.620875 0.000000 0.786917
O O8 0.131052 0.500000 0.517431
O O9 0.092066 0.248518 0.576954
O O10 0.219522 0.500000 0.058770
O O11 0.149943 0.253695 0.133137
O O12 0.250000 0.250000 0.000000
O O13 0.420532 0.316141 0.986648
O O14 0.966527 0.225950 0.724451
O O15 0.035599 0.000000 0.643691
O O16 0.697176 0.224338 0.865420
O O17 0.860670 0.000000 0.816437
O O18 0.626299 0.500000 0.875561
#
# Coordination Sequence:
#
# PCOD9192979 Si02
#       7
#     8   8   8   8   8   8   8
#     4   8  13  21  32  50  80 117 154 191 232 277
#     4   9  16  25  39  61  87 119 158 196 237 282
#     4   8  13  20  32  51  78 116 156 190 229 276
#     4  11  24  39  55  75  99 128 161 200 247 296
#     4   8  15  25  37  58  87 118 153 192 233 276
#     4  10  20  34  53  76 101 130 164 202 244 290
#     4  10  20  34  52  74  99 128 164 203 244 291
#
# _framework density 23.179797000000001
#
# number of rings (size 3 to 8) (size 9 to 14) (size 15 to 20)
#    0.000    2.857    0.000    3.857    0.000    8.571 
#    0.000    2.857    0.000    0.000    0.000    0.000 
#    0.000    1.143    0.000    3.714    0.000    9.143 
#
# Total GULP energy -156560.099188 kJ/mol
# GULP energy per Si atom -5591.432114 kJ/mol
# Density = 2.312704 g / cm^3
# Si number density = 23.179797 Si / 1000 Ang^3
#
#
#
# Elastic Constant Matrix: (Units=GPa)
#
#
# Indices 1 2 3 4 5 6 
#
# 1 104.2561 24.7683 54.0788 0.0000 27.0336 -0.0001
# 2 24.7683 78.0529 68.6642 0.0000 28.0123 -0.0001
# 3 54.0788 68.6642 194.3616 0.0000 36.3999 0.0000
# 4 0.0000 0.0000 0.0000 33.8791 0.0000 21.7993
# 5 27.0336 28.0123 36.3999 0.0000 62.7128 0.0000
# 6 -0.0001 -0.0001 0.0000 21.7993 0.0000 14.9862
#
#
#
# Elastic Compliance Matrix: (Units=1/GPa)
#
#
# Indices 1 2 3 4 5 6 
#
# 1 0.011894 -0.000259 -0.002558 -0.000001 -0.003527 0.000001
# 2 -0.000259 0.020131 -0.006033 -0.000001 -0.005379 0.000002
# 3 -0.002558 -0.006033 0.008164 0.000000 -0.000942 -0.000001
# 4 -0.000001 -0.000001 0.000000 0.460958 0.000000 -0.670520
# 5 -0.003527 -0.005379 -0.000942 0.000000 0.020416 0.000000
# 6 0.000001 0.000002 -0.000001 -0.670520 0.000000 1.042083
#
#
# Mechanical properties :
#
#
# Convention : Reuss Voigt Hill
#
# Bulk Modulus (GPa) = 44.45922 74.63258 59.54590
# Shear Modulus (GPa) = 3.14695 37.59291 20.36993
#
# Velocity S-wave (km/s) = 1.16644 4.03152 2.96764
# Velocity P-wave (km/s) = 4.58649 7.34425 6.12266
#
# Compressibility (1/GPa) = 0.02249252
#
# Stress axis : x y z
#
# Youngs Moduli (GPa) = 84.07264 49.67347 122.48575
#
# Poissons Ratio (x) = 0.01285 0.31326
# Poissons Ratio (y) = 0.02174 0.73892
# Poissons Ratio (z) = 0.21502 0.29966
#
# Static dielectric constant tensor:
#      x y z
#    x 1.983730 0.000000 -0.047530 
#    y 0.000000 1.770540 0.000000 
#    z -0.047530 0.000000 1.881120 
# 
# From -- ./inp_files/377658.got.cif
#   From: 2010.05.17/outbox.cif.g08.bks.cpg/sg12_189_cif.got.tgz:377658.got - 2010.06.03 13:09:07.
