data_PCOD9192740
_publ_section_title
;
Structure prediction by ZEFSAII (Michael W. Deem and Ramdas Pophale) SiO2 
 PCOD9192740
Probable space group: C 2/M
;
_chemical_formula_sum "Si O2"
_cell_formula_units_Z 48
_cell_length_a 30.443168
_cell_length_b 7.548426
_cell_length_c 18.366055
_cell_angle_alpha 90.000000
_cell_angle_beta 32.885025
_cell_angle_gamma 90.000000
_cell_volume 2291.532137
_symmetry_space_group_name_H-M "C 2/M"
_symmetry_group_IT_number 12
_symmetry_cell_setting 'monoclinic'
loop_
_space_group_symop_operation_xyz
x,y,z
-x,y,-z
-x,-y,-z
x,-y,z
1/2+x,1/2+y,z
1/2-x,1/2+y,-z
1/2-x,1/2-y,-z
1/2+x,1/2-y,z
loop_
_atom_site_type_symbol
_atom_site_label
_atom_site_fract_x
_atom_site_fract_y
_atom_site_fract_z
Si Si1 0.018703 0.216286 0.357926
Si Si2 0.371273 0.285830 0.659696
Si Si3 0.768044 0.212474 0.358455
Si Si4 0.196112 0.206750 0.851550
Si Si5 0.446522 0.294247 0.851458
Si Si6 0.620948 0.211089 0.659733
O O1 0.085133 0.267013 0.325844
O O2 0.039374 0.282206 0.248831
O O3 0.931333 0.272024 0.510869
O O4 0.016543 0.000000 0.359783
O O5 0.368252 0.500000 0.662991
O O6 0.281383 0.217805 0.774042
O O7 0.789558 0.283896 0.248980
O O8 0.684034 0.279428 0.510595
O O9 0.837490 0.249331 0.320897
O O10 0.759113 0.000000 0.365415
O O11 0.174994 0.000000 0.869259
O O12 0.124387 0.285141 0.000299
O O13 0.424279 0.500000 0.870166
O O14 0.532144 0.286844 0.773020
O O15 0.614528 0.000000 0.661208
#
# Coordination Sequence:
#
# PCOD9192740 Si02
#       6
#     8   8   8   8   8   8
#     4   8  16  32  53  75  97 128 169 204 239 288
#     4   9  17  32  54  75  97 128 167 208 243 280
#     4   9  19  36  54  72  98 130 162 199 246 296
#     4  10  21  34  49  73 103 133 163 197 243 297
#     4  10  20  34  51  71 101 137 165 194 241 298
#     4  10  20  34  54  77  97 122 164 211 245 282
#
# _framework density 20.946683
#
# number of rings (size 3 to 8) (size 9 to 14) (size 15 to 20)
#    0.000    2.667    0.000    2.500    0.000    3.333 
#    0.000    5.833    0.000    0.000    0.000    0.000 
#    0.000    0.000    0.000    0.000    0.000    0.000 
#
# Total GULP energy -133983.924957 kJ/mol
# GULP energy per Si atom -5582.663540 kJ/mol
# Density = 2.089901 g / cm^3
# Si number density = 20.946683 Si / 1000 Ang^3
#
#
#
# Elastic Constant Matrix: (Units=GPa)
#
#
# Indices 1 2 3 4 5 6 
#
# 1 -0.8007 -54.1701 40.9830 0.0029 -118.3067 -0.0064
# 2 -54.1701 27.5733 -28.4913 0.0019 -49.4589 -0.0042
# 3 40.9830 -28.4913 148.4914 0.0117 -81.0407 -0.0046
# 4 0.0029 0.0019 0.0117 0.8109 0.0044 -8.5411
# 5 -118.3067 -49.4589 -81.0407 0.0044 -136.2803 -0.0075
# 6 -0.0064 -0.0042 -0.0046 -8.5411 -0.0075 12.6899
#
#
#
# Elastic Compliance Matrix: (Units=1/GPa)
#
#
# Indices 1 2 3 4 5 6 
#
# 1 0.027899 0.007205 -0.015826 -0.000034 -0.017423 -0.000023
# 2 0.007205 0.023830 -0.004190 -0.000012 -0.012411 -0.000005
# 3 -0.015826 -0.004190 0.014063 0.000029 0.006897 0.000019
# 4 -0.000034 -0.000012 0.000029 -0.202519 0.000018 -0.136309
# 5 -0.017423 -0.012411 0.006897 0.000018 0.008190 0.000007
# 6 -0.000023 -0.000005 0.000019 -0.136309 0.000007 -0.012942
#
#
# Mechanical properties :
#
#
# Convention : Reuss Voigt Hill
#
# Bulk Modulus (GPa) = 24.89525 10.21190 17.55358
# Shear Modulus (GPa) = -48.79542 -10.09306 -29.44424
#
# Velocity S-wave (km/s) = -4.83173 -2.19748 -3.75330
# Velocity P-wave (km/s) = 4.38368 1.24610 3.22253
#
# Compressibility (1/GPa) = 0.04016830
#
# Stress axis : x y z
#
# Youngs Moduli (GPa) = 35.84406 41.96462 71.11097
#
# Poissons Ratio (x) = -0.30234 1.12541
# Poissons Ratio (y) = -0.25825 0.29794
# Poissons Ratio (z) = 0.56727 0.17582
#
# Static dielectric constant tensor:
#      x y z
#    x 1.713890 0.000000 0.035790 
#    y 0.000000 1.782690 0.000010 
#    z 0.035790 0.000010 1.755050 
# 
# From -- ./inp_files/244888.got.cif
#   From: 2010.05.17/outbox.cif.g08.bks.cpg/sg12_123_cif.got.tgz:244888.got - 2010.06.03 13:09:07.
