data_PCOD9192642
_publ_section_title
;
Structure prediction by ZEFSAII (Michael W. Deem and Ramdas Pophale) SiO2 
 PCOD9192642
Probable space group: C 2/M
;
_chemical_formula_sum "Si O2"
_cell_formula_units_Z 64
_cell_length_a 18.559311
_cell_length_b 13.926617
_cell_length_c 25.839426
_cell_angle_alpha 90.000000
_cell_angle_beta 28.440055
_cell_angle_gamma 90.000000
_cell_volume 3180.646065
_symmetry_space_group_name_H-M "C 2/M"
_symmetry_group_IT_number 12
_symmetry_cell_setting 'monoclinic'
loop_
_space_group_symop_operation_xyz
x,y,z
-x,y,-z
-x,-y,-z
x,-y,z
1/2+x,1/2+y,z
1/2-x,1/2+y,-z
1/2-x,1/2-y,-z
1/2+x,1/2-y,z
loop_
_atom_site_type_symbol
_atom_site_label
_atom_site_fract_x
_atom_site_fract_y
_atom_site_fract_z
Si Si1 0.124446 0.886288 0.050971
Si Si2 0.531605 0.899443 0.918405
Si Si3 0.505978 0.382795 0.583578
Si Si4 0.411208 0.759882 0.731722
Si Si5 0.108943 0.809194 0.880749
Si Si6 0.310191 0.390014 0.879692
Si Si7 0.453059 0.883397 0.800119
Si Si8 0.259301 0.614650 0.652979
O O1 0.109153 0.852557 0.119686
O O2 0.979808 0.865248 0.107355
O O3 0.141994 0.000000 0.045081
O O4 0.282296 0.853904 0.924915
O O5 0.613106 0.800792 0.859678
O O6 0.608085 0.000000 0.855519
O O7 0.500000 0.904308 0.000000
O O8 0.368224 0.894343 0.995199
O O9 0.504147 0.500000 0.596684
O O10 0.498073 0.307923 0.636110
O O11 0.651226 0.360462 0.456173
O O12 0.363825 0.359418 0.635570
O O13 0.281532 0.826654 0.787383
O O14 0.330216 0.680090 0.819234
O O15 0.492233 0.829519 0.721684
O O16 0.000000 0.816874 0.000000
O O17 0.355897 0.500000 0.838024
O O18 0.584033 0.856877 0.758551
O O19 0.453635 0.000000 0.793758
O O20 0.260337 0.500000 0.652576
#
# Coordination Sequence:
#
# PCOD9192642 Si02
#       8
#     8   8   8   8   8   8   8   8
#     4  10  22  37  53  70 101 151 191 220 255 300
#     4   9  16  28  44  62  93 131 159 201 257 302
#     4   9  19  36  60  85 108 134 167 212 274 333
#     4  12  22  32  53  82 108 142 175 219 266 314
#     4  11  20  35  47  73 102 141 183 221 252 295
#     4  10  20  34  49  72 105 137 175 219 265 314
#     4  10  21  37  54  76 104 141 186 223 259 306
#     4   8  17  38  60  80 107 134 168 220 269 321
#
# _framework density 20.121697999999999
#
# number of rings (size 3 to 8) (size 9 to 14) (size 15 to 20)
#    0.000    2.125    3.750    1.125    0.000    5.750 
#    0.000    2.500    0.000    0.000    0.000    1.750 
#    0.000    0.000    0.000    0.000    0.000    0.000 
#
# Total GULP energy -178443.629418 kJ/mol
# GULP energy per Si atom -5576.363419 kJ/mol
# Density = 2.007590 g / cm^3
# Si number density = 20.121698 Si / 1000 Ang^3
#
#
#
# Elastic Constant Matrix: (Units=GPa)
#
#
# Indices 1 2 3 4 5 6 
#
# 1 84.0318 4.6397 5.0083 0.0013 0.0858 -0.0017
# 2 4.6397 43.7641 2.5378 0.0036 4.9903 -0.0016
# 3 5.0083 2.5378 62.7434 0.0077 13.9905 -0.0072
# 4 0.0013 0.0036 0.0077 47.2311 -0.0006 -36.1893
# 5 0.0858 4.9903 13.9905 -0.0006 26.1325 0.0006
# 6 -0.0017 -0.0016 -0.0072 -36.1893 0.0006 74.4693
#
#
#
# Elastic Compliance Matrix: (Units=1/GPa)
#
#
# Indices 1 2 3 4 5 6 
#
# 1 0.012036 -0.001303 -0.001084 0.000000 0.000790 0.000000
# 2 -0.001303 0.023500 0.000174 -0.000002 -0.004576 -0.000001
# 3 -0.001084 0.000174 0.018196 -0.000003 -0.009771 0.000000
# 4 0.000000 -0.000002 -0.000003 0.033733 0.000002 0.016393
# 5 0.000790 -0.004576 -0.009771 0.000002 0.044369 0.000000
# 6 0.000000 -0.000001 0.000000 0.016393 0.000000 0.021395
#
#
# Mechanical properties :
#
#
# Convention : Reuss Voigt Hill
#
# Bulk Modulus (GPa) = 20.28183 23.87900 22.08041
# Shear Modulus (GPa) = 28.72066 41.45681 35.08873
#
# Velocity S-wave (km/s) = 3.78212 4.54398 4.18044
# Velocity P-wave (km/s) = 5.40130 6.27881 5.85651
#
# Compressibility (1/GPa) = 0.04930521
#
# Stress axis : x y z
#
# Youngs Moduli (GPa) = 83.08396 42.55379 54.95641
#
# Poissons Ratio (x) = 0.05546 0.05958
# Poissons Ratio (y) = 0.10828 -0.00956
# Poissons Ratio (z) = 0.09007 -0.00740
#
# Static dielectric constant tensor:
#      x y z
#    x 1.790510 0.000000 0.003440 
#    y 0.000000 1.720630 0.000000 
#    z 0.003440 0.000000 1.760580 
# 
# From -- ./inp_files/344034.got.cif
#   From: 2010.05.17/outbox.cif.g08.bks.cpg/sg12_173_cif.got.tgz:344034.got - 2010.06.03 13:09:07.
