data_PCOD9192469
_publ_section_title
;
Structure prediction by ZEFSAII (Michael W. Deem and Ramdas Pophale) SiO2 
 PCOD9192469
Probable space group: C 2/M
;
_chemical_formula_sum "Si O2"
_cell_formula_units_Z 48
_cell_length_a 10.192462
_cell_length_b 27.664892
_cell_length_c 7.419558
_cell_angle_alpha 90.000000
_cell_angle_beta 86.565253
_cell_angle_gamma 90.000000
_cell_volume 2088.359585
_symmetry_space_group_name_H-M "C 2/M"
_symmetry_group_IT_number 12
_symmetry_cell_setting 'monoclinic'
loop_
_space_group_symop_operation_xyz
x,y,z
-x,y,-z
-x,-y,-z
x,-y,z
1/2+x,1/2+y,z
1/2-x,1/2+y,-z
1/2-x,1/2-y,-z
1/2+x,1/2-y,z
loop_
_atom_site_type_symbol
_atom_site_label
_atom_site_fract_x
_atom_site_fract_y
_atom_site_fract_z
Si Si1 0.223986 0.698792 0.174671
Si Si2 0.113732 0.153441 0.132104
Si Si3 0.994398 0.762988 0.300964
Si Si4 0.403381 0.943462 0.290487
Si Si5 0.811304 0.597260 0.656007
Si Si6 0.803561 0.054949 0.986612
O O1 0.092566 0.729979 0.177047
O O2 0.347635 0.730013 0.238096
O O3 0.210175 0.653817 0.312382
O O4 0.257814 0.674215 0.978882
O O5 0.069312 0.184681 0.304154
O O6 0.116610 0.095816 0.127830
O O7 0.000000 0.166951 0.000000
O O8 0.000000 0.741718 0.500000
O O9 0.540945 0.916374 0.294479
O O10 0.307777 0.920569 0.450557
O O11 0.337507 0.941707 0.101016
O O12 0.423112 0.000000 0.331570
O O13 0.714900 0.570246 0.804332
O O14 0.849553 0.000000 0.964809
#
# Coordination Sequence:
#
# PCOD9192469 Si02
#       6
#     8   8   8   8   8   8
#     4  10  23  40  60  89 117 164 199 253 305 372
#     4   9  21  41  59  84 119 160 202 251 307 361
#     4  11  23  39  63  86 121 155 206 253 306 362
#     4  10  20  33  56  86 124 161 199 253 303 359
#     4  10  20  35  57  84 123 155 201 249 306 359
#     4  10  20  35  59  87 118 159 206 246 304 367
#
# _framework density 22.984548
#
# number of rings (size 3 to 8) (size 9 to 14) (size 15 to 20)
#    0.000    2.000    0.000    3.500    4.667    3.000 
#    0.000    5.000    0.000    0.500    0.000    0.000 
#    0.000    0.000    0.000    0.000    0.000    0.000 
#
# Total GULP energy -134015.999795 kJ/mol
# GULP energy per Si atom -5583.999991 kJ/mol
# Density = 2.293223 g / cm^3
# Si number density = 22.984548 Si / 1000 Ang^3
#
#
#
# Elastic Constant Matrix: (Units=GPa)
#
#
# Indices 1 2 3 4 5 6 
#
# 1 83.6312 44.0625 16.3633 0.0000 -7.3024 0.0000
# 2 44.0625 129.9219 19.6693 0.0000 -14.1068 0.0000
# 3 16.3633 19.6693 74.2081 0.0000 -8.6258 0.0000
# 4 0.0000 0.0000 0.0000 65.2520 0.0000 -21.8748
# 5 -7.3024 -14.1068 -8.6258 0.0000 21.6238 0.0000
# 6 0.0000 0.0000 0.0000 -21.8748 0.0000 38.5567
#
#
#
# Elastic Compliance Matrix: (Units=1/GPa)
#
#
# Indices 1 2 3 4 5 6 
#
# 1 0.014874 -0.004620 -0.001910 0.000000 0.001247 0.000000
# 2 -0.004620 0.009914 -0.001089 0.000000 0.004473 0.000000
# 3 -0.001910 -0.001089 0.014710 0.000000 0.004512 0.000000
# 4 0.000000 0.000000 0.000000 0.018925 0.000000 0.010737
# 5 0.001247 0.004473 0.004512 0.000000 0.051384 0.000000
# 6 0.000000 0.000000 0.000000 0.010737 0.000000 0.032027
#
#
# Mechanical properties :
#
#
# Convention : Reuss Voigt Hill
#
# Bulk Modulus (GPa) = 41.22076 49.77237 45.49657
# Shear Modulus (GPa) = 30.27374 38.93093 34.60234
#
# Velocity S-wave (km/s) = 3.63317 4.12003 3.88424
# Velocity P-wave (km/s) = 5.96431 6.65842 6.32090
#
# Compressibility (1/GPa) = 0.02425962
#
# Stress axis : x y z
#
# Youngs Moduli (GPa) = 67.23163 100.86418 67.98083
#
# Poissons Ratio (x) = 0.46597 0.12986
# Poissons Ratio (y) = 0.31060 0.07405
# Poissons Ratio (z) = 0.12843 0.10986
#
# Static dielectric constant tensor:
#      x y z
#    x 1.882630 0.000000 -0.021630 
#    y 0.000000 1.869170 0.000000 
#    z -0.021630 0.000000 1.883200 
# 
# From -- ./inp_files/50598.got.cif
#   From: 2010.05.17/outbox.cif.g08.bks.cpg/sg12_26_cif.got.tgz:50598.got - 2010.06.03 13:09:07.
