data_PCOD9192962
_publ_section_title
;
Structure prediction by ZEFSAII (Michael W. Deem and Ramdas Pophale) SiO2 
 PCOD9192962
Probable space group: C 2/M
;
_chemical_formula_sum "Si O2"
_cell_formula_units_Z 48
_cell_length_a 32.342560
_cell_length_b 8.572906
_cell_length_c 20.733039
_cell_angle_alpha 90.000000
_cell_angle_beta 151.889251
_cell_angle_gamma 90.000000
_cell_volume 2708.630957
_symmetry_space_group_name_H-M "C 2/M"
_symmetry_group_IT_number 12
_symmetry_cell_setting 'monoclinic'
loop_
_space_group_symop_operation_xyz
x,y,z
-x,y,-z
-x,-y,-z
x,-y,z
1/2+x,1/2+y,z
1/2-x,1/2+y,-z
1/2-x,1/2-y,-z
1/2+x,1/2-y,z
loop_
_atom_site_type_symbol
_atom_site_label
_atom_site_fract_x
_atom_site_fract_y
_atom_site_fract_z
Si Si1 0.322876 0.811590 0.051997
Si Si2 0.696649 0.686354 0.365152
Si Si3 0.798014 0.311493 0.375594
Si Si4 0.980275 0.689561 0.679798
Si Si5 0.679644 0.811983 0.100270
Si Si6 0.480956 0.188082 0.831174
O O1 0.422196 0.759224 0.205685
O O2 0.322078 0.000000 0.052347
O O3 0.250000 0.750000 0.000000
O O4 0.306799 0.763668 0.955497
O O5 0.701241 0.500000 0.373414
O O6 0.750000 0.750000 0.500000
O O7 0.742275 0.739153 0.361668
O O8 0.596306 0.740374 0.233127
O O9 0.798177 0.500000 0.374782
O O10 0.898129 0.257506 0.524472
O O11 0.751595 0.251853 0.247714
O O12 0.980758 0.500000 0.679176
O O13 0.965845 0.731464 0.735111
O O14 0.681013 0.000000 0.103339
O O15 0.580609 0.764017 0.984280
O O16 0.475770 0.000000 0.828035
#
# Coordination Sequence:
#
# PCOD9192962 Si02
#       6
#     8   8   8   8   8   8
#     4   9  18  35  59  80 100 129 168 210 254 310
#     4  11  21  32  50  76 104 137 179 220 255 295
#     4  10  20  34  52  74 104 139 173 213 254 300
#     4   8  15  32  54  73  98 136 173 205 250 305
#     4   9  20  36  54  76 105 139 169 208 262 309
#     4   9  17  34  54  71  99 139 180 215 250 299
#
# _framework density 17.721129000000001
#
# number of rings (size 3 to 8) (size 9 to 14) (size 15 to 20)
#    0.000    2.667    1.667    2.500    0.000    3.333 
#    0.000    7.500    0.000    5.000    0.000    0.000 
#    0.000    0.000    0.000    0.000    0.000    0.000 
#
# Total GULP energy -133824.473274 kJ/mol
# GULP energy per Si atom -5576.019720 kJ/mol
# Density = 1.768080 g / cm^3
# Si number density = 17.721129 Si / 1000 Ang^3
#
#
#
# Elastic Constant Matrix: (Units=GPa)
#
#
# Indices 1 2 3 4 5 6 
#
# 1 127.8559 22.6768 87.1865 0.0000 23.5798 0.0000
# 2 22.6768 10.4985 23.5885 0.0000 2.7869 0.0000
# 3 87.1865 23.5885 181.5008 0.0000 9.2403 0.0000
# 4 0.0000 0.0000 0.0000 30.3377 0.0000 1.1520
# 5 23.5798 2.7869 9.2403 0.0000 23.2244 0.0000
# 6 0.0000 0.0000 0.0000 1.1520 0.0000 28.7371
#
#
#
# Elastic Compliance Matrix: (Units=1/GPa)
#
#
# Indices 1 2 3 4 5 6 
#
# 1 0.017799 -0.024335 -0.004711 0.000000 -0.013276 0.000000
# 2 -0.024335 0.169840 -0.010823 0.000000 0.008633 0.000000
# 3 -0.004711 -0.010823 0.009053 0.000000 0.002480 0.000000
# 4 0.000000 0.000000 0.000000 0.033013 0.000000 -0.001323
# 5 -0.013276 0.008633 0.002480 0.000000 0.054515 0.000000
# 6 0.000000 0.000000 0.000000 -0.001323 0.000000 0.034851
#
#
# Mechanical properties :
#
#
# Convention : Reuss Voigt Hill
#
# Bulk Modulus (GPa) = 8.55040 65.19542 36.87291
# Shear Modulus (GPa) = 11.42090 28.88673 20.15382
#
# Velocity S-wave (km/s) = 2.54141 4.04180 3.37601
# Velocity P-wave (km/s) = 3.66704 7.65839 6.00409
#
# Compressibility (1/GPa) = 0.11695360
#
# Stress axis : x y z
#
# Youngs Moduli (GPa) = 56.18438 5.88788 110.46043
#
# Poissons Ratio (x) = 0.14328 0.52040
# Poissons Ratio (y) = 1.36726 1.19549
# Poissons Ratio (z) = 0.26470 0.06372
#
# Static dielectric constant tensor:
#      x y z
#    x 1.585210 0.000000 0.015680 
#    y 0.000000 1.610140 0.000000 
#    z 0.015680 0.000000 1.611780 
# 
# From -- ./inp_files/246017.got.cif
#   From: 2010.05.17/outbox.cif.g08.bks.cpg/sg12_124_cif.got.tgz:246017.got - 2010.06.03 13:09:07.
