data_PCOD9192187
_publ_section_title
;
Structure prediction by ZEFSAII (Michael W. Deem and Ramdas Pophale) SiO2 
 PCOD9192187
Probable space group: C 2/M
;
_chemical_formula_sum "Si O2"
_cell_formula_units_Z 64
_cell_length_a 15.390248
_cell_length_b 8.815592
_cell_length_c 24.996027
_cell_angle_alpha 90.000000
_cell_angle_beta 90.581671
_cell_angle_gamma 90.000000
_cell_volume 3391.139885
_symmetry_space_group_name_H-M "C 2/M"
_symmetry_group_IT_number 12
_symmetry_cell_setting 'monoclinic'
loop_
_space_group_symop_operation_xyz
x,y,z
-x,y,-z
-x,-y,-z
x,-y,z
1/2+x,1/2+y,z
1/2-x,1/2+y,-z
1/2-x,1/2-y,-z
1/2+x,1/2-y,z
loop_
_atom_site_type_symbol
_atom_site_label
_atom_site_fract_x
_atom_site_fract_y
_atom_site_fract_z
Si Si1 0.770086 0.670039 0.055787
Si Si2 0.471066 0.684046 0.440851
Si Si3 0.774145 0.818134 0.166532
Si Si4 0.373641 0.682882 0.635470
Si Si5 0.978457 0.327011 0.058538
Si Si6 0.877147 0.317621 0.753777
Si Si7 0.522994 0.318673 0.830076
Si Si8 0.227557 0.183095 0.558096
O O1 0.734568 0.500000 0.055048
O O2 0.741911 0.755057 0.109341
O O3 0.874433 0.663905 0.060118
O O4 0.750000 0.750000 0.000000
O O5 0.500000 0.737843 0.500000
O O6 0.473515 0.500000 0.442511
O O7 0.539739 0.730831 0.396481
O O8 0.371841 0.726528 0.429581
O O9 0.708544 0.771599 0.212886
O O10 0.875130 0.773520 0.176273
O O11 0.773415 0.000000 0.163230
O O12 0.375150 0.745736 0.695230
O O13 0.293125 0.749344 0.601736
O O14 0.869530 0.000000 0.635732
O O15 0.014025 0.500000 0.061792
O O16 0.005376 0.232462 0.110449
O O17 0.000000 0.263692 0.000000
O O18 0.878304 0.500000 0.750106
O O19 0.960825 0.260502 0.787034
O O20 0.517159 0.500000 0.825070
O O21 0.250000 0.250000 0.500000
O O22 0.233851 0.000000 0.556587
#
# Coordination Sequence:
#
# PCOD9192187 Si02
#       8
#     8   8   8   8   8   8   8   8
#     4  10  20  33  53  82 115 147 186 237 293 352
#     4   9  18  36  61  87 121 164 197 230 292 357
#     4   9  21  41  61  80 113 157 196 237 295 360
#     4  11  23  41  62  89 122 157 203 247 288 348
#     4   9  19  35  54  79 112 150 186 228 291 358
#     4  11  24  42  63  86 117 159 201 242 296 357
#     4  10  21  39  61  86 113 148 197 247 293 345
#     4  11  21  37  62  91 124 161 200 242 293 347
#
# _framework density 18.872710000000001
#
# number of rings (size 3 to 8) (size 9 to 14) (size 15 to 20)
#    0.000    2.000    1.250    1.875    1.750    3.250 
#    0.000    8.125    0.000    0.000    0.000    0.000 
#    0.000    0.000    0.000    0.000    0.000    0.000 
#
# Total GULP energy -178672.674034 kJ/mol
# GULP energy per Si atom -5583.521064 kJ/mol
# Density = 1.882976 g / cm^3
# Si number density = 18.872710 Si / 1000 Ang^3
#
#
#
# Elastic Constant Matrix: (Units=GPa)
#
#
# Indices 1 2 3 4 5 6 
#
# 1 131.4500 46.5639 96.7760 0.0000 -3.4378 0.0000
# 2 46.5639 54.9366 58.0289 0.0000 3.5528 0.0000
# 3 96.7760 58.0289 202.2873 0.0000 -3.3009 0.0000
# 4 0.0000 0.0000 0.0000 38.5036 0.0000 2.9468
# 5 -3.4378 3.5528 -3.3009 0.0000 34.9816 0.0000
# 6 0.0000 0.0000 0.0000 2.9468 0.0000 26.5850
#
#
#
# Elastic Compliance Matrix: (Units=1/GPa)
#
#
# Indices 1 2 3 4 5 6 
#
# 1 0.013256 -0.006694 -0.004396 0.000000 0.001568 0.000000
# 2 -0.006694 0.029898 -0.005443 0.000000 -0.004208 0.000000
# 3 -0.004396 -0.005443 0.008623 0.000000 0.000934 0.000000
# 4 0.000000 0.000000 0.000000 0.026194 0.000000 -0.002903
# 5 0.001568 -0.004208 0.000934 0.000000 0.029256 0.000000
# 6 0.000000 0.000000 0.000000 -0.002903 0.000000 0.037937
#
#
# Mechanical properties :
#
#
# Convention : Reuss Voigt Hill
#
# Bulk Modulus (GPa) = 53.44243 87.93463 70.68853
# Shear Modulus (GPa) = 27.10521 32.50103 29.80312
#
# Velocity S-wave (km/s) = 3.79385 4.15434 3.97818
# Velocity P-wave (km/s) = 6.89709 8.34902 7.65754
#
# Compressibility (1/GPa) = 0.01871172
#
# Stress axis : x y z
#
# Youngs Moduli (GPa) = 75.43748 33.44733 115.96596
#
# Poissons Ratio (x) = 0.22388 0.50979
# Poissons Ratio (y) = 0.50495 0.63120
# Poissons Ratio (z) = 0.33163 0.18205
#
# Static dielectric constant tensor:
#      x y z
#    x 1.652080 0.000000 -0.026600 
#    y 0.000000 1.655390 0.000000 
#    z -0.026600 0.000000 1.607260 
# 
# From -- ./inp_files/338744.got.cif
#   From: 2010.05.17/outbox.cif.g08.bks.cpg/sg12_170_cif.got.tgz:338744.got - 2010.06.03 13:09:07.
