data_PCOD9192490
_publ_section_title
;
Structure prediction by ZEFSAII (Michael W. Deem and Ramdas Pophale) SiO2 
 PCOD9192490
Probable space group: C 2/M
;
_chemical_formula_sum "Si O2"
_cell_formula_units_Z 64
_cell_length_a 23.141544
_cell_length_b 22.766356
_cell_length_c 11.545789
_cell_angle_alpha 90.000000
_cell_angle_beta 32.933807
_cell_angle_gamma 90.000000
_cell_volume 3307.079645
_symmetry_space_group_name_H-M "C 2/M"
_symmetry_group_IT_number 12
_symmetry_cell_setting 'monoclinic'
loop_
_space_group_symop_operation_xyz
x,y,z
-x,y,-z
-x,-y,-z
x,-y,z
1/2+x,1/2+y,z
1/2-x,1/2+y,-z
1/2-x,1/2-y,-z
1/2+x,1/2-y,z
loop_
_atom_site_type_symbol
_atom_site_label
_atom_site_fract_x
_atom_site_fract_y
_atom_site_fract_z
Si Si1 0.487117 0.327810 0.662759
Si Si2 0.610917 0.117674 0.356043
Si Si3 0.179256 0.567561 0.003309
Si Si4 0.278669 0.277575 0.074318
Si Si5 0.111126 0.064634 0.248148
Si Si6 0.811810 0.786413 0.553081
Si Si7 0.609754 0.181434 0.745795
Si Si8 0.459790 0.929366 0.279314
O O1 0.500000 0.319089 0.500000
O O2 0.420164 0.387731 0.792645
O O3 0.594596 0.326459 0.553249
O O4 0.405573 0.281806 0.853676
O O5 0.500000 0.147517 0.500000
O O6 0.637651 0.074473 0.204946
O O7 0.706143 0.163848 0.206335
O O8 0.590493 0.083782 0.509679
O O9 0.190599 0.500000 0.950579
O O10 0.084453 0.590272 0.082595
O O11 0.299299 0.590279 0.815777
O O12 0.244766 0.239466 0.239172
O O13 0.250000 0.250000 0.000000
O O14 0.000000 0.057865 0.500000
O O15 0.145041 0.000000 0.150431
O O16 0.718391 0.816983 0.637656
O O17 0.866144 0.732703 0.389653
O O18 0.593522 0.116657 0.718027
O O19 0.500000 0.194821 0.000000
O O20 0.454146 0.000000 0.264143
#
# Coordination Sequence:
#
# PCOD9192490 Si02
#       8
#     8   8   8   8   8   8   8   8
#     4  11  22  37  59  92 125 158 203 255 308 374
#     4  10  20  33  56  89 128 160 198 249 320 378
#     4   9  17  32  56  89 125 159 194 246 318 385
#     4  12  23  36  61  93 127 163 204 257 314 376
#     4   9  18  32  49  77 120 163 194 232 299 373
#     4  11  25  44  62  90 125 172 219 253 317 384
#     4  11  25  45  66  85 124 175 218 266 318 380
#     4  10  21  39  66  94 121 159 217 273 322 381
#
# _framework density 19.352422000000001
#
# number of rings (size 3 to 8) (size 9 to 14) (size 15 to 20)
#    0.000    1.625    3.750    1.125    1.750    5.750 
#    0.000    0.625    0.000    0.000    0.000    0.875 
#    0.000    0.000    0.000    0.000    0.000    0.000 
#
# Total GULP energy -178198.668655 kJ/mol
# GULP energy per Si atom -5568.708395 kJ/mol
# Density = 1.930838 g / cm^3
# Si number density = 19.352422 Si / 1000 Ang^3
#
#
#
# Elastic Constant Matrix: (Units=GPa)
#
#
# Indices 1 2 3 4 5 6 
#
# 1 136.0401 62.7958 52.2913 0.0000 -30.9914 0.0000
# 2 62.7958 79.5245 32.9019 0.0000 -15.2759 0.0000
# 3 52.2913 32.9019 103.9198 0.0000 -20.9010 0.0000
# 4 0.0000 0.0000 0.0000 25.6245 0.0000 -6.0494
# 5 -30.9914 -15.2759 -20.9010 0.0000 37.4451 0.0000
# 6 0.0000 0.0000 0.0000 -6.0494 0.0000 29.0104
#
#
#
# Elastic Compliance Matrix: (Units=1/GPa)
#
#
# Indices 1 2 3 4 5 6 
#
# 1 0.013872 -0.008489 -0.003019 0.000000 0.006333 0.000000
# 2 -0.008489 0.020153 -0.002105 0.000000 0.000021 0.000000
# 3 -0.003019 -0.002105 0.012541 0.000000 0.003643 0.000000
# 4 0.000000 0.000000 0.000000 0.041046 0.000000 0.008559
# 5 0.006333 0.000021 0.003643 0.000000 0.033989 0.000000
# 6 0.000000 0.000000 0.000000 0.008559 0.000000 0.036255
#
#
# Mechanical properties :
#
#
# Convention : Reuss Voigt Hill
#
# Bulk Modulus (GPa) = 51.70403 68.38472 60.04437
# Shear Modulus (GPa) = 26.10581 29.84900 27.97741
#
# Velocity S-wave (km/s) = 3.67682 3.93159 3.80633
# Velocity P-wave (km/s) = 6.69331 7.48486 7.10012
#
# Compressibility (1/GPa) = 0.01934085
#
# Stress axis : x y z
#
# Youngs Moduli (GPa) = 72.08597 49.62158 79.73814
#
# Poissons Ratio (x) = 0.42121 0.24074
# Poissons Ratio (y) = 0.61190 0.16784
# Poissons Ratio (z) = 0.21763 0.10445
#
# Static dielectric constant tensor:
#      x y z
#    x 1.683450 0.000000 -0.025040 
#    y 0.000000 1.792780 0.000000 
#    z -0.025040 0.000000 1.713340 
# 
# From -- ./inp_files/178407.got.cif
#   From: 2010.05.17/outbox.cif.g08.bks.cpg/sg12_90_cif.got.tgz:178407.got - 2010.06.03 13:09:07.
