data_PCOD9192436
_publ_section_title
;
Structure prediction by ZEFSAII (Michael W. Deem and Ramdas Pophale) SiO2 
 PCOD9192436
Probable space group: C 2/M
;
_chemical_formula_sum "Si O2"
_cell_formula_units_Z 48
_cell_length_a 8.088647
_cell_length_b 22.283402
_cell_length_c 18.443610
_cell_angle_alpha 90.000000
_cell_angle_beta 42.018675
_cell_angle_gamma 90.000000
_cell_volume 2225.211847
_symmetry_space_group_name_H-M "C 2/M"
_symmetry_group_IT_number 12
_symmetry_cell_setting 'monoclinic'
loop_
_space_group_symop_operation_xyz
x,y,z
-x,y,-z
-x,-y,-z
x,-y,z
1/2+x,1/2+y,z
1/2-x,1/2+y,-z
1/2-x,1/2-y,-z
1/2+x,1/2-y,z
loop_
_atom_site_type_symbol
_atom_site_label
_atom_site_fract_x
_atom_site_fract_y
_atom_site_fract_z
Si Si1 0.838127 0.428587 0.985957
Si Si2 0.969491 0.770533 0.585186
Si Si3 0.329282 0.570578 0.231114
Si Si4 0.915712 0.933908 0.444058
Si Si5 0.521885 0.930082 0.774303
Si Si6 0.640404 0.341784 0.645639
O O1 0.898529 0.500000 0.962034
O O2 0.907002 0.403249 0.884827
O O3 0.553327 0.424182 0.100758
O O4 0.000000 0.403979 0.000000
O O5 0.250000 0.750000 0.500000
O O6 0.918105 0.807352 0.674808
O O7 0.000000 0.807024 0.500000
O O8 0.800606 0.712877 0.626347
O O9 0.309353 0.500000 0.259108
O O10 0.086032 0.593151 0.266983
O O11 0.394334 0.611531 0.278355
O O12 0.183540 0.930991 0.317542
O O13 0.000000 0.931052 0.500000
O O14 0.759797 0.882365 0.454873
O O15 0.802200 0.000000 0.470653
O O16 0.441003 0.000000 0.797395
#
# Coordination Sequence:
#
# PCOD9192436 Si02
#       6
#     8   8   8   8   8   8
#     4   9  16  29  51  81 118 156 194 231 272 337
#     4   9  21  39  57  76 100 143 201 246 276 317
#     4  10  20  33  55  90 123 151 185 232 296 358
#     4  10  21  36  56  87 125 158 187 231 296 359
#     4   9  18  32  50  79 122 163 193 225 274 343
#     4  11  21  36  58  82 112 148 192 244 287 334
#
# _framework density 21.570981
#
# number of rings (size 3 to 8) (size 9 to 14) (size 15 to 20)
#    0.000    2.333    0.000    2.500    0.000   11.333 
#    0.000    0.000    0.000   13.000    0.000   22.167 
#    0.000    0.000    0.000    0.000    0.000    0.000 
#
# Total GULP energy -133631.615558 kJ/mol
# GULP energy per Si atom -5567.983982 kJ/mol
# Density = 2.152188 g / cm^3
# Si number density = 21.570981 Si / 1000 Ang^3
#
#
#
# Elastic Constant Matrix: (Units=GPa)
#
#
# Indices 1 2 3 4 5 6 
#
# 1 104.7553 37.9184 24.9138 0.0000 31.8603 0.0000
# 2 37.9184 117.2385 24.6879 0.0000 21.8823 0.0000
# 3 24.9138 24.6879 76.0539 0.0000 30.5249 0.0000
# 4 0.0000 0.0000 0.0000 6.4465 0.0000 8.6385
# 5 31.8603 21.8823 30.5249 0.0000 39.5943 0.0000
# 6 0.0000 0.0000 0.0000 8.6385 0.0000 38.3576
#
#
#
# Elastic Compliance Matrix: (Units=1/GPa)
#
#
# Indices 1 2 3 4 5 6 
#
# 1 0.013303 -0.002592 0.000297 0.000000 -0.009501 0.000000
# 2 -0.002592 0.010122 -0.001489 0.000000 -0.002360 0.000000
# 3 0.000297 -0.001489 0.019260 0.000000 -0.014264 0.000000
# 4 0.000000 0.000000 0.000000 0.222170 0.000000 -0.050035
# 5 -0.009501 -0.002360 -0.014264 0.000000 0.045202 0.000000
# 6 0.000000 0.000000 0.000000 -0.050035 0.000000 0.037339
#
#
# Mechanical properties :
#
#
# Convention : Reuss Voigt Hill
#
# Bulk Modulus (GPa) = 28.47677 52.56533 40.52105
# Shear Modulus (GPa) = 13.63623 30.91486 22.27554
#
# Velocity S-wave (km/s) = 2.51700 3.78983 3.21699
# Velocity P-wave (km/s) = 4.65587 6.60090 5.71179
#
# Compressibility (1/GPa) = 0.03511634
#
# Stress axis : x y z
#
# Youngs Moduli (GPa) = 75.16924 98.79402 51.92182
#
# Poissons Ratio (x) = 0.25606 -0.01541
# Poissons Ratio (y) = 0.19482 0.07733
# Poissons Ratio (z) = -0.02231 0.14714
#
# Static dielectric constant tensor:
#      x y z
#    x 1.910750 0.000000 0.037730 
#    y 0.000000 1.878560 0.000000 
#    z 0.037730 0.000000 1.839300 
# 
# From -- ./inp_files/258816.got.cif
#   From: 2010.05.17/outbox.cif.g08.bks.cpg/sg12_130_cif.got.tgz:258816.got - 2010.06.03 13:09:07.
