data_PCOD9192432
_publ_section_title
;
Structure prediction by ZEFSAII (Michael W. Deem and Ramdas Pophale) SiO2 
 PCOD9192432
Probable space group: C 2/M
;
_chemical_formula_sum "Si O2"
_cell_formula_units_Z 56
_cell_length_a 13.060201
_cell_length_b 19.500386
_cell_length_c 10.562897
_cell_angle_alpha 90.000000
_cell_angle_beta 99.875608
_cell_angle_gamma 90.000000
_cell_volume 2650.286181
_symmetry_space_group_name_H-M "C 2/M"
_symmetry_group_IT_number 12
_symmetry_cell_setting 'monoclinic'
loop_
_space_group_symop_operation_xyz
x,y,z
-x,y,-z
-x,-y,-z
x,-y,z
1/2+x,1/2+y,z
1/2-x,1/2+y,-z
1/2-x,1/2-y,-z
1/2+x,1/2-y,z
loop_
_atom_site_type_symbol
_atom_site_label
_atom_site_fract_x
_atom_site_fract_y
_atom_site_fract_z
Si Si1 0.572216 0.135493 0.796364
Si Si2 0.680374 0.324982 0.742466
Si Si3 0.837456 0.581987 0.438691
Si Si4 0.135636 0.576866 0.255300
Si Si5 0.979131 0.212960 0.799508
Si Si6 0.230757 0.800051 0.113248
Si Si7 0.829341 0.812952 0.542194
O O1 0.591071 0.117967 0.651754
O O2 0.480994 0.085090 0.820194
O O3 0.520890 0.209268 0.818913
O O4 0.688818 0.136971 0.878253
O O5 0.780705 0.371563 0.784941
O O6 0.582848 0.332730 0.814620
O O7 0.721881 0.247063 0.763717
O O8 0.640234 0.336195 0.592110
O O9 0.834355 0.500000 0.414188
O O10 0.867738 0.591326 0.593025
O O11 0.728650 0.622339 0.406498
O O12 0.173387 0.500000 0.247427
O O13 0.890369 0.192482 0.880731
O O14 0.921786 0.209962 0.651670
O O15 0.250000 0.750000 0.000000
O O16 0.750000 0.750000 0.500000
#
# Coordination Sequence:
#
# PCOD9192432 Si02
#       7
#     8   8   8   8   8   8   8
#     4  11  20  34  58  83 116 151 198 244 303 356
#     4  10  21  34  54  84 114 153 187 232 301 356
#     4  10  20  33  55  89 127 163 193 240 303 372
#     4  10  20  36  57  86 123 159 196 233 290 369
#     4  11  20  36  57  87 115 150 192 249 310 366
#     4  11  23  39  58  84 114 149 198 256 308 353
#     4  11  17  33  56  86 123 152 194 245 303 370
#
# _framework density 21.129794
#
# number of rings (size 3 to 8) (size 9 to 14) (size 15 to 20)
#    0.000    1.429    4.286    3.000    0.000    5.714 
#    0.000    0.714    0.000    6.000    0.000    1.000 
#    0.000    0.000    0.000    0.000    0.000    0.000 
#
# Total GULP energy -156152.472695 kJ/mol
# GULP energy per Si atom -5576.874025 kJ/mol
# Density = 2.108170 g / cm^3
# Si number density = 21.129794 Si / 1000 Ang^3
#
#
#
# Elastic Constant Matrix: (Units=GPa)
#
#
# Indices 1 2 3 4 5 6 
#
# 1 156.2479 30.0805 21.6344 0.0000 -28.6097 0.0000
# 2 30.0805 58.5394 2.3395 0.0000 -1.0575 0.0000
# 3 21.6344 2.3395 57.7242 0.0000 -12.8409 0.0000
# 4 0.0000 0.0000 0.0000 13.7883 0.0000 4.2721
# 5 -28.6097 -1.0575 -12.8409 0.0000 17.8610 0.0000
# 6 0.0000 0.0000 0.0000 4.2721 0.0000 9.2710
#
#
#
# Elastic Compliance Matrix: (Units=1/GPa)
#
#
# Indices 1 2 3 4 5 6 
#
# 1 0.010348 -0.005021 -0.000064 0.000000 0.016232 0.000000
# 2 -0.005021 0.019553 -0.000526 0.000000 -0.007264 0.000000
# 3 -0.000064 -0.000526 0.020640 0.000000 0.014706 0.000000
# 4 0.000000 0.000000 0.000000 0.084604 0.000000 -0.038986
# 5 0.016232 -0.007264 0.014706 0.000000 0.092130 0.000000
# 6 0.000000 0.000000 0.000000 -0.038986 0.000000 0.125828
#
#
# Mechanical properties :
#
#
# Convention : Reuss Voigt Hill
#
# Bulk Modulus (GPa) = 25.43411 42.29115 33.86263
# Shear Modulus (GPa) = 13.24743 22.74787 17.99765
#
# Velocity S-wave (km/s) = 2.50662 3.28468 2.92167
# Velocity P-wave (km/s) = 4.52115 5.86889 5.23854
#
# Compressibility (1/GPa) = 0.03931727
#
# Stress axis : x y z
#
# Youngs Moduli (GPa) = 96.63946 51.14414 48.44876
#
# Poissons Ratio (x) = 0.25682 0.00310
# Poissons Ratio (y) = 0.48527 0.02550
# Poissons Ratio (z) = 0.00618 0.02692
#
# Static dielectric constant tensor:
#      x y z
#    x 1.803110 0.000000 -0.012170 
#    y 0.000000 1.710850 0.000000 
#    z -0.012170 0.000000 1.862730 
# 
# From -- ./inp_files/133233.got.cif
#   From: 2010.05.17/outbox.cif.g08.bks.cpg/sg12_67_cif.got.tgz:133233.got - 2010.06.03 13:09:07.
