data_PCOD9192274
_publ_section_title
;
Structure prediction by ZEFSAII (Michael W. Deem and Ramdas Pophale) SiO2 
 PCOD9192274
Probable space group: C 2/M
;
_chemical_formula_sum "Si O2"
_cell_formula_units_Z 50
_cell_length_a 19.099521
_cell_length_b 7.466288
_cell_length_c 21.983986
_cell_angle_alpha 90.000000
_cell_angle_beta 42.611774
_cell_angle_gamma 90.000000
_cell_volume 2122.461310
_symmetry_space_group_name_H-M "C 2/M"
_symmetry_group_IT_number 12
_symmetry_cell_setting 'monoclinic'
loop_
_space_group_symop_operation_xyz
x,y,z
-x,y,-z
-x,-y,-z
x,-y,z
1/2+x,1/2+y,z
1/2-x,1/2+y,-z
1/2-x,1/2-y,-z
1/2+x,1/2-y,z
loop_
_atom_site_type_symbol
_atom_site_label
_atom_site_fract_x
_atom_site_fract_y
_atom_site_fract_z
Si Si1 0.655711 0.284927 0.625637
Si Si2 0.870336 0.208095 0.532998
Si Si3 0.500000 0.000000 0.500000
Si Si4 0.577276 0.714863 0.811592
Si Si5 0.937019 0.220100 0.727073
Si Si6 0.866017 0.213931 0.905965
Si Si7 0.289941 0.290960 0.715259
O O1 0.662026 0.500000 0.619288
O O2 0.773586 0.216892 0.548359
O O3 0.615197 0.232548 0.719429
O O4 0.558310 0.228217 0.646496
O O5 0.965359 0.341937 0.472352
O O6 0.820408 0.280937 0.629227
O O7 0.902599 0.000000 0.514082
O O8 0.579001 0.500000 0.813125
O O9 0.458807 0.778039 0.890854
O O10 0.666484 0.774864 0.800362
O O11 0.891990 0.277165 0.821271
O O12 0.858000 0.283001 0.726179
O O13 0.937786 0.000000 0.725583
O O14 0.876802 0.000000 0.896826
O O15 0.750000 0.250000 0.000000
O O16 0.314013 0.500000 0.695399
#
# Coordination Sequence:
#
# PCOD9192274 Si02
#       7
#     8   8   2   8   8   8   8
#     4   8  13  28  51  73  95 128 169 208 255 294
#     4  10  20  33  54  82 104 131 173 213 247 307
#     4  12  22  36  56  78 108 144 164 198 266 310
#     4   8  15  27  45  66  94 127 165 207 251 300
#     4   8  15  29  51  75  98 132 169 209 258 306
#     4   9  17  30  47  67  96 134 171 207 253 308
#     4   9  17  30  50  78 100 121 165 221 255 289
#
# _framework density 23.557556000000002
#
# number of rings (size 3 to 8) (size 9 to 14) (size 15 to 20)
#    0.000    3.200    0.800    2.160    1.120    0.640 
#    0.000    4.800    0.000    5.760    0.000    0.000 
#    0.000    0.000    0.000    0.000    0.000    0.000 
#
# Total GULP energy -139242.998874 kJ/mol
# GULP energy per Si atom -5569.719955 kJ/mol
# Density = 2.350394 g / cm^3
# Si number density = 23.557556 Si / 1000 Ang^3
#
#
#
# Elastic Constant Matrix: (Units=GPa)
#
#
# Indices 1 2 3 4 5 6 
#
# 1 194.5454 24.7233 65.6438 0.0001 -56.3465 -0.0001
# 2 24.7233 99.3280 0.4741 0.0004 -7.4446 0.0002
# 3 65.6438 0.4741 135.2768 0.0001 -39.5433 0.0000
# 4 0.0001 0.0004 0.0001 -20.1174 -0.0001 -16.6729
# 5 -56.3465 -7.4446 -39.5433 -0.0001 37.6808 0.0000
# 6 -0.0001 0.0002 0.0000 -16.6729 0.0000 19.9812
#
#
#
# Elastic Compliance Matrix: (Units=1/GPa)
#
#
# Indices 1 2 3 4 5 6 
#
# 1 0.009277 -0.001345 -0.000749 0.000000 0.012821 0.000000
# 2 -0.001345 0.010474 0.000913 0.000000 0.001017 0.000000
# 3 -0.000749 0.000913 0.010787 0.000000 0.010380 0.000000
# 4 0.000000 0.000000 0.000000 -0.029386 0.000000 -0.024521
# 5 0.012821 0.001017 0.010380 0.000000 0.056804 0.000000
# 6 0.000000 0.000000 0.000000 -0.024521 0.000000 0.029586
#
#
# Mechanical properties :
#
#
# Convention : Reuss Voigt Hill
#
# Bulk Modulus (GPa) = 35.49111 67.87027 51.68069
# Shear Modulus (GPa) = 50.35415 30.06287 40.20851
#
# Velocity S-wave (km/s) = 4.62832 3.57619 4.13585
# Velocity P-wave (km/s) = 6.60759 6.77681 6.69273
#
# Compressibility (1/GPa) = 0.02817607
#
# Stress axis : x y z
#
# Youngs Moduli (GPa) = 107.79089 95.47272 92.70540
#
# Poissons Ratio (x) = 0.12838 0.06948
# Poissons Ratio (y) = 0.14494 -0.08464
# Poissons Ratio (z) = 0.08078 -0.08717
#
# Static dielectric constant tensor:
#      x y z
#    x 1.974260 0.000000 -0.028800 
#    y 0.000000 1.935960 0.000000 
#    z -0.028800 0.000000 1.997900 
# 
# From -- ./inp_files/377407.got.cif
#   From: 2010.05.17/outbox.cif.g08.bks.cpg/sg12_189_cif.got.tgz:377407.got - 2010.06.03 13:09:07.
