data_PCOD9192391
_publ_section_title
;
Structure prediction by ZEFSAII (Michael W. Deem and Ramdas Pophale) SiO2 
 PCOD9192391
Probable space group: C 2/M
;
_chemical_formula_sum "Si O2"
_cell_formula_units_Z 44
_cell_length_a 17.740761
_cell_length_b 18.453396
_cell_length_c 11.691137
_cell_angle_alpha 90.000000
_cell_angle_beta 151.542652
_cell_angle_gamma 90.000000
_cell_volume 1823.779085
_symmetry_space_group_name_H-M "C 2/M"
_symmetry_group_IT_number 12
_symmetry_cell_setting 'monoclinic'
loop_
_space_group_symop_operation_xyz
x,y,z
-x,y,-z
-x,-y,-z
x,-y,z
1/2+x,1/2+y,z
1/2-x,1/2+y,-z
1/2-x,1/2-y,-z
1/2+x,1/2-y,z
loop_
_atom_site_type_symbol
_atom_site_label
_atom_site_fract_x
_atom_site_fract_y
_atom_site_fract_z
Si Si1 0.870320 0.583546 0.603979
Si Si2 0.500000 0.834478 0.000000
Si Si3 0.000778 0.079039 0.850617
Si Si4 0.672213 0.722631 0.085596
Si Si5 0.587473 0.817909 0.774288
Si Si6 0.619156 0.583283 0.754696
O O1 0.918626 0.500000 0.655376
O O2 0.682416 0.585937 0.365745
O O3 0.936061 0.631373 0.586721
O O4 0.942928 0.617441 0.817374
O O5 0.640807 0.781785 0.141627
O O6 0.101211 0.146320 0.027541
O O7 0.023228 0.080061 0.744327
O O8 0.062921 0.000000 0.971062
O O9 0.569673 0.751971 0.839541
O O10 0.840817 0.710112 0.249249
O O11 0.728203 0.867932 0.017097
O O12 0.500000 0.611846 0.500000
O O13 0.664559 0.500000 0.784220
#
# Coordination Sequence:
#
# PCOD9192391 Si02
#       6
#     8   4   8   8   8   8
#     4  10  20  33  55  85 111 139 171 221 281 322
#     4  10  21  32  53  80 114 140 172 224 261 326
#     4   9  19  34  52  74 104 141 180 219 263 322
#     4   9  19  36  52  74 105 145 188 212 264 314
#     4   9  18  32  52  73 107 145 179 218 256 327
#     4   9  17  28  46  74 108 142 173 213 268 324
#
# _framework density 24.125729
#
# number of rings (size 3 to 8) (size 9 to 14) (size 15 to 20)
#    0.000    2.727    0.000    0.818    5.091    3.636 
#    0.000    0.455    0.000    0.000    0.000    2.545 
#    0.000    0.000    0.000    0.000    0.000    0.000 
#
# Total GULP energy -123055.748098 kJ/mol
# GULP energy per Si atom -5593.443095 kJ/mol
# Density = 2.407082 g / cm^3
# Si number density = 24.125729 Si / 1000 Ang^3
#
#
#
# Elastic Constant Matrix: (Units=GPa)
#
#
# Indices 1 2 3 4 5 6 
#
# 1 125.8858 31.8251 13.7969 0.0000 4.7887 0.0000
# 2 31.8251 153.2917 39.9571 0.0000 13.6439 0.0000
# 3 13.7969 39.9571 80.3833 0.0000 15.8331 0.0000
# 4 0.0000 0.0000 0.0000 14.1992 0.0000 24.7849
# 5 4.7887 13.6439 15.8331 0.0000 40.1505 0.0000
# 6 0.0000 0.0000 0.0000 24.7849 0.0000 25.8970
#
#
#
# Elastic Compliance Matrix: (Units=1/GPa)
#
#
# Indices 1 2 3 4 5 6 
#
# 1 0.008416 -0.001565 -0.000622 0.000000 -0.000227 0.000000
# 2 -0.001565 0.007836 -0.003403 0.000000 -0.001134 0.000000
# 3 -0.000622 -0.003403 0.015175 0.000000 -0.004754 0.000000
# 4 0.000000 0.000000 0.000000 -0.105027 0.000000 0.100517
# 5 -0.000227 -0.001134 -0.004754 0.000000 0.027193 0.000000
# 6 0.000000 0.000000 0.000000 0.100517 0.000000 -0.057586
#
#
# Mechanical properties :
#
#
# Convention : Reuss Voigt Hill
#
# Bulk Modulus (GPa) = 49.38946 58.96877 54.17912
# Shear Modulus (GPa) = -58.09722 34.31480 -11.89121
#
# Velocity S-wave (km/s) = -4.91257 3.77547 -2.22251
# Velocity P-wave (km/s) = 3.41491 6.59552 3.98995
#
# Compressibility (1/GPa) = 0.02024723
#
# Stress axis : x y z
#
# Youngs Moduli (GPa) = 118.81930 127.60806 65.89705
#
# Poissons Ratio (x) = 0.19971 0.04098
# Poissons Ratio (y) = 0.18595 0.22427
# Poissons Ratio (z) = 0.07390 0.43429
#
# Static dielectric constant tensor:
#      x y z
#    x 1.923200 0.000000 -0.021690 
#    y 0.000000 1.937750 0.000000 
#    z -0.021690 0.000000 1.928800 
# 
# From -- ./inp_files/226631.got.cif
#   From: 2010.05.17/outbox.cif.g08.bks.cpg/sg12_114_cif.got.tgz:226631.got - 2010.06.03 13:09:07.
