data_PCOD9192029
_publ_section_title
;
Structure prediction by ZEFSAII (Michael W. Deem and Ramdas Pophale) SiO2 
 PCOD9192029
Probable space group: C 2/M
;
_chemical_formula_sum "Si O2"
_cell_formula_units_Z 48
_cell_length_a 12.913374
_cell_length_b 24.091904
_cell_length_c 8.652571
_cell_angle_alpha 90.000000
_cell_angle_beta 55.806292
_cell_angle_gamma 90.000000
_cell_volume 2226.569489
_symmetry_space_group_name_H-M "C 2/M"
_symmetry_group_IT_number 12
_symmetry_cell_setting 'monoclinic'
loop_
_space_group_symop_operation_xyz
x,y,z
-x,y,-z
-x,-y,-z
x,-y,z
1/2+x,1/2+y,z
1/2-x,1/2+y,-z
1/2-x,1/2-y,-z
1/2+x,1/2-y,z
loop_
_atom_site_type_symbol
_atom_site_label
_atom_site_fract_x
_atom_site_fract_y
_atom_site_fract_z
Si Si1 0.855914 0.233527 0.675365
Si Si2 0.418084 0.063491 0.920085
Si Si3 0.836132 0.938720 0.676326
Si Si4 0.567591 0.637422 0.170519
Si Si5 0.700517 0.856897 0.221714
Si Si6 0.209186 0.155754 0.531339
O O1 0.858054 0.184104 0.795995
O O2 0.813253 0.290608 0.786840
O O3 0.778790 0.208754 0.593536
O O4 0.000000 0.240379 0.500000
O O5 0.281228 0.058729 0.109159
O O6 0.459253 0.000000 0.842128
O O7 0.500000 0.082599 0.000000
O O8 0.397664 0.106254 0.794781
O O9 0.941451 0.913670 0.701544
O O10 0.797521 0.896336 0.576475
O O11 0.860453 0.000000 0.597209
O O12 0.427628 0.660437 0.271745
O O13 0.660055 0.624483 0.952146
O O14 0.694334 0.858040 0.413638
#
# Coordination Sequence:
#
# PCOD9192029 Si02
#       6
#     8   8   8   8   8   8
#     4   9  19  35  52  75 107 142 176 212 261 317
#     4   9  20  39  57  75 105 141 179 226 270 308
#     4   9  18  34  56  77 101 141 181 209 256 323
#     4   9  19  35  52  75 108 144 174 211 261 312
#     4  11  20  33  56  80 104 138 181 218 261 321
#     4  10  20  33  52  80 114 138 166 219 271 310
#
# _framework density 21.557827
#
# number of rings (size 3 to 8) (size 9 to 14) (size 15 to 20)
#    0.000    2.500    0.000    3.000    0.000    3.333 
#    0.000    8.333    0.000    8.500    0.000    0.000 
#    0.000    0.000    0.000    0.000    0.000    0.000 
#
# Total GULP energy -133630.848163 kJ/mol
# GULP energy per Si atom -5567.952007 kJ/mol
# Density = 2.150876 g / cm^3
# Si number density = 21.557827 Si / 1000 Ang^3
#
#
#
# Elastic Constant Matrix: (Units=GPa)
#
#
# Indices 1 2 3 4 5 6 
#
# 1 68.2553 34.0445 25.3463 0.0000 39.6741 0.0000
# 2 34.0445 133.6295 27.2137 0.0000 36.0143 0.0000
# 3 25.3463 27.2137 64.5692 0.0000 22.5328 0.0000
# 4 0.0000 0.0000 0.0000 23.1362 0.0000 -0.4448
# 5 39.6741 36.0143 22.5328 0.0000 46.3924 0.0000
# 6 0.0000 0.0000 0.0000 -0.4448 0.0000 21.0647
#
#
#
# Elastic Compliance Matrix: (Units=1/GPa)
#
#
# Indices 1 2 3 4 5 6 
#
# 1 0.029767 -0.000614 -0.003262 0.000000 -0.023396 0.000000
# 2 -0.000614 0.009636 -0.001677 0.000000 -0.006141 0.000000
# 3 -0.003262 -0.001677 0.019322 0.000000 -0.005293 0.000000
# 4 0.000000 0.000000 0.000000 0.043240 0.000000 0.000913
# 5 -0.023396 -0.006141 -0.005293 0.000000 0.048901 0.000000
# 6 0.000000 0.000000 0.000000 0.000913 0.000000 0.047492
#
#
# Mechanical properties :
#
#
# Convention : Reuss Voigt Hill
#
# Bulk Modulus (GPa) = 21.00012 48.85146 34.92579
# Shear Modulus (GPa) = 22.18890 30.10862 26.14876
#
# Velocity S-wave (km/s) = 3.21171 3.74122 3.48653
# Velocity P-wave (km/s) = 4.84932 6.43212 5.69597
#
# Compressibility (1/GPa) = 0.04761878
#
# Stress axis : x y z
#
# Youngs Moduli (GPa) = 33.59383 103.77263 51.75524
#
# Poissons Ratio (x) = 0.06374 0.16882
# Poissons Ratio (y) = 0.02063 0.08681
# Poissons Ratio (z) = 0.10958 0.17407
#
# Static dielectric constant tensor:
#      x y z
#    x 1.867010 0.000000 0.000760 
#    y 0.000000 1.812250 0.000000 
#    z 0.000760 0.000000 1.818150 
# 
# From -- ./inp_files/63383.got.cif
#   From: 2010.05.17/outbox.cif.g08.bks.cpg/sg12_32_cif.got.tgz:63383.got - 2010.06.03 13:09:07.
