data_PCOD9192094
_publ_section_title
;
Structure prediction by ZEFSAII (Michael W. Deem and Ramdas Pophale) SiO2 
 PCOD9192094
Probable space group: C 2/M
;
_chemical_formula_sum "Si O2"
_cell_formula_units_Z 64
_cell_length_a 21.422585
_cell_length_b 13.205847
_cell_length_c 14.552245
_cell_angle_alpha 90.000000
_cell_angle_beta 63.277598
_cell_angle_gamma 90.000000
_cell_volume 3677.178642
_symmetry_space_group_name_H-M "C 2/M"
_symmetry_group_IT_number 12
_symmetry_cell_setting 'monoclinic'
loop_
_space_group_symop_operation_xyz
x,y,z
-x,y,-z
-x,-y,-z
x,-y,z
1/2+x,1/2+y,z
1/2-x,1/2+y,-z
1/2-x,1/2-y,-z
1/2+x,1/2-y,z
loop_
_atom_site_type_symbol
_atom_site_label
_atom_site_fract_x
_atom_site_fract_y
_atom_site_fract_z
Si Si1 0.136933 0.257543 0.605680
Si Si2 0.074540 0.885085 0.988705
Si Si3 0.232404 0.881125 0.412898
Si Si4 0.985557 0.382702 0.402794
Si Si5 0.842489 0.886525 0.256018
Si Si6 0.867302 0.384218 0.798368
Si Si7 0.176339 0.723566 0.998828
Si Si8 0.239556 0.760007 0.235669
O O1 0.179914 0.184881 0.509110
O O2 0.190336 0.341798 0.609910
O O3 0.073353 0.310764 0.598187
O O4 0.114452 0.183666 0.703467
O O5 0.120774 0.893121 0.866392
O O6 0.119601 0.814254 0.026369
O O7 0.063781 0.000000 0.032382
O O8 0.000000 0.845951 0.000000
O O9 0.218918 0.850966 0.315800
O O10 0.225422 0.000000 0.432715
O O11 0.962038 0.500000 0.415836
O O12 0.000000 0.358359 0.500000
O O13 0.055374 0.375919 0.294742
O O14 0.771860 0.824987 0.282632
O O15 0.830925 0.000000 0.298771
O O16 0.842410 0.500000 0.797458
O O17 0.820794 0.299702 0.777938
O O18 0.858924 0.360289 0.912486
O O19 0.202610 0.703269 0.877158
O O20 0.250000 0.750000 0.000000
#
# Coordination Sequence:
#
# PCOD9192094 Si02
#       8
#     8   8   8   8   8   8   8   8
#     4  10  20  33  53  78 103 135 168 214 260 306
#     4   9  18  32  52  77 106 143 181 221 267 318
#     4  10  20  34  54  78 105 135 170 211 260 313
#     4  10  21  36  54  75 100 133 171 213 261 312
#     4   9  17  30  51  78 104 133 171 214 258 305
#     4  10  20  34  55  78 103 138 178 217 260 312
#     4   9  19  33  52  80 109 141 181 225 269 311
#     4   9  18  34  53  78 106 139 174 216 261 302
#
# _framework density 17.404648999999999
#
# number of rings (size 3 to 8) (size 9 to 14) (size 15 to 20)
#    0.000    2.500    0.000    1.875    1.750    3.500 
#    0.000    5.625    0.000    7.125    0.000    0.000 
#    0.000    0.000    0.000    0.000    0.000    0.000 
#
# Total GULP energy -178162.599033 kJ/mol
# GULP energy per Si atom -5567.581220 kJ/mol
# Density = 1.736503 g / cm^3
# Si number density = 17.404649 Si / 1000 Ang^3
#
#
#
# Elastic Constant Matrix: (Units=GPa)
#
#
# Indices 1 2 3 4 5 6 
#
# 1 71.7892 46.0066 8.4239 0.0000 9.6722 0.0000
# 2 46.0066 85.8257 38.9487 0.0000 10.0008 0.0000
# 3 8.4239 38.9487 58.1415 0.0000 9.8272 0.0000
# 4 0.0000 0.0000 0.0000 10.5170 0.0000 -11.4442
# 5 9.6722 10.0008 9.8272 0.0000 22.0610 0.0000
# 6 0.0000 0.0000 0.0000 -11.4442 0.0000 10.7237
#
#
#
# Elastic Compliance Matrix: (Units=1/GPa)
#
#
# Indices 1 2 3 4 5 6 
#
# 1 0.024068 -0.015859 0.008332 0.000000 -0.007075 0.000000
# 2 -0.015859 0.027352 -0.016335 0.000000 0.001830 0.000000
# 3 0.008332 -0.016335 0.028442 0.000000 -0.008918 0.000000
# 4 0.000000 0.000000 0.000000 -0.589611 0.000000 -0.629224
# 5 -0.007075 0.001830 -0.008918 0.000000 0.051574 0.000000
# 6 0.000000 0.000000 0.000000 -0.629224 0.000000 -0.578246
#
#
# Mechanical properties :
#
#
# Convention : Reuss Voigt Hill
#
# Bulk Modulus (GPa) = 31.11353 44.72387 37.91870
# Shear Modulus (GPa) = -5.11255 16.81882 5.85314
#
# Velocity S-wave (km/s) = -1.71576 3.11197 1.83583
# Velocity P-wave (km/s) = 3.74035 6.21810 5.13104
#
# Compressibility (1/GPa) = 0.03214036
#
# Stress axis : x y z
#
# Youngs Moduli (GPa) = 41.54857 36.56026 35.15925
#
# Poissons Ratio (x) = 0.57979 -0.29296
# Poissons Ratio (y) = 0.65890 0.57431
# Poissons Ratio (z) = -0.34619 0.59720
#
# Static dielectric constant tensor:
#      x y z
#    x 1.597750 0.000000 0.006910 
#    y 0.000000 1.602530 0.000000 
#    z 0.006910 0.000000 1.624100 
# 
# From -- ./inp_files/232447.got.cif
#   From: 2010.05.17/outbox.cif.g08.bks.cpg/sg12_117_cif.got.tgz:232447.got - 2010.06.03 13:09:07.
