data_PCOD9192460
_publ_section_title
;
Structure prediction by ZEFSAII (Michael W. Deem and Ramdas Pophale) SiO2 
 PCOD9192460
Probable space group: C 2/M
;
_chemical_formula_sum "Si O2"
_cell_formula_units_Z 56
_cell_length_a 16.599156
_cell_length_b 13.159669
_cell_length_c 14.404352
_cell_angle_alpha 90.000000
_cell_angle_beta 69.329611
_cell_angle_gamma 90.000000
_cell_volume 2943.928455
_symmetry_space_group_name_H-M "C 2/M"
_symmetry_group_IT_number 12
_symmetry_cell_setting 'monoclinic'
loop_
_space_group_symop_operation_xyz
x,y,z
-x,y,-z
-x,-y,-z
x,-y,z
1/2+x,1/2+y,z
1/2-x,1/2+y,-z
1/2-x,1/2-y,-z
1/2+x,1/2-y,z
loop_
_atom_site_type_symbol
_atom_site_label
_atom_site_fract_x
_atom_site_fract_y
_atom_site_fract_z
Si Si1 0.311548 0.279765 0.059238
Si Si2 0.643358 0.500000 0.913749
Si Si3 0.122222 0.618253 0.594051
Si Si4 0.070590 0.619478 0.288979
Si Si5 0.222832 0.381261 0.376660
Si Si6 0.479569 0.500000 0.855785
Si Si7 0.544152 0.724371 0.144754
Si Si8 0.845487 0.721006 0.236732
O O1 0.302825 0.396025 0.099820
O O2 0.302774 0.209105 0.153236
O O3 0.250000 0.250000 0.000000
O O4 0.405584 0.273611 0.973015
O O5 0.578137 0.500000 0.853065
O O6 0.580850 0.500000 0.028386
O O7 0.116899 0.500000 0.573582
O O8 0.184728 0.659883 0.489393
O O9 0.155958 0.634438 0.684698
O O10 0.022874 0.653777 0.633219
O O11 0.063296 0.500000 0.263480
O O12 0.144283 0.625738 0.335598
O O13 0.087213 0.695106 0.196919
O O14 0.247489 0.500000 0.374501
O O15 0.300797 0.315072 0.306930
O O16 0.457902 0.607777 0.817832
O O17 0.445065 0.755817 0.175039
#
# Coordination Sequence:
#
# PCOD9192460 Si02
#       8
#     8   4   8   8   8   4   8   8
#     4  11  22  37  54  81 115 143 181 226 271 323
#     4   9  18  34  56  78 100 144 185 220 266 308
#     4   9  19  37  56  78 110 147 181 224 279 331
#     4   9  18  35  58  83 112 145 182 226 277 330
#     4  10  20  33  56  86 109 135 185 236 275 318
#     4   9  16  32  58  76 104 145 186 223 256 318
#     4  10  20  35  54  83 112 147 181 226 272 323
#     4  11  21  33  56  81 110 142 185 225 271 328
#
# _framework density 19.022200999999999
#
# number of rings (size 3 to 8) (size 9 to 14) (size 15 to 20)
#    0.000    2.143    1.429    2.143    2.000    1.714 
#    2.571    0.000    1.571    3.429    0.000    2.000 
#    0.000    0.000    0.000    0.000    0.000    0.000 
#
# Total GULP energy -156090.270601 kJ/mol
# GULP energy per Si atom -5574.652521 kJ/mol
# Density = 1.897891 g / cm^3
# Si number density = 19.022201 Si / 1000 Ang^3
#
#
#
# Elastic Constant Matrix: (Units=GPa)
#
#
# Indices 1 2 3 4 5 6 
#
# 1 47.6663 3.3960 10.3966 0.0000 2.5076 0.0000
# 2 3.3960 41.9596 5.3203 0.0000 3.5885 0.0000
# 3 10.3966 5.3203 86.7333 0.0000 -0.6867 0.0000
# 4 0.0000 0.0000 0.0000 28.9055 0.0000 1.2574
# 5 2.5076 3.5885 -0.6867 0.0000 20.7633 0.0000
# 6 0.0000 0.0000 0.0000 1.2574 0.0000 22.3410
#
#
#
# Elastic Compliance Matrix: (Units=1/GPa)
#
#
# Indices 1 2 3 4 5 6 
#
# 1 0.021755 -0.001223 -0.002552 0.000000 -0.002500 0.000000
# 2 -0.001223 0.024460 -0.001386 0.000000 -0.004125 0.000000
# 3 -0.002552 -0.001386 0.011928 0.000000 0.000942 0.000000
# 4 0.000000 0.000000 0.000000 0.034680 0.000000 -0.001952
# 5 -0.002500 -0.004125 0.000942 0.000000 0.049208 0.000000
# 6 0.000000 0.000000 0.000000 -0.001952 0.000000 0.044871
#
#
# Mechanical properties :
#
#
# Convention : Reuss Voigt Hill
#
# Bulk Modulus (GPa) = 20.91244 23.84280 22.37762
# Shear Modulus (GPa) = 23.45594 24.88504 24.17049
#
# Velocity S-wave (km/s) = 3.51534 3.62084 3.56848
# Velocity P-wave (km/s) = 5.24351 5.48107 5.36360
#
# Compressibility (1/GPa) = 0.04781843
#
# Stress axis : x y z
#
# Youngs Moduli (GPa) = 45.96725 40.88296 83.83593
#
# Poissons Ratio (x) = 0.05001 0.21399
# Poissons Ratio (y) = 0.05623 0.11623
# Poissons Ratio (z) = 0.11733 0.05668
#
# Static dielectric constant tensor:
#      x y z
#    x 1.678300 0.000000 -0.023860 
#    y 0.000000 1.679410 0.000000 
#    z -0.023860 0.000000 1.704800 
# 
# From -- ./inp_files/223767.got.cif
#   From: 2010.05.17/outbox.cif.g08.bks.cpg/sg12_112_cif.got.tgz:223767.got - 2010.06.03 13:09:07.
