data_PCOD9192854
_publ_section_title
;
Structure prediction by ZEFSAII (Michael W. Deem and Ramdas Pophale) SiO2 
 PCOD9192854
Probable space group: C 2/M
;
_chemical_formula_sum "Si O2"
_cell_formula_units_Z 56
_cell_length_a 20.182852
_cell_length_b 13.507440
_cell_length_c 11.315749
_cell_angle_alpha 90.000000
_cell_angle_beta 105.343893
_cell_angle_gamma 90.000000
_cell_volume 2974.923618
_symmetry_space_group_name_H-M "C 2/M"
_symmetry_group_IT_number 12
_symmetry_cell_setting 'monoclinic'
loop_
_space_group_symop_operation_xyz
x,y,z
-x,y,-z
-x,-y,-z
x,-y,z
1/2+x,1/2+y,z
1/2-x,1/2+y,-z
1/2-x,1/2-y,-z
1/2+x,1/2-y,z
loop_
_atom_site_type_symbol
_atom_site_label
_atom_site_fract_x
_atom_site_fract_y
_atom_site_fract_z
Si Si1 0.350096 0.202903 0.531424
Si Si2 0.748672 0.245632 0.857611
Si Si3 0.274221 0.380664 0.370932
Si Si4 0.474407 0.385367 0.172391
Si Si5 0.883319 0.883123 0.902539
Si Si6 0.000200 0.277804 0.359471
Si Si7 0.629444 0.109922 0.708920
O O1 0.331550 0.310004 0.462719
O O2 0.291776 0.156591 0.585765
O O3 0.420814 0.209320 0.635779
O O4 0.360684 0.130007 0.425655
O O5 0.738493 0.343023 0.770152
O O6 0.817906 0.186646 0.849895
O O7 0.681547 0.182357 0.796375
O O8 0.750000 0.250000 0.000000
O O9 0.284786 0.500000 0.383110
O O10 0.467977 0.500000 0.199627
O O11 0.550421 0.370824 0.151364
O O12 0.468516 0.317034 0.282068
O O13 0.416604 0.362887 0.047129
O O14 0.863661 0.000000 0.887613
O O15 0.949828 0.366706 0.302364
O O16 0.000000 0.266072 0.500000
O O17 0.647809 0.000000 0.749957
#
# Coordination Sequence:
#
# PCOD9192854 Si02
#       7
#     8   8   8   8   8   8   8
#     4   9  20  37  57  81 108 141 179 222 269 317
#     4  11  22  36  54  79 110 143 178 223 273 321
#     4  10  21  37  57  82 110 140 178 224 272 322
#     4   9  18  33  53  78 104 134 176 220 264 317
#     4   9  18  34  56  76  99 137 181 223 264 310
#     4  10  20  34  51  77 109 138 170 212 264 318
#     4  10  21  36  55  78 105 141 183 219 257 315
#
# _framework density 18.824012
#
# number of rings (size 3 to 8) (size 9 to 14) (size 15 to 20)
#    0.000    2.286    0.000    3.429    0.000    5.143 
#    0.000   12.143    0.000    0.000    0.000    6.000 
#    0.000    0.000    0.000    0.000    0.000    0.000 
#
# Total GULP energy -156056.274380 kJ/mol
# GULP energy per Si atom -5573.438371 kJ/mol
# Density = 1.878117 g / cm^3
# Si number density = 18.824012 Si / 1000 Ang^3
#
#
#
# Elastic Constant Matrix: (Units=GPa)
#
#
# Indices 1 2 3 4 5 6 
#
# 1 66.8130 22.8663 2.2169 0.0000 18.1809 0.0000
# 2 22.8663 82.1738 17.3500 0.0000 4.9891 0.0000
# 3 2.2169 17.3500 46.9755 0.0000 4.1449 0.0000
# 4 0.0000 0.0000 0.0000 20.3026 0.0000 1.0376
# 5 18.1809 4.9891 4.1449 0.0000 16.7024 0.0000
# 6 0.0000 0.0000 0.0000 1.0376 0.0000 18.3177
#
#
#
# Elastic Compliance Matrix: (Units=1/GPa)
#
#
# Indices 1 2 3 4 5 6 
#
# 1 0.023544 -0.005723 0.003183 0.000000 -0.024708 0.000000
# 2 -0.005723 0.014719 -0.005447 0.000000 0.003185 0.000000
# 3 0.003183 -0.005447 0.023833 0.000000 -0.007752 0.000000
# 4 0.000000 0.000000 0.000000 0.049398 0.000000 -0.002798
# 5 -0.024708 0.003185 -0.007752 0.000000 0.087739 0.000000
# 6 0.000000 0.000000 0.000000 -0.002798 0.000000 0.054751
#
#
# Mechanical properties :
#
#
# Convention : Reuss Voigt Hill
#
# Bulk Modulus (GPa) = 21.68229 31.20319 26.44274
# Shear Modulus (GPa) = 17.52345 21.29981 19.41163
#
# Velocity S-wave (km/s) = 3.05439 3.36746 3.21474
# Velocity P-wave (km/s) = 4.89719 5.63312 5.27800
#
# Compressibility (1/GPa) = 0.04612058
#
# Stress axis : x y z
#
# Youngs Moduli (GPa) = 42.47412 67.94088 41.95792
#
# Poissons Ratio (x) = 0.38885 -0.13355
# Poissons Ratio (y) = 0.24310 0.22855
# Poissons Ratio (z) = -0.13519 0.37009
#
# Static dielectric constant tensor:
#      x y z
#    x 1.700070 0.000000 -0.008570 
#    y 0.000000 1.638420 0.000000 
#    z -0.008570 0.000000 1.664910 
# 
# From -- ./inp_files/165702.got.cif
#   From: 2010.05.17/outbox.cif.g08.bks.cpg/sg12_83_cif.got.tgz:165702.got - 2010.06.03 13:09:07.
