data_PCOD9192997
_publ_section_title
;
Structure prediction by ZEFSAII (Michael W. Deem and Ramdas Pophale) SiO2 
 PCOD9192997
Probable space group: C 2/M
;
_chemical_formula_sum "Si O2"
_cell_formula_units_Z 56
_cell_length_a 19.906981
_cell_length_b 8.618893
_cell_length_c 18.289478
_cell_angle_alpha 90.000000
_cell_angle_beta 89.940173
_cell_angle_gamma 90.000000
_cell_volume 3138.036312
_symmetry_space_group_name_H-M "C 2/M"
_symmetry_group_IT_number 12
_symmetry_cell_setting 'monoclinic'
loop_
_space_group_symop_operation_xyz
x,y,z
-x,y,-z
-x,-y,-z
x,-y,z
1/2+x,1/2+y,z
1/2-x,1/2+y,-z
1/2-x,1/2-y,-z
1/2+x,1/2-y,z
loop_
_atom_site_type_symbol
_atom_site_label
_atom_site_fract_x
_atom_site_fract_y
_atom_site_fract_z
Si Si1 0.076033 0.311549 0.372370
Si Si2 0.823830 0.812524 0.080646
Si Si3 0.425107 0.814372 0.794067
Si Si4 0.922101 0.312488 0.366743
Si Si5 0.325606 0.811929 0.498721
Si Si6 0.926954 0.185923 0.206126
Si Si7 0.174407 0.185174 0.085101
O O1 0.076279 0.500000 0.375130
O O2 0.092711 0.265128 0.289130
O O3 0.130052 0.258736 0.431706
O O4 0.998600 0.264159 0.387425
O O5 0.876002 0.764098 0.142706
O O6 0.751031 0.739674 0.094094
O O7 0.817419 0.000000 0.082791
O O8 0.845719 0.770365 0.998059
O O9 0.498380 0.745933 0.810163
O O10 0.372190 0.759673 0.853703
O O11 0.429534 0.000000 0.794027
O O12 0.922421 0.500000 0.363832
O O13 0.867424 0.264293 0.426563
O O14 0.907579 0.249478 0.285994
O O15 0.250000 0.750000 0.500000
O O16 0.323325 0.000000 0.499747
O O17 0.927447 0.000000 0.208555
O O18 0.170439 0.000000 0.090980
#
# Coordination Sequence:
#
# PCOD9192997 Si02
#       7
#     8   8   8   8   8   8   8
#     4   8  16  33  55  73  94 132 174 206 242 297
#     4   9  20  37  54  74 103 140 176 210 255 311
#     4  10  20  35  55  79 106 135 172 214 257 307
#     4   9  18  34  55  76  98 130 173 214 252 298
#     4  10  20  34  52  75 103 133 167 207 252 302
#     4  10  20  35  55  78 105 136 172 213 257 307
#     4  10  20  35  55  77 103 136 175 216 257 304
#
# _framework density 17.845555000000001
#
# number of rings (size 3 to 8) (size 9 to 14) (size 15 to 20)
#    0.000    2.571    0.000    2.571    0.000    5.714 
#    0.000   10.714    0.000    4.286    0.000    0.000 
#    0.000    0.000    0.000    0.000    0.000    0.000 
#
# Total GULP energy -156193.903430 kJ/mol
# GULP energy per Si atom -5578.353694 kJ/mol
# Density = 1.780494 g / cm^3
# Si number density = 17.845555 Si / 1000 Ang^3
#
#
#
# Elastic Constant Matrix: (Units=GPa)
#
#
# Indices 1 2 3 4 5 6 
#
# 1 89.1676 26.7409 75.5018 0.0000 -67.9394 0.0000
# 2 26.7409 16.5867 29.1345 0.0000 -3.8330 0.0000
# 3 75.5018 29.1345 98.9210 0.0000 -74.6599 0.0000
# 4 0.0000 0.0000 0.0000 26.2908 0.0000 -2.7831
# 5 -67.9394 -3.8330 -74.6599 0.0000 -67.1990 0.0000
# 6 0.0000 0.0000 0.0000 -2.7831 0.0000 32.7835
#
#
#
# Elastic Compliance Matrix: (Units=1/GPa)
#
#
# Indices 1 2 3 4 5 6 
#
# 1 0.031519 -0.008545 -0.024597 0.000000 -0.004051 0.000000
# 2 -0.008545 0.096002 -0.010533 0.000000 0.014866 0.000000
# 3 -0.024597 -0.010533 0.027852 0.000000 -0.005476 0.000000
# 4 0.000000 0.000000 0.000000 0.038381 0.000000 0.003258
# 5 -0.004051 0.014866 -0.005476 0.000000 -0.005550 0.000000
# 6 0.000000 0.000000 0.000000 0.003258 0.000000 0.030780
#
#
# Mechanical properties :
#
#
# Convention : Reuss Voigt Hill
#
# Bulk Modulus (GPa) = 14.70095 51.93664 33.31879
# Shear Modulus (GPa) = 15.19718 3.26159 9.22939
#
# Velocity S-wave (km/s) = 2.92138 1.35338 2.27663
# Velocity P-wave (km/s) = 4.43114 5.62217 5.06181
#
# Compressibility (1/GPa) = 0.06802281
#
# Stress axis : x y z
#
# Youngs Moduli (GPa) = 31.72727 10.41641 35.90383
#
# Poissons Ratio (x) = 0.08901 0.88313
# Poissons Ratio (y) = 0.27113 0.37816
# Poissons Ratio (z) = 0.78040 0.10971
#
# Static dielectric constant tensor:
#      x y z
#    x 1.575620 0.000000 0.007570 
#    y 0.000000 1.609870 0.000000 
#    z 0.007570 0.000000 1.611110 
# 
# From -- ./inp_files/231021.got.cif
#   From: 2010.05.17/outbox.cif.g08.bks.cpg/sg12_116_cif.got.tgz:231021.got - 2010.06.03 13:09:07.
