data_PCOD9192160
_publ_section_title
;
Structure prediction by ZEFSAII (Michael W. Deem and Ramdas Pophale) SiO2 
 PCOD9192160
Probable space group: C 2/M
;
_chemical_formula_sum "Si O2"
_cell_formula_units_Z 58
_cell_length_a 16.096193
_cell_length_b 10.325686
_cell_length_c 20.297645
_cell_angle_alpha 90.000000
_cell_angle_beta 126.181504
_cell_angle_gamma 90.000000
_cell_volume 2722.967686
_symmetry_space_group_name_H-M "C 2/M"
_symmetry_group_IT_number 12
_symmetry_cell_setting 'monoclinic'
loop_
_space_group_symop_operation_xyz
x,y,z
-x,y,-z
-x,-y,-z
x,-y,z
1/2+x,1/2+y,z
1/2-x,1/2+y,-z
1/2-x,1/2-y,-z
1/2+x,1/2-y,z
loop_
_atom_site_type_symbol
_atom_site_label
_atom_site_fract_x
_atom_site_fract_y
_atom_site_fract_z
Si Si1 0.590568 0.650126 0.345092
Si Si2 0.346052 0.763443 0.905855
Si Si3 0.935920 0.154945 0.813949
Si Si4 0.155704 0.850899 0.747127
Si Si5 0.111857 0.353383 0.465692
Si Si6 0.363707 0.146722 0.372827
Si Si7 0.339590 0.354000 0.035438
Si Si8 0.500000 0.000000 0.000000
O O1 0.622530 0.500000 0.369101
O O2 0.608669 0.692068 0.278196
O O3 0.465722 0.652260 0.294092
O O4 0.633254 0.745942 0.420718
O O5 0.384583 0.721165 0.852166
O O6 0.226640 0.800011 0.839467
O O7 0.364542 0.654477 0.969099
O O8 0.410838 0.887032 0.957945
O O9 0.926220 0.000000 0.814493
O O10 0.057639 0.183058 0.877085
O O11 0.174316 0.757048 0.693767
O O12 0.183748 0.000000 0.746179
O O13 0.139752 0.500000 0.458198
O O14 0.156847 0.328382 0.559640
O O15 0.987855 0.354070 0.419978
O O16 0.327298 0.000000 0.339947
O O17 0.309320 0.500000 0.039185
O O18 0.250000 0.250000 0.000000
#
# Coordination Sequence:
#
# PCOD9192160 Si02
#       8
#     8   8   8   8   8   8   8   2
#     4   9  18  33  53  80 109 144 178 224 274 325
#     4  12  23  40  59  81 111 149 192 230 283 336
#     4  10  21  39  57  77 107 145 187 228 277 335
#     4  10  20  33  53  81 113 140 180 231 280 324
#     4   8  14  28  48  76 110 145 176 219 267 325
#     4   8  15  28  49  75 110 145 179 216 271 327
#     4  11  24  39  61  85 111 144 184 234 285 339
#     4  12  24  40  62  80 112 154 188 242 280 340
#
# _framework density 21.300288999999999
#
# number of rings (size 3 to 8) (size 9 to 14) (size 15 to 20)
#    0.000    2.207    2.069    2.069    0.966    3.862 
#    1.241    5.517    0.000    0.828    0.000    0.000 
#    0.000    0.000    0.000    0.000    0.000    0.000 
#
# Total GULP energy -161800.896221 kJ/mol
# GULP energy per Si atom -5579.341249 kJ/mol
# Density = 2.125181 g / cm^3
# Si number density = 21.300289 Si / 1000 Ang^3
#
#
#
# Elastic Constant Matrix: (Units=GPa)
#
#
# Indices 1 2 3 4 5 6 
#
# 1 69.8803 23.3405 19.2444 0.0000 -4.6676 0.0000
# 2 23.3405 63.6854 46.2112 0.0000 -18.0898 0.0000
# 3 19.2444 46.2112 104.9329 0.0000 -4.2087 0.0000
# 4 0.0000 0.0000 0.0000 21.9470 0.0000 2.7746
# 5 -4.6676 -18.0898 -4.2087 0.0000 46.1422 0.0000
# 6 0.0000 0.0000 0.0000 2.7746 0.0000 -2.7877
#
#
#
# Elastic Compliance Matrix: (Units=1/GPa)
#
#
# Indices 1 2 3 4 5 6 
#
# 1 0.016345 -0.005864 -0.000443 0.000000 -0.000686 0.000000
# 2 -0.005864 0.028699 -0.011177 0.000000 0.009639 0.000000
# 3 -0.000443 -0.011177 0.014408 0.000000 -0.003112 0.000000
# 4 0.000000 0.000000 0.000000 0.040472 0.000000 0.040282
# 5 -0.000686 0.009639 -0.003112 0.000000 0.025098 0.000000
# 6 0.000000 0.000000 0.000000 0.040282 0.000000 -0.318628
#
#
# Mechanical properties :
#
#
# Convention : Reuss Voigt Hill
#
# Bulk Modulus (GPa) = 40.84025 46.23233 43.53629
# Shear Modulus (GPa) = -33.22767 23.04048 -5.09359
#
# Velocity S-wave (km/s) = -3.95392 3.29249 -1.54807
# Velocity P-wave (km/s) = 1.27651 6.01715 4.15792
#
# Compressibility (1/GPa) = 0.02448565
#
# Stress axis : x y z
#
# Youngs Moduli (GPa) = 61.18127 34.84413 69.40407
#
# Poissons Ratio (x) = 0.20432 0.03073
# Poissons Ratio (y) = 0.35876 0.77571
# Poissons Ratio (z) = 0.02709 0.38945
#
# Static dielectric constant tensor:
#      x y z
#    x 1.846880 0.000000 0.009660 
#    y 0.000000 1.701860 0.000000 
#    z 0.009660 0.000000 1.759220 
# 
# From -- ./inp_files/314862.got.cif
#   From: 2010.05.17/outbox.cif.g08.bks.cpg/sg12_158_cif.got.tgz:314862.got - 2010.06.03 13:09:07.
