data_PCOD9192032
_publ_section_title
;
Structure prediction by ZEFSAII (Michael W. Deem and Ramdas Pophale) SiO2 
 PCOD9192032
Probable space group: C 2/M
;
_chemical_formula_sum "Si O2"
_cell_formula_units_Z 56
_cell_length_a 29.753123
_cell_length_b 7.672524
_cell_length_c 14.373625
_cell_angle_alpha 90.000000
_cell_angle_beta 53.568418
_cell_angle_gamma 90.000000
_cell_volume 2639.970723
_symmetry_space_group_name_H-M "C 2/M"
_symmetry_group_IT_number 12
_symmetry_cell_setting 'monoclinic'
loop_
_space_group_symop_operation_xyz
x,y,z
-x,y,-z
-x,-y,-z
x,-y,z
1/2+x,1/2+y,z
1/2-x,1/2+y,-z
1/2-x,1/2-y,-z
1/2+x,1/2-y,z
loop_
_atom_site_type_symbol
_atom_site_label
_atom_site_fract_x
_atom_site_fract_y
_atom_site_fract_z
Si Si1 0.916784 0.711432 0.869171
Si Si2 0.799419 0.210637 0.551308
Si Si3 0.968608 0.302286 0.623658
Si Si4 0.436790 0.293919 0.059147
Si Si5 0.191223 0.293081 0.113497
Si Si6 0.672695 0.291093 0.691242
Si Si7 0.137157 0.198630 0.351026
O O1 0.918830 0.500000 0.866601
O O2 0.962023 0.771733 0.735353
O O3 0.857652 0.765581 0.897376
O O4 0.925278 0.772137 0.963387
O O5 0.735105 0.256410 0.654308
O O6 0.819156 0.273965 0.425331
O O7 0.842416 0.272216 0.576860
O O8 0.801755 0.000000 0.547825
O O9 0.990892 0.500000 0.606288
O O10 0.907373 0.305785 0.653550
O O11 0.000000 0.211084 0.500000
O O12 0.439484 0.500000 0.077297
O O13 0.382583 0.225815 0.185096
O O14 0.500000 0.222731 0.000000
O O15 0.185893 0.500000 0.132398
O O16 0.187905 0.200126 0.216906
O O17 0.250000 0.250000 0.000000
O O18 0.666945 0.500000 0.694385
O O19 0.117173 0.000000 0.387984
#
# Coordination Sequence:
#
# PCOD9192032 Si02
#       7
#     8   8   8   8   8   8   8
#     4   9  20  37  55  78 108 141 179 224 271 322
#     4   9  19  35  54  78 109 140 178 230 279 328
#     4   9  19  37  57  78 108 145 183 226 273 327
#     4  10  22  38  56  80 110 145 186 231 278 332
#     4  10  21  36  54  79 111 145 179 220 271 330
#     4   9  19  36  55  76 104 142 184 226 278 332
#     4  10  20  33  52  81 111 139 176 222 273 331
#
# _framework density 21.212357999999998
#
# number of rings (size 3 to 8) (size 9 to 14) (size 15 to 20)
#    0.000    2.571    0.000    1.714    2.000    6.286 
#    0.000    1.429    0.000    0.000    0.000    0.000 
#    0.000    0.000    0.000    0.000    0.000    0.000 
#
# Total GULP energy -155897.202545 kJ/mol
# GULP energy per Si atom -5567.757234 kJ/mol
# Density = 2.116408 g / cm^3
# Si number density = 21.212358 Si / 1000 Ang^3
#
#
#
# Elastic Constant Matrix: (Units=GPa)
#
#
# Indices 1 2 3 4 5 6 
#
# 1 65.1176 3.0637 57.7134 0.0000 12.1795 0.0000
# 2 3.0637 47.2638 0.2972 0.0000 -3.0774 -0.0001
# 3 57.7134 0.2972 154.7369 0.0000 -16.4016 0.0000
# 4 0.0000 0.0000 0.0000 26.6364 0.0000 -1.1139
# 5 12.1795 -3.0774 -16.4016 0.0000 35.5588 0.0000
# 6 0.0000 -0.0001 0.0000 -1.1139 0.0000 19.1011
#
#
#
# Elastic Compliance Matrix: (Units=1/GPa)
#
#
# Indices 1 2 3 4 5 6 
#
# 1 0.030082 -0.002945 -0.012967 0.000000 -0.016540 0.000000
# 2 -0.002945 0.021570 0.001432 0.000000 0.003536 0.000000
# 3 -0.012967 0.001432 0.012386 0.000000 0.010278 0.000000
# 4 0.000000 0.000000 0.000000 0.037634 0.000000 0.002195
# 5 -0.016540 0.003536 0.010278 0.000000 0.038835 0.000000
# 6 0.000000 0.000000 0.000000 0.002195 0.000000 0.052481
#
#
# Mechanical properties :
#
#
# Convention : Reuss Voigt Hill
#
# Bulk Modulus (GPa) = 28.50940 43.25188 35.88064
# Shear Modulus (GPa) = 21.40035 29.99554 25.69795
#
# Velocity S-wave (km/s) = 3.17971 3.76448 3.48438
# Velocity P-wave (km/s) = 5.19133 6.27131 5.75670
#
# Compressibility (1/GPa) = 0.03507615
#
# Stress axis : x y z
#
# Youngs Moduli (GPa) = 33.24268 46.36071 80.73734
#
# Poissons Ratio (x) = 0.13655 1.04695
# Poissons Ratio (y) = 0.09791 -0.11561
# Poissons Ratio (z) = 0.43107 -0.06639
#
# Static dielectric constant tensor:
#      x y z
#    x 1.793220 0.000000 -0.097780 
#    y 0.000000 1.840780 0.000000 
#    z -0.097780 0.000000 2.109840 
# 
# From -- ./inp_files/187203.got.cif
#   From: 2010.05.17/outbox.cif.g08.bks.cpg/sg12_94_cif.got.tgz:187203.got - 2010.06.03 13:09:07.
