data_PCOD9192513
_publ_section_title
;
Structure prediction by ZEFSAII (Michael W. Deem and Ramdas Pophale) SiO2 
 PCOD9192513
Probable space group: C 2/M
;
_chemical_formula_sum "Si O2"
_cell_formula_units_Z 64
_cell_length_a 5.656004
_cell_length_b 26.425580
_cell_length_c 21.679955
_cell_angle_alpha 90.000000
_cell_angle_beta 90.972674
_cell_angle_gamma 90.000000
_cell_volume 3239.888232
_symmetry_space_group_name_H-M "C 2/M"
_symmetry_group_IT_number 12
_symmetry_cell_setting 'monoclinic'
loop_
_space_group_symop_operation_xyz
x,y,z
-x,y,-z
-x,-y,-z
x,-y,z
1/2+x,1/2+y,z
1/2-x,1/2+y,-z
1/2-x,1/2-y,-z
1/2+x,1/2-y,z
loop_
_atom_site_type_symbol
_atom_site_label
_atom_site_fract_x
_atom_site_fract_y
_atom_site_fract_z
Si Si1 0.499054 0.945861 0.776119
Si Si2 0.616772 0.556992 0.664857
Si Si3 0.527374 0.840992 0.934101
Si Si4 0.311265 0.556773 0.943405
Si Si5 0.660821 0.393312 0.856589
Si Si6 0.292018 0.220355 0.180352
Si Si7 0.373967 0.363739 0.741769
Si Si8 0.252395 0.940147 0.525733
O O1 0.307174 0.946302 0.720417
O O2 0.366265 0.931551 0.837603
O O3 0.684735 0.903756 0.763520
O O4 0.616570 0.000000 0.780099
O O5 0.497421 0.500000 0.662596
O O6 0.467504 0.607851 0.680588
O O7 0.740998 0.563174 0.599543
O O8 0.641764 0.895468 0.949513
O O9 0.270779 0.853041 0.903965
O O10 0.685390 0.815204 0.880989
O O11 0.500000 0.813491 0.000000
O O12 0.209280 0.500000 0.940213
O O13 0.458797 0.571891 0.883561
O O14 0.500000 0.557248 0.000000
O O15 0.581979 0.365042 0.793854
O O16 0.547278 0.248013 0.178049
O O17 0.258564 0.188889 0.244534
O O18 0.500000 0.919217 0.500000
O O19 0.000000 0.919371 0.500000
O O20 0.251552 0.000000 0.508526
#
# Coordination Sequence:
#
# PCOD9192513 Si02
#       8
#     8   8   8   8   8   8   8   8
#     4  10  20  33  57  85 117 158 200 244 296 358
#     4   9  20  34  56  92 131 171 213 247 287 350
#     4  12  25  43  65  83 115 149 196 252 307 377
#     4  11  23  36  57  86 118 153 189 232 292 369
#     4  11  20  38  55  82 115 153 189 239 298 367
#     4  12  28  48  70  90 115 149 200 262 329 385
#     4  11  22  38  62  84 119 152 198 256 312 361
#     4   9  18  32  51  81 130 185 221 244 274 322
#
# _framework density 19.753767
#
# number of rings (size 3 to 8) (size 9 to 14) (size 15 to 20)
#    0.000    1.375    3.750    1.500    3.500    4.250 
#    0.000    0.000    0.000    0.000    0.000    0.000 
#    0.000    3.000    0.000    0.000    0.000    0.000 
#
# Total GULP energy -178309.049336 kJ/mol
# GULP energy per Si atom -5572.157792 kJ/mol
# Density = 1.970881 g / cm^3
# Si number density = 19.753767 Si / 1000 Ang^3
#
#
#
# Elastic Constant Matrix: (Units=GPa)
#
#
# Indices 1 2 3 4 5 6 
#
# 1 85.4412 32.0203 15.5715 0.0000 -23.8487 0.0000
# 2 32.0203 68.7023 7.3551 0.0000 -13.8300 0.0000
# 3 15.5715 7.3551 67.0106 0.0000 -21.7928 0.0000
# 4 0.0000 0.0000 0.0000 10.9655 0.0000 -4.4758
# 5 -23.8487 -13.8300 -21.7928 0.0000 27.6207 0.0000
# 6 0.0000 0.0000 0.0000 -4.4758 0.0000 33.9437
#
#
#
# Elastic Compliance Matrix: (Units=1/GPa)
#
#
# Indices 1 2 3 4 5 6 
#
# 1 0.017172 -0.005540 0.000723 0.000000 0.012623 0.000000
# 2 -0.005540 0.018041 0.000927 0.000000 0.004982 0.000000
# 3 0.000723 0.000927 0.020187 0.000000 0.017016 0.000000
# 4 0.000000 0.000000 0.000000 0.096382 0.000000 0.012709
# 5 0.012623 0.004982 0.017016 0.000000 0.063025 0.000000
# 6 0.000000 0.000000 0.000000 0.012709 0.000000 0.031136
#
#
# Mechanical properties :
#
#
# Convention : Reuss Voigt Hill
#
# Bulk Modulus (GPa) = 20.99894 36.78309 28.89102
# Shear Modulus (GPa) = 18.54632 25.58647 22.06639
#
# Velocity S-wave (km/s) = 3.06743 3.60289 3.34589
# Velocity P-wave (km/s) = 4.81653 5.99742 5.43911
#
# Compressibility (1/GPa) = 0.04762145
#
# Stress axis : x y z
#
# Youngs Moduli (GPa) = 58.23533 55.42933 49.53650
#
# Poissons Ratio (x) = 0.30705 -0.03582
# Poissons Ratio (y) = 0.32260 -0.04593
# Poissons Ratio (z) = -0.04211 -0.05140
#
# Static dielectric constant tensor:
#      x y z
#    x 1.809040 0.000000 0.018770 
#    y 0.000000 1.749450 0.000000 
#    z 0.018770 0.000000 1.718140 
# 
# From -- ./inp_files/298305.got.cif
#   From: 2010.05.17/outbox.cif.g08.bks.cpg/sg12_150_cif.got.tgz:298305.got - 2010.06.03 13:09:07.
