data_PCOD9192855
_publ_section_title
;
Structure prediction by ZEFSAII (Michael W. Deem and Ramdas Pophale) SiO2 
 PCOD9192855
Probable space group: C 2/M
;
_chemical_formula_sum "Si O2"
_cell_formula_units_Z 58
_cell_length_a 17.633348
_cell_length_b 11.848279
_cell_length_c 27.316100
_cell_angle_alpha 90.000000
_cell_angle_beta 35.154230
_cell_angle_gamma 90.000000
_cell_volume 3285.979444
_symmetry_space_group_name_H-M "C 2/M"
_symmetry_group_IT_number 12
_symmetry_cell_setting 'monoclinic'
loop_
_space_group_symop_operation_xyz
x,y,z
-x,y,-z
-x,-y,-z
x,-y,z
1/2+x,1/2+y,z
1/2-x,1/2+y,-z
1/2-x,1/2-y,-z
1/2+x,1/2-y,z
loop_
_atom_site_type_symbol
_atom_site_label
_atom_site_fract_x
_atom_site_fract_y
_atom_site_fract_z
Si Si1 0.162090 0.792455 0.367249
Si Si2 0.039608 0.635155 0.798376
Si Si3 0.787860 0.363914 0.125562
Si Si4 0.500000 0.500000 0.500000
Si Si5 0.495877 0.129509 0.386973
Si Si6 0.956591 0.363262 0.946066
Si Si7 0.510758 0.247776 0.278838
Si Si8 0.261731 0.869712 0.583689
O O1 0.307485 0.832041 0.274734
O O2 0.090398 0.718396 0.363972
O O3 0.181457 0.711851 0.404414
O O4 0.078104 0.900450 0.427621
O O5 0.030085 0.500000 0.799449
O O6 0.958771 0.674457 0.888837
O O7 0.995172 0.690983 0.771308
O O8 0.776309 0.500000 0.132429
O O9 0.649870 0.309049 0.211310
O O10 0.905385 0.332296 0.100699
O O11 0.839738 0.328444 0.044175
O O12 0.491257 0.157578 0.332253
O O13 0.352915 0.142331 0.487737
O O14 0.538320 0.000000 0.372845
O O15 0.954072 0.500000 0.946965
O O16 0.387935 0.333489 0.347072
O O17 0.268732 0.000000 0.595883
#
# Coordination Sequence:
#
# PCOD9192855 Si02
#       8
#     8   8   8   2   8   8   8   8
#     4  11  21  36  58  81 107 142 181 231 271 309
#     4  10  20  34  51  77 109 142 175 218 271 326
#     4   9  17  33  54  80 105 131 173 228 272 319
#     4  12  20  36  54  92 108 134 184 238 272 314
#     4  11  22  38  54  76 106 148 188 221 265 323
#     4   8  16  32  55  76 101 134 174 220 272 321
#     4  11  22  33  51  79 110 142 179 219 274 315
#     4  10  21  38  54  75 105 146 187 221 265 320
#
# _framework density 17.650749000000001
#
# number of rings (size 3 to 8) (size 9 to 14) (size 15 to 20)
#    0.000    1.931    2.069    3.310    0.000    1.655 
#    2.483    0.000    0.000    0.000    0.000   19.310 
#    0.000    0.000    0.000    0.000    0.000    0.000 
#
# Total GULP energy -161531.903333 kJ/mol
# GULP energy per Si atom -5570.065632 kJ/mol
# Density = 1.761058 g / cm^3
# Si number density = 17.650749 Si / 1000 Ang^3
#
#
#
# Elastic Constant Matrix: (Units=GPa)
#
#
# Indices 1 2 3 4 5 6 
#
# 1 52.3309 19.1643 30.5255 0.0000 10.4652 0.0000
# 2 19.1643 80.6142 18.3731 0.0000 0.1736 0.0000
# 3 30.5255 18.3731 61.3646 -0.0001 13.0531 0.0000
# 4 0.0000 0.0000 -0.0001 22.0239 0.0000 3.2222
# 5 10.4652 0.1736 13.0531 0.0000 28.6169 0.0000
# 6 0.0000 0.0000 0.0000 3.2222 0.0000 13.6520
#
#
#
# Elastic Compliance Matrix: (Units=1/GPa)
#
#
# Indices 1 2 3 4 5 6 
#
# 1 0.028548 -0.004057 -0.011928 0.000000 -0.004975 0.000000
# 2 -0.004057 0.013986 -0.002732 0.000000 0.002645 0.000000
# 3 -0.011928 -0.002732 0.024492 0.000000 -0.006793 0.000000
# 4 0.000000 0.000000 0.000000 0.047029 0.000000 -0.011100
# 5 -0.004975 0.002645 -0.006793 0.000000 0.039846 0.000000
# 6 0.000000 0.000000 0.000000 -0.011100 0.000000 0.075869
#
#
# Mechanical properties :
#
#
# Convention : Reuss Voigt Hill
#
# Bulk Modulus (GPa) = 33.79295 36.71507 35.25401
# Shear Modulus (GPa) = 18.04604 21.27502 19.66053
#
# Velocity S-wave (km/s) = 3.20096 3.47556 3.34108
# Velocity P-wave (km/s) = 5.73135 6.07882 5.90764
#
# Compressibility (1/GPa) = 0.02959197
#
# Stress axis : x y z
#
# Youngs Moduli (GPa) = 35.02928 71.49876 40.82892
#
# Poissons Ratio (x) = 0.29009 0.48700
# Poissons Ratio (y) = 0.14213 0.11154
# Poissons Ratio (z) = 0.41782 0.19533
#
# Static dielectric constant tensor:
#      x y z
#    x 1.604800 0.000000 0.016610 
#    y 0.000000 1.568440 0.000000 
#    z 0.016610 0.000000 1.607160 
# 
# From -- ./inp_files/223231.got.cif
#   From: 2010.05.17/outbox.cif.g08.bks.cpg/sg12_112_cif.got.tgz:223231.got - 2010.06.03 13:09:07.
