data_PCOD9192327
_publ_section_title
;
Structure prediction by ZEFSAII (Michael W. Deem and Ramdas Pophale) SiO2 
 PCOD9192327
Probable space group: C 2/M
;
_chemical_formula_sum "Si O2"
_cell_formula_units_Z 56
_cell_length_a 26.996926
_cell_length_b 13.339981
_cell_length_c 8.572988
_cell_angle_alpha 90.000000
_cell_angle_beta 63.249121
_cell_angle_gamma 90.000000
_cell_volume 2757.018009
_symmetry_space_group_name_H-M "C 2/M"
_symmetry_group_IT_number 12
_symmetry_cell_setting 'monoclinic'
loop_
_space_group_symop_operation_xyz
x,y,z
-x,y,-z
-x,-y,-z
x,-y,z
1/2+x,1/2+y,z
1/2-x,1/2+y,-z
1/2-x,1/2-y,-z
1/2+x,1/2-y,z
loop_
_atom_site_type_symbol
_atom_site_label
_atom_site_fract_x
_atom_site_fract_y
_atom_site_fract_z
Si Si1 0.211101 0.615540 0.167120
Si Si2 0.802087 0.110480 0.518884
Si Si3 0.710316 0.201767 0.830228
Si Si4 0.129732 0.850116 0.861677
Si Si5 0.968710 0.781272 0.192992
Si Si6 0.612521 0.237267 0.440747
Si Si7 0.565448 0.612734 0.250074
O O1 0.223328 0.500000 0.188067
O O2 0.255397 0.697822 0.167299
O O3 0.150551 0.649426 0.317093
O O4 0.211034 0.631654 0.980247
O O5 0.741154 0.150930 0.641484
O O6 0.820941 0.107711 0.313558
O O7 0.843251 0.187133 0.543982
O O8 0.808224 0.000000 0.578475
O O9 0.649288 0.236785 0.869014
O O10 0.075707 0.853780 0.829245
O O11 0.113956 0.892531 0.051040
O O12 0.932944 0.713470 0.361970
O O13 0.011796 0.845615 0.234192
O O14 0.000000 0.732678 0.000000
O O15 0.582649 0.304382 0.351452
O O16 0.557195 0.500000 0.324074
#
# Coordination Sequence:
#
# PCOD9192327 Si02
#       7
#     8   8   8   8   8   8   8
#     4  10  21  37  59  86 114 146 190 238 283 333
#     4  10  20  33  54  85 121 155 187 225 274 335
#     4  10  20  37  56  84 116 152 190 232 277 331
#     4  10  20  36  52  80 119 155 184 225 277 334
#     4   9  21  36  56  80 110 152 181 227 282 339
#     4  10  20  37  57  84 115 148 187 232 282 334
#     4  11  21  34  56  85 116 150 189 231 280 338
#
# _framework density 20.311800000000002
#
# number of rings (size 3 to 8) (size 9 to 14) (size 15 to 20)
#    0.000    2.000    1.429    2.143    0.000    7.143 
#    0.000    0.000    0.000    5.571    0.000    0.000 
#    0.000    0.000    0.000    0.000    0.000    0.000 
#
# Total GULP energy -156122.540283 kJ/mol
# GULP energy per Si atom -5575.805010 kJ/mol
# Density = 2.026557 g / cm^3
# Si number density = 20.311800 Si / 1000 Ang^3
#
#
#
# Elastic Constant Matrix: (Units=GPa)
#
#
# Indices 1 2 3 4 5 6 
#
# 1 54.4800 6.1222 12.7480 0.0000 1.8378 0.0000
# 2 6.1222 62.5882 34.7402 0.0000 -8.6678 0.0000
# 3 12.7480 34.7402 130.0756 0.0000 -16.5118 0.0000
# 4 0.0000 0.0000 0.0000 3.7168 0.0000 2.1287
# 5 1.8378 -8.6678 -16.5118 0.0000 28.8070 0.0000
# 6 0.0000 0.0000 0.0000 2.1287 0.0000 2.4217
#
#
#
# Elastic Compliance Matrix: (Units=1/GPa)
#
#
# Indices 1 2 3 4 5 6 
#
# 1 0.019018 -0.001181 -0.001885 0.000000 -0.002649 0.000000
# 2 -0.001181 0.019074 -0.004573 0.000000 0.003193 0.000000
# 3 -0.001885 -0.004573 0.009636 0.000000 0.004267 0.000000
# 4 0.000000 0.000000 0.000000 0.541823 0.000000 -0.476264
# 5 -0.002649 0.003193 0.004267 0.000000 0.038290 0.000000
# 6 0.000000 0.000000 0.000000 -0.476264 0.000000 0.831566
#
#
# Mechanical properties :
#
#
# Convention : Reuss Voigt Hill
#
# Bulk Modulus (GPa) = 30.81669 39.37387 35.09528
# Shear Modulus (GPa) = 3.36587 19.89131 11.62859
#
# Velocity S-wave (km/s) = 1.28868 3.13277 2.39530
# Velocity P-wave (km/s) = 4.17361 5.70197 4.99657
#
# Compressibility (1/GPa) = 0.03244995
#
# Stress axis : x y z
#
# Youngs Moduli (GPa) = 52.58052 52.42876 103.78200
#
# Poissons Ratio (x) = 0.06192 0.19560
# Poissons Ratio (y) = 0.06210 0.47459
# Poissons Ratio (z) = 0.09910 0.23976
#
# Static dielectric constant tensor:
#      x y z
#    x 1.755020 0.000000 -0.022910 
#    y 0.000000 1.702950 0.000000 
#    z -0.022910 0.000000 1.789830 
# 
# From -- ./inp_files/110358.got.cif
#   From: 2010.05.17/outbox.cif.g08.bks.cpg/sg12_56_cif.got.tgz:110358.got - 2010.06.03 13:09:07.
