data_PCOD9192543
_publ_section_title
;
Structure prediction by ZEFSAII (Michael W. Deem and Ramdas Pophale) SiO2 
 PCOD9192543
Probable space group: C 2/M
;
_chemical_formula_sum "Si O2"
_cell_formula_units_Z 60
_cell_length_a 16.469072
_cell_length_b 25.195988
_cell_length_c 7.955663
_cell_angle_alpha 90.000000
_cell_angle_beta 62.136278
_cell_angle_gamma 90.000000
_cell_volume 2918.498613
_symmetry_space_group_name_H-M "C 2/M"
_symmetry_group_IT_number 12
_symmetry_cell_setting 'monoclinic'
loop_
_space_group_symop_operation_xyz
x,y,z
-x,y,-z
-x,-y,-z
x,-y,z
1/2+x,1/2+y,z
1/2-x,1/2+y,-z
1/2-x,1/2-y,-z
1/2+x,1/2-y,z
loop_
_atom_site_type_symbol
_atom_site_label
_atom_site_fract_x
_atom_site_fract_y
_atom_site_fract_z
Si Si1 0.355118 0.848147 0.251346
Si Si2 0.812777 0.769965 0.204336
Si Si3 0.892929 0.555538 0.653040
Si Si4 0.924431 0.872949 0.220590
Si Si5 0.623389 0.748634 0.243923
Si Si6 0.453423 0.149772 0.795798
Si Si7 0.757873 0.939811 0.491568
Si Si8 0.500000 0.340560 0.500000
O O1 0.326046 0.786222 0.288738
O O2 0.439764 0.863932 0.290275
O O3 0.275776 0.891995 0.352487
O O4 0.404231 0.849039 0.023096
O O5 0.866997 0.818314 0.238223
O O6 0.704525 0.774909 0.273826
O O7 0.847998 0.765672 0.975838
O O8 0.874467 0.500000 0.767059
O O9 0.890170 0.608966 0.758553
O O10 0.822445 0.556848 0.569133
O O11 0.000000 0.553315 0.500000
O O12 0.849706 0.919602 0.310405
O O13 0.974130 0.870148 0.353650
O O14 0.000000 0.878813 0.000000
O O15 0.547725 0.792941 0.286200
O O16 0.585311 0.697300 0.371398
O O17 0.768015 0.000000 0.552394
#
# Coordination Sequence:
#
# PCOD9192543 Si02
#       8
#     8   8   8   8   8   8   8   4
#     4  10  21  36  60  93 131 169 208 259 325 404
#     4  10  21  40  61  93 137 171 207 271 334 394
#     4  10  20  36  58  87 122 162 212 263 326 402
#     4  12  26  46  70  95 135 180 228 289 336 388
#     4  10  21  35  60  97 132 168 215 257 323 413
#     4  10  20  33  57  92 130 169 203 249 326 405
#     4  11  25  45  67  94 127 171 226 281 335 392
#     4  12  24  40  69 100 127 178 224 268 340 404
#
# _framework density 20.558516000000001
#
# number of rings (size 3 to 8) (size 9 to 14) (size 15 to 20)
#    0.000    1.467    2.667    2.400    2.800    5.067 
#    2.400    1.667    0.000    0.000    0.000    0.000 
#    0.000    0.000    0.000    0.000    0.000    0.000 
#
# Total GULP energy -167300.428321 kJ/mol
# GULP energy per Si atom -5576.680944 kJ/mol
# Density = 2.051172 g / cm^3
# Si number density = 20.558516 Si / 1000 Ang^3
#
#
#
# Elastic Constant Matrix: (Units=GPa)
#
#
# Indices 1 2 3 4 5 6 
#
# 1 83.1900 19.6424 39.2679 0.0000 -1.1483 0.0000
# 2 19.6424 91.3179 30.5900 0.0000 -6.5470 0.0000
# 3 39.2679 30.5900 84.3790 0.0000 -2.4155 0.0000
# 4 0.0000 0.0000 0.0000 8.0172 0.0000 23.1186
# 5 -1.1483 -6.5470 -2.4155 0.0000 32.0021 0.0000
# 6 0.0000 0.0000 0.0000 23.1186 0.0000 -29.0868
#
#
#
# Elastic Compliance Matrix: (Units=1/GPa)
#
#
# Indices 1 2 3 4 5 6 
#
# 1 0.015493 -0.001056 -0.006832 0.000000 -0.000176 0.000000
# 2 -0.001056 0.012695 -0.004046 0.000000 0.002254 0.000000
# 3 -0.006832 -0.004046 0.016502 0.000000 0.000173 0.000000
# 4 0.000000 0.000000 0.000000 0.037890 0.000000 0.030115
# 5 -0.000176 0.002254 0.000173 0.000000 0.031716 0.000000
# 6 0.000000 0.000000 0.000000 0.030115 0.000000 -0.010444
#
#
# Mechanical properties :
#
#
# Convention : Reuss Voigt Hill
#
# Bulk Modulus (GPa) = 48.02847 48.65419 48.34133
# Shear Modulus (GPa) = 37.13019 13.47894 25.30457
#
# Velocity S-wave (km/s) = 4.25440 2.56332 3.51216
# Velocity P-wave (km/s) = 6.89535 5.69898 6.32551
#
# Compressibility (1/GPa) = 0.02082098
#
# Stress axis : x y z
#
# Youngs Moduli (GPa) = 64.54725 78.77129 60.59699
#
# Poissons Ratio (x) = 0.08322 0.41399
# Poissons Ratio (y) = 0.06819 0.24518
# Poissons Ratio (z) = 0.44098 0.31872
#
# Static dielectric constant tensor:
#      x y z
#    x 1.735600 0.000000 0.012530 
#    y 0.000000 1.774770 0.000000 
#    z 0.012530 0.000000 1.805260 
# 
# From -- ./inp_files/79103.got.cif
#   From: 2010.05.17/outbox.cif.g08.bks.cpg/sg12_40_cif.got.tgz:79103.got - 2010.06.03 13:09:07.
