data_PCOD9192310
_publ_section_title
;
Structure prediction by ZEFSAII (Michael W. Deem and Ramdas Pophale) SiO2 
 PCOD9192310
Probable space group: C 2/M
;
_chemical_formula_sum "Si O2"
_cell_formula_units_Z 64
_cell_length_a 22.228650
_cell_length_b 8.278834
_cell_length_c 24.526878
_cell_angle_alpha 90.000000
_cell_angle_beta 132.153780
_cell_angle_gamma 90.000000
_cell_volume 3346.151609
_symmetry_space_group_name_H-M "C 2/M"
_symmetry_group_IT_number 12
_symmetry_cell_setting 'monoclinic'
loop_
_space_group_symop_operation_xyz
x,y,z
-x,y,-z
-x,-y,-z
x,-y,z
1/2+x,1/2+y,z
1/2-x,1/2+y,-z
1/2-x,1/2-y,-z
1/2+x,1/2-y,z
loop_
_atom_site_type_symbol
_atom_site_label
_atom_site_fract_x
_atom_site_fract_y
_atom_site_fract_z
Si Si1 0.902386 0.191634 0.291884
Si Si2 0.800364 0.184144 0.081024
Si Si3 0.343041 0.805718 0.551659
Si Si4 0.465827 0.307261 0.718338
Si Si5 0.260262 0.683962 0.848461
Si Si6 0.040154 0.686308 0.863791
Si Si7 0.072384 0.813193 0.001652
Si Si8 0.024852 0.308178 0.455412
O O1 0.806997 0.231865 0.230077
O O2 0.953312 0.237085 0.268075
O O3 0.948962 0.277841 0.369213
O O4 0.911968 0.000000 0.303576
O O5 0.783207 0.303687 0.119645
O O6 0.892326 0.194185 0.118819
O O7 0.778650 0.000000 0.082691
O O8 0.750000 0.250000 0.000000
O O9 0.250000 0.750000 0.500000
O O10 0.392554 0.745103 0.634586
O O11 0.395566 0.747817 0.530216
O O12 0.344889 0.000000 0.551972
O O13 0.464446 0.500000 0.724350
O O14 0.466058 0.223530 0.777869
O O15 0.271651 0.500000 0.836832
O O16 0.348617 0.753980 0.918265
O O17 0.063786 0.500000 0.870993
O O18 0.041782 0.722802 0.929036
O O19 0.092924 0.000000 0.998633
O O20 0.000000 0.816262 0.000000
O O21 0.037501 0.500000 0.469696
O O22 0.000000 0.241570 0.500000
#
# Coordination Sequence:
#
# PCOD9192310 Si02
#       8
#     8   8   8   8   8   8   8   8
#     4  10  20  33  54  84 117 146 179 229 287 342
#     4  12  22  33  51  81 113 141 175 222 279 335
#     4  10  20  36  59  87 119 153 193 237 289 351
#     4  10  20  35  56  83 116 148 183 231 286 341
#     4  11  21  34  56  81 109 142 182 231 282 338
#     4  12  23  35  56  83 112 144 182 232 284 337
#     4  10  23  42  59  75 104 151 199 239 283 338
#     4   9  19  37  60  85 115 152 194 237 285 347
#
# _framework density 19.126449999999998
#
# number of rings (size 3 to 8) (size 9 to 14) (size 15 to 20)
#    0.000    1.500    2.500    3.750    0.000    2.500 
#    0.000    1.250    0.000    3.000    0.000    0.000 
#    0.000    0.000    0.000    0.000    0.000    0.000 
#
# Total GULP energy -178334.056208 kJ/mol
# GULP energy per Si atom -5572.939256 kJ/mol
# Density = 1.908292 g / cm^3
# Si number density = 19.126450 Si / 1000 Ang^3
#
#
#
# Elastic Constant Matrix: (Units=GPa)
#
#
# Indices 1 2 3 4 5 6 
#
# 1 79.1340 9.4904 56.6600 0.0000 8.7482 0.0000
# 2 9.4904 49.4338 9.8705 0.0000 5.4742 0.0000
# 3 56.6600 9.8705 112.5277 0.0000 13.1588 0.0000
# 4 0.0000 0.0000 0.0000 11.5143 0.0000 -0.3494
# 5 8.7482 5.4742 13.1588 0.0000 21.3404 0.0000
# 6 0.0000 0.0000 0.0000 -0.3494 0.0000 17.5180
#
#
#
# Elastic Compliance Matrix: (Units=1/GPa)
#
#
# Indices 1 2 3 4 5 6 
#
# 1 0.019987 -0.001703 -0.009708 0.000000 -0.001771 0.000000
# 2 -0.001703 0.021142 -0.000479 0.000000 -0.004430 0.000000
# 3 -0.009708 -0.000479 0.014373 0.000000 -0.004760 0.000000
# 4 0.000000 0.000000 0.000000 0.086901 0.000000 0.001733
# 5 -0.001771 -0.004430 -0.004760 0.000000 0.051657 0.000000
# 6 0.000000 0.000000 0.000000 0.001733 0.000000 0.057119
#
#
# Mechanical properties :
#
#
# Convention : Reuss Voigt Hill
#
# Bulk Modulus (GPa) = 31.52189 43.68192 37.60191
# Shear Modulus (GPa) = 17.51109 21.07953 19.29531
#
# Velocity S-wave (km/s) = 3.02908 3.32341 3.17965
# Velocity P-wave (km/s) = 5.36193 6.13309 5.76043
#
# Compressibility (1/GPa) = 0.03172399
#
# Stress axis : x y z
#
# Youngs Moduli (GPa) = 50.03141 47.29875 69.57299
#
# Poissons Ratio (x) = 0.08054 0.67539
# Poissons Ratio (y) = 0.08519 0.03333
# Poissons Ratio (z) = 0.48569 0.02266
#
# Static dielectric constant tensor:
#      x y z
#    x 1.675440 0.000000 0.009190 
#    y 0.000000 1.711220 0.000000 
#    z 0.009190 0.000000 1.700040 
# 
# From -- ./inp_files/346289.got.cif
#   From: 2010.05.17/outbox.cif.g08.bks.cpg/sg12_174_cif.got.tgz:346289.got - 2010.06.03 13:09:07.
