data_PCOD9192458
_publ_section_title
;
Structure prediction by ZEFSAII (Michael W. Deem and Ramdas Pophale) SiO2 
 PCOD9192458
Probable space group: C 2/M
;
_chemical_formula_sum "Si O2"
_cell_formula_units_Z 58
_cell_length_a 12.473485
_cell_length_b 21.228332
_cell_length_c 17.776084
_cell_angle_alpha 90.000000
_cell_angle_beta 137.724523
_cell_angle_gamma 90.000000
_cell_volume 3166.347272
_symmetry_space_group_name_H-M "C 2/M"
_symmetry_group_IT_number 12
_symmetry_cell_setting 'monoclinic'
loop_
_space_group_symop_operation_xyz
x,y,z
-x,y,-z
-x,-y,-z
x,-y,z
1/2+x,1/2+y,z
1/2-x,1/2+y,-z
1/2-x,1/2-y,-z
1/2+x,1/2-y,z
loop_
_atom_site_type_symbol
_atom_site_label
_atom_site_fract_x
_atom_site_fract_y
_atom_site_fract_z
Si Si1 0.000000 0.500000 0.000000
Si Si2 0.806222 0.909808 0.190795
Si Si3 0.229952 0.846042 0.043392
Si Si4 0.317770 0.788420 0.926608
Si Si5 0.599989 0.923735 0.623839
Si Si6 0.966401 0.072913 0.833467
Si Si7 0.843146 0.927442 0.382833
Si Si8 0.503432 0.924219 0.262723
O O1 0.859414 0.445324 0.915210
O O2 0.781897 0.834531 0.178036
O O3 0.934581 0.925930 0.193239
O O4 0.855955 0.928794 0.299914
O O5 0.220204 0.785416 0.091847
O O6 0.358821 0.894517 0.141429
O O7 0.287011 0.817714 0.993196
O O8 0.064854 0.882381 0.941044
O O9 0.500000 0.795001 0.000000
O O10 0.500000 0.900321 0.500000
O O11 0.516753 0.908834 0.659897
O O12 0.785733 0.904755 0.725511
O O13 0.603929 0.000000 0.620090
O O14 0.962714 0.000000 0.858516
O O15 0.672164 0.900683 0.318230
O O16 0.000000 0.897195 0.500000
O O17 0.837518 0.000000 0.408047
O O18 0.494499 0.000000 0.248679
#
# Coordination Sequence:
#
# PCOD9192458 Si02
#       8
#     2   8   8   8   8   8   8   8
#     4  12  20  32  58  92 116 148 176 226 300 346
#     4  11  21  34  58  86 116 147 182 228 285 347
#     4  10  22  35  55  86 110 143 186 226 286 335
#     4  10  21  36  54  78 112 153 179 222 278 342
#     4   9  20  36  52  75 112 155 188 218 268 325
#     4  10  20  33  56  85 113 145 184 234 274 334
#     4  10  21  34  55  88 119 146 182 230 289 338
#     4  10  21  35  57  83 114 148 178 237 281 329
#
# _framework density 18.317637999999999
#
# number of rings (size 3 to 8) (size 9 to 14) (size 15 to 20)
#    0.000    1.931    2.069    1.241    5.793    0.000 
#    0.000    2.069    0.000    1.655    0.000    0.000 
#    0.000    0.000    0.000    0.000    0.000    0.000 
#
# Total GULP energy -161473.015881 kJ/mol
# GULP energy per Si atom -5568.035030 kJ/mol
# Density = 1.827595 g / cm^3
# Si number density = 18.317638 Si / 1000 Ang^3
#
#
#
# Elastic Constant Matrix: (Units=GPa)
#
#
# Indices 1 2 3 4 5 6 
#
# 1 38.2838 24.6479 29.4486 0.0000 1.8460 0.0000
# 2 24.6479 74.9909 40.2591 0.0000 8.5299 0.0000
# 3 29.4486 40.2591 112.8207 0.0000 6.4415 0.0000
# 4 0.0000 0.0000 0.0000 2.5504 0.0000 -2.2769
# 5 1.8460 8.5299 6.4415 0.0000 16.3014 0.0000
# 6 0.0000 0.0000 0.0000 -2.2769 0.0000 7.6125
#
#
#
# Elastic Compliance Matrix: (Units=1/GPa)
#
#
# Indices 1 2 3 4 5 6 
#
# 1 0.036777 -0.008896 -0.006602 0.000000 0.003099 0.000000
# 2 -0.008896 0.019338 -0.004152 0.000000 -0.007471 0.000000
# 3 -0.006602 -0.004152 0.012176 0.000000 -0.001891 0.000000
# 4 0.000000 0.000000 0.000000 0.534932 0.000000 0.159996
# 5 0.003099 -0.007471 -0.001891 0.000000 0.065650 0.000000
# 6 0.000000 0.000000 0.000000 0.159996 0.000000 0.179218
#
#
# Mechanical properties :
#
#
# Convention : Reuss Voigt Hill
#
# Bulk Modulus (GPa) = 34.49314 46.08963 40.29139
# Shear Modulus (GPa) = 5.57379 14.07551 9.82465
#
# Velocity S-wave (km/s) = 1.74627 2.77503 2.31843
# Velocity P-wave (km/s) = 4.78930 5.95682 5.40468
#
# Compressibility (1/GPa) = 0.02899127
#
# Stress axis : x y z
#
# Youngs Moduli (GPa) = 27.19077 51.71285 82.12570
#
# Poissons Ratio (x) = 0.46004 0.54220
# Poissons Ratio (y) = 0.24189 0.34097
# Poissons Ratio (z) = 0.17952 0.21470
#
# Static dielectric constant tensor:
#      x y z
#    x 1.654300 0.000000 -0.001050 
#    y 0.000000 1.646900 0.000000 
#    z -0.001050 0.000000 1.619330 
# 
# From -- ./inp_files/265292.got.cif
#   From: 2010.05.17/outbox.cif.g08.bks.cpg/sg12_133_cif.got.tgz:265292.got - 2010.06.03 13:09:07.
