data_PCOD9192632
_publ_section_title
;
Structure prediction by ZEFSAII (Michael W. Deem and Ramdas Pophale) SiO2 
 PCOD9192632
Probable space group: C 2/M
;
_chemical_formula_sum "Si O2"
_cell_formula_units_Z 56
_cell_length_a 13.551583
_cell_length_b 28.781408
_cell_length_c 8.299364
_cell_angle_alpha 90.000000
_cell_angle_beta 125.778464
_cell_angle_gamma 90.000000
_cell_volume 2626.150385
_symmetry_space_group_name_H-M "C 2/M"
_symmetry_group_IT_number 12
_symmetry_cell_setting 'monoclinic'
loop_
_space_group_symop_operation_xyz
x,y,z
-x,y,-z
-x,-y,-z
x,-y,z
1/2+x,1/2+y,z
1/2-x,1/2+y,-z
1/2-x,1/2-y,-z
1/2+x,1/2-y,z
loop_
_atom_site_type_symbol
_atom_site_label
_atom_site_fract_x
_atom_site_fract_y
_atom_site_fract_z
Si Si1 0.764035 0.610850 0.919005
Si Si2 0.730579 0.892968 0.454796
Si Si3 0.439029 0.272544 0.731261
Si Si4 0.500447 0.624912 0.695180
Si Si5 0.992767 0.553695 0.190733
Si Si6 0.805117 0.701409 0.394549
Si Si7 0.153746 0.291302 0.918195
O O1 0.759001 0.597758 0.726497
O O2 0.631238 0.604874 0.871390
O O3 0.797117 0.665222 0.939577
O O4 0.872318 0.583805 0.110635
O O5 0.873720 0.896103 0.643345
O O6 0.615694 0.925559 0.387272
O O7 0.691989 0.840985 0.475826
O O8 0.500499 0.320284 0.736538
O O9 0.337917 0.287228 0.763461
O O10 0.364027 0.249060 0.513667
O O11 0.530988 0.231883 0.860331
O O12 0.500000 0.621220 0.500000
O O13 0.978018 0.500000 0.220177
O O14 0.000000 0.556110 0.000000
O O15 0.863515 0.689863 0.280268
O O16 0.250000 0.250000 0.000000
#
# Coordination Sequence:
#
# PCOD9192632 Si02
#       7
#     8   8   8   8   8   8   8
#     4  10  20  34  52  79 108 142 179 231 279 325
#     4   9  19  36  55  74 102 148 184 224 274 337
#     4  10  20  34  49  68 104 146 188 218 267 319
#     4   9  16  30  49  69 103 139 177 213 263 320
#     4   9  18  35  59  86 110 134 175 235 296 341
#     4  10  22  35  52  72 104 150 185 231 269 322
#     4  12  23  33  50  79 112 146 187 234 269 322
#
# _framework density 21.323988
#
# number of rings (size 3 to 8) (size 9 to 14) (size 15 to 20)
#    0.000    2.143    1.429    2.143    6.000    0.571 
#    0.000    0.714    0.000    6.000    0.000    0.000 
#    0.000    3.714    0.000    0.000    0.000    0.000 
#
# Total GULP energy -156115.097033 kJ/mol
# GULP energy per Si atom -5575.539180 kJ/mol
# Density = 2.127545 g / cm^3
# Si number density = 21.323988 Si / 1000 Ang^3
#
#
#
# Elastic Constant Matrix: (Units=GPa)
#
#
# Indices 1 2 3 4 5 6 
#
# 1 97.1001 48.1123 44.3277 0.0000 41.5188 0.0000
# 2 48.1123 88.1766 21.9288 0.0000 43.9743 0.0000
# 3 44.3277 21.9288 36.0003 0.0000 30.6218 0.0000
# 4 0.0000 0.0000 0.0000 20.9966 0.0000 6.7438
# 5 41.5188 43.9743 30.6218 0.0000 48.2871 0.0000
# 6 0.0000 0.0000 0.0000 6.7438 0.0000 19.3845
#
#
#
# Elastic Compliance Matrix: (Units=1/GPa)
#
#
# Indices 1 2 3 4 5 6 
#
# 1 0.027972 -0.010199 -0.034027 0.000000 0.006816 0.000000
# 2 -0.010199 0.025463 0.020220 0.000000 -0.027242 0.000000
# 3 -0.034027 0.020220 0.104510 0.000000 -0.055433 0.000000
# 4 0.000000 0.000000 0.000000 0.053618 0.000000 -0.018654
# 5 0.006816 -0.027242 -0.055433 0.000000 0.074812 0.000000
# 6 0.000000 0.000000 0.000000 -0.018654 0.000000 0.058077
#
#
# Mechanical properties :
#
#
# Convention : Reuss Voigt Hill
#
# Bulk Modulus (GPa) = 9.09640 50.00162 29.54901
# Shear Modulus (GPa) = 11.65206 24.86085 18.25646
#
# Velocity S-wave (km/s) = 2.34012 3.41818 2.92917
# Velocity P-wave (km/s) = 3.40244 6.25124 5.03263
#
# Compressibility (1/GPa) = 0.10993359
#
# Stress axis : x y z
#
# Youngs Moduli (GPa) = 35.75032 39.27227 9.56843
#
# Poissons Ratio (x) = 0.40055 0.32559
# Poissons Ratio (y) = 0.36463 -0.19348
# Poissons Ratio (z) = 1.21648 -0.79410
#
# Static dielectric constant tensor:
#      x y z
#    x 1.834410 0.000000 0.013140 
#    y 0.000000 1.718030 0.000000 
#    z 0.013140 0.000000 1.885970 
# 
# From -- ./inp_files/68324.got.cif
#   From: 2010.05.17/outbox.cif.g08.bks.cpg/sg12_35_cif.got.tgz:68324.got - 2010.06.03 13:09:07.
