data_PCOD9192599
_publ_section_title
;
Structure prediction by ZEFSAII (Michael W. Deem and Ramdas Pophale) SiO2 
 PCOD9192599
Probable space group: C 2/M
;
_chemical_formula_sum "Si O2"
_cell_formula_units_Z 36
_cell_length_a 14.406807
_cell_length_b 14.437492
_cell_length_c 21.539258
_cell_angle_alpha 90.000000
_cell_angle_beta 159.024106
_cell_angle_gamma 90.000000
_cell_volume 1603.773720
_symmetry_space_group_name_H-M "C 2/M"
_symmetry_group_IT_number 12
_symmetry_cell_setting 'monoclinic'
loop_
_space_group_symop_operation_xyz
x,y,z
-x,y,-z
-x,-y,-z
x,-y,z
1/2+x,1/2+y,z
1/2-x,1/2+y,-z
1/2-x,1/2-y,-z
1/2+x,1/2-y,z
loop_
_atom_site_type_symbol
_atom_site_label
_atom_site_fract_x
_atom_site_fract_y
_atom_site_fract_z
Si Si1 0.734279 0.000000 0.096133
Si Si2 0.432375 0.000000 0.777670
Si Si3 0.669975 0.797610 0.257722
Si Si4 0.519539 0.199973 0.649095
Si Si5 0.180459 0.500000 0.794285
Si Si6 0.173010 0.801684 0.857696
O O1 0.889273 0.094142 0.201860
O O2 0.500000 0.000000 0.000000
O O3 0.632246 0.000000 0.961100
O O4 0.280513 0.903518 0.691356
O O5 0.572640 0.000000 0.798234
O O6 0.550375 0.741401 0.239849
O O7 0.892498 0.741865 0.361603
O O8 0.432039 0.803739 0.060148
O O9 0.250000 0.250000 0.500000
O O10 0.564155 0.090394 0.686172
O O11 0.708164 0.240300 0.819736
O O12 0.500000 0.500000 0.000000
#
# Coordination Sequence:
#
# PCOD9192599 Si02
#       6
#     4   4   8   8   4   8
#     4  10  20  33  63  99 132 162 220 298 365 404
#     4  10  20  41  70 104 123 177 239 298 340 411
#     4  10  21  39  69  95 132 174 241 301 342 413
#     4  12  27  43  64 101 146 187 228 290 369 425
#     4  12  26  46  77 107 141 186 253 302 344 420
#     4  10  20  38  63  95 127 177 236 292 349 407
#
# _framework density 22.447056
#
# number of rings (size 3 to 8) (size 9 to 14) (size 15 to 20)
#    0.000    1.333    2.222    4.667    6.222    2.667 
#    0.000    1.111    0.000    2.667    0.000    0.000 
#    0.000    0.000    0.000    0.000    0.000    0.000 
#
# Total GULP energy -100540.783445 kJ/mol
# GULP energy per Si atom -5585.599080 kJ/mol
# Density = 2.239597 g / cm^3
# Si number density = 22.447056 Si / 1000 Ang^3
#
#
#
# Elastic Constant Matrix: (Units=GPa)
#
#
# Indices 1 2 3 4 5 6 
#
# 1 158.6857 72.1081 25.8971 -0.0203 31.6447 0.0037
# 2 72.1081 262.6027 40.1415 -0.0202 25.6673 0.0118
# 3 25.8971 40.1415 113.4670 -0.0209 19.4414 0.0148
# 4 -0.0203 -0.0202 -0.0209 -6.5007 0.0406 -3.3476
# 5 31.6447 25.6673 19.4414 0.0406 19.4387 -0.0003
# 6 0.0037 0.0118 0.0148 -3.3476 -0.0003 38.1115
#
#
#
# Elastic Compliance Matrix: (Units=1/GPa)
#
#
# Indices 1 2 3 4 5 6 
#
# 1 0.009754 -0.001344 0.000804 -0.000116 -0.014908 -0.000011
# 2 -0.001344 0.004601 -0.000790 -0.000025 -0.003096 -0.000003
# 3 0.000804 -0.000790 0.010806 -0.000098 -0.011072 -0.000013
# 4 -0.000116 -0.000025 -0.000098 -0.147169 0.000627 -0.012927
# 5 -0.014908 -0.003096 -0.011072 0.000627 0.090873 0.000063
# 6 -0.000011 -0.000003 -0.000013 -0.012927 0.000063 0.025103
#
#
# Mechanical properties :
#
#
# Convention : Reuss Voigt Hill
#
# Bulk Modulus (GPa) = 44.44550 90.11653 67.28102
# Shear Modulus (GPa) = 1210.42484 36.65048 623.53766
#
# Velocity S-wave (km/s) = 23.24664 4.04512 16.68486
# Velocity P-wave (km/s) = 27.21001 7.87723 20.03042
#
# Compressibility (1/GPa) = 0.02249946
#
# Stress axis : x y z
#
# Youngs Moduli (GPa) = 102.51903 217.36585 92.53737
#
# Poissons Ratio (x) = 0.29217 -0.07436
# Poissons Ratio (y) = 0.13780 0.07313
# Poissons Ratio (z) = -0.08238 0.17178
#
# Static dielectric constant tensor:
#      x y z
#    x 1.560750 -0.000060 -0.008580 
#    y -0.000060 1.850900 -0.000020 
#    z -0.008580 -0.000020 1.912220 
# 
# From -- ./inp_files/340266.got.cif
#   From: 2010.05.17/outbox.cif.g08.bks.cpg/sg12_171_cif.got.tgz:340266.got - 2010.06.03 13:09:07.
