data_PCOD9192766
_publ_section_title
;
Structure prediction by ZEFSAII (Michael W. Deem and Ramdas Pophale) SiO2 
 PCOD9192766
Probable space group: C 2/M
;
_chemical_formula_sum "Si O2"
_cell_formula_units_Z 64
_cell_length_a 14.690274
_cell_length_b 7.768340
_cell_length_c 30.218608
_cell_angle_alpha 90.000000
_cell_angle_beta 74.956313
_cell_angle_gamma 90.000000
_cell_volume 3330.331691
_symmetry_space_group_name_H-M "C 2/M"
_symmetry_group_IT_number 12
_symmetry_cell_setting 'monoclinic'
loop_
_space_group_symop_operation_xyz
x,y,z
-x,y,-z
-x,-y,-z
x,-y,z
1/2+x,1/2+y,z
1/2-x,1/2+y,-z
1/2-x,1/2-y,-z
1/2+x,1/2-y,z
loop_
_atom_site_type_symbol
_atom_site_label
_atom_site_fract_x
_atom_site_fract_y
_atom_site_fract_z
Si Si1 0.975622 0.207433 0.551954
Si Si2 0.648258 0.208307 0.197183
Si Si3 0.584405 0.792828 0.624772
Si Si4 0.209820 0.207076 0.374120
Si Si5 0.835871 0.795680 0.125286
Si Si6 0.270826 0.705233 0.946971
Si Si7 0.398915 0.792594 0.698697
Si Si8 0.541009 0.706411 0.124021
O O1 0.054189 0.251026 0.578552
O O2 0.000000 0.272163 0.500000
O O3 0.875624 0.271737 0.583983
O O4 0.969589 0.000000 0.550464
O O5 0.748605 0.273204 0.165524
O O6 0.625022 0.270910 0.249280
O O7 0.570234 0.257015 0.170754
O O8 0.652268 0.000000 0.197865
O O9 0.687288 0.727186 0.625351
O O10 0.498983 0.728462 0.666712
O O11 0.586022 0.000000 0.628674
O O12 0.179610 0.248191 0.327857
O O13 0.211525 0.000000 0.378157
O O14 0.806764 0.770701 0.077994
O O15 0.938447 0.724139 0.124145
O O16 0.839174 0.000000 0.133380
O O17 0.272147 0.500000 0.942687
O O18 0.372422 0.772609 0.917061
O O19 0.250000 0.750000 0.000000
O O20 0.404538 0.000000 0.700101
O O21 0.538469 0.500000 0.118389
#
# Coordination Sequence:
#
# PCOD9192766 Si02
#       8
#     8   8   8   8   8   8   8   8
#     4   9  18  32  48  67  92 120 153 194 235 275
#     4   9  18  32  50  71  96 124 155 192 232 273
#     4   9  18  32  48  67  94 124 154 189 230 278
#     4   9  18  32  48  67  92 123 156 190 231 278
#     4   9  18  34  52  70  95 126 157 191 231 275
#     4  10  20  34  51  72  97 125 157 193 232 275
#     4   9  18  32  48  69  96 124 154 190 231 274
#     4   9  19  34  51  71  96 125 157 192 231 275
#
# _framework density 19.217305
#
# number of rings (size 3 to 8) (size 9 to 14) (size 15 to 20)
#    0.000    2.875    0.000    0.375    0.000    4.250 
#    0.000    2.500    0.000    0.000    0.000    0.000 
#    0.000    0.000    0.000    0.000    0.000    0.000 
#
# Total GULP energy -178454.545198 kJ/mol
# GULP energy per Si atom -5576.704537 kJ/mol
# Density = 1.917357 g / cm^3
# Si number density = 19.217305 Si / 1000 Ang^3
#
#
#
# Elastic Constant Matrix: (Units=GPa)
#
#
# Indices 1 2 3 4 5 6 
#
# 1 200.0702 2.3886 102.7014 0.0000 21.3223 0.0000
# 2 2.3886 21.0927 -10.9007 0.0000 -4.6387 0.0000
# 3 102.7014 -10.9007 176.3607 0.0000 11.9091 0.0000
# 4 0.0000 0.0000 0.0000 16.6226 0.0000 12.0674
# 5 21.3223 -4.6387 11.9091 0.0000 8.6353 0.0000
# 6 0.0000 0.0000 0.0000 12.0674 0.0000 9.3131
#
#
#
# Elastic Compliance Matrix: (Units=1/GPa)
#
#
# Indices 1 2 3 4 5 6 
#
# 1 0.009986 -0.008598 -0.004819 0.000000 -0.022632 0.000000
# 2 -0.008598 0.061533 0.005673 0.000002 0.046462 -0.000002
# 3 -0.004819 0.005673 0.008621 0.000000 0.003057 0.000000
# 4 0.000000 0.000002 0.000000 1.013709 0.000002 -1.313503
# 5 -0.022632 0.046462 0.003057 0.000002 0.192431 -0.000002
# 6 0.000000 -0.000002 0.000000 -1.313503 -0.000002 1.809333
#
#
# Mechanical properties :
#
#
# Convention : Reuss Voigt Hill
#
# Bulk Modulus (GPa) = 15.46736 65.10022 40.28379
# Shear Modulus (GPa) = 1.59609 27.13649 14.36629
#
# Velocity S-wave (km/s) = 0.91233 3.76185 2.73714
# Velocity P-wave (km/s) = 3.02918 7.26760 5.56750
#
# Compressibility (1/GPa) = 0.06465228
#
# Stress axis : x y z
#
# Youngs Moduli (GPa) = 100.13560 16.25133 116.00250
#
# Poissons Ratio (x) = 0.13974 0.55898
# Poissons Ratio (y) = 0.86101 -0.65809
# Poissons Ratio (z) = 0.48252 -0.09220
#
# Static dielectric constant tensor:
#      x y z
#    x 1.670760 0.000000 -0.031280 
#    y 0.000000 1.708940 0.000000 
#    z -0.031280 0.000000 1.628430 
# 
# From -- ./inp_files/359686.got.cif
#   From: 2010.05.17/outbox.cif.g08.bks.cpg/sg12_180_cif.got.tgz:359686.got - 2010.06.03 13:09:07.
