data_PCOD9192393
_publ_section_title
;
Structure prediction by ZEFSAII (Michael W. Deem and Ramdas Pophale) SiO2 
 PCOD9192393
Probable space group: C 2/M
;
_chemical_formula_sum "Si O2"
_cell_formula_units_Z 48
_cell_length_a 18.883596
_cell_length_b 14.141814
_cell_length_c 17.482581
_cell_angle_alpha 90.000000
_cell_angle_beta 147.027235
_cell_angle_gamma 90.000000
_cell_volume 2540.891283
_symmetry_space_group_name_H-M "C 2/M"
_symmetry_group_IT_number 12
_symmetry_cell_setting 'monoclinic'
loop_
_space_group_symop_operation_xyz
x,y,z
-x,y,-z
-x,-y,-z
x,-y,z
1/2+x,1/2+y,z
1/2-x,1/2+y,-z
1/2-x,1/2-y,-z
1/2+x,1/2-y,z
loop_
_atom_site_type_symbol
_atom_site_label
_atom_site_fract_x
_atom_site_fract_y
_atom_site_fract_z
Si Si1 0.615375 0.253978 0.156621
Si Si2 0.704677 0.278130 0.821872
Si Si3 0.450077 0.108836 0.095157
Si Si4 0.715840 0.225772 0.556484
Si Si5 0.972817 0.391576 0.293437
Si Si6 0.460634 0.607200 0.553280
O O1 0.734594 0.238049 0.207166
O O2 0.552524 0.156336 0.130631
O O3 0.666901 0.303329 0.280736
O O4 0.500000 0.299041 0.000000
O O5 0.646418 0.179290 0.798169
O O6 0.584460 0.350370 0.709832
O O7 0.821643 0.326040 0.974309
O O8 0.500024 0.111474 0.227201
O O9 0.421627 0.000000 0.049032
O O10 0.750000 0.250000 0.500000
O O11 0.599488 0.149748 0.450491
O O12 0.657298 0.322478 0.537898
O O13 0.945497 0.500000 0.289746
O O14 0.500000 0.608430 0.500000
O O15 0.431105 0.500000 0.549060
#
# Coordination Sequence:
#
# PCOD9192393 Si02
#       6
#     8   8   8   8   8   8
#     4  10  21  36  57  85 115 153 188 233 292 348
#     4  10  20  36  57  83 123 151 189 234 292 342
#     4  10  20  35  59  92 121 152 188 232 294 359
#     4  11  21  38  58  83 117 151 191 242 291 342
#     4  10  22  38  61  87 113 154 202 242 286 338
#     4  10  20  33  55  85 114 148 185 233 296 352
#
# _framework density 18.891007999999999
#
# number of rings (size 3 to 8) (size 9 to 14) (size 15 to 20)
#    0.000    1.833    3.333    1.000    0.000    5.000 
#    0.000    1.667    0.000    9.000    0.000    0.000 
#    0.000    0.000    0.000    0.000    0.000    0.000 
#
# Total GULP energy -133838.620974 kJ/mol
# GULP energy per Si atom -5576.609207 kJ/mol
# Density = 1.884801 g / cm^3
# Si number density = 18.891008 Si / 1000 Ang^3
#
#
#
# Elastic Constant Matrix: (Units=GPa)
#
#
# Indices 1 2 3 4 5 6 
#
# 1 76.2830 27.9167 13.5369 0.0000 -3.7353 0.0000
# 2 27.9167 103.9580 9.5789 0.0000 -6.3624 0.0000
# 3 13.5369 9.5789 87.2468 0.0000 -20.5316 0.0000
# 4 0.0000 0.0000 0.0000 11.1888 0.0000 -4.8951
# 5 -3.7353 -6.3624 -20.5316 0.0000 23.0199 0.0000
# 6 0.0000 0.0000 0.0000 -4.8951 0.0000 20.7606
#
#
#
# Elastic Compliance Matrix: (Units=1/GPa)
#
#
# Indices 1 2 3 4 5 6 
#
# 1 0.014841 -0.003828 -0.001980 0.000000 -0.000416 0.000000
# 2 -0.003828 0.010794 -0.000045 0.000000 0.002322 0.000000
# 3 -0.001980 -0.000045 0.014802 0.000000 0.012869 0.000000
# 4 0.000000 0.000000 0.000000 0.099656 0.000000 0.023498
# 5 -0.000416 0.002322 0.012869 0.000000 0.055493 0.000000
# 6 0.000000 0.000000 0.000000 0.023498 0.000000 0.053709
#
#
# Mechanical properties :
#
#
# Convention : Reuss Voigt Hill
#
# Bulk Modulus (GPa) = 34.80631 41.06142 37.93386
# Shear Modulus (GPa) = 18.47900 25.42420 21.95160
#
# Velocity S-wave (km/s) = 3.13100 3.67254 3.41253
# Velocity P-wave (km/s) = 5.61566 6.30608 5.97086
#
# Compressibility (1/GPa) = 0.02873043
#
# Stress axis : x y z
#
# Youngs Moduli (GPa) = 67.38008 92.64765 67.55735
#
# Poissons Ratio (x) = 0.35470 0.13379
# Poissons Ratio (y) = 0.25796 0.00301
# Poissons Ratio (z) = 0.13343 0.00412
#
# Static dielectric constant tensor:
#      x y z
#    x 1.651260 0.000000 -0.012860 
#    y 0.000000 1.628100 0.000000 
#    z -0.012860 0.000000 1.721250 
# 
# From -- ./inp_files/284096.got.cif
#   From: 2010.05.17/outbox.cif.g08.bks.cpg/sg12_143_cif.got.tgz:284096.got - 2010.06.03 13:09:07.
