data_PCOD9192752
_publ_section_title
;
Structure prediction by ZEFSAII (Michael W. Deem and Ramdas Pophale) SiO2 
 PCOD9192752
Probable space group: C 2/M
;
_chemical_formula_sum "Si O2"
_cell_formula_units_Z 56
_cell_length_a 15.068275
_cell_length_b 7.701615
_cell_length_c 31.102688
_cell_angle_alpha 90.000000
_cell_angle_beta 128.424821
_cell_angle_gamma 90.000000
_cell_volume 2827.745389
_symmetry_space_group_name_H-M "C 2/M"
_symmetry_group_IT_number 12
_symmetry_cell_setting 'monoclinic'
loop_
_space_group_symop_operation_xyz
x,y,z
-x,y,-z
-x,-y,-z
x,-y,z
1/2+x,1/2+y,z
1/2-x,1/2+y,-z
1/2-x,1/2-y,-z
1/2+x,1/2-y,z
loop_
_atom_site_type_symbol
_atom_site_label
_atom_site_fract_x
_atom_site_fract_y
_atom_site_fract_z
Si Si1 0.447421 0.289697 0.438550
Si Si2 0.833390 0.707134 0.063864
Si Si3 0.541247 0.289362 0.231747
Si Si4 0.410381 0.705026 0.849497
Si Si5 0.355545 0.709075 0.562518
Si Si6 0.312666 0.705359 0.644434
Si Si7 0.217745 0.292594 0.856222
O O1 0.500000 0.232330 0.500000
O O2 0.445469 0.500000 0.438788
O O3 0.531764 0.229416 0.426954
O O4 0.321424 0.227549 0.392353
O O5 0.843046 0.500000 0.070319
O O6 0.785455 0.774361 0.095390
O O7 0.960926 0.774855 0.095045
O O8 0.750000 0.750000 0.000000
O O9 0.545620 0.500000 0.231683
O O10 0.584149 0.224721 0.197871
O O11 0.618389 0.224754 0.294165
O O12 0.409957 0.239911 0.198584
O O13 0.386464 0.500000 0.838368
O O14 0.315204 0.776647 0.853511
O O15 0.360227 0.500000 0.566405
O O16 0.250000 0.750000 0.500000
O O17 0.343414 0.779513 0.606889
O O18 0.337924 0.500000 0.650864
O O19 0.235490 0.500000 0.864347
#
# Coordination Sequence:
#
# PCOD9192752 Si02
#       7
#     8   8   8   8   8   8   8
#     4  10  20  34  51  72  98 129 166 204 247 302
#     4  10  20  34  52  78 110 140 175 213 252 298
#     4   9  19  35  53  75 103 132 167 212 258 305
#     4   9  18  35  56  75 102 139 174 211 255 300
#     4  10  20  34  51  71  98 129 162 201 248 301
#     4  10  21  35  52  76 103 131 165 208 258 308
#     4   9  19  35  55  77 102 137 176 212 251 299
#
# _framework density 19.803761999999999
#
# number of rings (size 3 to 8) (size 9 to 14) (size 15 to 20)
#    0.000    2.429    1.429    0.429    0.000    4.286 
#    0.000    2.857    0.000    0.000    0.000    0.000 
#    0.000    0.000    0.000    0.000    0.000    0.000 
#
# Total GULP energy -156202.918779 kJ/mol
# GULP energy per Si atom -5578.675671 kJ/mol
# Density = 1.975869 g / cm^3
# Si number density = 19.803762 Si / 1000 Ang^3
#
#
#
# Elastic Constant Matrix: (Units=GPa)
#
#
# Indices 1 2 3 4 5 6 
#
# 1 209.8991 0.4864 103.4693 0.0000 -7.4464 0.0000
# 2 0.4864 28.2124 -12.0496 0.0000 -6.6045 0.0000
# 3 103.4693 -12.0496 182.9120 0.0000 -6.2418 0.0000
# 4 0.0000 0.0000 0.0000 20.8130 0.0000 8.8188
# 5 -7.4464 -6.6045 -6.2418 0.0000 12.3032 0.0000
# 6 0.0000 0.0000 0.0000 8.8188 0.0000 15.6069
#
#
#
# Elastic Compliance Matrix: (Units=1/GPa)
#
#
# Indices 1 2 3 4 5 6 
#
# 1 0.006711 -0.001446 -0.003846 0.000000 0.001334 0.000000
# 2 -0.001446 0.043143 0.004498 0.000000 0.024566 0.000000
# 3 -0.003846 0.004498 0.008082 0.000000 0.004187 0.000000
# 4 0.000000 0.000000 0.000000 0.063171 0.000000 -0.035695
# 5 0.001334 0.024566 0.004187 0.000000 0.097399 0.000000
# 6 0.000000 0.000000 0.000000 -0.035695 0.000000 0.084244
#
#
# Mechanical properties :
#
#
# Convention : Reuss Voigt Hill
#
# Bulk Modulus (GPa) = 17.74677 67.20396 42.47536
# Shear Modulus (GPa) = 15.47418 31.68579 23.57999
#
# Velocity S-wave (km/s) = 2.79834 4.00433 3.45437
# Velocity P-wave (km/s) = 4.40701 7.44232 6.11596
#
# Compressibility (1/GPa) = 0.05634828
#
# Stress axis : x y z
#
# Youngs Moduli (GPa) = 149.01679 23.17898 123.73470
#
# Poissons Ratio (x) = 0.03351 0.47586
# Poissons Ratio (y) = 0.21546 -0.55660
# Poissons Ratio (z) = 0.57309 -0.10427
#
# Static dielectric constant tensor:
#      x y z
#    x 1.696740 0.000000 -0.040320 
#    y 0.000000 1.768460 0.000000 
#    z -0.040320 0.000000 1.675740 
# 
# From -- ./inp_files/337865.got.cif
#   From: 2010.05.17/outbox.cif.g08.bks.cpg/sg12_169_cif.got.tgz:337865.got - 2010.06.03 13:09:07.
