data_PCOD9192109
_publ_section_title
;
Structure prediction by ZEFSAII (Michael W. Deem and Ramdas Pophale) SiO2 
 PCOD9192109
Probable space group: C 2/M
;
_chemical_formula_sum "Si O2"
_cell_formula_units_Z 58
_cell_length_a 21.704635
_cell_length_b 9.871973
_cell_length_c 14.821265
_cell_angle_alpha 90.000000
_cell_angle_beta 80.067152
_cell_angle_gamma 90.000000
_cell_volume 3128.114350
_symmetry_space_group_name_H-M "C 2/M"
_symmetry_group_IT_number 12
_symmetry_cell_setting 'monoclinic'
loop_
_space_group_symop_operation_xyz
x,y,z
-x,y,-z
-x,-y,-z
x,-y,z
1/2+x,1/2+y,z
1/2-x,1/2+y,-z
1/2-x,1/2-y,-z
1/2+x,1/2-y,z
loop_
_atom_site_type_symbol
_atom_site_label
_atom_site_fract_x
_atom_site_fract_y
_atom_site_fract_z
Si Si1 0.000000 0.000000 0.500000
Si Si2 0.365935 0.161162 0.187056
Si Si3 0.837492 0.656676 0.570403
Si Si4 0.777435 0.842805 0.730451
Si Si5 0.035748 0.740867 0.369840
Si Si6 0.424956 0.340809 0.015580
Si Si7 0.398769 0.661103 0.818691
Si Si8 0.897022 0.657922 0.377652
O O1 0.971663 0.118722 0.574470
O O2 0.291063 0.175568 0.211578
O O3 0.395031 0.248076 0.099822
O O4 0.389975 0.212670 0.278706
O O5 0.380542 0.000000 0.173475
O O6 0.817436 0.500000 0.571287
O O7 0.791855 0.747201 0.642007
O O8 0.905583 0.663402 0.601783
O O9 0.851456 0.714317 0.466709
O O10 0.830728 0.816947 0.791742
O O11 0.783503 0.000000 0.700322
O O12 0.053029 0.767874 0.261192
O O13 0.968447 0.671130 0.391099
O O14 0.408203 0.500000 0.032470
O O15 0.500000 0.331380 0.000000
O O16 0.403508 0.296381 0.921050
O O17 0.411616 0.500000 0.813615
O O18 0.880500 0.500000 0.375474
#
# Coordination Sequence:
#
# PCOD9192109 Si02
#       8
#     2   8   8   8   8   8   8   8
#     4  12  20  28  54  88 118 148 178 232 254 334
#     4  10  22  40  57  78 107 143 186 228 272 322
#     4  10  20  33  53  78 111 144 180 219 270 328
#     4   9  20  37  57  78 106 143 183 228 270 321
#     4  11  19  32  52  84 115 140 184 219 270 318
#     4  10  21  38  57  82 108 139 174 222 281 332
#     4   9  18  33  54  76 108 142 175 222 276 322
#     4  10  20  34  52  74 109 149 179 222 277 327
#
# _framework density 18.541522000000001
#
# number of rings (size 3 to 8) (size 9 to 14) (size 15 to 20)
#    0.000    2.069    2.069    1.241    0.966    3.034 
#    1.241    3.448    0.000    0.000    0.000    0.000 
#    0.000    0.000    0.000    0.000    0.000    0.000 
#
# Total GULP energy -161511.263406 kJ/mol
# GULP energy per Si atom -5569.353911 kJ/mol
# Density = 1.849932 g / cm^3
# Si number density = 18.541522 Si / 1000 Ang^3
#
#
#
# Elastic Constant Matrix: (Units=GPa)
#
#
# Indices 1 2 3 4 5 6 
#
# 1 38.9968 20.1495 25.2379 0.0000 -14.0363 0.0000
# 2 20.1495 61.9212 62.4602 0.0000 -13.6289 0.0000
# 3 25.2379 62.4602 160.0074 0.0000 -19.2046 0.0000
# 4 0.0000 0.0000 0.0000 30.3954 0.0000 -6.5602
# 5 -14.0363 -13.6289 -19.2046 0.0000 19.1909 0.0000
# 6 0.0000 0.0000 0.0000 -6.5602 0.0000 13.2437
#
#
#
# Elastic Compliance Matrix: (Units=1/GPa)
#
#
# Indices 1 2 3 4 5 6 
#
# 1 0.037430 -0.006678 -0.000660 0.000000 0.021973 0.000000
# 2 -0.006678 0.029510 -0.009702 0.000000 0.006364 0.000000
# 3 -0.000660 -0.009702 0.010520 0.000000 0.003154 0.000000
# 4 0.000000 0.000000 0.000000 0.036838 0.000000 0.018248
# 5 0.021973 0.006364 0.003154 0.000000 0.075856 0.000000
# 6 0.000000 0.000000 0.000000 0.018248 0.000000 0.084546
#
#
# Mechanical properties :
#
#
# Convention : Reuss Voigt Hill
#
# Bulk Modulus (GPa) = 23.05249 52.95787 38.00518
# Shear Modulus (GPa) = 15.46842 22.77119 19.11980
#
# Velocity S-wave (km/s) = 2.89149 3.50825 3.21470
# Velocity P-wave (km/s) = 4.85875 6.71076 5.85840
#
# Compressibility (1/GPa) = 0.04337926
#
# Stress axis : x y z
#
# Youngs Moduli (GPa) = 26.71688 33.88664 95.05906
#
# Poissons Ratio (x) = 0.22630 0.06270
# Poissons Ratio (y) = 0.17842 0.92230
# Poissons Ratio (z) = 0.01762 0.32878
#
# Static dielectric constant tensor:
#      x y z
#    x 1.646130 0.000000 0.025580 
#    y 0.000000 1.626870 0.000000 
#    z 0.025580 0.000000 1.651990 
# 
# From -- ./inp_files/237566.got.cif
#   From: 2010.05.17/outbox.cif.g08.bks.cpg/sg12_119_cif.got.tgz:237566.got - 2010.06.03 13:09:07.
