data_PCOD9192999
_publ_section_title
;
Structure prediction by ZEFSAII (Michael W. Deem and Ramdas Pophale) SiO2 
 PCOD9192999
Probable space group: C 2/M
;
_chemical_formula_sum "Si O2"
_cell_formula_units_Z 56
_cell_length_a 8.225414
_cell_length_b 11.992958
_cell_length_c 29.631241
_cell_angle_alpha 90.000000
_cell_angle_beta 76.517366
_cell_angle_gamma 90.000000
_cell_volume 2842.477373
_symmetry_space_group_name_H-M "C 2/M"
_symmetry_group_IT_number 12
_symmetry_cell_setting 'monoclinic'
loop_
_space_group_symop_operation_xyz
x,y,z
-x,y,-z
-x,-y,-z
x,-y,z
1/2+x,1/2+y,z
1/2-x,1/2+y,-z
1/2-x,1/2-y,-z
1/2+x,1/2-y,z
loop_
_atom_site_type_symbol
_atom_site_label
_atom_site_fract_x
_atom_site_fract_y
_atom_site_fract_z
Si Si1 0.041227 0.375029 0.762838
Si Si2 0.327833 0.627141 0.983568
Si Si3 0.397160 0.679973 0.466614
Si Si4 0.066516 0.624115 0.655209
Si Si5 0.308785 0.186190 0.600671
Si Si6 0.692794 0.701788 0.819949
Si Si7 0.657517 0.621895 0.125047
O O1 0.107908 0.500000 0.765025
O O2 0.152036 0.284246 0.781125
O O3 0.032140 0.353754 0.709988
O O4 0.857052 0.366251 0.796412
O O5 0.249480 0.500000 0.997628
O O6 0.353162 0.630483 0.928068
O O7 0.500000 0.624830 0.000000
O O8 0.250000 0.750000 0.000000
O O9 0.500000 0.620010 0.500000
O O10 0.250000 0.750000 0.500000
O O11 0.533963 0.763028 0.436520
O O12 0.306658 0.625101 0.429167
O O13 0.139871 0.500000 0.646109
O O14 0.896015 0.626816 0.637153
O O15 0.194934 0.714467 0.627718
O O16 0.527425 0.633270 0.842027
O O17 0.734719 0.780054 0.860011
O O18 0.728447 0.500000 0.131861
#
# Coordination Sequence:
#
# PCOD9192999 Si02
#       7
#     8   8   8   8   8   8   8
#     4  10  20  34  52  75 103 134 169 210 255 304
#     4  10  21  37  56  80 110 144 183 227 276 329
#     4   8  14  27  51  74  96 133 166 201 257 300
#     4  10  20  34  52  75 103 134 169 209 252 301
#     4   9  17  31  52  73 100 133 166 205 251 300
#     4  10  20  34  54  77 103 135 174 212 260 313
#     4  10  20  35  54  77 106 138 175 220 266 314
#
# _framework density 19.701124
#
# number of rings (size 3 to 8) (size 9 to 14) (size 15 to 20)
#    0.000    2.429    0.000    2.571    0.000    0.286 
#    0.000    6.429    0.000   66.000    0.000    0.000 
#    0.000    0.000    0.000    0.000    0.000    0.000 
#
# Total GULP energy -155876.939270 kJ/mol
# GULP energy per Si atom -5567.033545 kJ/mol
# Density = 1.965628 g / cm^3
# Si number density = 19.701124 Si / 1000 Ang^3
#
#
#
# Elastic Constant Matrix: (Units=GPa)
#
#
# Indices 1 2 3 4 5 6 
#
# 1 58.8762 20.7520 14.5855 0.0000 19.5417 0.0000
# 2 20.7520 115.5615 39.5485 0.0000 2.5201 0.0000
# 3 14.5855 39.5485 89.1094 0.0000 28.5938 0.0000
# 4 0.0000 0.0000 0.0000 14.8225 0.0000 16.1697
# 5 19.5417 2.5201 28.5938 0.0000 38.7395 0.0000
# 6 0.0000 0.0000 0.0000 16.1697 0.0000 8.3981
#
#
#
# Elastic Compliance Matrix: (Units=1/GPa)
#
#
# Indices 1 2 3 4 5 6 
#
# 1 0.022203 -0.004555 0.002472 0.000000 -0.012728 0.000000
# 2 -0.004555 0.011516 -0.006371 0.000000 0.006251 0.000000
# 3 0.002472 -0.006371 0.018230 0.000000 -0.014288 0.000000
# 4 0.000000 0.000000 0.000000 -0.061309 0.000000 0.118044
# 5 -0.012728 0.006251 -0.014288 0.000000 0.042373 0.000000
# 6 0.000000 0.000000 0.000000 0.118044 0.000000 -0.108209
#
#
# Mechanical properties :
#
#
# Convention : Reuss Voigt Hill
#
# Bulk Modulus (GPa) = 28.53976 45.92434 37.23205
# Shear Modulus (GPa) = -107.27977 24.96943 -41.15517
#
# Velocity S-wave (km/s) = -7.38728 3.56393 -4.57549
# Velocity P-wave (km/s) = 7.63182 6.34796 2.99567
#
# Compressibility (1/GPa) = 0.03503884
#
# Stress axis : x y z
#
# Youngs Moduli (GPa) = 45.03958 86.83940 54.85448
#
# Poissons Ratio (x) = 0.39559 -0.13559
# Poissons Ratio (y) = 0.20517 0.34949
# Poissons Ratio (z) = -0.11133 0.55327
#
# Static dielectric constant tensor:
#      x y z
#    x 1.682460 0.000000 0.031180 
#    y 0.000000 1.771570 0.000000 
#    z 0.031180 0.000000 1.676060 
# 
# From -- ./inp_files/355755.got.cif
#   From: 2010.05.17/outbox.cif.g08.bks.cpg/sg12_178_cif.got.tgz:355755.got - 2010.06.03 13:09:07.
