data_PCOD9192967
_publ_section_title
;
Structure prediction by ZEFSAII (Michael W. Deem and Ramdas Pophale) SiO2 
 PCOD9192967
Probable space group: C 2/M
;
_chemical_formula_sum "Si O2"
_cell_formula_units_Z 56
_cell_length_a 12.909974
_cell_length_b 24.177287
_cell_length_c 14.294647
_cell_angle_alpha 90.000000
_cell_angle_beta 145.761146
_cell_angle_gamma 90.000000
_cell_volume 2510.383957
_symmetry_space_group_name_H-M "C 2/M"
_symmetry_group_IT_number 12
_symmetry_cell_setting 'monoclinic'
loop_
_space_group_symop_operation_xyz
x,y,z
-x,y,-z
-x,-y,-z
x,-y,z
1/2+x,1/2+y,z
1/2-x,1/2+y,-z
1/2-x,1/2-y,-z
1/2+x,1/2-y,z
loop_
_atom_site_type_symbol
_atom_site_label
_atom_site_fract_x
_atom_site_fract_y
_atom_site_fract_z
Si Si1 0.983528 0.168413 0.330707
Si Si2 0.710419 0.933041 0.674170
Si Si3 0.009351 0.226382 0.859078
Si Si4 0.418263 0.830151 0.673886
Si Si5 0.472545 0.563616 0.230567
Si Si6 0.694790 0.226841 0.753442
Si Si7 0.153295 0.563976 0.838553
O O1 0.942757 0.190922 0.195572
O O2 0.200095 0.174981 0.508417
O O3 0.939683 0.103928 0.292907
O O4 0.865347 0.209478 0.305699
O O5 0.500000 0.915970 0.500000
O O6 0.851580 0.915715 0.699118
O O7 0.750702 0.919450 0.812686
O O8 0.717859 0.000000 0.675033
O O9 0.988865 0.289432 0.808474
O O10 0.813686 0.207464 0.754972
O O11 0.162706 0.222410 0.053246
O O12 0.514169 0.805382 0.651794
O O13 0.492406 0.892383 0.737625
O O14 0.502052 0.500000 0.279616
O O15 0.302043 0.565817 0.031678
O O16 0.089253 0.500000 0.780325
#
# Coordination Sequence:
#
# PCOD9192967 Si02
#       7
#     8   8   8   8   8   8   8
#     4  11  22  35  55  82 112 142 177 223 270 321
#     4   9  17  29  45  69 101 135 173 215 260 309
#     4  10  21  38  59  80 106 141 181 224 268 319
#     4  11  22  35  55  82 112 142 177 223 270 321
#     4  10  20  34  52  74 105 144 182 219 262 318
#     4  10  21  38  59  80 106 141 181 224 268 319
#     4  10  20  34  52  74 105 144 182 219 262 318
#
# _framework density 22.307344000000001
#
# number of rings (size 3 to 8) (size 9 to 14) (size 15 to 20)
#    0.000    1.857    0.000    6.429    2.000    5.714 
#    0.000    0.000    0.000    0.857    0.000    6.000 
#    0.000    0.000    0.000    0.000    0.000    0.000 
#
# Total GULP energy -156591.866629 kJ/mol
# GULP energy per Si atom -5592.566665 kJ/mol
# Density = 2.225657 g / cm^3
# Si number density = 22.307344 Si / 1000 Ang^3
#
#
#
# Elastic Constant Matrix: (Units=GPa)
#
#
# Indices 1 2 3 4 5 6 
#
# 1 38.9991 0.4092 -0.5010 0.0000 10.6617 0.0000
# 2 0.4092 106.7623 10.3344 0.0000 2.0784 0.0000
# 3 -0.5010 10.3344 61.0303 0.0000 10.3392 0.0000
# 4 0.0000 0.0000 0.0000 25.1487 0.0000 8.8331
# 5 10.6617 2.0784 10.3392 0.0000 24.5664 0.0000
# 6 0.0000 0.0000 0.0000 8.8331 0.0000 26.1409
#
#
#
# Elastic Compliance Matrix: (Units=1/GPa)
#
#
# Indices 1 2 3 4 5 6 
#
# 1 0.029471 -0.000095 0.002610 0.000000 -0.013880 0.000000
# 2 -0.000095 0.009523 -0.001598 0.000000 -0.000092 0.000000
# 3 0.002610 -0.001598 0.018140 0.000000 -0.008632 0.000000
# 4 0.000000 0.000000 0.000000 0.045118 0.000000 -0.015246
# 5 -0.013880 -0.000092 -0.008632 0.000000 0.050371 0.000000
# 6 0.000000 0.000000 0.000000 -0.015246 0.000000 0.043406
#
#
# Mechanical properties :
#
#
# Convention : Reuss Voigt Hill
#
# Bulk Modulus (GPa) = 16.95875 25.25299 21.10587
# Shear Modulus (GPa) = 23.38072 28.27446 25.82759
#
# Velocity S-wave (km/s) = 3.24098 3.56405 3.40635
# Velocity P-wave (km/s) = 4.65017 5.31805 4.99529
#
# Compressibility (1/GPa) = 0.05896662
#
# Stress axis : x y z
#
# Youngs Moduli (GPa) = 33.93188 105.00421 55.12802
#
# Poissons Ratio (x) = 0.01001 -0.14386
# Poissons Ratio (y) = 0.00324 0.08809
# Poissons Ratio (z) = -0.08855 0.16778
#
# Static dielectric constant tensor:
#      x y z
#    x 1.829150 0.000000 -0.008330 
#    y 0.000000 1.889420 0.000000 
#    z -0.008330 0.000000 1.822640 
# 
# From -- ./inp_files/219146.got.cif
#   From: 2010.05.17/outbox.cif.g08.bks.cpg/sg12_110_cif.got.tgz:219146.got - 2010.06.03 13:09:07.
