data_PCOD9192721
_publ_section_title
;
Structure prediction by ZEFSAII (Michael W. Deem and Ramdas Pophale) SiO2 
 PCOD9192721
Probable space group: C 2/M
;
_chemical_formula_sum "Si O2"
_cell_formula_units_Z 50
_cell_length_a 11.723727
_cell_length_b 30.202832
_cell_length_c 12.193878
_cell_angle_alpha 90.000000
_cell_angle_beta 143.138053
_cell_angle_gamma 90.000000
_cell_volume 2590.157034
_symmetry_space_group_name_H-M "C 2/M"
_symmetry_group_IT_number 12
_symmetry_cell_setting 'monoclinic'
loop_
_space_group_symop_operation_xyz
x,y,z
-x,y,-z
-x,-y,-z
x,-y,z
1/2+x,1/2+y,z
1/2-x,1/2+y,-z
1/2-x,1/2-y,-z
1/2+x,1/2-y,z
loop_
_atom_site_type_symbol
_atom_site_label
_atom_site_fract_x
_atom_site_fract_y
_atom_site_fract_z
Si Si1 0.500000 0.000000 0.500000
Si Si2 0.554268 0.891804 0.913069
Si Si3 0.417805 0.795665 0.814295
Si Si4 0.978745 0.116565 0.252962
Si Si5 0.000000 0.165172 0.500000
Si Si6 0.911423 0.801192 0.810853
Si Si7 0.385501 0.080609 0.568016
Si Si8 0.000000 0.341186 0.500000
O O1 0.467113 0.038876 0.567943
O O2 0.521372 0.840121 0.854147
O O3 0.429552 0.918991 0.731152
O O4 0.500000 0.895595 0.000000
O O5 0.774623 0.903851 0.071097
O O6 0.447821 0.747274 0.786368
O O7 0.193574 0.806701 0.641180
O O8 0.500000 0.791008 0.000000
O O9 0.982148 0.134564 0.379525
O O10 0.004761 0.159823 0.197945
O O11 0.159806 0.085419 0.374408
O O12 0.687342 0.811320 0.648972
O O13 0.000000 0.803324 0.000000
O O14 0.477326 0.125064 0.584960
#
# Coordination Sequence:
#
# PCOD9192721 Si02
#       8
#     2   8   8   8   4   8   8   4
#     4  10  24  48  74  94 118 144 176 238 310 364
#     4  11  20  37  59  87 118 158 199 234 289 345
#     4  10  20  34  50  79 120 161 206 247 282 325
#     4  11  21  35  61  85 115 162 201 240 294 345
#     4  12  19  36  53  83 115 153 210 240 284 345
#     4  10  21  35  49  78 118 160 210 256 287 325
#     4  10  21  41  65  88 117 148 189 241 299 364
#     4   9  19  37  54  80 115 159 202 247 296 340
#
# _framework density 19.303847000000001
#
# number of rings (size 3 to 8) (size 9 to 14) (size 15 to 20)
#    0.000    1.600    4.800    1.440    0.000    1.280 
#    2.880    2.000    0.000    3.360    0.000    0.000 
#    0.000    0.000    0.000    0.000    0.000    0.000 
#
# Total GULP energy -139252.307584 kJ/mol
# GULP energy per Si atom -5570.092303 kJ/mol
# Density = 1.925991 g / cm^3
# Si number density = 19.303847 Si / 1000 Ang^3
#
#
#
# Elastic Constant Matrix: (Units=GPa)
#
#
# Indices 1 2 3 4 5 6 
#
# 1 53.1647 12.1791 26.0665 0.0000 -6.6062 0.0000
# 2 12.1791 71.7098 32.6146 0.0000 -15.0238 0.0000
# 3 26.0665 32.6146 87.1236 0.0000 5.2680 0.0000
# 4 0.0000 0.0000 0.0000 4.3956 0.0000 -14.3325
# 5 -6.6062 -15.0238 5.2680 0.0000 34.1968 0.0000
# 6 0.0000 0.0000 0.0000 -14.3325 0.0000 25.2145
#
#
#
# Elastic Compliance Matrix: (Units=1/GPa)
#
#
# Indices 1 2 3 4 5 6 
#
# 1 0.023077 0.000762 -0.007550 0.000000 0.005956 0.000000
# 2 0.000762 0.019643 -0.008188 0.000000 0.010038 0.000000
# 3 -0.007550 -0.008188 0.017269 0.000000 -0.007716 0.000000
# 4 0.000000 0.000000 0.000000 -0.266572 0.000000 -0.151526
# 5 0.005956 0.010038 -0.007716 0.000000 0.035992 0.000000
# 6 0.000000 0.000000 0.000000 -0.151526 0.000000 -0.046471
#
#
# Mechanical properties :
#
#
# Convention : Reuss Voigt Hill
#
# Bulk Modulus (GPa) = 33.29294 39.30206 36.29750
# Shear Modulus (GPa) = -28.23280 22.17057 -3.03111
#
# Velocity S-wave (km/s) = -3.82848 3.39264 -1.25444
# Velocity P-wave (km/s) = 1.50291 5.97918 4.09218
#
# Compressibility (1/GPa) = 0.03003640
#
# Stress axis : x y z
#
# Youngs Moduli (GPa) = 43.33408 50.90887 57.90862
#
# Poissons Ratio (x) = -0.03880 0.43719
# Poissons Ratio (y) = -0.03303 0.47417
# Poissons Ratio (z) = 0.32716 0.41686
#
# Static dielectric constant tensor:
#      x y z
#    x 2.229330 0.000000 -0.374410 
#    y 0.000000 1.640990 0.000000 
#    z -0.374410 0.000000 1.948750 
# 
# From -- ./inp_files/137665.got.cif
#   From: 2010.05.17/outbox.cif.g08.bks.cpg/sg12_69_cif.got.tgz:137665.got - 2010.06.03 13:09:07.
