data_PCOD9192780
_publ_section_title
;
Structure prediction by ZEFSAII (Michael W. Deem and Ramdas Pophale) SiO2 
 PCOD9192780
Probable space group: C 2/M
;
_chemical_formula_sum "Si O2"
_cell_formula_units_Z 64
_cell_length_a 20.544007
_cell_length_b 8.000638
_cell_length_c 23.240868
_cell_angle_alpha 90.000000
_cell_angle_beta 63.991078
_cell_angle_gamma 90.000000
_cell_volume 3433.122620
_symmetry_space_group_name_H-M "C 2/M"
_symmetry_group_IT_number 12
_symmetry_cell_setting 'monoclinic'
loop_
_space_group_symop_operation_xyz
x,y,z
-x,y,-z
-x,-y,-z
x,-y,z
1/2+x,1/2+y,z
1/2-x,1/2+y,-z
1/2-x,1/2-y,-z
1/2+x,1/2-y,z
loop_
_atom_site_type_symbol
_atom_site_label
_atom_site_fract_x
_atom_site_fract_y
_atom_site_fract_z
Si Si1 0.200624 0.795737 0.197527
Si Si2 0.225008 0.700886 0.946713
Si Si3 0.848875 0.298234 0.199328
Si Si4 0.577034 0.204338 0.946249
Si Si5 0.394806 0.698434 0.308540
Si Si6 0.545502 0.295393 0.302052
Si Si7 0.169983 0.694155 0.548437
Si Si8 0.479003 0.697712 0.446000
O O1 0.221086 0.741769 0.124959
O O2 0.268051 0.745509 0.211632
O O3 0.122956 0.737063 0.249526
O O4 0.199358 0.000000 0.198190
O O5 0.223719 0.500000 0.944550
O O6 0.144333 0.757818 0.960216
O O7 0.250000 0.750000 0.000000
O O8 0.849543 0.500000 0.199724
O O9 0.902666 0.244606 0.126796
O O10 0.870474 0.237852 0.253727
O O11 0.575908 0.000000 0.946856
O O12 0.500000 0.262415 0.000000
O O13 0.392285 0.500000 0.318632
O O14 0.477529 0.753877 0.288626
O O15 0.345576 0.775766 0.377932
O O16 0.547266 0.500000 0.301993
O O17 0.525385 0.235960 0.374066
O O18 0.162694 0.500000 0.538779
O O19 0.250000 0.750000 0.500000
O O20 0.105042 0.782144 0.538636
O O21 0.500000 0.769325 0.500000
O O22 0.494469 0.500000 0.442108
#
# Coordination Sequence:
#
# PCOD9192780 Si02
#       8
#     8   8   8   8   8   8   8   8
#     4   8  15  29  47  67  92 125 164 199 236 290
#     4   9  17  29  46  67  91 121 159 202 245 291
#     4   9  17  30  50  73  95 126 169 210 246 292
#     4   8  15  29  47  67  95 131 168 204 245 296
#     4  10  20  34  51  73 101 130 161 201 253 305
#     4   8  15  29  48  68  93 126 160 193 231 283
#     4  11  22  37  56  77 104 136 172 212 253 300
#     4   9  18  33  53  78 106 135 168 205 250 304
#
# _framework density 18.641922000000001
#
# number of rings (size 3 to 8) (size 9 to 14) (size 15 to 20)
#    0.000    3.000    0.000    3.750    0.000    2.250 
#    0.000    5.000    0.000    7.500    0.000    0.000 
#    0.000    0.000    0.000    0.000    0.000    0.000 
#
# Total GULP energy -178379.818161 kJ/mol
# GULP energy per Si atom -5574.369318 kJ/mol
# Density = 1.859949 g / cm^3
# Si number density = 18.641922 Si / 1000 Ang^3
#
#
#
# Elastic Constant Matrix: (Units=GPa)
#
#
# Indices 1 2 3 4 5 6 
#
# 1 125.6880 -4.7375 126.7690 0.0003 -4.8624 0.0007
# 2 -4.7375 8.4972 -1.7237 0.0007 -1.6088 0.0013
# 3 126.7690 -1.7237 157.7264 0.0001 -5.6200 0.0003
# 4 0.0003 0.0007 0.0001 15.8040 0.0001 8.7891
# 5 -4.8624 -1.6088 -5.6200 0.0001 45.6134 0.0003
# 6 0.0007 0.0013 0.0003 8.7891 0.0003 19.7818
#
#
#
# Elastic Compliance Matrix: (Units=1/GPa)
#
#
# Indices 1 2 3 4 5 6 
#
# 1 0.044538 0.017805 -0.035567 0.000000 0.000994 -0.000002
# 2 0.017805 0.125927 -0.012764 -0.000001 0.004767 -0.000008
# 3 -0.035567 -0.012764 0.034788 0.000000 0.000045 0.000002
# 4 0.000000 -0.000001 0.000000 0.084040 0.000000 -0.037339
# 5 0.000994 0.004767 0.000045 0.000000 0.022203 -0.000001
# 6 -0.000002 -0.000008 0.000002 -0.037339 -0.000001 0.067141
#
#
# Mechanical properties :
#
#
# Convention : Reuss Voigt Hill
#
# Bulk Modulus (GPa) = 6.93477 59.16968 33.05223
# Shear Modulus (GPa) = 10.25101 27.68009 18.96555
#
# Velocity S-wave (km/s) = 2.34752 3.85753 3.19307
# Velocity P-wave (km/s) = 3.32804 7.18678 5.60025
#
# Compressibility (1/GPa) = 0.14420088
#
# Stress axis : x y z
#
# Youngs Moduli (GPa) = 22.45257 7.94114 28.74544
#
# Poissons Ratio (x) = -0.14139 1.02238
# Poissons Ratio (y) = -0.39976 0.36691
# Poissons Ratio (z) = 0.79856 0.10136
#
# Static dielectric constant tensor:
#      x y z
#    x 1.731150 0.000000 -0.014780 
#    y 0.000000 1.670870 0.000000 
#    z -0.014780 0.000000 1.634440 
# 
# From -- ./inp_files/319913.got.cif
#   From: 2010.05.17/outbox.cif.g08.bks.cpg/sg12_160_cif.got.tgz:319913.got - 2010.06.03 13:09:07.
