data_PCOD9192651
_publ_section_title
;
Structure prediction by ZEFSAII (Michael W. Deem and Ramdas Pophale) SiO2 
 PCOD9192651
Probable space group: C 2/M
;
_chemical_formula_sum "Si O2"
_cell_formula_units_Z 40
_cell_length_a 17.912845
_cell_length_b 5.740634
_cell_length_c 15.236957
_cell_angle_alpha 90.000000
_cell_angle_beta 100.057800
_cell_angle_gamma 90.000000
_cell_volume 1542.753883
_symmetry_space_group_name_H-M "C 2/M"
_symmetry_group_IT_number 12
_symmetry_cell_setting 'monoclinic'
loop_
_space_group_symop_operation_xyz
x,y,z
-x,y,-z
-x,-y,-z
x,-y,z
1/2+x,1/2+y,z
1/2-x,1/2+y,-z
1/2-x,1/2-y,-z
1/2+x,1/2-y,z
loop_
_atom_site_type_symbol
_atom_site_label
_atom_site_fract_x
_atom_site_fract_y
_atom_site_fract_z
Si Si1 0.947030 0.248738 0.075806
Si Si2 0.017153 0.000000 0.607353
Si Si3 0.188974 0.000000 0.704648
Si Si4 0.769226 0.251393 0.865212
Si Si5 0.587343 0.252395 0.232464
Si Si6 0.042320 0.500000 0.413611
Si Si7 0.721289 0.000000 0.456444
O O1 0.907276 0.500000 0.069669
O O2 0.005610 0.242925 0.169045
O O3 0.904807 0.000000 0.067914
O O4 0.000000 0.248529 0.000000
O O5 0.984843 0.250723 0.632507
O O6 0.000000 0.000000 0.500000
O O7 0.105294 0.000000 0.649845
O O8 0.208688 0.215067 0.773087
O O9 0.247533 0.000000 0.636575
O O10 0.764868 0.500000 0.911961
O O11 0.851337 0.251665 0.834576
O O12 0.759865 0.000000 0.904120
O O13 0.605448 0.500000 0.280541
O O14 0.596794 0.000000 0.277980
O O15 0.131395 0.500000 0.453317
O O16 0.000000 0.500000 0.500000
O O17 0.750000 0.250000 0.500000
#
# Coordination Sequence:
#
# PCOD9192651 Si02
#       7
#     8   4   4   8   8   4   4
#     4   8  12  16  24  38  58  87 122 157 188 225
#     4  10  20  34  50  66  90 115 137 166 212 260
#     4  10  22  32  54  68  89 110 148 177 212 254
#     4   8  16  26  40  59  79 102 132 173 207 237
#     4   8  12  20  30  44  67  93 122 161 200 228
#     4  10  20  36  50  68  92 116 135 163 210 259
#     4  12  24  36  54  74  92 113 142 176 212 259
#
# _framework density 25.927661000000001
#
# number of rings (size 3 to 8) (size 9 to 14) (size 15 to 20)
#    0.600    2.400    0.000    3.000    2.800    0.000 
#    0.000    0.000    0.000    0.000    0.000    0.000 
#    0.000    0.000    0.000    0.000    0.000    0.000 
#
# Total GULP energy -111608.938012 kJ/mol
# GULP energy per Si atom -5580.446901 kJ/mol
# Density = 2.586865 g / cm^3
# Si number density = 25.927661 Si / 1000 Ang^3
#
#
#
# Elastic Constant Matrix: (Units=GPa)
#
#
# Indices 1 2 3 4 5 6 
#
# 1 158.6400 66.0093 30.0280 0.0000 22.3690 0.0000
# 2 66.0093 349.9896 47.7333 0.0000 -8.0107 0.0000
# 3 30.0280 47.7333 88.1918 0.0000 14.8656 0.0000
# 4 0.0000 0.0000 0.0000 -118.6566 0.0000 44.2508
# 5 22.3690 -8.0107 14.8656 0.0000 34.8624 0.0000
# 6 0.0000 0.0000 0.0000 44.2508 0.0000 -6.4361
#
#
#
# Elastic Compliance Matrix: (Units=1/GPa)
#
#
# Indices 1 2 3 4 5 6 
#
# 1 0.007789 -0.001437 -0.001052 0.000000 -0.004879 0.000000
# 2 -0.001437 0.003428 -0.001782 0.000000 0.002470 0.000000
# 3 -0.001052 -0.001782 0.013594 0.000000 -0.005531 0.000000
# 4 0.000000 0.000000 0.000000 0.005388 0.000000 0.037047
# 5 -0.004879 0.002470 -0.005531 0.000000 0.034741 0.000000
# 6 0.000000 0.000000 0.000000 0.037047 0.000000 0.099340
#
#
# Mechanical properties :
#
#
# Convention : Reuss Voigt Hill
#
# Bulk Modulus (GPa) = 61.46895 98.26252 79.86573
# Shear Modulus (GPa) = 28.05125 12.15730 20.10428
#
# Velocity S-wave (km/s) = 3.29280 2.16774 2.78762
# Velocity P-wave (km/s) = 6.18191 6.65180 6.42116
#
# Compressibility (1/GPa) = 0.01626838
#
# Stress axis : x y z
#
# Youngs Moduli (GPa) = 128.39170 291.72345 73.56189
#
# Poissons Ratio (x) = 0.41927 0.07736
# Poissons Ratio (y) = 0.18453 0.13111
# Poissons Ratio (z) = 0.13501 0.51994
#
# Static dielectric constant tensor:
#      x y z
#    x 2.016760 0.000000 -0.104080 
#    y 0.000000 2.102640 0.000000 
#    z -0.104080 0.000000 2.053560 
# 
# From -- ./inp_files/313055.got.cif
#   From: 2010.05.17/outbox.cif.g08.bks.cpg/sg12_157_cif.got.tgz:313055.got - 2010.06.03 13:09:07.
