data_PCOD9192127
_publ_section_title
;
Structure prediction by ZEFSAII (Michael W. Deem and Ramdas Pophale) SiO2 
 PCOD9192127
Probable space group: C 2/M
;
_chemical_formula_sum "Si O2"
_cell_formula_units_Z 44
_cell_length_a 21.527380
_cell_length_b 9.645381
_cell_length_c 9.255637
_cell_angle_alpha 90.000000
_cell_angle_beta 87.874308
_cell_angle_gamma 90.000000
_cell_volume 1920.515959
_symmetry_space_group_name_H-M "C 2/M"
_symmetry_group_IT_number 12
_symmetry_cell_setting 'monoclinic'
loop_
_space_group_symop_operation_xyz
x,y,z
-x,y,-z
-x,-y,-z
x,-y,z
1/2+x,1/2+y,z
1/2-x,1/2+y,-z
1/2-x,1/2-y,-z
1/2+x,1/2-y,z
loop_
_atom_site_type_symbol
_atom_site_label
_atom_site_fract_x
_atom_site_fract_y
_atom_site_fract_z
Si Si1 0.461911 0.843689 0.255184
Si Si2 0.593328 0.342545 0.976235
Si Si3 0.101085 0.663686 0.262932
Si Si4 0.836027 0.662356 0.454701
Si Si5 0.724587 0.000000 0.012883
Si Si6 0.721109 0.728284 0.811783
O O1 0.528841 0.825508 0.321756
O O2 0.402510 0.833727 0.363895
O O3 0.459916 0.000000 0.191818
O O4 0.453266 0.733968 0.128235
O O5 0.576335 0.500000 0.009840
O O6 0.602806 0.254404 0.119315
O O7 0.658991 0.340303 0.886135
O O8 0.108707 0.500000 0.228844
O O9 0.146497 0.710710 0.386563
O O10 0.817415 0.500000 0.462559
O O11 0.790379 0.750038 0.356957
O O12 0.726260 0.122284 0.887028
O O13 0.727297 0.122774 0.137748
#
# Coordination Sequence:
#
# PCOD9192127 Si02
#       6
#     8   8   8   8   4   8
#     4   9  18  33  55  79 105 145 191 221 247 300
#     4  11  22  35  51  78 114 142 178 220 264 309
#     4  10  20  33  53  79 111 150 180 212 257 313
#     4   9  17  33  56  81 111 138 177 221 262 307
#     4  10  20  36  64  84 100 126 180 222 274 322
#     4  10  20  37  60  86 101 135 171 227 266 323
#
# _framework density 22.910512000000001
#
# number of rings (size 3 to 8) (size 9 to 14) (size 15 to 20)
#    0.000    2.182    1.818    1.636    2.545    5.091 
#    1.636    0.000    0.000    9.818    0.000    0.000 
#    0.000    0.000    0.000    0.000    0.000    0.000 
#
# Total GULP energy -122558.937856 kJ/mol
# GULP energy per Si atom -5570.860812 kJ/mol
# Density = 2.285837 g / cm^3
# Si number density = 22.910512 Si / 1000 Ang^3
#
#
#
# Elastic Constant Matrix: (Units=GPa)
#
#
# Indices 1 2 3 4 5 6 
#
# 1 74.3191 15.9992 11.8752 0.0000 12.4695 0.0000
# 2 15.9992 137.7657 60.8141 0.0000 29.8670 0.0000
# 3 11.8752 60.8141 164.6953 0.0000 35.8126 0.0000
# 4 0.0000 0.0000 0.0000 19.4411 0.0000 1.5283
# 5 12.4695 29.8670 35.8126 0.0000 37.1200 0.0000
# 6 0.0000 0.0000 0.0000 1.5283 0.0000 16.9179
#
#
#
# Elastic Compliance Matrix: (Units=1/GPa)
#
#
# Indices 1 2 3 4 5 6 
#
# 1 0.014329 -0.000813 0.000217 0.000000 -0.004369 0.000000
# 2 -0.000813 0.009492 -0.002335 0.000000 -0.005112 0.000000
# 3 0.000217 -0.002335 0.008258 0.000000 -0.006162 0.000000
# 4 0.000000 0.000000 0.000000 0.051805 0.000000 -0.004680
# 5 -0.004369 -0.005112 -0.006162 0.000000 0.038465 0.000000
# 6 0.000000 0.000000 0.000000 -0.004680 0.000000 0.059532
#
#
# Mechanical properties :
#
#
# Convention : Reuss Voigt Hill
#
# Bulk Modulus (GPa) = 38.14213 61.57302 49.85757
# Shear Modulus (GPa) = 25.44776 33.90191 29.67483
#
# Velocity S-wave (km/s) = 3.33640 3.85093 3.60286
# Velocity P-wave (km/s) = 5.61485 6.83423 6.25433
#
# Compressibility (1/GPa) = 0.02621773
#
# Stress axis : x y z
#
# Youngs Moduli (GPa) = 69.78958 105.35277 121.09297
#
# Poissons Ratio (x) = 0.08562 -0.02626
# Poissons Ratio (y) = 0.05672 0.28273
# Poissons Ratio (z) = -0.01514 0.24598
#
# Static dielectric constant tensor:
#      x y z
#    x 2.044810 0.000000 -0.041330 
#    y 0.000000 1.765370 0.000000 
#    z -0.041330 0.000000 1.837220 
# 
# From -- ./inp_files/107882.got.cif
#   From: 2010.05.17/outbox.cif.g08.bks.cpg/sg12_54_cif.got.tgz:107882.got - 2010.06.03 13:09:07.
