data_PCOD9192224
_publ_section_title
;
Structure prediction by ZEFSAII (Michael W. Deem and Ramdas Pophale) SiO2 
 PCOD9192224
Probable space group: C 2/M
;
_chemical_formula_sum "Si O2"
_cell_formula_units_Z 64
_cell_length_a 14.864752
_cell_length_b 20.572123
_cell_length_c 29.883232
_cell_angle_alpha 90.000000
_cell_angle_beta 159.789447
_cell_angle_gamma 90.000000
_cell_volume 3157.010349
_symmetry_space_group_name_H-M "C 2/M"
_symmetry_group_IT_number 12
_symmetry_cell_setting 'monoclinic'
loop_
_space_group_symop_operation_xyz
x,y,z
-x,y,-z
-x,-y,-z
x,-y,z
1/2+x,1/2+y,z
1/2-x,1/2+y,-z
1/2-x,1/2-y,-z
1/2+x,1/2-y,z
loop_
_atom_site_type_symbol
_atom_site_label
_atom_site_fract_x
_atom_site_fract_y
_atom_site_fract_z
Si Si1 0.973316 0.279772 0.387956
Si Si2 0.084745 0.426444 0.420119
Si Si3 0.174920 0.200060 0.039772
Si Si4 0.664954 0.570967 0.728209
Si Si5 0.793028 0.404419 0.626071
Si Si6 0.409429 0.070003 0.146084
Si Si7 0.754890 0.292417 0.800579
Si Si8 0.342565 0.242512 0.677062
O O1 0.790737 0.238725 0.269374
O O2 0.897826 0.267218 0.404675
O O3 0.250000 0.250000 0.500000
O O4 0.948698 0.357417 0.368099
O O5 0.980776 0.500000 0.382017
O O6 0.361907 0.420632 0.575109
O O7 0.132952 0.423798 0.389338
O O8 0.250173 0.131364 0.053315
O O9 0.435073 0.230294 0.181543
O O10 0.000000 0.179064 0.000000
O O11 0.002057 0.253282 0.934390
O O12 0.704061 0.500000 0.767292
O O13 0.780844 0.630646 0.809393
O O14 0.817049 0.571398 0.752258
O O15 0.500000 0.427482 0.500000
O O16 0.788033 0.326593 0.628849
O O17 0.005990 0.424646 0.762562
O O18 0.282114 0.000000 0.078678
O O19 0.499365 0.282178 0.712542
#
# Coordination Sequence:
#
# PCOD9192224 Si02
#       8
#     8   8   8   8   8   8   8   8
#     4  12  23  38  59  92 120 158 198 250 302 356
#     4  11  22  36  53  85 132 162 191 238 299 367
#     4   9  21  39  57  85 113 152 202 248 294 347
#     4  10  21  36  56  87 119 152 197 247 299 357
#     4  11  18  31  55  88 119 159 197 237 295 364
#     4  10  20  33  53  84 121 159 196 239 296 362
#     4  11  21  40  64  83 114 159 200 252 299 349
#     4  10  23  37  60  88 119 151 208 253 291 355
#
# _framework density 20.272344
#
# number of rings (size 3 to 8) (size 9 to 14) (size 15 to 20)
#    0.000    1.500    3.750    2.625    0.000    2.750 
#    0.000    1.250    0.000    5.625    0.000    0.000 
#    0.000    0.000    0.000    0.000    0.000    0.000 
#
# Total GULP energy -178442.636928 kJ/mol
# GULP energy per Si atom -5576.332404 kJ/mol
# Density = 2.022620 g / cm^3
# Si number density = 20.272344 Si / 1000 Ang^3
#
#
#
# Elastic Constant Matrix: (Units=GPa)
#
#
# Indices 1 2 3 4 5 6 
#
# 1 75.7539 25.5719 -5.9268 -0.0344 6.1229 0.0024
# 2 25.5719 170.1746 16.8180 -0.0166 -5.7897 -0.0081
# 3 -5.9268 16.8180 46.9976 0.0699 -0.8508 -0.0091
# 4 -0.0344 -0.0166 0.0699 31.1072 -0.0070 5.2746
# 5 6.1229 -5.7897 -0.8508 -0.0070 17.3118 -0.0037
# 6 0.0024 -0.0081 -0.0091 5.2746 -0.0037 23.9309
#
#
#
# Elastic Compliance Matrix: (Units=1/GPa)
#
#
# Indices 1 2 3 4 5 6 
#
# 1 0.014811 -0.002699 0.002725 0.000008 -0.006007 -0.000004
# 2 -0.002699 0.006649 -0.002665 0.000007 0.003047 0.000000
# 3 0.002725 -0.002665 0.022561 -0.000052 -0.000746 0.000019
# 4 0.000008 0.000007 -0.000052 0.033395 0.000009 -0.007361
# 5 -0.006007 0.003047 -0.000746 0.000009 0.060871 0.000009
# 6 -0.000004 0.000000 0.000019 -0.007361 0.000009 0.043409
#
#
# Mechanical properties :
#
#
# Convention : Reuss Voigt Hill
#
# Bulk Modulus (GPa) = 25.81107 40.65027 33.23067
# Shear Modulus (GPa) = 25.01396 31.56752 28.29074
#
# Velocity S-wave (km/s) = 3.51650 3.95038 3.73974
# Velocity P-wave (km/s) = 5.40809 6.39554 5.92243
#
# Compressibility (1/GPa) = 0.03874307
#
# Stress axis : x y z
#
# Youngs Moduli (GPa) = 67.51966 150.40002 44.32349
#
# Poissons Ratio (x) = 0.40596 -0.12078
# Poissons Ratio (y) = 0.18225 0.11810
# Poissons Ratio (z) = -0.18398 0.40075
#
# Static dielectric constant tensor:
#      x y z
#    x 1.741600 0.000000 0.035890 
#    y 0.000000 1.767350 -0.000020 
#    z 0.035890 -0.000020 1.783350 
# 
# From -- ./inp_files/377132.got.cif
#   From: 2010.05.17/outbox.cif.g08.bks.cpg/sg12_189_cif.got.tgz:377132.got - 2010.06.03 13:09:07.
