data_PCOD9192793
_publ_section_title
;
Structure prediction by ZEFSAII (Michael W. Deem and Ramdas Pophale) SiO2 
 PCOD9192793
Probable space group: C 2/M
;
_chemical_formula_sum "Si O2"
_cell_formula_units_Z 48
_cell_length_a 31.078547
_cell_length_b 9.969219
_cell_length_c 7.799771
_cell_angle_alpha 90.000000
_cell_angle_beta 115.655235
_cell_angle_gamma 90.000000
_cell_volume 2178.355450
_symmetry_space_group_name_H-M "C 2/M"
_symmetry_group_IT_number 12
_symmetry_cell_setting 'monoclinic'
loop_
_space_group_symop_operation_xyz
x,y,z
-x,y,-z
-x,-y,-z
x,-y,z
1/2+x,1/2+y,z
1/2-x,1/2+y,-z
1/2-x,1/2-y,-z
1/2+x,1/2-y,z
loop_
_atom_site_type_symbol
_atom_site_label
_atom_site_fract_x
_atom_site_fract_y
_atom_site_fract_z
Si Si1 0.131312 0.155905 0.789366
Si Si2 0.525493 0.143778 0.362707
Si Si3 0.078493 0.349148 0.933648
Si Si4 0.788169 0.845630 0.777384
Si Si5 0.698803 0.342330 0.594637
Si Si6 0.945377 0.850038 0.831298
O O1 0.094699 0.268742 0.792139
O O2 0.154999 0.184519 0.646681
O O3 0.113470 0.000000 0.763477
O O4 0.173227 0.165730 0.005452
O O5 0.500000 0.153127 0.500000
O O6 0.478606 0.134778 0.162763
O O7 0.551542 0.275935 0.345073
O O8 0.551746 0.000000 0.396313
O O9 0.099002 0.500000 0.979692
O O10 0.085547 0.246586 0.101423
O O11 0.744013 0.746391 0.727008
O O12 0.808556 0.818511 0.621038
O O13 0.771173 0.000000 0.747437
O O14 0.709967 0.500000 0.635780
O O15 0.925691 0.000000 0.789160
O O16 0.000000 0.861900 0.000000
#
# Coordination Sequence:
#
# PCOD9192793 Si02
#       6
#     8   8   8   8   8   8
#     4  10  20  34  51  73 107 141 169 212 263 309
#     4   9  18  34  54  75 102 133 169 214 259 306
#     4  10  20  34  52  74 101 135 171 210 259 311
#     4   9  18  33  53  76 102 134 173 212 257 308
#     4   9  18  33  53  76 102 134 172 213 257 305
#     4   9  17  31  52  74  97 127 166 207 248 302
#
# _framework density 22.034972
#
# number of rings (size 3 to 8) (size 9 to 14) (size 15 to 20)
#    0.000    2.667    0.000    1.500    0.000    4.333 
#    3.000    0.000    0.000    0.000    0.000    0.000 
#    0.000    0.000    0.000    0.000    0.000    0.000 
#
# Total GULP energy -133895.940487 kJ/mol
# GULP energy per Si atom -5578.997520 kJ/mol
# Density = 2.198482 g / cm^3
# Si number density = 22.034972 Si / 1000 Ang^3
#
#
#
# Elastic Constant Matrix: (Units=GPa)
#
#
# Indices 1 2 3 4 5 6 
#
# 1 64.5068 54.4431 19.5741 0.0000 -9.0095 0.0000
# 2 54.4431 163.5732 44.7904 0.0000 -29.6202 0.0000
# 3 19.5741 44.7904 49.0315 0.0000 -20.5369 0.0000
# 4 0.0000 0.0000 0.0000 16.5874 0.0000 -5.2296
# 5 -9.0095 -29.6202 -20.5369 0.0000 41.3918 0.0000
# 6 0.0000 0.0000 0.0000 -5.2296 0.0000 22.5954
#
#
#
# Elastic Compliance Matrix: (Units=1/GPa)
#
#
# Indices 1 2 3 4 5 6 
#
# 1 0.021925 -0.006684 -0.003348 0.000000 -0.001671 0.000000
# 2 -0.006684 0.010436 -0.005487 0.000000 0.003291 0.000000
# 3 -0.003348 -0.005487 0.031298 0.000000 0.010874 0.000000
# 4 0.000000 0.000000 0.000000 0.065032 0.000000 0.015051
# 5 -0.001671 0.003291 0.010874 0.000000 0.031546 0.000000
# 6 0.000000 0.000000 0.000000 0.015051 0.000000 0.047740
#
#
# Mechanical properties :
#
#
# Convention : Reuss Voigt Hill
#
# Bulk Modulus (GPa) = 30.65233 57.19187 43.92210
# Shear Modulus (GPa) = 20.00883 26.66850 23.33867
#
# Velocity S-wave (km/s) = 3.01665 3.48268 3.25801
# Velocity P-wave (km/s) = 5.10633 6.49488 5.84201
#
# Compressibility (1/GPa) = 0.03262395
#
# Stress axis : x y z
#
# Youngs Moduli (GPa) = 45.60901 95.81765 31.95055
#
# Poissons Ratio (x) = 0.64041 0.10696
# Poissons Ratio (y) = 0.30483 0.17531
# Poissons Ratio (z) = 0.15268 0.52576
#
# Static dielectric constant tensor:
#      x y z
#    x 1.806860 0.000000 0.026350 
#    y 0.000000 1.827480 0.000000 
#    z 0.026350 0.000000 1.880410 
# 
# From -- ./inp_files/108650.got.cif
#   From: 2010.05.17/outbox.cif.g08.bks.cpg/sg12_55_cif.got.tgz:108650.got - 2010.06.03 13:09:07.
