data_PCOD9192378
_publ_section_title
;
Structure prediction by ZEFSAII (Michael W. Deem and Ramdas Pophale) SiO2 
 PCOD9192378
Probable space group: C 2/M
;
_chemical_formula_sum "Si O2"
_cell_formula_units_Z 64
_cell_length_a 20.483349
_cell_length_b 9.238330
_cell_length_c 23.660915
_cell_angle_alpha 90.000000
_cell_angle_beta 43.518227
_cell_angle_gamma 90.000000
_cell_volume 3083.072356
_symmetry_space_group_name_H-M "C 2/M"
_symmetry_group_IT_number 12
_symmetry_cell_setting 'monoclinic'
loop_
_space_group_symop_operation_xyz
x,y,z
-x,y,-z
-x,-y,-z
x,-y,z
1/2+x,1/2+y,z
1/2-x,1/2+y,-z
1/2-x,1/2-y,-z
1/2+x,1/2-y,z
loop_
_atom_site_type_symbol
_atom_site_label
_atom_site_fract_x
_atom_site_fract_y
_atom_site_fract_z
Si Si1 0.859973 0.174581 0.098505
Si Si2 0.518742 0.666523 0.655640
Si Si3 0.182958 0.670910 0.497780
Si Si4 0.254893 0.833725 0.669130
Si Si5 0.458439 0.670138 0.147937
Si Si6 0.457815 0.830710 0.801792
Si Si7 0.760060 0.169100 0.052379
Si Si8 0.189967 0.835712 0.264796
O O1 0.941346 0.216633 0.093029
O O2 0.840284 0.221924 0.046162
O O3 0.764022 0.229363 0.188478
O O4 0.863601 0.000000 0.095005
O O5 0.551420 0.500000 0.641024
O O6 0.582208 0.754052 0.571631
O O7 0.517128 0.744298 0.717559
O O8 0.411586 0.666290 0.700450
O O9 0.176435 0.500000 0.513105
O O10 0.250000 0.750000 0.500000
O O11 0.225783 0.689986 0.408651
O O12 0.145091 0.818712 0.756791
O O13 0.314274 0.721303 0.668777
O O14 0.281974 0.000000 0.665716
O O15 0.485540 0.500000 0.130832
O O16 0.525366 0.761618 0.146967
O O17 0.346530 0.819465 0.855653
O O18 0.483336 0.000000 0.786528
O O19 0.778120 0.000000 0.030213
O O20 0.750000 0.250000 0.000000
O O21 0.227316 0.000000 0.238960
#
# Coordination Sequence:
#
# PCOD9192378 Si02
#       8
#     8   8   8   8   8   8   8   8
#     4   9  18  37  60  82 114 152 189 229 276 338
#     4  11  23  37  55  81 113 148 189 236 285 338
#     4  11  23  38  56  78 107 148 192 237 289 340
#     4   9  20  37  55  77 110 149 189 232 283 340
#     4   9  18  34  59  85 112 150 191 235 283 334
#     4  11  22  37  59  87 116 147 189 239 285 337
#     4  10  22  39  61  88 116 149 187 229 282 340
#     4  10  20  33  55  84 109 142 187 236 284 329
#
# _framework density 20.758514000000002
#
# number of rings (size 3 to 8) (size 9 to 14) (size 15 to 20)
#    0.000    2.000    1.250    3.000    0.000    7.500 
#    0.000    3.125    0.000    3.750    0.000    0.000 
#    0.000    0.000    0.000    0.000    0.000    0.000 
#
# Total GULP energy -178659.655206 kJ/mol
# GULP energy per Si atom -5583.114225 kJ/mol
# Density = 2.071127 g / cm^3
# Si number density = 20.758514 Si / 1000 Ang^3
#
#
#
# Elastic Constant Matrix: (Units=GPa)
#
#
# Indices 1 2 3 4 5 6 
#
# 1 131.4052 50.7404 26.5614 0.0001 20.7699 -0.0001
# 2 50.7404 53.1052 30.3196 0.0002 16.5821 -0.0004
# 3 26.5614 30.3196 72.4440 0.0000 15.7912 -0.0001
# 4 0.0001 0.0002 0.0000 23.9433 0.0000 4.2964
# 5 20.7699 16.5821 15.7912 0.0000 30.7848 0.0000
# 6 -0.0001 -0.0004 -0.0001 4.2964 0.0000 33.1046
#
#
#
# Elastic Compliance Matrix: (Units=1/GPa)
#
#
# Indices 1 2 3 4 5 6 
#
# 1 0.012235 -0.011364 0.000828 0.000000 -0.002558 0.000000
# 2 -0.011364 0.037745 -0.009987 0.000000 -0.007541 0.000000
# 3 0.000828 -0.009987 0.018723 0.000000 -0.004783 0.000000
# 4 0.000000 0.000000 0.000000 0.042761 0.000000 -0.005550
# 5 -0.002558 -0.007541 -0.004783 0.000000 0.040725 0.000000
# 6 0.000000 0.000000 0.000000 -0.005550 0.000000 0.030928
#
#
# Mechanical properties :
#
#
# Convention : Reuss Voigt Hill
#
# Bulk Modulus (GPa) = 36.15768 52.46637 44.31203
# Shear Modulus (GPa) = 21.42409 27.52207 24.47308
#
# Velocity S-wave (km/s) = 3.21606 3.64513 3.43730
# Velocity P-wave (km/s) = 5.58988 6.56091 6.09476
#
# Compressibility (1/GPa) = 0.02765664
#
# Stress axis : x y z
#
# Youngs Moduli (GPa) = 81.73131 26.49340 53.41151
#
# Poissons Ratio (x) = 0.30108 -0.04422
# Poissons Ratio (y) = 0.92881 0.53341
# Poissons Ratio (z) = -0.06766 0.26458
#
# Static dielectric constant tensor:
#      x y z
#    x 1.774770 0.000000 -0.007700 
#    y 0.000000 1.708400 0.000000 
#    z -0.007700 0.000000 1.783830 
# 
# From -- ./inp_files/345953.got.cif
#   From: 2010.05.17/outbox.cif.g08.bks.cpg/sg12_173_cif.got.tgz:345953.got - 2010.06.03 13:09:07.
