data_PCOD9192234
_publ_section_title
;
Structure prediction by ZEFSAII (Michael W. Deem and Ramdas Pophale) SiO2 
 PCOD9192234
Probable space group: C 2/M
;
_chemical_formula_sum "Si O2"
_cell_formula_units_Z 64
_cell_length_a 15.158201
_cell_length_b 18.850300
_cell_length_c 19.910931
_cell_angle_alpha 90.000000
_cell_angle_beta 145.021972
_cell_angle_gamma 90.000000
_cell_volume 3261.450930
_symmetry_space_group_name_H-M "C 2/M"
_symmetry_group_IT_number 12
_symmetry_cell_setting 'monoclinic'
loop_
_space_group_symop_operation_xyz
x,y,z
-x,y,-z
-x,-y,-z
x,-y,z
1/2+x,1/2+y,z
1/2-x,1/2+y,-z
1/2-x,1/2-y,-z
1/2+x,1/2-y,z
loop_
_atom_site_type_symbol
_atom_site_label
_atom_site_fract_x
_atom_site_fract_y
_atom_site_fract_z
Si Si1 0.037353 0.682562 0.446311
Si Si2 0.763148 0.306799 0.592341
Si Si3 0.204835 0.077414 0.652787
Si Si4 0.609808 0.420481 0.740938
Si Si5 0.603751 0.813975 0.785949
Si Si6 0.264726 0.417756 0.541080
Si Si7 0.656427 0.189986 0.055059
Si Si8 0.926750 0.581749 0.115890
O O1 0.153039 0.745748 0.498354
O O2 0.139934 0.611439 0.514388
O O3 0.000000 0.698244 0.500000
O O4 0.917156 0.678203 0.308721
O O5 0.687034 0.346582 0.607484
O O6 0.774142 0.372662 0.548659
O O7 0.939638 0.281852 0.710381
O O8 0.103172 0.077821 0.656255
O O9 0.388940 0.077015 0.780467
O O10 0.175639 0.000000 0.600763
O O11 0.657937 0.500000 0.792087
O O12 0.443575 0.404311 0.668238
O O13 0.732729 0.361699 0.834078
O O14 0.746108 0.762507 0.892010
O O15 0.610863 0.887123 0.833237
O O16 0.247971 0.500000 0.518542
O O17 0.500000 0.201384 0.000000
O O18 0.627698 0.142871 0.970081
O O19 0.869315 0.500000 0.071209
#
# Coordination Sequence:
#
# PCOD9192234 Si02
#       8
#     8   8   8   8   8   8   8   8
#     4  11  24  39  61  87 118 159 202 248 299 352
#     4  10  20  36  58  85 118 155 194 238 294 362
#     4   9  18  31  52  86 121 156 189 230 285 350
#     4  10  20  33  53  86 125 156 189 233 288 353
#     4  10  23  40  58  87 120 157 200 248 298 355
#     4  10  21  38  58  84 117 157 198 244 294 350
#     4  12  22  35  60  90 123 159 196 244 298 358
#     4  10  21  39  61  85 116 155 202 247 296 351
#
# _framework density 19.623169000000001
#
# number of rings (size 3 to 8) (size 9 to 14) (size 15 to 20)
#    0.000    1.750    1.250    4.125    3.500    3.750 
#    0.000    3.125    0.000    0.375    0.000    1.750 
#    0.000    0.000    0.000    0.000    0.000    0.000 
#
# Total GULP energy -178229.283685 kJ/mol
# GULP energy per Si atom -5569.665115 kJ/mol
# Density = 1.957851 g / cm^3
# Si number density = 19.623169 Si / 1000 Ang^3
#
#
#
# Elastic Constant Matrix: (Units=GPa)
#
#
# Indices 1 2 3 4 5 6 
#
# 1 77.3966 39.3052 36.9523 0.0000 -6.4998 0.0001
# 2 39.3052 87.1952 51.0631 0.0000 14.2090 0.0001
# 3 36.9523 51.0631 63.3623 -0.0003 2.6596 0.0000
# 4 0.0000 0.0000 -0.0003 21.4661 -0.0001 -0.4499
# 5 -6.4998 14.2090 2.6596 -0.0001 30.2305 0.0001
# 6 0.0001 0.0001 0.0000 -0.4499 0.0001 26.7002
#
#
#
# Elastic Compliance Matrix: (Units=1/GPa)
#
#
# Indices 1 2 3 4 5 6 
#
# 1 0.020101 -0.006219 -0.007041 0.000000 0.007865 0.000000
# 2 -0.006219 0.026190 -0.016969 0.000000 -0.012154 0.000000
# 3 -0.007041 -0.016969 0.033416 0.000000 0.003522 0.000000
# 4 0.000000 0.000000 0.000000 0.046601 0.000000 0.000785
# 5 0.007865 -0.012154 0.003522 0.000000 0.040173 0.000000
# 6 0.000000 0.000000 0.000000 0.000785 0.000000 0.037466
#
#
# Mechanical properties :
#
#
# Convention : Reuss Voigt Hill
#
# Bulk Modulus (GPa) = 51.95223 53.62169 52.78696
# Shear Modulus (GPa) = 18.46235 22.38827 20.42531
#
# Velocity S-wave (km/s) = 3.07065 3.38140 3.22976
# Velocity P-wave (km/s) = 6.25334 6.52918 6.39275
#
# Compressibility (1/GPa) = 0.01924845
#
# Stress axis : x y z
#
# Youngs Moduli (GPa) = 49.74911 38.18247 29.92606
#
# Poissons Ratio (x) = 0.23747 0.21070
# Poissons Ratio (y) = 0.30941 0.50782
# Poissons Ratio (z) = 0.35027 0.64792
#
# Static dielectric constant tensor:
#      x y z
#    x 1.803470 0.000000 -0.034890 
#    y 0.000000 1.722780 0.000000 
#    z -0.034890 0.000000 1.754060 
# 
# From -- ./inp_files/271755.got.cif
#   From: 2010.05.17/outbox.cif.g08.bks.cpg/sg12_136_cif.got.tgz:271755.got - 2010.06.03 13:09:07.
