data_PCOD9192558
_publ_section_title
;
Structure prediction by ZEFSAII (Michael W. Deem and Ramdas Pophale) SiO2 
 PCOD9192558
Probable space group: C 2/M
;
_chemical_formula_sum "Si O2"
_cell_formula_units_Z 56
_cell_length_a 11.124506
_cell_length_b 21.793115
_cell_length_c 12.107294
_cell_angle_alpha 90.000000
_cell_angle_beta 97.137347
_cell_angle_gamma 90.000000
_cell_volume 2912.518878
_symmetry_space_group_name_H-M "C 2/M"
_symmetry_group_IT_number 12
_symmetry_cell_setting 'monoclinic'
loop_
_space_group_symop_operation_xyz
x,y,z
-x,y,-z
-x,-y,-z
x,-y,z
1/2+x,1/2+y,z
1/2-x,1/2+y,-z
1/2-x,1/2-y,-z
1/2+x,1/2-y,z
loop_
_atom_site_type_symbol
_atom_site_label
_atom_site_fract_x
_atom_site_fract_y
_atom_site_fract_z
Si Si1 0.417499 0.071417 0.380830
Si Si2 0.883636 0.747677 0.567194
Si Si3 0.627747 0.430015 0.077075
Si Si4 0.921812 0.352714 0.747956
Si Si5 0.249074 0.845691 0.921367
Si Si6 0.298339 0.343166 0.721662
Si Si7 0.370663 0.772468 0.126233
O O1 0.500000 0.079827 0.500000
O O2 0.500341 0.089764 0.284913
O O3 0.303527 0.117752 0.356972
O O4 0.380599 0.000000 0.372957
O O5 0.750000 0.750000 0.500000
O O6 0.885504 0.684757 0.635622
O O7 0.884668 0.805290 0.650945
O O8 0.000000 0.749097 0.500000
O O9 0.657516 0.500000 0.107450
O O10 0.634830 0.389025 0.187293
O O11 0.500000 0.427826 0.000000
O O12 0.719205 0.400921 0.999073
O O13 0.812334 0.366705 0.816862
O O14 0.007561 0.304456 0.821407
O O15 0.135564 0.800840 0.883091
O O16 0.334708 0.801217 0.004388
O O17 0.227421 0.294487 0.792711
#
# Coordination Sequence:
#
# PCOD9192558 Si02
#       7
#     8   8   8   8   8   8   8
#     4  10  21  39  61  83 115 161 210 257 307 366
#     4  12  25  39  60  91 129 159 203 264 319 377
#     4  10  23  39  57  83 116 157 204 246 291 367
#     4  11  21  35  57  87 121 151 194 249 307 368
#     4  10  20  33  58  82 117 151 192 237 296 361
#     4  10  20  39  60  85 117 163 196 247 309 366
#     4   9  19  34  52  88 118 149 186 230 298 367
#
# _framework density 19.227343000000001
#
# number of rings (size 3 to 8) (size 9 to 14) (size 15 to 20)
#    0.000    1.714    1.429    3.857    2.000    0.571 
#    0.000    0.000    0.000    8.571    0.000    0.000 
#    0.000    0.000    0.000    0.000    0.000    0.000 
#
# Total GULP energy -156315.654136 kJ/mol
# GULP energy per Si atom -5582.701933 kJ/mol
# Density = 1.918358 g / cm^3
# Si number density = 19.227343 Si / 1000 Ang^3
#
#
#
# Elastic Constant Matrix: (Units=GPa)
#
#
# Indices 1 2 3 4 5 6 
#
# 1 50.4412 2.9763 31.8040 0.0000 -14.2321 0.0000
# 2 2.9763 52.7349 20.8916 0.0000 2.2144 0.0000
# 3 31.8040 20.8916 85.7942 0.0000 -11.3651 0.0000
# 4 0.0000 0.0000 0.0000 24.6160 0.0000 7.5791
# 5 -14.2321 2.2144 -11.3651 0.0000 38.5783 0.0000
# 6 0.0000 0.0000 0.0000 7.5791 0.0000 16.2271
#
#
#
# Elastic Compliance Matrix: (Units=1/GPa)
#
#
# Indices 1 2 3 4 5 6 
#
# 1 0.028016 0.002041 -0.009916 0.000000 0.007297 0.000000
# 2 0.002041 0.021435 -0.006285 0.000000 -0.002329 0.000000
# 3 -0.009916 -0.006285 0.017092 0.000000 0.001738 0.000000
# 4 0.000000 0.000000 0.000000 0.047447 0.000000 -0.022161
# 5 0.007297 -0.002329 0.001738 0.000000 0.029259 0.000000
# 6 0.000000 0.000000 0.000000 -0.022161 0.000000 0.071976
#
#
# Mechanical properties :
#
#
# Convention : Reuss Voigt Hill
#
# Bulk Modulus (GPa) = 26.16191 33.36825 29.76508
# Shear Modulus (GPa) = 19.50951 24.77085 22.14018
#
# Velocity S-wave (km/s) = 3.18885 3.59320 3.39705
# Velocity P-wave (km/s) = 5.21484 5.88278 5.55885
#
# Compressibility (1/GPa) = 0.03822350
#
# Stress axis : x y z
#
# Youngs Moduli (GPa) = 35.69446 46.65237 58.50633
#
# Poissons Ratio (x) = -0.09520 0.58013
# Poissons Ratio (y) = -0.07284 0.36769
# Poissons Ratio (z) = 0.35394 0.29319
#
# Static dielectric constant tensor:
#      x y z
#    x 1.725570 0.000000 0.059410 
#    y 0.000000 1.658220 0.000000 
#    z 0.059410 0.000000 1.719350 
# 
# From -- ./inp_files/133297.got.cif
#   From: 2010.05.17/outbox.cif.g08.bks.cpg/sg12_67_cif.got.tgz:133297.got - 2010.06.03 13:09:07.
