data_PCOD9192524
_publ_section_title
;
Structure prediction by ZEFSAII (Michael W. Deem and Ramdas Pophale) SiO2 
 PCOD9192524
Probable space group: C 2/M
;
_chemical_formula_sum "Si O2"
_cell_formula_units_Z 56
_cell_length_a 23.776861
_cell_length_b 9.416668
_cell_length_c 13.378032
_cell_angle_alpha 90.000000
_cell_angle_beta 76.818557
_cell_angle_gamma 90.000000
_cell_volume 2916.406987
_symmetry_space_group_name_H-M "C 2/M"
_symmetry_group_IT_number 12
_symmetry_cell_setting 'monoclinic'
loop_
_space_group_symop_operation_xyz
x,y,z
-x,y,-z
-x,-y,-z
x,-y,z
1/2+x,1/2+y,z
1/2-x,1/2+y,-z
1/2-x,1/2-y,-z
1/2+x,1/2-y,z
loop_
_atom_site_type_symbol
_atom_site_label
_atom_site_fract_x
_atom_site_fract_y
_atom_site_fract_z
Si Si1 0.764413 0.836841 0.837053
Si Si2 0.690829 0.165797 0.537103
Si Si3 0.352780 0.166038 0.668576
Si Si4 0.667652 0.337383 0.980218
Si Si5 0.983432 0.672990 0.619142
Si Si6 0.088704 0.327143 0.717206
Si Si7 0.432368 0.166992 0.045727
O O1 0.803525 0.759301 0.739646
O O2 0.706758 0.750795 0.886668
O O3 0.751539 0.000000 0.815326
O O4 0.800683 0.835492 0.925770
O O5 0.750000 0.250000 0.500000
O O6 0.655207 0.172339 0.447734
O O7 0.648139 0.220135 0.641131
O O8 0.704105 0.000000 0.550787
O O9 0.417577 0.214946 0.669468
O O10 0.346094 0.000000 0.701082
O O11 0.662024 0.500000 0.950537
O O12 0.606570 0.259796 0.011209
O O13 0.983158 0.500000 0.619493
O O14 0.000000 0.717370 0.500000
O O15 0.032753 0.719794 0.676253
O O16 0.089027 0.500000 0.712125
O O17 0.082142 0.288746 0.835092
O O18 0.418309 0.000000 0.039064
O O19 0.500000 0.183929 0.000000
#
# Coordination Sequence:
#
# PCOD9192524 Si02
#       7
#     8   8   8   8   8   8   8
#     4  10  22  39  60  84 112 147 185 233 294 350
#     4  10  21  36  54  81 116 152 193 233 279 339
#     4  10  20  33  57  88 112 141 188 239 284 336
#     4  10  22  41  61  82 111 147 191 239 287 341
#     4   9  15  29  54  81 108 140 183 233 277 320
#     4   9  18  34  54  80 113 150 188 230 281 332
#     4  10  22  37  57  87 119 153 194 236 283 342
#
# _framework density 19.201709999999999
#
# number of rings (size 3 to 8) (size 9 to 14) (size 15 to 20)
#    0.000    2.286    1.429    0.857    4.000    2.571 
#    0.000    0.000    0.000    1.286    0.000    0.000 
#    0.000    0.000    0.000    0.000    0.000    0.000 
#
# Total GULP energy -156322.636023 kJ/mol
# GULP energy per Si atom -5582.951287 kJ/mol
# Density = 1.915801 g / cm^3
# Si number density = 19.201710 Si / 1000 Ang^3
#
#
#
# Elastic Constant Matrix: (Units=GPa)
#
#
# Indices 1 2 3 4 5 6 
#
# 1 81.5715 34.1083 -0.1384 0.0000 -4.8329 0.0000
# 2 34.1083 71.0964 23.7956 0.0000 -12.8274 0.0000
# 3 -0.1384 23.7956 62.6817 0.0000 -18.3548 0.0000
# 4 0.0000 0.0000 0.0000 21.0443 0.0000 -2.3342
# 5 -4.8329 -12.8274 -18.3548 0.0000 23.7736 0.0000
# 6 0.0000 0.0000 0.0000 -2.3342 0.0000 25.4165
#
#
#
# Elastic Compliance Matrix: (Units=1/GPa)
#
#
# Indices 1 2 3 4 5 6 
#
# 1 0.015970 -0.008651 0.003751 0.000000 0.001475 0.000000
# 2 -0.008651 0.021299 -0.006789 0.000000 0.004491 0.000000
# 3 0.003751 -0.006789 0.022858 0.000000 0.014747 0.000000
# 4 0.000000 0.000000 0.000000 0.048008 0.000000 0.004409
# 5 0.001475 0.004491 0.014747 0.000000 0.056172 0.000000
# 6 0.000000 0.000000 0.000000 0.004409 0.000000 0.039749
#
#
# Mechanical properties :
#
#
# Convention : Reuss Voigt Hill
#
# Bulk Modulus (GPa) = 27.21230 36.76453 31.98841
# Shear Modulus (GPa) = 20.86084 24.55248 22.70666
#
# Velocity S-wave (km/s) = 3.29964 3.57972 3.44253
# Velocity P-wave (km/s) = 5.35905 6.02278 5.70058
#
# Compressibility (1/GPa) = 0.03674809
#
# Stress axis : x y z
#
# Youngs Moduli (GPa) = 62.61609 46.95157 43.74919
#
# Poissons Ratio (x) = 0.40619 -0.16412
# Poissons Ratio (y) = 0.54170 0.29703
# Poissons Ratio (z) = -0.23490 0.31877
#
# Static dielectric constant tensor:
#      x y z
#    x 1.677510 0.000000 0.014990 
#    y 0.000000 1.641150 0.000000 
#    z 0.014990 0.000000 1.668140 
# 
# From -- ./inp_files/237333.got.cif
#   From: 2010.05.17/outbox.cif.g08.bks.cpg/sg12_119_cif.got.tgz:237333.got - 2010.06.03 13:09:07.
