data_PCOD9192611
_publ_section_title
;
Structure prediction by ZEFSAII (Michael W. Deem and Ramdas Pophale) SiO2 
 PCOD9192611
Probable space group: C 2/M
;
_chemical_formula_sum "Si O2"
_cell_formula_units_Z 36
_cell_length_a 5.094913
_cell_length_b 30.009195
_cell_length_c 11.218871
_cell_angle_alpha 90.000000
_cell_angle_beta 99.121978
_cell_angle_gamma 90.000000
_cell_volume 1693.607435
_symmetry_space_group_name_H-M "C 2/M"
_symmetry_group_IT_number 12
_symmetry_cell_setting 'monoclinic'
loop_
_space_group_symop_operation_xyz
x,y,z
-x,y,-z
-x,-y,-z
x,-y,z
1/2+x,1/2+y,z
1/2-x,1/2+y,-z
1/2-x,1/2-y,-z
1/2+x,1/2-y,z
loop_
_atom_site_type_symbol
_atom_site_label
_atom_site_fract_x
_atom_site_fract_y
_atom_site_fract_z
Si Si1 0.227466 0.130793 0.734344
Si Si2 0.276212 0.500000 0.589199
Si Si3 0.280568 0.450878 0.086437
Si Si4 0.970223 0.778667 0.356968
Si Si5 0.300948 0.096240 0.373861
O O1 0.192525 0.094351 0.835736
O O2 0.155796 0.182822 0.734639
O O3 0.526033 0.122822 0.709915
O O4 0.989231 0.115916 0.628594
O O5 0.500000 0.500000 0.500000
O O6 0.261498 0.545063 0.663118
O O7 0.000000 0.500000 0.500000
O O8 0.290798 0.500000 0.151364
O O9 0.500000 0.451075 0.000000
O O10 0.000000 0.449208 0.000000
O O11 0.761485 0.737784 0.340677
O O12 0.000000 0.791816 0.500000
O O13 0.500000 0.096611 0.500000
#
# Coordination Sequence:
#
# PCOD9192611 Si02
#       5
#     8   4   8   8   8
#     4  12  23  37  65  89 116 164 216 250 303 373
#     4  10  20  34  46  70 118 164 188 224 284 346
#     4  10  23  43  64  87 119 158 209 267 315 362
#     4  10  21  38  60  88 125 162 199 248 303 368
#     4  11  22  34  53  85 126 159 195 242 290 367
#
# _framework density 21.256402000000001
#
# number of rings (size 3 to 8) (size 9 to 14) (size 15 to 20)
#    0.000    1.333    0.000    7.333    3.111    1.778 
#    0.000    0.000    0.000    4.000    0.000    0.000 
#    0.000    0.000    0.000    0.000    0.000    0.000 
#
# Total GULP energy -100354.410859 kJ/mol
# GULP energy per Si atom -5575.245048 kJ/mol
# Density = 2.120802 g / cm^3
# Si number density = 21.256402 Si / 1000 Ang^3
#
#
#
# Elastic Constant Matrix: (Units=GPa)
#
#
# Indices 1 2 3 4 5 6 
#
# 1 118.8203 6.4750 13.9067 0.0000 16.9345 0.0000
# 2 6.4750 114.9431 31.9515 0.0000 -0.3115 0.0000
# 3 13.9067 31.9515 46.1033 0.0000 4.7286 0.0000
# 4 0.0000 0.0000 0.0000 37.1477 0.0000 13.9179
# 5 16.9345 -0.3115 4.7286 0.0000 23.1288 0.0000
# 6 0.0000 0.0000 0.0000 13.9179 0.0000 25.7118
#
#
#
# Elastic Compliance Matrix: (Units=1/GPa)
#
#
# Indices 1 2 3 4 5 6 
#
# 1 0.009615 0.000074 -0.002277 0.000000 -0.006574 0.000000
# 2 0.000074 0.010843 -0.007708 0.000000 0.001668 0.000000
# 3 -0.002277 -0.007708 0.028149 0.000000 -0.004192 0.000000
# 4 0.000000 0.000000 0.000000 0.033768 0.000000 -0.018279
# 5 -0.006574 0.001668 -0.004192 0.000000 0.048929 0.000000
# 6 0.000000 0.000000 0.000000 -0.018279 0.000000 0.048787
#
#
# Mechanical properties :
#
#
# Convention : Reuss Voigt Hill
#
# Bulk Modulus (GPa) = 34.74090 42.72590 38.73340
# Shear Modulus (GPa) = 23.86535 32.36657 28.11596
#
# Velocity S-wave (km/s) = 3.35436 3.90638 3.64085
# Velocity P-wave (km/s) = 5.60192 6.36320 5.99466
#
# Compressibility (1/GPa) = 0.02878452
#
# Stress axis : x y z
#
# Youngs Moduli (GPa) = 103.99904 92.22590 35.52513
#
# Poissons Ratio (x) = -0.00678 0.08090
# Poissons Ratio (y) = -0.00765 0.27382
# Poissons Ratio (z) = 0.23682 0.71087
#
# Static dielectric constant tensor:
#      x y z
#    x 1.793700 0.000000 0.090170 
#    y 0.000000 1.882060 0.000000 
#    z 0.090170 0.000000 1.884750 
# 
# From -- ./inp_files/115309.got.cif
#   From: 2010.05.17/outbox.cif.g08.bks.cpg/sg12_58_cif.got.tgz:115309.got - 2010.06.03 13:09:07.
