data_PCOD9192175
_publ_section_title
;
Structure prediction by ZEFSAII (Michael W. Deem and Ramdas Pophale) SiO2 
 PCOD9192175
Probable space group: C 2/M
;
_chemical_formula_sum "Si O2"
_cell_formula_units_Z 56
_cell_length_a 20.224665
_cell_length_b 7.377668
_cell_length_c 28.738435
_cell_angle_alpha 90.000000
_cell_angle_beta 30.975832
_cell_angle_gamma 90.000000
_cell_volume 2206.977315
_symmetry_space_group_name_H-M "C 2/M"
_symmetry_group_IT_number 12
_symmetry_cell_setting 'monoclinic'
loop_
_space_group_symop_operation_xyz
x,y,z
-x,y,-z
-x,-y,-z
x,-y,z
1/2+x,1/2+y,z
1/2-x,1/2+y,-z
1/2-x,1/2-y,-z
1/2+x,1/2-y,z
loop_
_atom_site_type_symbol
_atom_site_label
_atom_site_fract_x
_atom_site_fract_y
_atom_site_fract_z
Si Si1 0.139167 0.212328 0.916092
Si Si2 0.214530 0.719407 0.453673
Si Si3 0.096050 0.716389 0.097287
Si Si4 0.961533 0.704003 0.364592
Si Si5 0.838629 0.719289 0.202759
Si Si6 0.618003 0.777375 0.185401
Si Si7 0.863058 0.210127 0.599535
O O1 0.189463 0.227985 0.833230
O O2 0.234954 0.281359 0.897477
O O3 0.126342 0.000000 0.934659
O O4 0.000000 0.298372 0.000000
O O5 0.220232 0.500000 0.452943
O O6 0.082679 0.779951 0.559148
O O7 0.330202 0.799379 0.413728
O O8 0.219911 0.779474 0.397622
O O9 0.085309 0.500000 0.102784
O O10 0.061724 0.780653 0.170390
O O11 0.982573 0.782777 0.131397
O O12 0.250000 0.750000 0.000000
O O13 0.007754 0.500000 0.345582
O O14 0.054148 0.792072 0.271274
O O15 0.838645 0.500000 0.205121
O O16 0.725646 0.784592 0.305550
O O17 0.610045 0.000000 0.191197
O O18 0.000000 0.291870 0.500000
O O19 0.888254 0.000000 0.595884
#
# Coordination Sequence:
#
# PCOD9192175 Si02
#       7
#     8   8   8   8   8   8   8
#     4  10  21  37  59  86 115 149 189 233 284 341
#     4  10  20  33  53  82 111 140 181 232 280 325
#     4  10  20  36  59  83 110 144 186 233 281 339
#     4   9  18  34  55  77 106 145 182 222 276 336
#     4  10  22  39  59  85 116 154 192 232 290 345
#     4   9  18  34  57  80 105 143 187 225 272 332
#     4  10  22  39  58  79 110 154 196 231 279 344
#
# _framework density 25.374072000000002
#
# number of rings (size 3 to 8) (size 9 to 14) (size 15 to 20)
#    0.000    2.286    0.000    2.143    2.000    5.714 
#    0.000    3.571    0.000    0.000    0.000    0.000 
#    0.000    0.000    0.000    0.000    0.000    0.000 
#
# Total GULP energy -156370.742594 kJ/mol
# GULP energy per Si atom -5584.669378 kJ/mol
# Density = 2.531632 g / cm^3
# Si number density = 25.374072 Si / 1000 Ang^3
#
#
#
# Elastic Constant Matrix: (Units=GPa)
#
#
# Indices 1 2 3 4 5 6 
#
# 1 83.4101 -12.1417 -7.5009 -0.0039 -5.2765 0.0184
# 2 -12.1417 108.2717 -7.6504 -0.0067 -9.1114 0.0234
# 3 -7.5009 -7.6504 83.2689 0.0020 -1.8569 0.0055
# 4 -0.0039 -0.0067 0.0020 7.9881 -0.0009 1.3649
# 5 -5.2765 -9.1114 -1.8569 -0.0009 37.6063 0.0006
# 6 0.0184 0.0234 0.0055 1.3649 0.0006 3.6984
#
#
#
# Elastic Compliance Matrix: (Units=1/GPa)
#
#
# Indices 1 2 3 4 5 6 
#
# 1 0.012494 0.001682 0.001330 0.000022 0.002226 -0.000083
# 2 0.001682 0.009725 0.001104 0.000023 0.002647 -0.000080
# 3 0.001330 0.001104 0.012254 0.000004 0.001059 -0.000034
# 4 0.000022 0.000023 0.000004 0.133611 0.000013 -0.049309
# 5 0.002226 0.002647 0.001059 0.000013 0.027597 -0.000039
# 6 -0.000083 -0.000080 -0.000034 -0.049309 -0.000039 0.288588
#
#
# Mechanical properties :
#
#
# Convention : Reuss Voigt Hill
#
# Bulk Modulus (GPa) = 23.41563 24.48497 23.95030
# Shear Modulus (GPa) = 10.19840 30.00813 20.10327
#
# Velocity S-wave (km/s) = 2.00697 3.44267 2.81779
# Velocity P-wave (km/s) = 3.82345 5.04710 4.47727
#
# Compressibility (1/GPa) = 0.04270652
#
# Stress axis : x y z
#
# Youngs Moduli (GPa) = 80.03651 102.82273 81.60507
#
# Poissons Ratio (x) = -0.17299 -0.10851
# Poissons Ratio (y) = -0.13466 -0.09010
# Poissons Ratio (z) = -0.10643 -0.11353
#
# Static dielectric constant tensor:
#      x y z
#    x 1.932500 -0.000010 -0.025270 
#    y -0.000010 1.983100 0.000000 
#    z -0.025270 0.000000 2.110280 
# 
# From -- ./inp_files/380585.got.cif
#   From: 2010.05.17/outbox.cif.g08.bks.cpg/sg12_191_cif.got.tgz:380585.got - 2010.06.03 13:09:07.
