data_PCOD9192833
_publ_section_title
;
Structure prediction by ZEFSAII (Michael W. Deem and Ramdas Pophale) SiO2 
 PCOD9192833
Probable space group: C 2/M
;
_chemical_formula_sum "Si O2"
_cell_formula_units_Z 48
_cell_length_a 27.651769
_cell_length_b 8.466557
_cell_length_c 12.314216
_cell_angle_alpha 90.000000
_cell_angle_beta 73.973938
_cell_angle_gamma 90.000000
_cell_volume 2770.903918
_symmetry_space_group_name_H-M "C 2/M"
_symmetry_group_IT_number 12
_symmetry_cell_setting 'monoclinic'
loop_
_space_group_symop_operation_xyz
x,y,z
-x,y,-z
-x,-y,-z
x,-y,z
1/2+x,1/2+y,z
1/2-x,1/2+y,-z
1/2-x,1/2-y,-z
1/2+x,1/2-y,z
loop_
_atom_site_type_symbol
_atom_site_label
_atom_site_fract_x
_atom_site_fract_y
_atom_site_fract_z
Si Si1 0.678625 0.810376 0.775405
Si Si2 0.716534 0.314515 0.380926
Si Si3 0.864883 0.810541 0.403467
Si Si4 0.806203 0.810304 0.993772
Si Si5 0.868228 0.185025 0.751043
Si Si6 0.557721 0.812125 0.468307
O O1 0.730648 0.746087 0.689646
O O2 0.636000 0.759202 0.716587
O O3 0.677104 0.743577 0.897383
O O4 0.680954 0.000000 0.780862
O O5 0.724943 0.500000 0.399688
O O6 0.684813 0.246825 0.500949
O O7 0.678908 0.306097 0.302336
O O8 0.911274 0.764997 0.451904
O O9 0.862053 0.000000 0.400197
O O10 0.804518 0.000000 0.988817
O O11 0.750000 0.750000 0.000000
O O12 0.846569 0.754695 0.878478
O O13 0.913324 0.271369 0.661403
O O14 0.881744 0.000000 0.753342
O O15 0.500000 0.758226 0.500000
O O16 0.558672 0.000000 0.483604
#
# Coordination Sequence:
#
# PCOD9192833 Si02
#       6
#     8   8   8   8   8   8
#     4  11  20  32  49  73 108 146 180 215 258 306
#     4   8  15  29  47  70 102 137 173 212 250 299
#     4  10  20  34  51  75 105 138 177 216 262 316
#     4  11  21  34  51  75 108 147 186 219 253 303
#     4   9  18  34  53  76 106 139 180 219 255 308
#     4  10  21  37  58  83 106 130 168 220 275 323
#
# _framework density 17.322866999999999
#
# number of rings (size 3 to 8) (size 9 to 14) (size 15 to 20)
#    0.000    2.167    1.667    3.500    0.000    2.667 
#    0.000    1.667    0.000    1.000    0.000    7.000 
#    0.000    0.000    0.000    0.000    0.000    0.000 
#
# Total GULP energy -133822.833585 kJ/mol
# GULP energy per Si atom -5575.951399 kJ/mol
# Density = 1.728344 g / cm^3
# Si number density = 17.322867 Si / 1000 Ang^3
#
#
#
# Elastic Constant Matrix: (Units=GPa)
#
#
# Indices 1 2 3 4 5 6 
#
# 1 74.3009 16.1533 53.7363 0.0000 -11.4630 0.0000
# 2 16.1533 38.1217 24.8993 0.0000 -0.5987 0.0000
# 3 53.7363 24.8993 144.1215 0.0000 9.4487 0.0000
# 4 0.0000 0.0000 0.0000 27.5914 0.0000 2.4475
# 5 -11.4630 -0.5987 9.4487 0.0000 12.9906 0.0000
# 6 0.0000 0.0000 0.0000 2.4475 0.0000 21.3908
#
#
#
# Elastic Compliance Matrix: (Units=1/GPa)
#
#
# Indices 1 2 3 4 5 6 
#
# 1 0.028096 -0.003503 -0.012060 0.000000 0.033403 0.000000
# 2 -0.003503 0.030361 -0.004020 0.000000 0.001232 0.000000
# 3 -0.012060 -0.004020 0.013483 0.000000 -0.020634 0.000000
# 4 0.000000 0.000000 0.000000 0.036615 0.000000 -0.004189
# 5 0.033403 0.001232 -0.020634 0.000000 0.121519 0.000000
# 6 0.000000 0.000000 0.000000 -0.004189 0.000000 0.047228
#
#
# Mechanical properties :
#
#
# Convention : Reuss Voigt Hill
#
# Bulk Modulus (GPa) = 30.51316 49.56908 40.04112
# Shear Modulus (GPa) = 15.27213 23.17824 19.22518
#
# Velocity S-wave (km/s) = 2.97242 3.66186 3.33500
# Velocity P-wave (km/s) = 5.42522 6.82319 6.16396
#
# Compressibility (1/GPa) = 0.03277275
#
# Stress axis : x y z
#
# Youngs Moduli (GPa) = 35.59202 32.93677 74.16930
#
# Poissons Ratio (x) = 0.11539 0.89451
# Poissons Ratio (y) = 0.12469 0.29816
# Poissons Ratio (z) = 0.42926 0.13240
#
# Static dielectric constant tensor:
#      x y z
#    x 1.583130 0.000000 -0.006330 
#    y 0.000000 1.596930 0.000000 
#    z -0.006330 0.000000 1.610390 
# 
# From -- ./inp_files/172270.got.cif
#   From: 2010.05.17/outbox.cif.g08.bks.cpg/sg12_87_cif.got.tgz:172270.got - 2010.06.03 13:09:07.
