data_PCOD9192604
_publ_section_title
;
Structure prediction by ZEFSAII (Michael W. Deem and Ramdas Pophale) SiO2 
 PCOD9192604
Probable space group: C 2/M
;
_chemical_formula_sum "Si O2"
_cell_formula_units_Z 64
_cell_length_a 23.255864
_cell_length_b 18.728599
_cell_length_c 9.340193
_cell_angle_alpha 90.000000
_cell_angle_beta 103.925735
_cell_angle_gamma 90.000000
_cell_volume 3948.550556
_symmetry_space_group_name_H-M "C 2/M"
_symmetry_group_IT_number 12
_symmetry_cell_setting 'monoclinic'
loop_
_space_group_symop_operation_xyz
x,y,z
-x,y,-z
-x,-y,-z
x,-y,z
1/2+x,1/2+y,z
1/2-x,1/2+y,-z
1/2-x,1/2-y,-z
1/2+x,1/2-y,z
loop_
_atom_site_type_symbol
_atom_site_label
_atom_site_fract_x
_atom_site_fract_y
_atom_site_fract_z
Si Si1 0.625649 0.170194 0.221559
Si Si2 0.793835 0.791239 0.213407
Si Si3 0.716750 0.916568 0.099568
Si Si4 0.741459 0.584328 0.197683
Si Si5 0.169307 0.209259 0.074259
Si Si6 0.329020 0.173116 0.439978
Si Si7 0.987933 0.419000 0.825339
Si Si8 0.563857 0.082133 0.615857
O O1 0.657139 0.115567 0.130651
O O2 0.622782 0.245239 0.136765
O O3 0.666443 0.177182 0.386764
O O4 0.563695 0.137212 0.233120
O O5 0.770647 0.872254 0.203470
O O6 0.732567 0.748540 0.143568
O O7 0.820461 0.751165 0.365120
O O8 0.836135 0.785444 0.100035
O O9 0.720567 0.000000 0.129951
O O10 0.722211 0.905488 0.930927
O O11 0.733991 0.500000 0.215162
O O12 0.681301 0.628745 0.132768
O O13 0.777049 0.622312 0.347042
O O14 0.388624 0.136241 0.416512
O O15 0.968785 0.500000 0.772334
O O16 0.047094 0.404512 0.770897
O O17 0.000000 0.418390 0.000000
O O18 0.500000 0.087631 0.500000
O O19 0.585176 0.000000 0.612988
#
# Coordination Sequence:
#
# PCOD9192604 Si02
#       8
#     8   8   8   8   8   8   8   8
#     4  11  20  30  44  65  91 118 148 182 221 257
#     4   8  16  30  45  63  85 115 148 177 216 263
#     4   9  18  31  47  65  89 117 148 184 216 257
#     4   9  18  31  47  66  87 117 151 179 217 265
#     4   8  16  30  45  62  87 114 145 183 215 256
#     4  11  20  29  45  65  89 121 150 178 219 261
#     4  10  22  34  45  63  86 115 152 188 217 249
#     4  10  20  34  45  59  88 119 148 183 217 252
#
# _framework density 16.208480000000002
#
# number of rings (size 3 to 8) (size 9 to 14) (size 15 to 20)
#    0.000    2.500    1.250    3.000    3.500    6.000 
#    0.000    0.000    0.000    0.000    0.000    0.000 
#    0.000    2.000    0.000    0.125    0.000    0.000 
#
# Total GULP energy -178314.152972 kJ/mol
# GULP energy per Si atom -5572.317280 kJ/mol
# Density = 1.617159 g / cm^3
# Si number density = 16.208480 Si / 1000 Ang^3
#
#
#
# Elastic Constant Matrix: (Units=GPa)
#
#
# Indices 1 2 3 4 5 6 
#
# 1 17.1648 1.0104 -6.7283 0.0000 -6.5085 0.0000
# 2 1.0104 64.5569 7.0369 0.0000 0.4589 0.0000
# 3 -6.7283 7.0369 49.1405 0.0000 -3.1852 0.0000
# 4 0.0000 0.0000 0.0000 16.8326 0.0000 2.0674
# 5 -6.5085 0.4589 -3.1852 0.0000 17.7630 0.0000
# 6 0.0000 0.0000 0.0000 2.0674 0.0000 14.0894
#
#
#
# Elastic Compliance Matrix: (Units=1/GPa)
#
#
# Indices 1 2 3 4 5 6 
#
# 1 0.074568 -0.002743 0.012524 0.000000 0.029639 0.000000
# 2 -0.002743 0.015849 -0.002769 0.000000 -0.001911 0.000000
# 3 0.012524 -0.002769 0.023031 0.000000 0.008790 0.000000
# 4 0.000000 0.000000 0.000000 0.060499 0.000000 -0.008877
# 5 0.029639 -0.001911 0.008790 0.000000 0.068782 0.000000
# 6 0.000000 0.000000 0.000000 -0.008877 0.000000 0.072278
#
#
# Mechanical properties :
#
#
# Convention : Reuss Voigt Hill
#
# Bulk Modulus (GPa) = 7.84494 14.83336 11.33915
# Shear Modulus (GPa) = 14.55720 18.37322 16.46521
#
# Velocity S-wave (km/s) = 3.00012 3.37048 3.19068
# Velocity P-wave (km/s) = 4.10506 4.93137 4.53706
#
# Compressibility (1/GPa) = 0.12747077
#
# Stress axis : x y z
#
# Youngs Moduli (GPa) = 13.41063 63.09732 43.42010
#
# Poissons Ratio (x) = 0.17307 -0.54378
# Poissons Ratio (y) = 0.03678 0.12023
# Poissons Ratio (z) = -0.16795 0.17471
#
# Static dielectric constant tensor:
#      x y z
#    x 1.541700 0.000000 -0.009360 
#    y 0.000000 1.571870 0.000000 
#    z -0.009360 0.000000 1.592280 
# 
# From -- ./inp_files/97785.got.cif
#   From: 2010.05.17/outbox.cif.g08.bks.cpg/sg12_49_cif.got.tgz:97785.got - 2010.06.03 13:09:07.
