data_PCOD9192023
_publ_section_title
;
Structure prediction by ZEFSAII (Michael W. Deem and Ramdas Pophale) SiO2 
 PCOD9192023
Probable space group: C 2/M
;
_chemical_formula_sum "Si O2"
_cell_formula_units_Z 56
_cell_length_a 26.163304
_cell_length_b 7.681563
_cell_length_c 15.716753
_cell_angle_alpha 90.000000
_cell_angle_beta 46.649808
_cell_angle_gamma 90.000000
_cell_volume 2296.899406
_symmetry_space_group_name_H-M "C 2/M"
_symmetry_group_IT_number 12
_symmetry_cell_setting 'monoclinic'
loop_
_space_group_symop_operation_xyz
x,y,z
-x,y,-z
-x,-y,-z
x,-y,z
1/2+x,1/2+y,z
1/2-x,1/2+y,-z
1/2-x,1/2-y,-z
1/2+x,1/2-y,z
loop_
_atom_site_type_symbol
_atom_site_label
_atom_site_fract_x
_atom_site_fract_y
_atom_site_fract_z
Si Si1 0.432344 0.292347 0.275830
Si Si2 0.923327 0.706114 0.622291
Si Si3 0.152067 0.288823 0.454903
Si Si4 0.668944 0.299675 0.139469
Si Si5 0.195645 0.698390 0.923120
Si Si6 0.208648 0.791751 0.634691
Si Si7 0.448755 0.794865 0.983076
O O1 0.436868 0.500000 0.264021
O O2 0.399317 0.254911 0.406933
O O3 0.369906 0.223271 0.284304
O O4 0.505606 0.222717 0.156091
O O5 0.911091 0.500000 0.647530
O O6 0.877126 0.779490 0.599130
O O7 0.905678 0.793073 0.730623
O O8 0.000000 0.728806 0.500000
O O9 0.153046 0.500000 0.452239
O O10 0.232914 0.227047 0.367456
O O11 0.688040 0.500000 0.099845
O O12 0.667377 0.201177 0.052824
O O13 0.726355 0.227620 0.142952
O O14 0.205755 0.500000 0.882831
O O15 0.131130 0.776799 0.940768
O O16 0.250000 0.750000 0.500000
O O17 0.202880 0.000000 0.649479
O O18 0.439742 0.000000 0.010424
O O19 0.500000 0.722797 0.000000
#
# Coordination Sequence:
#
# PCOD9192023 Si02
#       7
#     8   8   8   8   8   8   8
#     4  10  20  33  52  80 112 142 177 229 283 327
#     4  10  22  37  54  81 116 151 187 228 278 336
#     4   9  18  34  54  75 104 150 194 221 265 334
#     4  10  21  38  61  88 114 147 191 240 288 333
#     4   9  20  40  63  84 112 150 193 236 283 341
#     4   8  15  29  48  71 100 135 177 217 256 312
#     4  10  22  39  58  81 109 145 187 228 277 340
#
# _framework density 24.380693000000001
#
# number of rings (size 3 to 8) (size 9 to 14) (size 15 to 20)
#    0.000    2.571    0.000    0.857    2.000    4.000 
#    0.000    0.000    0.000    0.000    0.000    0.000 
#    0.000    0.000    0.000    0.000    0.000    0.000 
#
# Total GULP energy -156119.132541 kJ/mol
# GULP energy per Si atom -5575.683305 kJ/mol
# Density = 2.432520 g / cm^3
# Si number density = 24.380693 Si / 1000 Ang^3
#
#
#
# Elastic Constant Matrix: (Units=GPa)
#
#
# Indices 1 2 3 4 5 6 
#
# 1 60.4566 44.3541 -48.2898 0.0004 12.7352 -0.0003
# 2 44.3541 -78.3824 153.5369 -0.0311 -61.9699 0.0097
# 3 -48.2898 153.5369 -78.1456 -0.0095 65.6293 0.0015
# 4 0.0004 -0.0311 -0.0095 -4.8619 -0.0014 9.6243
# 5 12.7352 -61.9699 65.6293 -0.0014 2.2783 0.0011
# 6 -0.0003 0.0097 0.0015 9.6243 0.0011 5.6553
#
#
#
# Elastic Compliance Matrix: (Units=1/GPa)
#
#
# Indices 1 2 3 4 5 6 
#
# 1 0.013411 0.001669 -0.001185 -0.000003 0.004553 0.000003
# 2 0.001669 0.007098 0.006638 -0.000018 -0.007474 0.000019
# 3 -0.001185 0.006638 0.006279 -0.000019 0.006312 0.000019
# 4 -0.000003 -0.000018 -0.000019 -0.047079 0.000009 0.080120
# 5 0.004553 -0.007474 0.006312 0.000009 0.028351 -0.000009
# 6 0.000003 0.000019 0.000019 0.080120 -0.000009 0.040474
#
#
# Mechanical properties :
#
#
# Convention : Reuss Voigt Hill
#
# Bulk Modulus (GPa) = 24.37069 22.57010 23.47040
# Shear Modulus (GPa) = 104.23671 -15.76385 44.23643
#
# Velocity S-wave (km/s) = 6.54573 -2.54553 4.26420
# Velocity P-wave (km/s) = 8.19429 0.79863 5.82169
#
# Compressibility (1/GPa) = 0.04103289
#
# Stress axis : x y z
#
# Youngs Moduli (GPa) = 74.56505 140.87981 159.26901
#
# Poissons Ratio (x) = -0.23512 0.18867
# Poissons Ratio (y) = -0.12444 -1.05724
# Poissons Ratio (z) = 0.08833 -0.93517
#
# Static dielectric constant tensor:
#      x y z
#    x 2.059680 0.000000 -0.063140 
#    y 0.000000 1.934240 0.000000 
#    z -0.063140 0.000000 1.981050 
# 
# From -- ./inp_files/292450.got.cif
#   From: 2010.05.17/outbox.cif.g08.bks.cpg/sg12_147_cif.got.tgz:292450.got - 2010.06.03 13:09:07.
