data_PCOD9192541
_publ_section_title
;
Structure prediction by ZEFSAII (Michael W. Deem and Ramdas Pophale) SiO2 
 PCOD9192541
Probable space group: C 2/M
;
_chemical_formula_sum "Si O2"
_cell_formula_units_Z 48
_cell_length_a 13.948510
_cell_length_b 17.914749
_cell_length_c 13.685475
_cell_angle_alpha 90.000000
_cell_angle_beta 139.441311
_cell_angle_gamma 90.000000
_cell_volume 2223.633232
_symmetry_space_group_name_H-M "C 2/M"
_symmetry_group_IT_number 12
_symmetry_cell_setting 'monoclinic'
loop_
_space_group_symop_operation_xyz
x,y,z
-x,y,-z
-x,-y,-z
x,-y,z
1/2+x,1/2+y,z
1/2-x,1/2+y,-z
1/2-x,1/2-y,-z
1/2+x,1/2-y,z
loop_
_atom_site_type_symbol
_atom_site_label
_atom_site_fract_x
_atom_site_fract_y
_atom_site_fract_z
Si Si1 0.360752 0.087952 0.953137
Si Si2 0.727470 0.413297 0.421488
Si Si3 0.609424 0.285940 0.208127
Si Si4 0.997465 0.352602 0.745345
Si Si5 0.459926 0.590363 0.361045
Si Si6 0.785947 0.211733 0.921340
O O1 0.198237 0.117017 0.801107
O O2 0.352453 0.000000 0.928244
O O3 0.500000 0.116558 0.000000
O O4 0.411211 0.103164 0.101608
O O5 0.714470 0.500000 0.380363
O O6 0.715920 0.350354 0.330037
O O7 0.875734 0.401432 0.597990
O O8 0.590904 0.394274 0.387708
O O9 0.583106 0.217420 0.263003
O O10 0.667937 0.256150 0.149372
O O11 0.446327 0.323821 0.070049
O O12 0.129850 0.326326 0.778774
O O13 0.500000 0.619199 0.500000
O O14 0.452420 0.500000 0.362471
O O15 0.750000 0.250000 0.000000
#
# Coordination Sequence:
#
# PCOD9192541 Si02
#       6
#     8   8   8   8   8   8
#     4  10  20  33  57  91 126 164 208 260 321 379
#     4  11  23  41  61  90 132 171 212 266 322 383
#     4  10  22  43  65  92 124 168 212 264 323 387
#     4  11  22  38  64  93 127 164 214 263 319 380
#     4   9  18  35  55  84 129 174 212 255 316 385
#     4   9  21  41  66  93 122 158 215 265 323 384
#
# _framework density 21.586293999999999
#
# number of rings (size 3 to 8) (size 9 to 14) (size 15 to 20)
#    0.000    2.000    0.000    3.000    4.667    3.333 
#    6.000    5.000    0.000    0.000    0.000    0.000 
#    0.000    0.000    0.000    0.000    0.000    0.000 
#
# Total GULP energy -133693.849780 kJ/mol
# GULP energy per Si atom -5570.577074 kJ/mol
# Density = 2.153716 g / cm^3
# Si number density = 21.586294 Si / 1000 Ang^3
#
#
#
# Elastic Constant Matrix: (Units=GPa)
#
#
# Indices 1 2 3 4 5 6 
#
# 1 122.9377 24.3131 40.7423 0.0000 14.6966 0.0000
# 2 24.3131 12.4140 18.4442 0.0000 0.4874 0.0000
# 3 40.7423 18.4442 134.2322 0.0000 20.4033 0.0000
# 4 0.0000 0.0000 0.0000 -42.0132 0.0000 23.6649
# 5 14.6966 0.4874 20.4033 0.0000 36.4165 0.0000
# 6 0.0000 0.0000 0.0000 23.6649 0.0000 16.9229
#
#
#
# Elastic Compliance Matrix: (Units=1/GPa)
#
#
# Indices 1 2 3 4 5 6 
#
# 1 0.014276 -0.028359 0.000417 0.000000 -0.005615 0.000000
# 2 -0.028359 0.159230 -0.016054 0.000000 0.018308 0.000000
# 3 0.000417 -0.016054 0.010408 0.000000 -0.005785 0.000000
# 4 0.000000 0.000000 0.000000 -0.013314 0.000000 0.018619
# 5 -0.005615 0.018308 -0.005785 0.000000 0.032722 0.000000
# 6 0.000000 0.000000 0.000000 0.018619 0.000000 0.033055
#
#
# Mechanical properties :
#
#
# Convention : Reuss Voigt Hill
#
# Bulk Modulus (GPa) = 10.42512 48.50920 29.46716
# Shear Modulus (GPa) = 14.03146 14.67085 14.35116
#
# Velocity S-wave (km/s) = 2.55231 2.60981 2.58122
# Velocity P-wave (km/s) = 3.67773 5.62161 4.75017
#
# Compressibility (1/GPa) = 0.09592211
#
# Stress axis : x y z
#
# Youngs Moduli (GPa) = 70.04938 6.28024 96.07594
#
# Poissons Ratio (x) = 0.17810 -0.04008
# Poissons Ratio (y) = 1.98650 1.54244
# Poissons Ratio (z) = -0.02922 0.10083
#
# Static dielectric constant tensor:
#      x y z
#    x 1.841660 0.000000 -0.009400 
#    y 0.000000 1.845150 0.000000 
#    z -0.009400 0.000000 1.804090 
# 
# From -- ./inp_files/216518.got.cif
#   From: 2010.05.17/outbox.cif.g08.bks.cpg/sg12_109_cif.got.tgz:216518.got - 2010.06.03 13:09:07.
