data_PCOD9192444
_publ_section_title
;
Structure prediction by ZEFSAII (Michael W. Deem and Ramdas Pophale) SiO2 
 PCOD9192444
Probable space group: C 2/M
;
_chemical_formula_sum "Si O2"
_cell_formula_units_Z 52
_cell_length_a 14.684947
_cell_length_b 23.898282
_cell_length_c 8.615256
_cell_angle_alpha 90.000000
_cell_angle_beta 75.897522
_cell_angle_gamma 90.000000
_cell_volume 2932.357807
_symmetry_space_group_name_H-M "C 2/M"
_symmetry_group_IT_number 12
_symmetry_cell_setting 'monoclinic'
loop_
_space_group_symop_operation_xyz
x,y,z
-x,y,-z
-x,-y,-z
x,-y,z
1/2+x,1/2+y,z
1/2-x,1/2+y,-z
1/2-x,1/2-y,-z
1/2+x,1/2-y,z
loop_
_atom_site_type_symbol
_atom_site_label
_atom_site_fract_x
_atom_site_fract_y
_atom_site_fract_z
Si Si1 0.712394 0.657775 0.415739
Si Si2 0.363390 0.062567 0.325340
Si Si3 0.500000 0.343125 0.500000
Si Si4 0.519360 0.286785 0.831065
Si Si5 0.599722 0.821531 0.169051
Si Si6 0.000000 0.592291 0.000000
Si Si7 0.500000 0.121435 0.500000
Si Si8 0.762354 0.777583 0.274347
O O1 0.785535 0.610653 0.332191
O O2 0.606706 0.632767 0.456965
O O3 0.715912 0.716616 0.320175
O O4 0.743297 0.681634 0.572607
O O5 0.438934 0.061584 0.154576
O O6 0.422662 0.083037 0.449455
O O7 0.324592 0.000000 0.362195
O O8 0.503028 0.312382 0.666947
O O9 0.451726 0.233884 0.865371
O O10 0.627680 0.268742 0.791926
O O11 0.500000 0.320471 0.000000
O O12 0.549619 0.840053 0.350598
O O13 0.707451 0.808089 0.159402
O O14 0.575438 0.869437 0.058372
#
# Coordination Sequence:
#
# PCOD9192444 Si02
#       8
#     8   8   4   8   8   4   4   8
#     4  10  20  35  57  85 107 152 187 236 290 334
#     4  11  22  39  57  80 111 149 194 235 282 340
#     4  10  21  38  55  77 119 148 194 240 280 332
#     4  11  22  33  50  83 117 159 186 221 279 350
#     4  11  19  34  51  81 115 144 183 227 274 348
#     4  10  23  34  54  84 120 146 183 234 290 332
#     4  10  20  34  56  79 103 146 184 232 284 332
#     4  10  20  33  56  81 116 147 185 230 286 345
#
# _framework density 17.733170999999999
#
# number of rings (size 3 to 8) (size 9 to 14) (size 15 to 20)
#    0.000    1.538    3.846    2.769    2.154    1.846 
#    0.000    0.385    0.000    0.000    0.000    0.000 
#    0.000    5.538    0.000    0.000    0.000    0.000 
#
# Total GULP energy -144816.365551 kJ/mol
# GULP energy per Si atom -5569.860214 kJ/mol
# Density = 1.769281 g / cm^3
# Si number density = 17.733171 Si / 1000 Ang^3
#
#
#
# Elastic Constant Matrix: (Units=GPa)
#
#
# Indices 1 2 3 4 5 6 
#
# 1 110.9997 30.2860 10.9860 0.0000 12.2798 0.0000
# 2 30.2860 61.9208 19.7304 0.0000 3.4349 0.0000
# 3 10.9860 19.7304 88.0618 0.0000 9.8269 0.0000
# 4 0.0000 0.0000 0.0000 -51.6073 0.0000 5.0360
# 5 12.2798 3.4349 9.8269 0.0000 26.6653 0.0000
# 6 0.0000 0.0000 0.0000 5.0360 0.0000 9.3601
#
#
#
# Elastic Compliance Matrix: (Units=1/GPa)
#
#
# Indices 1 2 3 4 5 6 
#
# 1 0.010883 -0.005171 0.000298 0.000000 -0.004456 0.000000
# 2 -0.005171 0.019866 -0.003948 0.000000 0.001277 0.000000
# 3 0.000298 -0.003948 0.012683 0.000000 -0.004303 0.000000
# 4 0.000000 0.000000 0.000000 -0.018411 0.000000 0.009905
# 5 -0.004456 0.001277 -0.004303 0.000000 0.040975 0.000000
# 6 0.000000 0.000000 0.000000 0.009905 0.000000 0.101508
#
#
# Mechanical properties :
#
#
# Convention : Reuss Voigt Hill
#
# Bulk Modulus (GPa) = 38.77478 42.55412 40.66445
# Shear Modulus (GPa) = 25.80721 10.21560 18.01141
#
# Velocity S-wave (km/s) = 3.81899 2.40276 3.19045
# Velocity P-wave (km/s) = 6.43113 5.63442 6.04591
#
# Compressibility (1/GPa) = 0.02578996
#
# Stress axis : x y z
#
# Youngs Moduli (GPa) = 91.88354 50.33705 78.84385
#
# Poissons Ratio (x) = 0.26029 -0.02350
# Poissons Ratio (y) = 0.47512 0.31131
# Poissons Ratio (z) = -0.02738 0.19875
#
# Static dielectric constant tensor:
#      x y z
#    x 1.621820 0.000000 0.028010 
#    y 0.000000 1.572600 0.000000 
#    z 0.028010 0.000000 1.702240 
# 
# From -- ./inp_files/63486.got.cif
#   From: 2010.05.17/outbox.cif.g08.bks.cpg/sg12_32_cif.got.tgz:63486.got - 2010.06.03 13:09:07.
