data_PCOD9192714
_publ_section_title
;
Structure prediction by ZEFSAII (Michael W. Deem and Ramdas Pophale) SiO2 
 PCOD9192714
Probable space group: C 2/M
;
_chemical_formula_sum "Si O2"
_cell_formula_units_Z 56
_cell_length_a 14.278458
_cell_length_b 19.975637
_cell_length_c 9.947873
_cell_angle_alpha 90.000000
_cell_angle_beta 114.415492
_cell_angle_gamma 90.000000
_cell_volume 2583.606902
_symmetry_space_group_name_H-M "C 2/M"
_symmetry_group_IT_number 12
_symmetry_cell_setting 'monoclinic'
loop_
_space_group_symop_operation_xyz
x,y,z
-x,y,-z
-x,-y,-z
x,-y,z
1/2+x,1/2+y,z
1/2-x,1/2+y,-z
1/2-x,1/2-y,-z
1/2+x,1/2-y,z
loop_
_atom_site_type_symbol
_atom_site_label
_atom_site_fract_x
_atom_site_fract_y
_atom_site_fract_z
Si Si1 0.401228 0.133038 0.861908
Si Si2 0.674003 0.104399 0.921174
Si Si3 0.506721 0.074930 0.357671
Si Si4 0.306284 0.705250 0.343882
Si Si5 0.572922 0.747008 0.840848
Si Si6 0.148569 0.192621 0.340556
Si Si7 0.888557 0.121937 0.943739
O O1 0.435896 0.107672 0.736191
O O2 0.294066 0.170400 0.777345
O O3 0.500000 0.166884 0.000000
O O4 0.369834 0.080908 0.961001
O O5 0.609401 0.072603 0.763952
O O6 0.640269 0.184259 0.892397
O O7 0.793424 0.092244 0.968440
O O8 0.500000 0.109411 0.500000
O O9 0.548985 0.000000 0.401495
O O10 0.386424 0.715504 0.274079
O O11 0.258498 0.774329 0.371552
O O12 0.351245 0.671671 0.504350
O O13 0.448067 0.743564 0.746215
O O14 0.597250 0.694859 0.974760
O O15 0.139546 0.134516 0.227161
O O16 0.000000 0.088603 0.000000
#
# Coordination Sequence:
#
# PCOD9192714 Si02
#       7
#     8   8   8   8   8   8   8
#     4  10  21  35  56  81 107 145 185 225 283 347
#     4  11  20  35  58  81 111 156 190 233 285 337
#     4  10  24  42  62  87 112 138 184 247 303 348
#     4  11  20  33  47  74 113 147 196 229 274 328
#     4  11  20  34  51  75 117 157 198 226 268 332
#     4  10  21  29  45  71 106 152 189 235 267 315
#     4  10  20  34  50  76 115 152 193 231 265 330
#
# _framework density 21.675124
#
# number of rings (size 3 to 8) (size 9 to 14) (size 15 to 20)
#    0.000    1.571    2.857    3.429    2.000    7.143 
#    0.000    0.000    0.000    0.429    0.000    0.000 
#    0.000    4.571    0.000    0.000    0.000    0.000 
#
# Total GULP energy -155964.659201 kJ/mol
# GULP energy per Si atom -5570.166400 kJ/mol
# Density = 2.162579 g / cm^3
# Si number density = 21.675124 Si / 1000 Ang^3
#
#
#
# Elastic Constant Matrix: (Units=GPa)
#
#
# Indices 1 2 3 4 5 6 
#
# 1 136.2212 -6.2549 21.4993 0.0000 -21.7782 0.0000
# 2 -6.2549 22.5240 2.5322 0.0000 -4.5076 0.0000
# 3 21.4993 2.5322 148.3944 0.0000 -33.2747 0.0000
# 4 0.0000 0.0000 0.0000 59.9078 0.0000 -4.5741
# 5 -21.7782 -4.5076 -33.2747 0.0000 37.1802 0.0000
# 6 0.0000 0.0000 0.0000 -4.5741 0.0000 1.0659
#
#
#
# Elastic Compliance Matrix: (Units=1/GPa)
#
#
# Indices 1 2 3 4 5 6 
#
# 1 0.008344 0.003370 -0.000099 0.000000 0.005208 0.000000
# 2 0.003370 0.046902 0.000537 0.000000 0.008141 0.000000
# 3 -0.000099 0.000537 0.008439 0.000000 0.007560 0.000000
# 4 0.000000 0.000000 0.000000 0.024827 0.000000 0.106546
# 5 0.005208 0.008141 0.007560 0.000000 0.037699 0.000000
# 6 0.000000 0.000000 0.000000 0.106546 0.000000 1.395452
#
#
# Mechanical properties :
#
#
# Convention : Reuss Voigt Hill
#
# Bulk Modulus (GPa) = 14.02482 38.07698 26.05090
# Shear Modulus (GPa) = 3.25137 38.92164 21.08650
#
# Velocity S-wave (km/s) = 1.22609 4.24215 3.12243
# Velocity P-wave (km/s) = 2.91358 6.44978 5.00443
#
# Compressibility (1/GPa) = 0.07130214
#
# Stress axis : x y z
#
# Youngs Moduli (GPa) = 119.84784 21.32107 118.49591
#
# Poissons Ratio (x) = -0.07186 0.01169
# Poissons Ratio (y) = -0.40394 -0.06361
# Poissons Ratio (z) = 0.01182 -0.01145
#
# Static dielectric constant tensor:
#      x y z
#    x 1.841550 0.000000 -0.005770 
#    y 0.000000 1.856010 0.000000 
#    z -0.005770 0.000000 1.859830 
# 
# From -- ./inp_files/65459.got.cif
#   From: 2010.05.17/outbox.cif.g08.bks.cpg/sg12_33_cif.got.tgz:65459.got - 2010.06.03 13:09:07.
