data_PCOD9192319
_publ_section_title
;
Structure prediction by ZEFSAII (Michael W. Deem and Ramdas Pophale) SiO2 
 PCOD9192319
Probable space group: C 2/M
;
_chemical_formula_sum "Si O2"
_cell_formula_units_Z 56
_cell_length_a 32.960596
_cell_length_b 8.329249
_cell_length_c 9.747596
_cell_angle_alpha 90.000000
_cell_angle_beta 61.788137
_cell_angle_gamma 90.000000
_cell_volume 2358.173025
_symmetry_space_group_name_H-M "C 2/M"
_symmetry_group_IT_number 12
_symmetry_cell_setting 'monoclinic'
loop_
_space_group_symop_operation_xyz
x,y,z
-x,y,-z
-x,-y,-z
x,-y,z
1/2+x,1/2+y,z
1/2-x,1/2+y,-z
1/2-x,1/2-y,-z
1/2+x,1/2-y,z
loop_
_atom_site_type_symbol
_atom_site_label
_atom_site_fract_x
_atom_site_fract_y
_atom_site_fract_z
Si Si1 0.485124 0.304530 0.374356
Si Si2 0.883695 0.187553 0.475478
Si Si3 0.788043 0.808929 0.545736
Si Si4 0.542745 0.307726 0.022768
Si Si5 0.774494 0.814107 0.123808
Si Si6 0.362506 0.182208 0.087583
Si Si7 0.345523 0.182325 0.810244
O O1 0.500000 0.245409 0.500000
O O2 0.480658 0.500000 0.389557
O O3 0.435445 0.244545 0.398609
O O4 0.525228 0.270984 0.203027
O O5 0.840651 0.255952 0.456121
O O6 0.865332 0.204004 0.661977
O O7 0.887850 0.000000 0.430881
O O8 0.750000 0.750000 0.500000
O O9 0.767649 0.760859 0.726934
O O10 0.790206 0.000000 0.533688
O O11 0.547519 0.500000 0.000516
O O12 0.500000 0.254065 0.000000
O O13 0.591662 0.232600 0.909151
O O14 0.818030 0.795417 0.161691
O O15 0.704060 0.774757 0.042992
O O16 0.767874 0.000000 0.106330
O O17 0.348012 0.000000 0.140460
O O18 0.374829 0.189337 0.904234
O O19 0.345402 0.000000 0.758118
#
# Coordination Sequence:
#
# PCOD9192319 Si02
#       7
#     8   8   8   8   8   8   8
#     4   9  18  34  58  87 119 154 198 248 303 363
#     4  10  21  37  60  87 119 160 202 247 299 363
#     4  11  24  41  59  85 121 162 209 253 301 360
#     4  10  20  33  54  85 117 155 205 255 303 366
#     4  10  20  37  62  86 111 151 195 242 301 358
#     4   9  19  35  55  83 117 151 191 245 303 364
#     4   9  19  35  58  88 118 146 188 245 301 359
#
# _framework density 23.747197
#
# number of rings (size 3 to 8) (size 9 to 14) (size 15 to 20)
#    0.857    1.429    0.000    3.000    0.000    4.286 
#    0.000    3.571    0.000    2.571    0.000    0.000 
#    0.000    0.000    0.000    0.000    0.000    0.000 
#
# Total GULP energy -156316.634897 kJ/mol
# GULP energy per Si atom -5582.736961 kJ/mol
# Density = 2.369315 g / cm^3
# Si number density = 23.747197 Si / 1000 Ang^3
#
#
#
# Elastic Constant Matrix: (Units=GPa)
#
#
# Indices 1 2 3 4 5 6 
#
# 1 146.7604 22.5755 25.0848 0.0000 -23.2168 0.0000
# 2 22.5755 48.9393 6.5625 0.0000 -4.2596 0.0000
# 3 25.0848 6.5625 56.1379 0.0000 -5.8021 0.0000
# 4 0.0000 0.0000 0.0000 17.8677 0.0000 0.6490
# 5 -23.2168 -4.2596 -5.8021 0.0000 40.6137 0.0000
# 6 0.0000 0.0000 0.0000 0.6490 0.0000 25.2761
#
#
#
# Elastic Compliance Matrix: (Units=1/GPa)
#
#
# Indices 1 2 3 4 5 6 
#
# 1 0.008453 -0.003144 -0.002988 0.000000 0.004075 0.000000
# 2 -0.003144 0.022067 -0.001138 0.000000 0.000355 0.000000
# 3 -0.002988 -0.001138 0.019379 0.000000 0.000941 0.000000
# 4 0.000000 0.000000 0.000000 0.056019 0.000000 -0.001438
# 5 0.004075 0.000355 0.000941 0.000000 0.027124 0.000000
# 6 0.000000 0.000000 0.000000 -0.001438 0.000000 0.039600
#
#
# Mechanical properties :
#
#
# Convention : Reuss Voigt Hill
#
# Bulk Modulus (GPa) = 28.28199 40.03146 34.15673
# Shear Modulus (GPa) = 25.12958 29.92582 27.52770
#
# Velocity S-wave (km/s) = 3.25655 3.55376 3.40839
# Velocity P-wave (km/s) = 5.10643 5.80800 5.46848
#
# Compressibility (1/GPa) = 0.03535819
#
# Stress axis : x y z
#
# Youngs Moduli (GPa) = 118.30214 45.31609 51.60247
#
# Poissons Ratio (x) = 0.14247 0.15421
# Poissons Ratio (y) = 0.37192 0.05873
# Poissons Ratio (z) = 0.35353 0.05158
#
# Static dielectric constant tensor:
#      x y z
#    x 2.068400 0.000000 0.086920 
#    y 0.000000 1.837090 0.000000 
#    z 0.086920 0.000000 1.933180 
# 
# From -- ./inp_files/180629.got.cif
#   From: 2010.05.17/outbox.cif.g08.bks.cpg/sg12_91_cif.got.tgz:180629.got - 2010.06.03 13:09:07.
