data_PCOD9192091
_publ_section_title
;
Structure prediction by ZEFSAII (Michael W. Deem and Ramdas Pophale) SiO2 
 PCOD9192091
Probable space group: C 2/M
;
_chemical_formula_sum "Si O2"
_cell_formula_units_Z 56
_cell_length_a 31.531702
_cell_length_b 13.331184
_cell_length_c 15.760178
_cell_angle_alpha 90.000000
_cell_angle_beta 156.433017
_cell_angle_gamma 90.000000
_cell_volume 2648.760886
_symmetry_space_group_name_H-M "C 2/M"
_symmetry_group_IT_number 12
_symmetry_cell_setting 'monoclinic'
loop_
_space_group_symop_operation_xyz
x,y,z
-x,y,-z
-x,-y,-z
x,-y,z
1/2+x,1/2+y,z
1/2-x,1/2+y,-z
1/2-x,1/2-y,-z
1/2+x,1/2-y,z
loop_
_atom_site_type_symbol
_atom_site_label
_atom_site_fract_x
_atom_site_fract_y
_atom_site_fract_z
Si Si1 0.004058 0.213923 0.097794
Si Si2 0.225819 0.118542 0.319236
Si Si3 0.931383 0.616192 0.459047
Si Si4 0.277571 0.306603 0.871500
Si Si5 0.233419 0.882143 0.704242
Si Si6 0.766123 0.119734 0.482911
Si Si7 0.991121 0.221222 0.707072
O O1 0.004891 0.267236 0.190270
O O2 0.109094 0.145570 0.289098
O O3 0.898968 0.145156 0.906738
O O4 0.000000 0.271029 0.000000
O O5 0.263226 0.159056 0.297163
O O6 0.274140 0.157081 0.498137
O O7 0.240504 0.000000 0.344727
O O8 0.932362 0.500000 0.488472
O O9 0.808908 0.651444 0.223073
O O10 0.000000 0.624425 0.500000
O O11 0.976657 0.693207 0.611141
O O12 0.281009 0.186424 0.865610
O O13 0.398599 0.337158 0.105864
O O14 0.275595 0.849515 0.687012
O O15 0.108519 0.854224 0.477373
O O16 0.250392 0.000000 0.745207
O O17 0.753431 0.000000 0.460919
#
# Coordination Sequence:
#
# PCOD9192091 Si02
#       7
#     8   8   8   8   8   8   8
#     4   8  13  23  42  70 103 136 168 201 246 298
#     4   9  15  23  40  69 101 133 172 214 250 288
#     4  10  22  40  59  78 102 133 170 214 264 314
#     4  10  20  33  53  78 103 132 169 214 258 306
#     4   9  18  32  49  73 106 141 173 206 251 304
#     4   8  13  22  38  63  98 137 172 206 244 289
#     4   9  19  34  55  80 104 135 172 213 254 297
#
# _framework density 21.141960999999998
#
# number of rings (size 3 to 8) (size 9 to 14) (size 15 to 20)
#    0.000    3.000    0.000    0.857    0.000    7.429 
#    0.000    1.429    0.000    7.286    0.000    0.000 
#    0.000    0.000    0.000    0.000    0.000    0.000 
#
# Total GULP energy -156090.568005 kJ/mol
# GULP energy per Si atom -5574.663143 kJ/mol
# Density = 2.109384 g / cm^3
# Si number density = 21.141961 Si / 1000 Ang^3
#
#
#
# Elastic Constant Matrix: (Units=GPa)
#
#
# Indices 1 2 3 4 5 6 
#
# 1 71.6975 20.4364 -1.0908 0.0000 19.4613 0.0000
# 2 20.4364 67.7460 -18.4483 0.0000 -3.1795 0.0000
# 3 -1.0908 -18.4483 33.1588 0.0000 14.0697 0.0000
# 4 0.0000 0.0000 0.0000 5.9217 0.0000 -0.9341
# 5 19.4613 -3.1795 14.0697 0.0000 30.5427 0.0000
# 6 0.0000 0.0000 0.0000 -0.9341 0.0000 30.1702
#
#
#
# Elastic Compliance Matrix: (Units=1/GPa)
#
#
# Indices 1 2 3 4 5 6 
#
# 1 0.019627 -0.005569 0.003853 0.000000 -0.014861 0.000000
# 2 -0.005569 0.019247 0.010154 0.000000 0.000875 0.000000
# 3 0.003853 0.010154 0.045401 0.000000 -0.022312 0.000000
# 4 0.000000 0.000000 0.000000 0.169699 0.000000 0.005254
# 5 -0.014861 0.000875 -0.022312 0.000000 0.052580 0.000000
# 6 0.000000 0.000000 0.000000 0.005254 0.000000 0.033308
#
#
# Mechanical properties :
#
#
# Convention : Reuss Voigt Hill
#
# Bulk Modulus (GPa) = 9.88615 19.37744 14.63180
# Shear Modulus (GPa) = 14.01722 24.77391 19.39556
#
# Velocity S-wave (km/s) = 2.57768 3.42685 3.03214
# Velocity P-wave (km/s) = 3.68042 4.98428 4.38113
#
# Compressibility (1/GPa) = 0.10115157
#
# Stress axis : x y z
#
# Youngs Moduli (GPa) = 50.94954 51.95577 22.02574
#
# Poissons Ratio (x) = 0.28934 -0.08486
# Poissons Ratio (y) = 0.28374 -0.22365
# Poissons Ratio (z) = -0.19630 -0.52756
#
# Static dielectric constant tensor:
#      x y z
#    x 1.806940 0.000000 -0.004610 
#    y 0.000000 1.768580 0.000000 
#    z -0.004610 0.000000 1.810620 
# 
# From -- ./inp_files/246629.got.cif
#   From: 2010.05.17/outbox.cif.g08.bks.cpg/sg12_124_cif.got.tgz:246629.got - 2010.06.03 13:09:07.
