data_PCOD9192158
_publ_section_title
;
Structure prediction by ZEFSAII (Michael W. Deem and Ramdas Pophale) SiO2 
 PCOD9192158
Probable space group: C 2/M
;
_chemical_formula_sum "Si O2"
_cell_formula_units_Z 56
_cell_length_a 22.942049
_cell_length_b 7.857002
_cell_length_c 32.205077
_cell_angle_alpha 90.000000
_cell_angle_beta 153.217147
_cell_angle_gamma 90.000000
_cell_volume 2615.860708
_symmetry_space_group_name_H-M "C 2/M"
_symmetry_group_IT_number 12
_symmetry_cell_setting 'monoclinic'
loop_
_space_group_symop_operation_xyz
x,y,z
-x,y,-z
-x,-y,-z
x,-y,z
1/2+x,1/2+y,z
1/2-x,1/2+y,-z
1/2-x,1/2-y,-z
1/2+x,1/2-y,z
loop_
_atom_site_type_symbol
_atom_site_label
_atom_site_fract_x
_atom_site_fract_y
_atom_site_fract_z
Si Si1 0.382040 0.797448 0.059422
Si Si2 0.129210 0.293103 0.270493
Si Si3 0.542847 0.301365 0.385882
Si Si4 0.398208 0.802885 0.404040
Si Si5 0.209600 0.705722 0.413050
Si Si6 0.294578 0.800516 0.255694
Si Si7 0.489377 0.294534 0.944804
O O1 0.503187 0.736403 0.164790
O O2 0.409822 0.745829 0.028670
O O3 0.386069 0.000000 0.061683
O O4 0.250000 0.750000 0.000000
O O5 0.139080 0.500000 0.273062
O O6 0.256286 0.207736 0.332813
O O7 0.139860 0.250107 0.325811
O O8 0.519799 0.500000 0.377025
O O9 0.641319 0.235674 0.484839
O O10 0.626815 0.276099 0.398087
O O11 0.403858 0.214216 0.290429
O O12 0.500000 0.721238 0.500000
O O13 0.374336 0.720604 0.344385
O O14 0.438507 0.000000 0.423575
O O15 0.213595 0.500000 0.418334
O O16 0.152681 0.728449 0.159295
O O17 0.273886 0.000000 0.251322
O O18 0.487873 0.500000 0.945942
O O19 0.500000 0.236655 0.000000
#
# Coordination Sequence:
#
# PCOD9192158 Si02
#       7
#     8   8   8   8   8   8   8
#     4  11  24  42  65  91 121 158 204 260 318 374
#     4  10  21  37  58  83 111 149 193 236 288 350
#     4  10  20  33  53  81 112 150 193 236 282 340
#     4  10  20  33  54  85 117 149 185 227 282 344
#     4   9  19  36  54  76 112 153 192 234 283 344
#     4  10  20  35  55  80 113 149 183 229 288 345
#     4  10  22  42  66  89 117 158 205 252 308 373
#
# _framework density 21.407868000000001
#
# number of rings (size 3 to 8) (size 9 to 14) (size 15 to 20)
#    0.000    2.000    1.429    1.714    0.000    4.571 
#    0.000    5.714    0.000    0.000    0.000    0.000 
#    0.000    0.000    0.000    0.000    0.000    0.000 
#
# Total GULP energy -156005.524155 kJ/mol
# GULP energy per Si atom -5571.625863 kJ/mol
# Density = 2.135914 g / cm^3
# Si number density = 21.407868 Si / 1000 Ang^3
#
#
#
# Elastic Constant Matrix: (Units=GPa)
#
#
# Indices 1 2 3 4 5 6 
#
# 1 120.8140 18.0041 68.8512 0.0002 2.1483 -0.0002
# 2 18.0041 24.6815 9.2432 0.0008 -4.4735 -0.0011
# 3 68.8512 9.2432 109.8517 -0.0016 12.7260 0.0000
# 4 0.0002 0.0008 -0.0016 14.5612 0.0002 6.9902
# 5 2.1483 -4.4735 12.7260 0.0002 32.8723 -0.0001
# 6 -0.0002 -0.0011 0.0000 6.9902 -0.0001 31.3065
#
#
#
# Elastic Compliance Matrix: (Units=1/GPa)
#
#
# Indices 1 2 3 4 5 6 
#
# 1 0.014060 -0.006858 -0.008397 -0.000001 0.001399 0.000000
# 2 -0.006858 0.046966 -0.000467 -0.000004 0.007020 0.000003
# 3 -0.008397 -0.000467 0.015023 0.000002 -0.005331 -0.000001
# 4 -0.000001 -0.000004 0.000002 0.076921 -0.000002 -0.017175
# 5 0.001399 0.007020 -0.005331 -0.000002 0.033348 0.000001
# 6 0.000000 0.000003 -0.000001 -0.017175 0.000001 0.035777
#
#
# Mechanical properties :
#
#
# Convention : Reuss Voigt Hill
#
# Bulk Modulus (GPa) = 22.41900 49.72714 36.07307
# Shear Modulus (GPa) = 18.62838 26.36456 22.49647
#
# Velocity S-wave (km/s) = 2.95306 3.51313 3.24520
# Velocity P-wave (km/s) = 4.70345 6.30357 5.56136
#
# Compressibility (1/GPa) = 0.04460503
#
# Stress axis : x y z
#
# Youngs Moduli (GPa) = 71.12476 21.29202 66.56420
#
# Poissons Ratio (x) = 0.14602 0.55895
# Poissons Ratio (y) = 0.48776 0.03108
# Poissons Ratio (z) = 0.59725 0.00994
#
# Static dielectric constant tensor:
#      x y z
#    x 2.322810 0.000000 0.022910 
#    y 0.000000 1.766110 0.000000 
#    z 0.022910 0.000000 1.817540 
# 
# From -- ./inp_files/380806.got.cif
#   From: 2010.05.17/outbox.cif.g08.bks.cpg/sg12_191_cif.got.tgz:380806.got - 2010.06.03 13:09:07.
