data_PCOD9192875
_publ_section_title
;
Structure prediction by ZEFSAII (Michael W. Deem and Ramdas Pophale) SiO2 
 PCOD9192875
Probable space group: C 2/M
;
_chemical_formula_sum "Si O2"
_cell_formula_units_Z 64
_cell_length_a 9.584635
_cell_length_b 14.564218
_cell_length_c 25.754283
_cell_angle_alpha 90.000000
_cell_angle_beta 123.934041
_cell_angle_gamma 90.000000
_cell_volume 2982.793830
_symmetry_space_group_name_H-M "C 2/M"
_symmetry_group_IT_number 12
_symmetry_cell_setting 'monoclinic'
loop_
_space_group_symop_operation_xyz
x,y,z
-x,y,-z
-x,-y,-z
x,-y,z
1/2+x,1/2+y,z
1/2-x,1/2+y,-z
1/2-x,1/2-y,-z
1/2+x,1/2-y,z
loop_
_atom_site_type_symbol
_atom_site_label
_atom_site_fract_x
_atom_site_fract_y
_atom_site_fract_z
Si Si1 0.602723 0.392470 0.799517
Si Si2 0.765073 0.111893 0.569678
Si Si3 0.795826 0.107531 0.799516
Si Si4 0.943953 0.388107 0.569676
Si Si5 0.505462 0.653248 0.058025
Si Si6 0.668614 0.153247 0.058025
Si Si7 0.561006 0.112597 0.312244
Si Si8 0.124275 0.887404 0.687757
O O1 0.567879 0.500000 0.784114
O O2 0.435548 0.349753 0.790366
O O3 0.746020 0.387839 0.873040
O O4 0.645179 0.356796 0.751596
O O5 0.708271 0.139382 0.500001
O O6 0.617113 0.140879 0.578076
O O7 0.946236 0.141243 0.627015
O O8 0.765643 0.000000 0.570372
O O9 0.873098 0.112162 0.873040
O O10 0.609607 0.143204 0.751594
O O11 0.784463 0.000000 0.784115
O O12 0.945468 0.500000 0.570371
O O13 0.934799 0.358756 0.627012
O O14 0.594444 0.750000 0.062962
O O15 0.319637 0.659877 0.046424
O O16 0.500000 0.606721 0.000000
O O17 0.500000 0.106721 0.000000
O O18 0.722992 0.145821 0.315327
O O19 0.565525 0.000000 0.312560
O O20 0.127849 0.000000 0.687442
#
# Coordination Sequence:
#
# PCOD9192875 Si02
#       8
#     8   8   8   8   8   8   8   8
#     4   9  18  32  48  66  90 121 154 185 221 268
#     4   8  13  21  33  49  73 110 151 184 217 262
#     4   9  18  32  48  66  90 121 154 185 221 268
#     4   8  13  21  33  49  73 110 151 184 217 262
#     4  10  20  34  52  71  92 119 149 184 225 268
#     4  10  20  34  52  71  92 119 149 184 225 268
#     4   9  16  24  36  57  84 113 145 184 228 266
#     4   9  16  24  36  57  84 113 145 184 228 266
#
# _framework density 21.456394
#
# number of rings (size 3 to 8) (size 9 to 14) (size 15 to 20)
#    0.000    3.000    0.000    3.000    0.000    6.000 
#    0.000    2.500    0.000    0.000    0.000    0.000 
#    0.000    1.000    0.000    3.250    0.000    6.500 
#
# Total GULP energy -178423.309574 kJ/mol
# GULP energy per Si atom -5575.728424 kJ/mol
# Density = 2.140756 g / cm^3
# Si number density = 21.456394 Si / 1000 Ang^3
#
#
#
# Elastic Constant Matrix: (Units=GPa)
#
#
# Indices 1 2 3 4 5 6 
#
# 1 168.0976 10.6175 141.9070 0.0000 -1.4113 0.0000
# 2 10.6175 46.0787 -3.4823 0.0000 -1.1166 0.0000
# 3 141.9070 -3.4823 202.6837 0.0000 4.1229 0.0000
# 4 0.0000 0.0000 0.0000 267.5967 0.0000 20.7070
# 5 -1.4113 -1.1166 4.1229 0.0000 4.6381 0.0000
# 6 0.0000 0.0000 0.0000 20.7070 0.0000 5.1850
#
#
#
# Elastic Compliance Matrix: (Units=1/GPa)
#
#
# Indices 1 2 3 4 5 6 
#
# 1 0.016259 -0.004286 -0.011749 0.000000 0.014360 0.000000
# 2 -0.004286 0.022974 0.003371 0.000000 0.001230 0.000000
# 3 -0.011749 0.003371 0.013518 0.000000 -0.014781 0.000000
# 4 0.000000 0.000000 0.000000 0.005408 0.000000 -0.021599
# 5 0.014360 0.001230 -0.014781 0.000000 0.233408 0.000000
# 6 0.000000 0.000000 0.000000 -0.021599 0.000000 0.279123
#
#
# Mechanical properties :
#
#
# Convention : Reuss Voigt Hill
#
# Bulk Modulus (GPa) = 36.46720 79.43825 57.95273
# Shear Modulus (GPa) = 8.26226 73.33849 40.80037
#
# Velocity S-wave (km/s) = 1.96445 5.85273 4.36541
# Velocity P-wave (km/s) = 4.70938 9.09814 7.24411
#
# Compressibility (1/GPa) = 0.02742190
#
# Stress axis : x y z
#
# Youngs Moduli (GPa) = 61.50512 43.52705 73.97303
#
# Poissons Ratio (x) = 0.18657 0.86912
# Poissons Ratio (y) = 0.26363 -0.24934
# Poissons Ratio (z) = 0.72263 -0.14672
#
# Static dielectric constant tensor:
#      x y z
#    x 1.753680 0.000000 0.002560 
#    y 0.000000 1.864160 0.000000 
#    z 0.002560 0.000000 1.786150 
# 
# From -- ./inp_files/302128.got.cif
#   From: 2010.05.17/outbox.cif.g08.bks.cpg/sg12_152_cif.got.tgz:302128.got - 2010.06.03 13:09:07.
