data_PCOD9192518
_publ_section_title
;
Structure prediction by ZEFSAII (Michael W. Deem and Ramdas Pophale) SiO2 
 PCOD9192518
Probable space group: C 2/M
;
_chemical_formula_sum "Si O2"
_cell_formula_units_Z 56
_cell_length_a 29.898182
_cell_length_b 7.496733
_cell_length_c 11.472770
_cell_angle_alpha 90.000000
_cell_angle_beta 112.099565
_cell_angle_gamma 90.000000
_cell_volume 2382.567947
_symmetry_space_group_name_H-M "C 2/M"
_symmetry_group_IT_number 12
_symmetry_cell_setting 'monoclinic'
loop_
_space_group_symop_operation_xyz
x,y,z
-x,y,-z
-x,-y,-z
x,-y,z
1/2+x,1/2+y,z
1/2-x,1/2+y,-z
1/2-x,1/2-y,-z
1/2+x,1/2-y,z
loop_
_atom_site_type_symbol
_atom_site_label
_atom_site_fract_x
_atom_site_fract_y
_atom_site_fract_z
Si Si1 0.172572 0.785612 0.082803
Si Si2 0.129627 0.712330 0.286499
Si Si3 0.779406 0.283171 0.185477
Si Si4 0.980868 0.703906 0.358098
Si Si5 0.204565 0.286762 0.536858
Si Si6 0.881973 0.794676 0.177102
Si Si7 0.020821 0.281681 0.146138
O O1 0.163177 0.744855 0.207668
O O2 0.225745 0.721262 0.096151
O O3 0.172808 0.000000 0.070401
O O4 0.127555 0.717642 0.961670
O O5 0.125077 0.500000 0.296435
O O6 0.156835 0.784299 0.426628
O O7 0.076225 0.779005 0.209853
O O8 0.779690 0.500000 0.179484
O O9 0.785247 0.222243 0.324468
O O10 0.827703 0.216034 0.172306
O O11 0.999283 0.500000 0.376393
O O12 0.922648 0.703994 0.294494
O O13 0.000000 0.783107 0.500000
O O14 0.996198 0.776124 0.244845
O O15 0.199534 0.500000 0.541255
O O16 0.250000 0.250000 0.500000
O O17 0.896925 0.000000 0.184963
O O18 0.018188 0.500000 0.141775
O O19 0.000000 0.222866 0.000000
#
# Coordination Sequence:
#
# PCOD9192518 Si02
#       7
#     8   8   8   8   8   8   8
#     4  10  21  38  57  83 118 154 189 233 287 346
#     4  10  20  33  57  87 113 144 187 237 286 341
#     4  10  21  37  58  82 114 154 196 235 280 342
#     4  10  22  40  64  87 112 152 198 242 291 348
#     4  10  20  34  55  82 114 149 187 235 284 338
#     4  11  24  39  58  84 116 151 192 240 291 343
#     4   9  18  34  57  85 113 142 184 237 287 339
#
# _framework density 23.504051
#
# number of rings (size 3 to 8) (size 9 to 14) (size 15 to 20)
#    0.000    2.000    1.429    1.714    2.000    3.714 
#    0.000    0.714    0.000    2.571    0.000    0.000 
#    0.000    0.000    0.000    0.000    0.000    0.000 
#
# Total GULP energy -156349.004187 kJ/mol
# GULP energy per Si atom -5583.893007 kJ/mol
# Density = 2.345055 g / cm^3
# Si number density = 23.504051 Si / 1000 Ang^3
#
#
#
# Elastic Constant Matrix: (Units=GPa)
#
#
# Indices 1 2 3 4 5 6 
#
# 1 96.1755 -3.6437 51.4103 0.0000 14.9538 0.0000
# 2 -3.6437 70.1507 8.7084 0.0000 4.1023 0.0000
# 3 51.4103 8.7084 196.2807 0.0000 22.8491 0.0000
# 4 0.0000 0.0000 0.0000 5.0562 0.0000 1.8946
# 5 14.9538 4.1023 22.8491 0.0000 44.6624 0.0000
# 6 0.0000 0.0000 0.0000 1.8946 0.0000 16.7488
#
#
#
# Elastic Compliance Matrix: (Units=1/GPa)
#
#
# Indices 1 2 3 4 5 6 
#
# 1 0.012473 0.001181 -0.002999 0.000000 -0.002750 0.000000
# 2 0.001181 0.014493 -0.000799 0.000000 -0.001318 0.000000
# 3 -0.002999 -0.000799 0.006157 0.000000 -0.002072 0.000000
# 4 0.000000 0.000000 0.000000 0.206530 0.000000 -0.023362
# 5 -0.002750 -0.001318 -0.002072 0.000000 0.024492 0.000000
# 6 0.000000 0.000000 0.000000 -0.023362 0.000000 0.062348
#
#
# Mechanical properties :
#
#
# Convention : Reuss Voigt Hill
#
# Bulk Modulus (GPa) = 35.85695 52.83966 44.34830
# Shear Modulus (GPa) = 14.66171 33.70227 24.18199
#
# Velocity S-wave (km/s) = 2.50030 3.79078 3.21104
# Velocity P-wave (km/s) = 4.86046 6.45678 5.71463
#
# Compressibility (1/GPa) = 0.02788860
#
# Stress axis : x y z
#
# Youngs Moduli (GPa) = 80.17138 69.00065 162.41671
#
# Poissons Ratio (x) = -0.08149 0.48713
# Poissons Ratio (y) = -0.09468 0.12976
# Poissons Ratio (z) = 0.24045 0.05513
#
# Static dielectric constant tensor:
#      x y z
#    x 1.871660 0.000000 -0.007320 
#    y 0.000000 1.862930 0.000000 
#    z -0.007320 0.000000 1.905680 
# 
# From -- ./inp_files/180631.got.cif
#   From: 2010.05.17/outbox.cif.g08.bks.cpg/sg12_91_cif.got.tgz:180631.got - 2010.06.03 13:09:07.
