data_PCOD9192664
_publ_section_title
;
Structure prediction by ZEFSAII (Michael W. Deem and Ramdas Pophale) SiO2 
 PCOD9192664
Probable space group: C 2/M
;
_chemical_formula_sum "Si O2"
_cell_formula_units_Z 60
_cell_length_a 29.948434
_cell_length_b 12.723016
_cell_length_c 15.039068
_cell_angle_alpha 90.000000
_cell_angle_beta 34.357806
_cell_angle_gamma 90.000000
_cell_volume 3234.005368
_symmetry_space_group_name_H-M "C 2/M"
_symmetry_group_IT_number 12
_symmetry_cell_setting 'monoclinic'
loop_
_space_group_symop_operation_xyz
x,y,z
-x,y,-z
-x,-y,-z
x,-y,z
1/2+x,1/2+y,z
1/2-x,1/2+y,-z
1/2-x,1/2-y,-z
1/2+x,1/2-y,z
loop_
_atom_site_type_symbol
_atom_site_label
_atom_site_fract_x
_atom_site_fract_y
_atom_site_fract_z
Si Si1 0.362815 0.125146 0.147266
Si Si2 0.811937 0.873488 0.589488
Si Si3 0.349190 0.379452 0.731712
Si Si4 0.109865 0.271470 0.084756
Si Si5 0.000000 0.233988 0.000000
Si Si6 0.525480 0.626050 0.770469
Si Si7 0.741479 0.617023 0.938421
Si Si8 0.919164 0.672187 0.673441
O O1 0.272194 0.162001 0.310582
O O2 0.369861 0.000000 0.150857
O O3 0.379113 0.152599 0.017092
O O4 0.425377 0.191357 0.100910
O O5 0.821317 0.849645 0.678775
O O6 0.889521 0.840036 0.408707
O O7 0.809334 0.000000 0.589170
O O8 0.377385 0.500000 0.682672
O O9 0.412944 0.295995 0.659670
O O10 0.281274 0.374511 0.919229
O O11 0.042212 0.186809 0.172420
O O12 0.084948 0.334481 0.213626
O O13 0.188392 0.203411 0.976869
O O14 0.983032 0.162912 0.113894
O O15 0.517921 0.500000 0.774728
O O16 0.717802 0.500000 0.948228
O O17 0.835544 0.629244 0.774381
O O18 0.000000 0.629109 0.500000
#
# Coordination Sequence:
#
# PCOD9192664 Si02
#       8
#     8   8   8   8   4   8   8   8
#     4  10  20  36  57  78 101 129 167 212 255 301
#     4   9  17  30  52  78 102 131 165 207 253 292
#     4   9  17  31  51  74 101 133 172 215 252 286
#     4  10  20  34  54  76  99 135 175 212 253 296
#     4  10  22  36  54  78 104 136 164 196 250 318
#     4  10  20  35  54  78 105 130 164 208 257 308
#     4  10  20  34  50  70 102 141 178 212 246 291
#     4  11  21  31  47  74 107 140 175 209 247 295
#
# _framework density 18.552844
#
# number of rings (size 3 to 8) (size 9 to 14) (size 15 to 20)
#    0.000    2.133    0.000    4.800    0.000    3.200 
#    0.000    0.000    0.000    0.000    0.000   10.267 
#    0.000    0.000    0.000    0.000    0.000    0.000 
#
# Total GULP energy -167391.286460 kJ/mol
# GULP energy per Si atom -5579.709549 kJ/mol
# Density = 1.851062 g / cm^3
# Si number density = 18.552844 Si / 1000 Ang^3
#
#
#
# Elastic Constant Matrix: (Units=GPa)
#
#
# Indices 1 2 3 4 5 6 
#
# 1 50.5493 -10.0947 17.9307 0.0000 -8.9985 0.0000
# 2 -10.0947 38.9654 4.7520 0.0000 -2.9579 0.0000
# 3 17.9307 4.7520 101.2580 0.0000 -26.5206 0.0000
# 4 0.0000 0.0000 0.0000 17.4876 0.0000 -2.0129
# 5 -8.9985 -2.9579 -26.5206 0.0000 19.2986 0.0000
# 6 0.0000 0.0000 0.0000 -2.0129 0.0000 12.9004
#
#
#
# Elastic Compliance Matrix: (Units=1/GPa)
#
#
# Indices 1 2 3 4 5 6 
#
# 1 0.023573 0.007061 -0.002099 0.000000 0.009190 0.000000
# 2 0.007061 0.028086 -0.000904 0.000000 0.006355 0.000000
# 3 -0.002099 -0.000904 0.015619 0.000000 0.020347 0.000000
# 4 0.000000 0.000000 0.000000 0.058229 0.000000 0.009086
# 5 0.009190 0.006355 0.020347 0.000000 0.085037 0.000000
# 6 0.000000 0.000000 0.000000 0.009086 0.000000 0.078935
#
#
# Mechanical properties :
#
#
# Convention : Reuss Voigt Hill
#
# Bulk Modulus (GPa) = 13.26381 23.99428 18.62904
# Shear Modulus (GPa) = 16.31353 21.81629 19.06491
#
# Velocity S-wave (km/s) = 2.96852 3.43286 3.20910
# Velocity P-wave (km/s) = 4.34904 5.35478 4.87790
#
# Compressibility (1/GPa) = 0.07539311
#
# Stress axis : x y z
#
# Youngs Moduli (GPa) = 42.42136 35.60543 64.02521
#
# Poissons Ratio (x) = -0.25140 0.13438
# Poissons Ratio (y) = -0.29952 0.05788
# Poissons Ratio (z) = 0.08903 0.03219
#
# Static dielectric constant tensor:
#      x y z
#    x 1.624520 0.000000 -0.010200 
#    y 0.000000 1.659090 0.000000 
#    z -0.010200 0.000000 1.664030 
# 
# From -- ./inp_files/251296.got.cif
#   From: 2010.05.17/outbox.cif.g08.bks.cpg/sg12_126_cif.got.tgz:251296.got - 2010.06.03 13:09:07.
