data_PCOD9192196
_publ_section_title
;
Structure prediction by ZEFSAII (Michael W. Deem and Ramdas Pophale) SiO2 
 PCOD9192196
Probable space group: C 2/M
;
_chemical_formula_sum "Si O2"
_cell_formula_units_Z 36
_cell_length_a 20.022703
_cell_length_b 7.284708
_cell_length_c 9.347135
_cell_angle_alpha 90.000000
_cell_angle_beta 78.572076
_cell_angle_gamma 90.000000
_cell_volume 1336.339696
_symmetry_space_group_name_H-M "C 2/M"
_symmetry_group_IT_number 12
_symmetry_cell_setting 'monoclinic'
loop_
_space_group_symop_operation_xyz
x,y,z
-x,y,-z
-x,-y,-z
x,-y,z
1/2+x,1/2+y,z
1/2-x,1/2+y,-z
1/2-x,1/2-y,-z
1/2+x,1/2-y,z
loop_
_atom_site_type_symbol
_atom_site_label
_atom_site_fract_x
_atom_site_fract_y
_atom_site_fract_z
Si Si1 0.287965 0.291558 0.719012
Si Si2 0.821892 0.500000 0.946453
Si Si3 0.847315 0.778938 0.393758
Si Si4 0.503328 0.722954 0.661126
Si Si5 0.425732 0.717370 0.961765
O O1 0.302987 0.500000 0.760698
O O2 0.215758 0.293257 0.668208
O O3 0.337929 0.236204 0.566599
O O4 0.291440 0.158757 0.850646
O O5 0.861837 0.340127 0.024576
O O6 0.922377 0.722465 0.313429
O O7 0.843891 0.000000 0.386082
O O8 0.500000 0.784563 0.500000
O O9 0.501770 0.500000 0.662106
O O10 0.442128 0.776631 0.789827
O O11 0.412846 0.500000 0.982930
O O12 0.500000 0.750753 0.000000
#
# Coordination Sequence:
#
# PCOD9192196 Si02
#       5
#     8   4   8   8   8
#     4  10  20  33  53  82 117 155 194 236 287 342
#     4  12  21  36  59  84 112 150 200 240 278 346
#     4   9  17  33  53  80 120 157 189 234 293 344
#     4   9  17  33  58  88 119 149 183 240 295 338
#     4  10  22  40  61  88 116 154 193 233 291 350
#
# _framework density 26.939257000000001
#
# number of rings (size 3 to 8) (size 9 to 14) (size 15 to 20)
#    0.000    2.222    1.111    2.333    1.556    3.556 
#    2.000    1.667    0.000    1.333    0.000    0.000 
#    0.000    0.000    0.000    0.000    0.000    0.000 
#
# Total GULP energy -100400.059794 kJ/mol
# GULP energy per Si atom -5577.781100 kJ/mol
# Density = 2.687794 g / cm^3
# Si number density = 26.939257 Si / 1000 Ang^3
#
#
#
# Elastic Constant Matrix: (Units=GPa)
#
#
# Indices 1 2 3 4 5 6 
#
# 1 76.3604 15.0720 22.3538 0.0000 11.9303 0.0000
# 2 15.0720 150.3648 34.1977 0.0000 10.7964 0.0000
# 3 22.3538 34.1977 93.1146 0.0000 13.0565 0.0000
# 4 0.0000 0.0000 0.0000 8.4107 0.0000 23.2236
# 5 11.9303 10.7964 13.0565 0.0000 57.9463 0.0000
# 6 0.0000 0.0000 0.0000 23.2236 0.0000 -6.9277
#
#
#
# Elastic Compliance Matrix: (Units=1/GPa)
#
#
# Indices 1 2 3 4 5 6 
#
# 1 0.014418 -0.000622 -0.002925 0.000000 -0.002193 0.000000
# 2 -0.000622 0.007317 -0.002442 0.000000 -0.000685 0.000000
# 3 -0.002925 -0.002442 0.012588 0.000000 -0.001779 0.000000
# 4 0.000000 0.000000 0.000000 0.011592 0.000000 0.038861
# 5 -0.002193 -0.000685 -0.001779 0.000000 0.018237 0.000000
# 6 0.000000 0.000000 0.000000 0.038861 0.000000 -0.014074
#
#
# Mechanical properties :
#
#
# Convention : Reuss Voigt Hill
#
# Bulk Modulus (GPa) = 44.75449 51.45409 48.10429
# Shear Modulus (GPa) = 71.93650 28.43362 50.18506
#
# Velocity S-wave (km/s) = 5.17312 3.25233 4.32081
# Velocity P-wave (km/s) = 7.23400 5.76585 6.54125
#
# Compressibility (1/GPa) = 0.02234413
#
# Stress axis : x y z
#
# Youngs Moduli (GPa) = 69.35968 136.65970 79.44091
#
# Poissons Ratio (x) = 0.08506 0.23237
# Poissons Ratio (y) = 0.04317 0.19399
# Poissons Ratio (z) = 0.20288 0.33372
#
# Static dielectric constant tensor:
#      x y z
#    x 2.137220 0.000000 -0.076370 
#    y 0.000000 2.037670 0.000000 
#    z -0.076370 0.000000 2.184060 
# 
# From -- ./inp_files/92501.got.cif
#   From: 2010.05.17/outbox.cif.g08.bks.cpg/sg12_47_cif.got.tgz:92501.got - 2010.06.03 13:09:07.
