data_PCOD9192644
_publ_section_title
;
Structure prediction by ZEFSAII (Michael W. Deem and Ramdas Pophale) SiO2 
 PCOD9192644
Probable space group: C 2/M
;
_chemical_formula_sum "Si O2"
_cell_formula_units_Z 64
_cell_length_a 29.111953
_cell_length_b 8.894126
_cell_length_c 14.698253
_cell_angle_alpha 90.000000
_cell_angle_beta 72.623402
_cell_angle_gamma 90.000000
_cell_volume 3632.065347
_symmetry_space_group_name_H-M "C 2/M"
_symmetry_group_IT_number 12
_symmetry_cell_setting 'monoclinic'
loop_
_space_group_symop_operation_xyz
x,y,z
-x,y,-z
-x,-y,-z
x,-y,z
1/2+x,1/2+y,z
1/2-x,1/2+y,-z
1/2-x,1/2-y,-z
1/2+x,1/2-y,z
loop_
_atom_site_type_symbol
_atom_site_label
_atom_site_fract_x
_atom_site_fract_y
_atom_site_fract_z
Si Si1 0.309759 0.320205 0.376642
Si Si2 0.744170 0.175742 0.101734
Si Si3 0.340885 0.319513 0.733053
Si Si4 0.299946 0.180054 0.581062
Si Si5 0.106384 0.323455 0.791931
Si Si6 0.909138 0.822187 0.849271
Si Si7 0.500433 0.818635 0.893542
Si Si8 0.354168 0.328457 0.063771
O O1 0.311622 0.500000 0.384036
O O2 0.311730 0.245037 0.474837
O O3 0.256677 0.281826 0.367970
O O4 0.354004 0.263298 0.290191
O O5 0.705415 0.263912 0.183212
O O6 0.797379 0.181739 0.113033
O O7 0.730510 0.000000 0.102281
O O8 0.750000 0.250000 0.000000
O O9 0.341142 0.500000 0.727893
O O10 0.333934 0.249591 0.637919
O O11 0.387128 0.271346 0.765949
O O12 0.304022 0.000000 0.578889
O O13 0.109970 0.500000 0.770029
O O14 0.050902 0.274393 0.816656
O O15 0.119194 0.290145 0.889289
O O16 0.955540 0.741681 0.862976
O O17 0.919330 0.000000 0.836586
O O18 0.867572 0.804734 0.950624
O O19 0.498749 0.000000 0.896678
O O20 0.500000 0.766944 0.000000
O O21 0.369469 0.500000 0.077961
#
# Coordination Sequence:
#
# PCOD9192644 Si02
#       8
#     8   8   8   8   8   8   8   8
#     4  10  21  38  60  86 115 146 182 228 276 330
#     4  11  21  33  48  71 106 145 184 224 266 319
#     4  11  22  37  54  79 112 148 188 228 275 331
#     4  10  21  38  60  87 115 147 185 225 274 332
#     4  11  22  35  55  82 111 143 182 232 283 331
#     4  10  21  36  53  75 106 146 188 228 270 324
#     4  10  21  37  54  78 110 144 187 235 281 330
#     4  10  20  34  49  72 107 144 184 225 267 323
#
# _framework density 17.620827999999999
#
# number of rings (size 3 to 8) (size 9 to 14) (size 15 to 20)
#    0.000    1.625    2.500    2.625    0.000    7.750 
#    0.000    0.000    0.000    0.750    0.000    5.250 
#    0.000    0.000    0.000    0.000    0.000    0.000 
#
# Total GULP energy -178629.906938 kJ/mol
# GULP energy per Si atom -5582.184592 kJ/mol
# Density = 1.758072 g / cm^3
# Si number density = 17.620828 Si / 1000 Ang^3
#
#
#
# Elastic Constant Matrix: (Units=GPa)
#
#
# Indices 1 2 3 4 5 6 
#
# 1 114.4631 39.5596 43.5962 0.0000 13.8035 0.0000
# 2 39.5596 44.7851 26.0820 0.0000 4.4649 0.0000
# 3 43.5962 26.0820 65.1323 0.0000 11.4613 0.0000
# 4 0.0000 0.0000 0.0000 30.8916 0.0000 1.9905
# 5 13.8035 4.4649 11.4613 0.0000 28.8566 0.0000
# 6 0.0000 0.0000 0.0000 1.9905 0.0000 28.5983
#
#
#
# Elastic Compliance Matrix: (Units=1/GPa)
#
#
# Indices 1 2 3 4 5 6 
#
# 1 0.014364 -0.009257 -0.005323 0.000000 -0.003325 0.000000
# 2 -0.009257 0.035086 -0.008255 0.000000 0.002278 0.000000
# 3 -0.005323 -0.008255 0.023168 0.000000 -0.005379 0.000000
# 4 0.000000 0.000000 0.000000 0.032517 0.000000 -0.002263
# 5 -0.003325 0.002278 -0.005379 0.000000 0.038028 0.000000
# 6 0.000000 0.000000 0.000000 -0.002263 0.000000 0.035125
#
#
# Mechanical properties :
#
#
# Convention : Reuss Voigt Hill
#
# Bulk Modulus (GPa) = 37.10639 49.20624 43.15631
# Shear Modulus (GPa) = 21.46481 25.34546 23.40513
#
# Velocity S-wave (km/s) = 3.49399 3.79671 3.64849
# Velocity P-wave (km/s) = 6.11402 6.87064 6.50334
#
# Compressibility (1/GPa) = 0.02694954
#
# Stress axis : x y z
#
# Youngs Moduli (GPa) = 69.61962 28.50154 43.16258
#
# Poissons Ratio (x) = 0.26383 0.22974
# Poissons Ratio (y) = 0.64444 0.35631
# Poissons Ratio (z) = 0.37056 0.23528
#
# Static dielectric constant tensor:
#      x y z
#    x 1.611690 0.000000 0.004130 
#    y 0.000000 1.594540 0.000000 
#    z 0.004130 0.000000 1.623210 
# 
# From -- ./inp_files/243856.got.cif
#   From: 2010.05.17/outbox.cif.g08.bks.cpg/sg12_122_cif.got.tgz:243856.got - 2010.06.03 13:09:07.
