data_PCOD9192100
_publ_section_title
;
Structure prediction by ZEFSAII (Michael W. Deem and Ramdas Pophale) SiO2 
 PCOD9192100
Probable space group: C 2/M
;
_chemical_formula_sum "Si O2"
_cell_formula_units_Z 48
_cell_length_a 8.195718
_cell_length_b 13.435544
_cell_length_c 18.241783
_cell_angle_alpha 90.000000
_cell_angle_beta 83.086324
_cell_angle_gamma 90.000000
_cell_volume 1994.068614
_symmetry_space_group_name_H-M "C 2/M"
_symmetry_group_IT_number 12
_symmetry_cell_setting 'monoclinic'
loop_
_space_group_symop_operation_xyz
x,y,z
-x,y,-z
-x,-y,-z
x,-y,z
1/2+x,1/2+y,z
1/2-x,1/2+y,-z
1/2-x,1/2-y,-z
1/2+x,1/2-y,z
loop_
_atom_site_type_symbol
_atom_site_label
_atom_site_fract_x
_atom_site_fract_y
_atom_site_fract_z
Si Si1 0.641629 0.842764 0.436648
Si Si2 0.165316 0.612953 0.041554
Si Si3 0.518787 0.892419 0.690133
Si Si4 0.947288 0.284237 0.167831
Si Si5 0.364155 0.618912 0.893460
Si Si6 0.167187 0.886606 0.435242
O O1 0.500000 0.879183 0.500000
O O2 0.634483 0.888478 0.356933
O O3 0.795048 0.871387 0.479332
O O4 0.604906 0.725948 0.423370
O O5 0.204938 0.500000 0.059436
O O6 0.102555 0.669891 0.115567
O O7 0.310613 0.647881 0.979561
O O8 0.000000 0.612044 0.000000
O O9 0.527766 0.805576 0.748380
O O10 0.672280 0.886768 0.626186
O O11 0.523719 0.000000 0.728381
O O12 0.968447 0.169985 0.142522
O O13 0.784430 0.340964 0.149866
O O14 0.368851 0.500000 0.890251
O O15 0.101698 0.000000 0.428294
#
# Coordination Sequence:
#
# PCOD9192100 Si02
#       6
#     8   8   8   8   8   8
#     4   9  18  33  52  77 105 135 178 227 274 333
#     4   8  15  32  58  86 114 152 201 244 290 348
#     4  10  20  33  53  78 105 142 184 229 285 343
#     4  11  21  36  61  87 119 157 196 243 297 353
#     4  10  22  40  61  86 119 158 200 248 296 347
#     4   9  18  33  54  75 103 140 179 222 276 339
#
# _framework density 24.071387999999999
#
# number of rings (size 3 to 8) (size 9 to 14) (size 15 to 20)
#    0.000    2.500    0.000    3.500    2.333    2.333 
#    0.000    2.500    0.000    7.500    0.000    0.000 
#    0.000    0.000    0.000    0.000    0.000    0.000 
#
# Total GULP energy -133819.788237 kJ/mol
# GULP energy per Si atom -5575.824510 kJ/mol
# Density = 2.401660 g / cm^3
# Si number density = 24.071388 Si / 1000 Ang^3
#
#
#
# Elastic Constant Matrix: (Units=GPa)
#
#
# Indices 1 2 3 4 5 6 
#
# 1 34.8421 23.7748 10.0400 0.0000 -3.0690 0.0000
# 2 23.7748 144.2216 28.8934 0.0000 -10.1772 0.0000
# 3 10.0400 28.8934 103.7691 0.0000 0.0783 0.0000
# 4 0.0000 0.0000 0.0000 24.1625 0.0000 -6.8790
# 5 -3.0690 -10.1772 0.0783 0.0000 15.4478 0.0000
# 6 0.0000 0.0000 0.0000 -6.8790 0.0000 28.0335
#
#
#
# Elastic Compliance Matrix: (Units=1/GPa)
#
#
# Indices 1 2 3 4 5 6 
#
# 1 0.032804 -0.004802 -0.001839 0.000000 0.003363 0.000000
# 2 -0.004802 0.008428 -0.001886 0.000000 0.004608 0.000000
# 3 -0.001839 -0.001886 0.010341 0.000000 -0.001660 0.000000
# 4 0.000000 0.000000 0.000000 0.044495 0.000000 0.010918
# 5 0.003363 0.004608 -0.001660 0.000000 0.068447 0.000000
# 6 0.000000 0.000000 0.000000 0.010918 0.000000 0.038351
#
#
# Mechanical properties :
#
#
# Convention : Reuss Voigt Hill
#
# Bulk Modulus (GPa) = 28.96928 45.36103 37.16516
# Shear Modulus (GPa) = 21.60520 28.20373 24.90447
#
# Velocity S-wave (km/s) = 2.99916 3.42668 3.22002
# Velocity P-wave (km/s) = 4.90450 5.87720 5.41274
#
# Compressibility (1/GPa) = 0.03451932
#
# Stress axis : x y z
#
# Youngs Moduli (GPa) = 30.48428 118.64762 96.70209
#
# Poissons Ratio (x) = 0.56973 0.17787
# Poissons Ratio (y) = 0.14638 0.18235
# Poissons Ratio (z) = 0.05607 0.22373
#
# Static dielectric constant tensor:
#      x y z
#    x 2.055650 0.000000 0.032270 
#    y 0.000000 2.020660 0.000000 
#    z 0.032270 0.000000 1.857390 
# 
# From -- ./inp_files/261666.got.cif
#   From: 2010.05.17/outbox.cif.g08.bks.cpg/sg12_131_cif.got.tgz:261666.got - 2010.06.03 13:09:07.
