data_PCOD9192662
_publ_section_title
;
Structure prediction by ZEFSAII (Michael W. Deem and Ramdas Pophale) SiO2 
 PCOD9192662
Probable space group: C 2/M
;
_chemical_formula_sum "Si O2"
_cell_formula_units_Z 64
_cell_length_a 20.423783
_cell_length_b 14.211621
_cell_length_c 9.406162
_cell_angle_alpha 90.000000
_cell_angle_beta 91.559043
_cell_angle_gamma 90.000000
_cell_volume 2729.175484
_symmetry_space_group_name_H-M "C 2/M"
_symmetry_group_IT_number 12
_symmetry_cell_setting 'monoclinic'
loop_
_space_group_symop_operation_xyz
x,y,z
-x,y,-z
-x,-y,-z
x,-y,z
1/2+x,1/2+y,z
1/2-x,1/2+y,-z
1/2-x,1/2-y,-z
1/2+x,1/2-y,z
loop_
_atom_site_type_symbol
_atom_site_label
_atom_site_fract_x
_atom_site_fract_y
_atom_site_fract_z
Si Si1 0.469457 0.892160 0.281837
Si Si2 0.462708 0.607087 0.646383
Si Si3 0.668647 0.109255 0.559772
Si Si4 0.403923 0.195093 0.014879
Si Si5 0.074689 0.897392 0.891673
Si Si6 0.735011 0.189034 0.828087
Si Si7 0.277310 0.605111 0.108542
Si Si8 0.399462 0.794447 0.691293
O O1 0.401246 0.883759 0.361810
O O2 0.527839 0.830517 0.346788
O O3 0.490563 0.000000 0.288165
O O4 0.453172 0.860649 0.119924
O O5 0.500000 0.626592 0.500000
O O6 0.437822 0.500000 0.639171
O O7 0.519182 0.611664 0.769877
O O8 0.406486 0.682345 0.677000
O O9 0.722432 0.149642 0.671460
O O10 0.655212 0.165486 0.415740
O O11 0.681719 0.000000 0.531671
O O12 0.395188 0.167691 0.851901
O O13 0.426276 0.303913 0.015357
O O14 0.334924 0.186313 0.093107
O O15 0.148001 0.896648 0.831220
O O16 0.068871 0.000000 0.963214
O O17 0.753248 0.299337 0.829805
O O18 0.779392 0.127813 0.938015
O O19 0.248928 0.500000 0.127735
#
# Coordination Sequence:
#
# PCOD9192662 Si02
#       8
#     8   8   8   8   8   8   8   8
#     4  10  20  34  50  69  99 141 185 224 257 301
#     4  10  21  34  52  81 113 144 180 224 266 311
#     4  10  21  36  54  76 104 142 185 223 263 315
#     4  10  21  34  49  78 110 140 176 216 267 318
#     4   9  18  34  56  80 106 137 179 224 267 318
#     4   9  19  36  57  81 108 135 174 229 269 315
#     4   9  17  32  59  86 103 132 178 228 275 314
#     4  12  22  32  51  76 110 148 176 214 261 322
#
# _framework density 23.450305
#
# number of rings (size 3 to 8) (size 9 to 14) (size 15 to 20)
#    0.000    2.125    1.250    2.250    3.500    3.500 
#    0.000    1.250    0.000    6.750    0.000    3.500 
#    0.000    0.000    0.000    0.000    0.000    0.000 
#
# Total GULP energy -178837.583085 kJ/mol
# GULP energy per Si atom -5588.674471 kJ/mol
# Density = 2.339693 g / cm^3
# Si number density = 23.450305 Si / 1000 Ang^3
#
#
#
# Elastic Constant Matrix: (Units=GPa)
#
#
# Indices 1 2 3 4 5 6 
#
# 1 44.4718 2.1594 8.1223 0.0000 10.8538 0.0000
# 2 2.1594 105.5792 34.1881 0.0000 14.1730 0.0000
# 3 8.1223 34.1881 131.5134 0.0000 18.5746 0.0000
# 4 0.0000 0.0000 0.0000 4.8007 0.0000 17.6370
# 5 10.8538 14.1730 18.5746 0.0000 32.7327 0.0000
# 6 0.0000 0.0000 0.0000 17.6370 0.0000 4.9547
#
#
#
# Elastic Compliance Matrix: (Units=1/GPa)
#
#
# Indices 1 2 3 4 5 6 
#
# 1 0.024542 0.000776 -0.000566 0.000000 -0.008152 0.000000
# 2 0.000776 0.010686 -0.002322 0.000000 -0.003567 0.000000
# 3 -0.000566 -0.002322 0.008777 0.000000 -0.003788 0.000000
# 4 0.000000 0.000000 0.000000 -0.017247 0.000000 0.061393
# 5 -0.008152 -0.003567 -0.003788 0.000000 0.036947 0.000000
# 6 0.000000 0.000000 0.000000 0.061393 0.000000 -0.016711
#
#
# Mechanical properties :
#
#
# Convention : Reuss Voigt Hill
#
# Bulk Modulus (GPa) = 25.13796 41.16713 33.15254
# Shear Modulus (GPa) = 77.54357 24.30393 50.92375
#
# Velocity S-wave (km/s) = 5.75665 3.22281 4.66506
# Velocity P-wave (km/s) = 7.41136 5.60730 6.57153
#
# Compressibility (1/GPa) = 0.03978048
#
# Stress axis : x y z
#
# Youngs Moduli (GPa) = 40.74726 93.57650 113.92922
#
# Poissons Ratio (x) = -0.07259 0.06447
# Poissons Ratio (y) = -0.03161 0.26457
# Poissons Ratio (z) = 0.02306 0.21730
#
# Static dielectric constant tensor:
#      x y z
#    x 1.926960 0.000000 -0.032850 
#    y 0.000000 1.882540 0.000000 
#    z -0.032850 0.000000 1.879870 
# 
# From -- ./inp_files/104543.got.cif
#   From: 2010.05.17/outbox.cif.g08.bks.cpg/sg12_53_cif.got.tgz:104543.got - 2010.06.03 13:09:07.
