data_PCOD9192259
_publ_section_title
;
Structure prediction by ZEFSAII (Michael W. Deem and Ramdas Pophale) SiO2 
 PCOD9192259
Probable space group: C 2/M
;
_chemical_formula_sum "Si O2"
_cell_formula_units_Z 56
_cell_length_a 24.373546
_cell_length_b 7.828585
_cell_length_c 33.019679
_cell_angle_alpha 90.000000
_cell_angle_beta 154.818268
_cell_angle_gamma 90.000000
_cell_volume 2680.803533
_symmetry_space_group_name_H-M "C 2/M"
_symmetry_group_IT_number 12
_symmetry_cell_setting 'monoclinic'
loop_
_space_group_symop_operation_xyz
x,y,z
-x,y,-z
-x,-y,-z
x,-y,z
1/2+x,1/2+y,z
1/2-x,1/2+y,-z
1/2-x,1/2-y,-z
1/2+x,1/2-y,z
loop_
_atom_site_type_symbol
_atom_site_label
_atom_site_fract_x
_atom_site_fract_y
_atom_site_fract_z
Si Si1 0.391805 0.802149 0.526015
Si Si2 0.488232 0.208924 0.926816
Si Si3 0.901412 0.294835 0.397863
Si Si4 0.111323 0.298741 0.223147
Si Si5 0.501925 0.698610 0.679420
Si Si6 0.385241 0.802237 0.684797
Si Si7 0.792856 0.708366 0.865494
O O1 0.524168 0.741688 0.593250
O O2 0.407643 0.788261 0.584610
O O3 0.267520 0.707463 0.426105
O O4 0.374449 0.000000 0.502742
O O5 0.469205 0.271941 0.868512
O O6 0.367469 0.260312 0.874499
O O7 0.487672 0.000000 0.925719
O O8 0.616951 0.261362 0.036598
O O9 0.884290 0.500000 0.386037
O O10 0.761812 0.217621 0.311999
O O11 0.000000 0.252386 0.500000
O O12 0.082143 0.500000 0.206471
O O13 0.090603 0.227197 0.254348
O O14 0.501579 0.500000 0.667625
O O15 0.455343 0.713971 0.694210
O O16 0.646761 0.768312 0.771240
O O17 0.424620 0.000000 0.710429
O O18 0.790674 0.500000 0.864442
#
# Coordination Sequence:
#
# PCOD9192259 Si02
#       7
#     8   8   8   8   8   8   8
#     4  11  22  37  56  77 104 140 176 217 263 313
#     4   8  14  29  53  82 108 130 162 212 266 311
#     4  10  20  34  52  76 108 140 168 206 261 317
#     4  10  20  33  54  80 107 139 178 220 258 302
#     4  11  22  36  55  78 103 137 180 222 260 308
#     4  11  23  37  51  73 106 144 180 219 262 307
#     4   8  15  29  53  81 107 131 164 212 264 313
#
# _framework density 20.88926
#
# number of rings (size 3 to 8) (size 9 to 14) (size 15 to 20)
#    0.000    2.143    1.429    3.429    0.000    3.143 
#    0.000    0.714    0.000    1.714    0.000    7.000 
#    0.000    0.000    0.000    0.000    0.000    0.000 
#
# Total GULP energy -156376.485785 kJ/mol
# GULP energy per Si atom -5584.874492 kJ/mol
# Density = 2.084172 g / cm^3
# Si number density = 20.889260 Si / 1000 Ang^3
#
#
#
# Elastic Constant Matrix: (Units=GPa)
#
#
# Indices 1 2 3 4 5 6 
#
# 1 105.2813 -1.1687 32.4105 0.0006 -33.1037 -0.0008
# 2 -1.1687 31.1087 -4.0576 0.0044 -1.4178 -0.0112
# 3 32.4105 -4.0576 51.0532 -0.0006 -28.2788 0.0002
# 4 0.0006 0.0044 -0.0006 -9.1265 -0.0001 1.5543
# 5 -33.1037 -1.4178 -28.2788 -0.0001 36.2749 0.0004
# 6 -0.0008 -0.0112 0.0002 1.5543 0.0004 3.4933
#
#
#
# Elastic Compliance Matrix: (Units=1/GPa)
#
#
# Indices 1 2 3 4 5 6 
#
# 1 0.013603 0.000581 -0.002993 0.000002 0.010103 0.000003
# 2 0.000581 0.033210 0.005778 0.000031 0.006333 0.000091
# 3 -0.002993 0.005778 0.036183 0.000002 0.025701 0.000012
# 4 0.000002 0.000031 0.000002 -0.101853 0.000004 0.045319
# 5 0.010103 0.006333 0.025701 0.000004 0.057071 0.000013
# 6 0.000003 0.000091 0.000012 0.045319 0.000013 0.266100
#
#
# Mechanical properties :
#
#
# Convention : Reuss Voigt Hill
#
# Bulk Modulus (GPa) = 11.14480 26.86794 19.00637
# Shear Modulus (GPa) = 15.26762 16.81226 16.03994
#
# Velocity S-wave (km/s) = 2.70642 2.84003 2.77403
# Velocity P-wave (km/s) = 3.88755 4.86255 4.40212
#
# Compressibility (1/GPa) = 0.08972798
#
# Stress axis : x y z
#
# Youngs Moduli (GPa) = 73.51317 30.11180 27.63709
#
# Poissons Ratio (x) = -0.01750 0.08273
# Poissons Ratio (y) = -0.04271 -0.15970
# Poissons Ratio (z) = 0.22006 -0.17400
#
# Static dielectric constant tensor:
#      x y z
#    x 1.763430 0.000000 -0.022770 
#    y 0.000000 1.751770 0.000000 
#    z -0.022770 0.000000 1.727670 
# 
# From -- ./inp_files/243075.got.cif
#   From: 2010.05.17/outbox.cif.g08.bks.cpg/sg12_122_cif.got.tgz:243075.got - 2010.06.03 13:09:07.
