data_PCOD9192676
_publ_section_title
;
Structure prediction by ZEFSAII (Michael W. Deem and Ramdas Pophale) SiO2 
 PCOD9192676
Probable space group: C 2/M
;
_chemical_formula_sum "Si O2"
_cell_formula_units_Z 64
_cell_length_a 27.505642
_cell_length_b 8.634067
_cell_length_c 15.829885
_cell_angle_alpha 90.000000
_cell_angle_beta 73.413425
_cell_angle_gamma 90.000000
_cell_volume 3602.939768
_symmetry_space_group_name_H-M "C 2/M"
_symmetry_group_IT_number 12
_symmetry_cell_setting 'monoclinic'
loop_
_space_group_symop_operation_xyz
x,y,z
-x,y,-z
-x,-y,-z
x,-y,z
1/2+x,1/2+y,z
1/2-x,1/2+y,-z
1/2-x,1/2-y,-z
1/2+x,1/2-y,z
loop_
_atom_site_type_symbol
_atom_site_label
_atom_site_fract_x
_atom_site_fract_y
_atom_site_fract_z
Si Si1 0.734337 0.175303 0.772245
Si Si2 0.845981 0.176736 0.636524
Si Si3 0.117674 0.813614 0.205752
Si Si4 0.551936 0.688661 0.080183
Si Si5 0.723697 0.179930 0.093490
Si Si6 0.691858 0.183687 0.517928
Si Si7 0.352785 0.685952 0.294741
Si Si8 0.434457 0.688175 0.114216
O O1 0.790639 0.166596 0.706927
O O2 0.737567 0.287155 0.850002
O O3 0.697884 0.250713 0.723170
O O4 0.718736 0.000000 0.802433
O O5 0.881452 0.239270 0.695943
O O6 0.834134 0.272877 0.558497
O O7 0.861661 0.000000 0.606700
O O8 0.077548 0.758067 0.155040
O O9 0.171942 0.768172 0.140360
O O10 0.114133 0.000000 0.212529
O O11 0.554419 0.500000 0.079690
O O12 0.492673 0.731501 0.104651
O O13 0.576714 0.738216 0.977614
O O14 0.712974 0.000000 0.089827
O O15 0.750000 0.250000 0.000000
O O16 0.750000 0.250000 0.500000
O O17 0.653512 0.248829 0.608106
O O18 0.696702 0.000000 0.524273
O O19 0.353834 0.500000 0.297973
O O20 0.397513 0.738436 0.208421
O O21 0.432318 0.500000 0.114202
#
# Coordination Sequence:
#
# PCOD9192676 Si02
#       8
#     8   8   8   8   8   8   8   8
#     4  10  20  34  50  71 103 139 175 214 258 309
#     4   9  18  33  50  73 103 133 173 217 257 311
#     4   9  18  32  54  78 103 136 173 215 266 316
#     4   8  14  30  54  80 109 139 173 217 263 312
#     4  11  22  34  47  68 102 140 179 218 259 311
#     4  12  23  35  53  74 101 141 181 221 268 319
#     4  11  21  32  51  80 109 141 176 217 265 316
#     4   8  16  29  50  82 112 137 174 218 260 312
#
# _framework density 17.763272000000001
#
# number of rings (size 3 to 8) (size 9 to 14) (size 15 to 20)
#    0.000    2.250    1.250    4.500    1.750    2.000 
#    0.000    0.000    0.000    2.250    0.000    9.625 
#    0.000    0.000    0.000    0.000    0.000    0.000 
#
# Total GULP energy -178158.614196 kJ/mol
# GULP energy per Si atom -5567.456694 kJ/mol
# Density = 1.772284 g / cm^3
# Si number density = 17.763272 Si / 1000 Ang^3
#
#
#
# Elastic Constant Matrix: (Units=GPa)
#
#
# Indices 1 2 3 4 5 6 
#
# 1 77.7253 -28.7247 -11.1433 0.0000 2.6462 0.0000
# 2 -28.7247 96.1380 115.3318 0.0000 18.7933 0.0000
# 3 -11.1433 115.3318 257.7109 0.0000 45.4390 0.0000
# 4 0.0000 0.0000 0.0000 21.9404 0.0000 0.9216
# 5 2.6462 18.7933 45.4390 0.0000 37.2836 0.0000
# 6 0.0000 0.0000 0.0000 0.9216 0.0000 9.6720
#
#
#
# Elastic Compliance Matrix: (Units=1/GPa)
#
#
# Indices 1 2 3 4 5 6 
#
# 1 0.015601 0.008248 -0.002660 0.000000 -0.002023 0.000000
# 2 0.008248 0.026861 -0.011685 0.000000 0.000116 0.000000
# 3 -0.002660 -0.011685 0.010091 0.000000 -0.006220 0.000000
# 4 0.000000 0.000000 0.000000 0.045761 0.000000 -0.004360
# 5 -0.002023 0.000116 -0.006220 0.000000 0.034487 0.000000
# 6 0.000000 0.000000 0.000000 -0.004360 0.000000 0.103807
#
#
# Mechanical properties :
#
#
# Convention : Reuss Voigt Hill
#
# Bulk Modulus (GPa) = 24.77686 64.72243 44.74964
# Shear Modulus (GPa) = 19.06539 37.51991 28.29265
#
# Velocity S-wave (km/s) = 3.27969 4.60087 3.99527
# Velocity P-wave (km/s) = 5.32169 8.04607 6.82128
#
# Compressibility (1/GPa) = 0.04036024
#
# Stress axis : x y z
#
# Youngs Moduli (GPa) = 64.09652 37.22882 99.09668
#
# Poissons Ratio (x) = -0.30705 0.26357
# Poissons Ratio (y) = -0.52865 1.15791
# Poissons Ratio (z) = 0.17048 0.43501
#
# Static dielectric constant tensor:
#      x y z
#    x 1.587170 0.000000 0.010560 
#    y 0.000000 1.611510 0.000000 
#    z 0.010560 0.000000 1.651200 
# 
# From -- ./inp_files/248351.got.cif
#   From: 2010.05.17/outbox.cif.g08.bks.cpg/sg12_125_cif.got.tgz:248351.got - 2010.06.03 13:09:07.
