data_PCOD9192889
_publ_section_title
;
Structure prediction by ZEFSAII (Michael W. Deem and Ramdas Pophale) SiO2 
 PCOD9192889
Probable space group: C 2/M
;
_chemical_formula_sum "Si O2"
_cell_formula_units_Z 56
_cell_length_a 30.462532
_cell_length_b 8.966006
_cell_length_c 19.407229
_cell_angle_alpha 90.000000
_cell_angle_beta 142.825378
_cell_angle_gamma 90.000000
_cell_volume 3202.893639
_symmetry_space_group_name_H-M "C 2/M"
_symmetry_group_IT_number 12
_symmetry_cell_setting 'monoclinic'
loop_
_space_group_symop_operation_xyz
x,y,z
-x,y,-z
-x,-y,-z
x,-y,z
1/2+x,1/2+y,z
1/2-x,1/2+y,-z
1/2-x,1/2-y,-z
1/2+x,1/2-y,z
loop_
_atom_site_type_symbol
_atom_site_label
_atom_site_fract_x
_atom_site_fract_y
_atom_site_fract_z
Si Si1 0.989956 0.324342 0.705922
Si Si2 0.541880 0.822495 0.484631
Si Si3 0.049689 0.328231 0.920581
Si Si4 0.878707 0.673873 0.745592
Si Si5 0.305776 0.321691 0.366315
Si Si6 0.341317 0.675915 0.562186
Si Si7 0.340291 0.675901 0.841212
O O1 0.966386 0.500000 0.685066
O O2 0.050972 0.301062 0.839916
O O3 0.004860 0.302792 0.644012
O O4 0.923839 0.215571 0.642246
O O5 0.500000 0.769235 0.500000
O O6 0.618885 0.744128 0.567611
O O7 0.555071 0.000000 0.508598
O O8 0.070629 0.500000 0.960798
O O9 0.964618 0.314165 0.834799
O O10 0.100185 0.223075 0.028292
O O11 0.861588 0.500000 0.735579
O O12 0.833643 0.733678 0.623447
O O13 0.865949 0.764825 0.798866
O O14 0.307329 0.500000 0.364460
O O15 0.298541 0.281432 0.439048
O O16 0.236675 0.254846 0.241534
O O17 0.332661 0.500000 0.564045
O O18 0.330906 0.500000 0.827590
#
# Coordination Sequence:
#
# PCOD9192889 Si02
#       7
#     8   8   8   8   8   8   8
#     4   8  15  29  50  75 102 133 162 193 242 296
#     4   9  17  32  57  86 110 129 155 196 244 297
#     4   9  18  33  51  70  97 134 173 207 242 290
#     4  10  20  34  52  72  97 132 171 210 252 296
#     4  10  21  36  52  72 102 136 167 201 248 304
#     4   9  17  30  49  72  97 127 165 209 249 287
#     4  12  24  34  48  70  98 133 172 215 255 290
#
# _framework density 17.484189000000001
#
# number of rings (size 3 to 8) (size 9 to 14) (size 15 to 20)
#    0.000    2.429    0.000    3.857    0.000    7.143 
#    0.000    0.000    0.000    0.857    0.000    0.000 
#    0.000    0.000    0.000    0.000    0.000    0.000 
#
# Total GULP energy -156170.238133 kJ/mol
# GULP energy per Si atom -5577.508505 kJ/mol
# Density = 1.744439 g / cm^3
# Si number density = 17.484189 Si / 1000 Ang^3
#
#
#
# Elastic Constant Matrix: (Units=GPa)
#
#
# Indices 1 2 3 4 5 6 
#
# 1 91.6615 28.0427 34.6326 0.0000 -15.0539 0.0000
# 2 28.0427 58.2415 36.9294 0.0000 -2.0894 0.0000
# 3 34.6326 36.9294 85.4925 0.0000 -4.7003 0.0000
# 4 0.0000 0.0000 0.0000 27.7895 0.0000 -0.4953
# 5 -15.0539 -2.0894 -4.7003 0.0000 17.1194 0.0000
# 6 0.0000 0.0000 0.0000 -0.4953 0.0000 19.8684
#
#
#
# Elastic Compliance Matrix: (Units=1/GPa)
#
#
# Indices 1 2 3 4 5 6 
#
# 1 0.015783 -0.004866 -0.003616 0.000000 0.012292 0.000000
# 2 -0.004866 0.025147 -0.009095 0.000000 -0.003707 0.000000
# 3 -0.003616 -0.009095 0.017113 0.000000 0.000409 0.000000
# 4 0.000000 0.000000 0.000000 0.036001 0.000000 0.000897
# 5 0.012292 -0.003707 0.000409 0.000000 0.068882 0.000000
# 6 0.000000 0.000000 0.000000 0.000897 0.000000 0.050353
#
#
# Mechanical properties :
#
#
# Convention : Reuss Voigt Hill
#
# Bulk Modulus (GPa) = 43.68873 48.28944 45.98908
# Shear Modulus (GPa) = 19.52644 22.00820 20.76732
#
# Velocity S-wave (km/s) = 3.34549 3.55173 3.45015
# Velocity P-wave (km/s) = 6.32178 6.67073 6.49860
#
# Compressibility (1/GPa) = 0.02288920
#
# Stress axis : x y z
#
# Youngs Moduli (GPa) = 63.35758 39.76675 58.43499
#
# Poissons Ratio (x) = 0.19349 0.21131
# Poissons Ratio (y) = 0.30828 0.53147
# Poissons Ratio (z) = 0.22911 0.36168
#
# Static dielectric constant tensor:
#      x y z
#    x 1.601080 0.000000 -0.010980 
#    y 0.000000 1.581820 0.000000 
#    z -0.010980 0.000000 1.614270 
# 
# From -- ./inp_files/280970.got.cif
#   From: 2010.05.17/outbox.cif.g08.bks.cpg/sg12_141_cif.got.tgz:280970.got - 2010.06.03 13:09:07.
