data_PCOD9192045
_publ_section_title
;
Structure prediction by ZEFSAII (Michael W. Deem and Ramdas Pophale) SiO2 
 PCOD9192045
Probable space group: C 2/M
;
_chemical_formula_sum "Si O2"
_cell_formula_units_Z 56
_cell_length_a 21.688629
_cell_length_b 8.044791
_cell_length_c 16.082063
_cell_angle_alpha 90.000000
_cell_angle_beta 86.685232
_cell_angle_gamma 90.000000
_cell_volume 2801.311591
_symmetry_space_group_name_H-M "C 2/M"
_symmetry_group_IT_number 12
_symmetry_cell_setting 'monoclinic'
loop_
_space_group_symop_operation_xyz
x,y,z
-x,y,-z
-x,-y,-z
x,-y,z
1/2+x,1/2+y,z
1/2-x,1/2+y,-z
1/2-x,1/2-y,-z
1/2+x,1/2-y,z
loop_
_atom_site_type_symbol
_atom_site_label
_atom_site_fract_x
_atom_site_fract_y
_atom_site_fract_z
Si Si1 0.294523 0.298682 0.883367
Si Si2 0.993313 0.200950 0.731234
Si Si3 0.554308 0.802107 0.558231
Si Si4 0.353902 0.296884 0.706981
Si Si5 0.157828 0.303765 0.948290
Si Si6 0.026881 0.193942 0.911733
Si Si7 0.683892 0.301953 0.469805
O O1 0.297422 0.500000 0.888232
O O2 0.317265 0.244594 0.791700
O O3 0.223984 0.248890 0.906865
O O4 0.337031 0.229081 0.953603
O O5 0.924916 0.255110 0.709531
O O6 0.039037 0.252696 0.654019
O O7 0.007072 0.263746 0.823590
O O8 0.994301 0.000000 0.734393
O O9 0.500000 0.735531 0.500000
O O10 0.622614 0.747917 0.525341
O O11 0.552269 0.000000 0.552829
O O12 0.353251 0.500000 0.706547
O O13 0.325291 0.236449 0.623293
O O14 0.150395 0.500000 0.933584
O O15 0.100348 0.209199 0.914259
O O16 0.007481 0.000000 0.912616
O O17 0.000000 0.268599 0.000000
O O18 0.683795 0.500000 0.466055
O O19 0.750000 0.250000 0.500000
#
# Coordination Sequence:
#
# PCOD9192045 Si02
#       7
#     8   8   8   8   8   8   8
#     4   9  18  35  57  78 106 148 193 232 280 345
#     4  10  20  36  61  89 112 150 203 246 293 351
#     4  11  23  40  62  88 121 159 200 250 307 363
#     4   9  18  35  60  84 108 146 193 238 288 351
#     4  10  20  33  52  81 115 150 186 231 288 343
#     4  10  21  37  58  82 114 152 193 241 290 350
#     4  11  23  40  63  90 122 157 198 250 308 366
#
# _framework density 19.990637
#
# number of rings (size 3 to 8) (size 9 to 14) (size 15 to 20)
#    0.000    2.000    1.429    2.143    0.000    5.429 
#    0.000    5.000    0.000    0.000    0.000    0.000 
#    0.000    0.000    0.000    0.000    0.000    0.000 
#
# Total GULP energy -156335.848596 kJ/mol
# GULP energy per Si atom -5583.423164 kJ/mol
# Density = 1.994514 g / cm^3
# Si number density = 19.990637 Si / 1000 Ang^3
#
#
#
# Elastic Constant Matrix: (Units=GPa)
#
#
# Indices 1 2 3 4 5 6 
#
# 1 121.9831 7.2031 92.6714 0.0000 9.4343 0.0000
# 2 7.2031 23.2543 12.3478 0.0000 -0.3079 0.0000
# 3 92.6714 12.3478 190.4061 0.0000 -3.3791 0.0000
# 4 0.0000 0.0000 0.0000 14.1685 0.0000 4.4684
# 5 9.4343 -0.3079 -3.3791 0.0000 32.8931 0.0000
# 6 0.0000 0.0000 0.0000 4.4684 0.0000 23.7699
#
#
#
# Elastic Compliance Matrix: (Units=1/GPa)
#
#
# Indices 1 2 3 4 5 6 
#
# 1 0.013685 -0.000746 -0.006694 0.000000 -0.004620 0.000000
# 2 -0.000746 0.044577 -0.002521 0.000000 0.000372 0.000000
# 3 -0.006694 -0.002521 0.008723 0.000000 0.002792 0.000000
# 4 0.000000 0.000000 0.000000 0.075027 0.000000 -0.014104
# 5 -0.004620 0.000372 0.002792 0.000000 0.032017 0.000000
# 6 0.000000 0.000000 0.000000 -0.014104 0.000000 0.044721
#
#
# Mechanical properties :
#
#
# Convention : Reuss Voigt Hill
#
# Bulk Modulus (GPa) = 21.24802 62.23202 41.74002
# Shear Modulus (GPa) = 19.65718 29.06105 24.35911
#
# Velocity S-wave (km/s) = 3.13919 3.81692 3.49453
# Velocity P-wave (km/s) = 4.87765 7.11501 6.09979
#
# Compressibility (1/GPa) = 0.04706321
#
# Stress axis : x y z
#
# Youngs Moduli (GPa) = 73.07452 22.43287 114.63943
#
# Poissons Ratio (x) = 0.01673 0.76740
# Poissons Ratio (y) = 0.05448 0.28905
# Poissons Ratio (z) = 0.48916 0.05656
#
# Static dielectric constant tensor:
#      x y z
#    x 1.730750 0.000000 0.016600 
#    y 0.000000 1.726020 0.000000 
#    z 0.016600 0.000000 1.719570 
# 
# From -- ./inp_files/230965.got.cif
#   From: 2010.05.17/outbox.cif.g08.bks.cpg/sg12_116_cif.got.tgz:230965.got - 2010.06.03 13:09:07.
