data_PCOD9192068
_publ_section_title
;
Structure prediction by ZEFSAII (Michael W. Deem and Ramdas Pophale) SiO2 
 PCOD9192068
Probable space group: C 2/M
;
_chemical_formula_sum "Si O2"
_cell_formula_units_Z 40
_cell_length_a 32.513816
_cell_length_b 8.161560
_cell_length_c 11.420600
_cell_angle_alpha 90.000000
_cell_angle_beta 43.866671
_cell_angle_gamma 90.000000
_cell_volume 2100.159847
_symmetry_space_group_name_H-M "C 2/M"
_symmetry_group_IT_number 12
_symmetry_cell_setting 'monoclinic'
loop_
_space_group_symop_operation_xyz
x,y,z
-x,y,-z
-x,-y,-z
x,-y,z
1/2+x,1/2+y,z
1/2-x,1/2+y,-z
1/2-x,1/2-y,-z
1/2+x,1/2-y,z
loop_
_atom_site_type_symbol
_atom_site_label
_atom_site_fract_x
_atom_site_fract_y
_atom_site_fract_z
Si Si1 0.934647 0.692321 0.659829
Si Si2 0.640010 0.679878 0.394429
Si Si3 0.241323 0.187017 0.884576
Si Si4 0.083595 0.000000 0.938884
Si Si5 0.446273 0.500000 0.273422
Si Si6 0.368256 0.813704 0.033854
O O1 0.932921 0.500000 0.629702
O O2 0.888030 0.782351 0.673481
O O3 0.917043 0.702549 0.830580
O O4 0.000000 0.757218 0.500000
O O5 0.669098 0.500000 0.332506
O O6 0.693526 0.801741 0.307828
O O7 0.585347 0.654395 0.596315
O O8 0.220688 0.000000 0.930391
O O9 0.250000 0.250000 0.000000
O O10 0.193756 0.287898 0.907368
O O11 0.118417 0.164086 0.906392
O O12 0.017395 0.000000 0.132397
O O13 0.072868 0.000000 0.822098
O O14 0.371067 0.000000 0.075654
#
# Coordination Sequence:
#
# PCOD9192068 Si02
#       6
#     8   8   8   4   4   8
#     4  10  20  33  52  88 126 157 199 251 314 389
#     4  10  21  36  57  86 121 161 199 257 314 367
#     4  12  22  37  59  93 130 171 208 252 315 389
#     4  11  22  47  69  91 123 170 221 266 334 353
#     4   9  24  43  67  91 123 164 221 276 308 385
#     4  11  23  38  62  96 127 167 210 260 318 390
#
# _framework density 19.04617
#
# number of rings (size 3 to 8) (size 9 to 14) (size 15 to 20)
#    0.600    0.800    3.000    3.600    1.400    0.400 
#    0.000    6.000    0.000    0.000    0.000    0.000 
#    0.000    0.000    0.000    0.000    0.000    0.000 
#
# Total GULP energy -111519.495245 kJ/mol
# GULP energy per Si atom -5575.974762 kJ/mol
# Density = 1.900282 g / cm^3
# Si number density = 19.046170 Si / 1000 Ang^3
#
#
#
# Elastic Constant Matrix: (Units=GPa)
#
#
# Indices 1 2 3 4 5 6 
#
# 1 74.7258 34.1895 -0.7434 0.0000 -7.5568 0.0000
# 2 34.1895 102.1555 3.1169 0.0000 6.5495 0.0000
# 3 -0.7434 3.1169 33.5617 0.0000 -7.3254 0.0000
# 4 0.0000 0.0000 0.0000 25.8002 0.0000 -8.4304
# 5 -7.5568 6.5495 -7.3254 0.0000 26.2758 0.0000
# 6 0.0000 0.0000 0.0000 -8.4304 0.0000 16.5784
#
#
#
# Elastic Compliance Matrix: (Units=1/GPa)
#
#
# Indices 1 2 3 4 5 6 
#
# 1 0.016971 -0.006213 0.002509 0.000000 0.007129 0.000000
# 2 -0.006213 0.012300 -0.002491 0.000000 -0.005547 0.000000
# 3 0.002509 -0.002491 0.032344 0.000000 0.010360 0.000000
# 4 0.000000 0.000000 0.000000 0.046483 0.000000 0.023637
# 5 0.007129 -0.005547 0.010360 0.000000 0.044379 0.000000
# 6 0.000000 0.000000 0.000000 0.023637 0.000000 0.072339
#
#
# Mechanical properties :
#
#
# Convention : Reuss Voigt Hill
#
# Bulk Modulus (GPa) = 20.31506 31.50768 25.91137
# Shear Modulus (GPa) = 19.71491 25.32289 22.51890
#
# Velocity S-wave (km/s) = 3.22081 3.65026 3.44224
# Velocity P-wave (km/s) = 4.95185 5.86042 5.42519
#
# Compressibility (1/GPa) = 0.04922457
#
# Stress axis : x y z
#
# Youngs Moduli (GPa) = 58.92396 81.29956 30.91774
#
# Poissons Ratio (x) = 0.50515 -0.07757
# Poissons Ratio (y) = 0.36612 0.07701
# Poissons Ratio (z) = -0.14784 0.20250
#
# Static dielectric constant tensor:
#      x y z
#    x 1.624760 0.000000 -0.033080 
#    y 0.000000 1.668780 0.000000 
#    z -0.033080 0.000000 1.701570 
# 
# From -- ./inp_files/179678.got.cif
#   From: 2010.05.17/outbox.cif.g08.bks.cpg/sg12_90_cif.got.tgz:179678.got - 2010.06.03 13:09:07.
