data_PCOD9192369
_publ_section_title
;
Structure prediction by ZEFSAII (Michael W. Deem and Ramdas Pophale) SiO2 
 PCOD9192369
Probable space group: C 2/M
;
_chemical_formula_sum "Si O2"
_cell_formula_units_Z 50
_cell_length_a 16.635864
_cell_length_b 9.508312
_cell_length_c 18.497113
_cell_angle_alpha 90.000000
_cell_angle_beta 128.653132
_cell_angle_gamma 90.000000
_cell_volume 2284.921532
_symmetry_space_group_name_H-M "C 2/M"
_symmetry_group_IT_number 12
_symmetry_cell_setting 'monoclinic'
loop_
_space_group_symop_operation_xyz
x,y,z
-x,y,-z
-x,-y,-z
x,-y,z
1/2+x,1/2+y,z
1/2-x,1/2+y,-z
1/2-x,1/2-y,-z
1/2+x,1/2-y,z
loop_
_atom_site_type_symbol
_atom_site_label
_atom_site_fract_x
_atom_site_fract_y
_atom_site_fract_z
Si Si1 0.001144 0.736514 0.892018
Si Si2 0.279569 0.841693 0.948361
Si Si3 0.766945 0.661037 0.784316
Si Si4 0.033101 0.832516 0.441175
Si Si5 0.500000 0.500000 0.000000
Si Si6 0.465155 0.670367 0.714990
Si Si7 0.746282 0.168218 0.380655
O O1 0.889617 0.666349 0.837830
O O2 0.995892 0.878532 0.934737
O O3 0.019274 0.770801 0.817319
O O4 0.096521 0.652689 0.978164
O O5 0.237795 0.000000 0.931390
O O6 0.250000 0.750000 0.000000
O O7 0.250308 0.774926 0.854263
O O8 0.733937 0.500000 0.773960
O O9 0.720113 0.711412 0.682472
O O10 0.992105 0.785498 0.339949
O O11 0.156864 0.816364 0.512589
O O12 0.000000 0.771091 0.500000
O O13 0.010156 0.000000 0.431183
O O14 0.461976 0.500000 0.716210
O O15 0.350921 0.737020 0.655094
O O16 0.720464 0.000000 0.363882
#
# Coordination Sequence:
#
# PCOD9192369 Si02
#       7
#     8   8   8   8   2   8   8
#     4  11  21  35  56  79 109 142 182 223 271 320
#     4  11  24  37  54  78 112 147 182 224 269 324
#     4   9  18  35  56  77 100 136 181 223 267 319
#     4   9  18  33  53  77 107 140 175 216 264 316
#     4  12  20  32  58  80 110 144 178 232 268 320
#     4  10  20  33  55  83 105 134 177 222 264 312
#     4   9  18  33  56  80 104 135 173 220 267 318
#
# _framework density 21.882588999999999
#
# number of rings (size 3 to 8) (size 9 to 14) (size 15 to 20)
#    0.000    2.080    2.400    0.960    1.120    3.200 
#    0.000    3.200    0.000    1.920    0.000    0.000 
#    0.000    0.000    0.000    0.000    0.000    0.000 
#
# Total GULP energy -139183.515265 kJ/mol
# GULP energy per Si atom -5567.340611 kJ/mol
# Density = 2.183278 g / cm^3
# Si number density = 21.882589 Si / 1000 Ang^3
#
#
#
# Elastic Constant Matrix: (Units=GPa)
#
#
# Indices 1 2 3 4 5 6 
#
# 1 50.3249 2.9016 38.0417 0.0000 -22.9203 0.0000
# 2 2.9016 42.3867 12.9327 0.0000 1.2569 0.0000
# 3 38.0417 12.9327 167.8932 0.0000 -46.0625 0.0000
# 4 0.0000 0.0000 0.0000 13.3833 0.0000 -33.5206
# 5 -22.9203 1.2569 -46.0625 0.0000 54.0968 0.0000
# 6 0.0000 0.0000 0.0000 -33.5206 0.0000 -149.0163
#
#
#
# Elastic Compliance Matrix: (Units=1/GPa)
#
#
# Indices 1 2 3 4 5 6 
#
# 1 0.026387 -0.000916 -0.003699 0.000000 0.008051 0.000000
# 2 -0.000916 0.024521 -0.002537 0.000000 -0.003118 0.000000
# 3 -0.003699 -0.002537 0.008580 0.000000 0.005798 0.000000
# 4 0.000000 0.000000 0.000000 0.047793 0.000000 -0.010751
# 5 0.008051 -0.003118 0.005798 0.000000 0.026906 0.000000
# 6 0.000000 0.000000 0.000000 -0.010751 0.000000 -0.004292
#
#
# Mechanical properties :
#
#
# Convention : Reuss Voigt Hill
#
# Bulk Modulus (GPa) = 22.13167 40.92855 31.53011
# Shear Modulus (GPa) = 31.39494 -2.52532 14.43481
#
# Velocity S-wave (km/s) = 3.79185 -1.07542 2.57115
# Velocity P-wave (km/s) = 5.41356 4.14756 4.82229
#
# Compressibility (1/GPa) = 0.04518411
#
# Stress axis : x y z
#
# Youngs Moduli (GPa) = 37.89733 40.78062 116.54494
#
# Poissons Ratio (x) = 0.03737 0.43114
# Poissons Ratio (y) = 0.03473 0.29563
# Poissons Ratio (z) = 0.14020 0.10345
#
# Static dielectric constant tensor:
#      x y z
#    x 1.888110 0.000000 -0.014760 
#    y 0.000000 1.736210 0.000000 
#    z -0.014760 0.000000 1.844220 
# 
# From -- ./inp_files/223070.got.cif
#   From: 2010.05.17/outbox.cif.g08.bks.cpg/sg12_112_cif.got.tgz:223070.got - 2010.06.03 13:09:07.
