data_PCOD9192236
_publ_section_title
;
Structure prediction by ZEFSAII (Michael W. Deem and Ramdas Pophale) SiO2 
 PCOD9192236
Probable space group: C 2/M
;
_chemical_formula_sum "Si O2"
_cell_formula_units_Z 58
_cell_length_a 15.719148
_cell_length_b 14.839946
_cell_length_c 14.302904
_cell_angle_alpha 90.000000
_cell_angle_beta 73.418856
_cell_angle_gamma 90.000000
_cell_volume 3197.715694
_symmetry_space_group_name_H-M "C 2/M"
_symmetry_group_IT_number 12
_symmetry_cell_setting 'monoclinic'
loop_
_space_group_symop_operation_xyz
x,y,z
-x,y,-z
-x,-y,-z
x,-y,z
1/2+x,1/2+y,z
1/2-x,1/2+y,-z
1/2-x,1/2-y,-z
1/2+x,1/2-y,z
loop_
_atom_site_type_symbol
_atom_site_label
_atom_site_fract_x
_atom_site_fract_y
_atom_site_fract_z
Si Si1 0.493806 0.395043 0.394451
Si Si2 0.479922 0.187889 0.106772
Si Si3 0.689142 0.106688 0.596058
Si Si4 0.705860 0.604424 0.621180
Si Si5 0.487338 0.105342 0.613246
Si Si6 0.285857 0.233113 0.243660
Si Si7 0.401194 0.748299 0.759395
Si Si8 0.500000 0.000000 0.000000
O O1 0.500000 0.363413 0.500000
O O2 0.521529 0.500000 0.383835
O O3 0.391950 0.389721 0.393491
O O4 0.551807 0.335378 0.306723
O O5 0.379399 0.207437 0.168916
O O6 0.547389 0.225023 0.162941
O O7 0.500000 0.232334 0.000000
O O8 0.492361 0.081207 0.082391
O O9 0.726395 0.132121 0.482452
O O10 0.583319 0.122086 0.630253
O O11 0.731612 0.163356 0.665747
O O12 0.706089 0.000000 0.601903
O O13 0.723873 0.500000 0.639403
O O14 0.708275 0.670167 0.708018
O O15 0.500000 0.124672 0.500000
O O16 0.416229 0.168447 0.683665
O O17 0.465246 0.000000 0.629112
O O18 0.203187 0.230932 0.199529
#
# Coordination Sequence:
#
# PCOD9192236 Si02
#       8
#     8   8   8   8   8   8   8   2
#     4  10  20  36  56  83 126 174 216 253 289 351
#     4  10  24  46  69  92 120 150 204 265 322 371
#     4  10  20  33  56  86 126 168 213 261 302 355
#     4  10  20  36  53  83 129 171 209 249 296 362
#     4  10  20  33  53  86 129 165 206 257 310 367
#     4  12  23  37  63  90 122 162 204 253 312 376
#     4  12  23  37  63  90 122 162 204 254 311 374
#     4   8  24  48  76  92 120 146 198 276 334 368
#
# _framework density 18.137947
#
# number of rings (size 3 to 8) (size 9 to 14) (size 15 to 20)
#    0.414    1.103    2.759    2.483    1.931    3.862 
#    0.000    0.000    0.000    1.655    0.000    0.000 
#    0.000    0.000    0.000    0.000    0.000    0.000 
#
# Total GULP energy -161702.113112 kJ/mol
# GULP energy per Si atom -5575.934935 kJ/mol
# Density = 1.809666 g / cm^3
# Si number density = 18.137947 Si / 1000 Ang^3
#
#
#
# Elastic Constant Matrix: (Units=GPa)
#
#
# Indices 1 2 3 4 5 6 
#
# 1 102.4358 37.0638 38.3725 0.0000 7.9093 0.0000
# 2 37.0638 73.3921 41.9889 0.0000 5.6684 0.0000
# 3 38.3725 41.9889 84.2794 0.0000 6.6704 0.0000
# 4 0.0000 0.0000 0.0000 44.0072 0.0000 -8.9479
# 5 7.9093 5.6684 6.6704 0.0000 16.3510 0.0000
# 6 0.0000 0.0000 0.0000 -8.9479 0.0000 9.1051
#
#
#
# Elastic Compliance Matrix: (Units=1/GPa)
#
#
# Indices 1 2 3 4 5 6 
#
# 1 0.012858 -0.004249 -0.003474 0.000000 -0.003330 0.000000
# 2 -0.004249 0.020588 -0.008185 0.000000 -0.001743 0.000000
# 3 -0.003474 -0.008185 0.017740 0.000000 -0.002719 0.000000
# 4 0.000000 0.000000 0.000000 0.028398 0.000000 0.027908
# 5 -0.003330 -0.001743 -0.002719 0.000000 0.064482 0.000000
# 6 0.000000 0.000000 0.000000 0.027908 0.000000 0.137255
#
#
# Mechanical properties :
#
#
# Convention : Reuss Voigt Hill
#
# Bulk Modulus (GPa) = 51.62319 54.99528 53.30923
# Shear Modulus (GPa) = 15.64484 23.40481 19.52483
#
# Velocity S-wave (km/s) = 2.94010 3.59608 3.28451
# Velocity P-wave (km/s) = 6.32841 6.90136 6.62109
#
# Compressibility (1/GPa) = 0.01937114
#
# Stress axis : x y z
#
# Youngs Moduli (GPa) = 77.77299 48.57082 56.36968
#
# Poissons Ratio (x) = 0.20636 0.19583
# Poissons Ratio (y) = 0.33044 0.46139
# Poissons Ratio (z) = 0.27018 0.39755
#
# Static dielectric constant tensor:
#      x y z
#    x 1.648250 0.000000 0.001220 
#    y 0.000000 1.627940 0.000000 
#    z 0.001220 0.000000 1.606690 
# 
# From -- ./inp_files/214796.got.cif
#   From: 2010.05.17/outbox.cif.g08.bks.cpg/sg12_108_cif.got.tgz:214796.got - 2010.06.03 13:09:07.
