data_PCOD9193960
_publ_section_title
;
Structure prediction by ZEFSAII (Michael W. Deem and Ramdas Pophale) SiO2 
 PCOD9193960
Probable space group: C 2/M
;
_chemical_formula_sum "Si O2"
_cell_formula_units_Z 56
_cell_length_a 8.231374
_cell_length_b 26.944780
_cell_length_c 15.543748
_cell_angle_alpha 90.000000
_cell_angle_beta 39.154665
_cell_angle_gamma 90.000000
_cell_volume 2176.798656
_symmetry_space_group_name_H-M "C 2/M"
_symmetry_group_IT_number 12
_symmetry_cell_setting 'monoclinic'
loop_
_space_group_symop_operation_xyz
x,y,z
-x,y,-z
-x,-y,-z
x,-y,z
1/2+x,1/2+y,z
1/2-x,1/2+y,-z
1/2-x,1/2-y,-z
1/2+x,1/2-y,z
loop_
_atom_site_type_symbol
_atom_site_label
_atom_site_fract_x
_atom_site_fract_y
_atom_site_fract_z
Si Si1 0.574969 0.900615 0.183013
Si Si2 0.988277 0.440591 0.401965
Si Si3 0.991584 0.781154 0.270824
Si Si4 0.784877 0.941579 0.926909
Si Si5 0.191208 0.183654 0.354097
Si Si6 0.550332 0.441453 0.322743
Si Si7 0.001506 0.215125 0.087071
O O1 0.625194 0.916079 0.261816
O O2 0.456190 0.845051 0.229625
O O3 0.319783 0.930200 0.256781
O O4 0.768962 0.912862 0.024595
O O5 0.038499 0.500000 0.376200
O O6 0.684399 0.429480 0.518422
O O7 0.000000 0.427232 0.500000
O O8 0.008400 0.814717 0.346088
O O9 0.971499 0.810661 0.190248
O O10 0.264822 0.752766 0.169892
O O11 0.778144 0.738168 0.352568
O O12 0.954343 0.923118 0.775543
O O13 0.837133 0.000000 0.923963
O O14 0.500000 0.938805 0.000000
O O15 0.000000 0.160700 0.500000
O O16 0.534868 0.500000 0.316179
O O17 0.250000 0.250000 0.000000
O O18 0.000000 0.184795 0.000000
#
# Coordination Sequence:
#
# PCOD9193960 Si02
#       7
#     8   8   8   8   8   8   8
#     4  11  20  34  57  85 111 145 194 243 282 330
#     4  10  20  34  54  83 121 159 189 223 277 341
#     4   9  19  35  54  75 104 142 181 230 294 350
#     4   8  15  30  54  84 115 144 179 225 274 323
#     4  11  22  37  56  80 107 142 192 244 297 354
#     4   9  17  33  57  85 118 155 193 230 273 330
#     4   8  14  30  56  81 102 128 171 221 277 346
#
# _framework density 25.725853000000001
#
# number of rings (size 3 to 8) (size 9 to 14) (size 15 to 20)
#    0.000    2.571    0.000    3.857    0.000    1.143 
#    0.000   28.571    0.000    6.857    0.000    0.000 
#    0.000    0.000    0.000    0.000    0.000    0.143 
#
# Total GULP energy -156167.099430 kJ/mol
# GULP energy per Si atom -5577.396408 kJ/mol
# Density = 2.566730 g / cm^3
# Si number density = 25.725853 Si / 1000 Ang^3
#
#
#
# Elastic Constant Matrix: (Units=GPa)
#
#
# Indices 1 2 3 4 5 6 
#
# 1 130.8348 28.6229 62.8921 0.0000 51.5177 0.0000
# 2 28.6229 80.9017 39.4162 0.0000 25.3753 0.0000
# 3 62.8921 39.4162 158.7120 0.0000 33.5668 0.0000
# 4 0.0000 0.0000 0.0000 43.8277 0.0000 -75.7427
# 5 51.5177 25.3753 33.5668 0.0000 68.5805 0.0000
# 6 0.0000 0.0000 0.0000 -75.7427 0.0000 243.3776
#
#
#
# Elastic Compliance Matrix: (Units=1/GPa)
#
#
# Indices 1 2 3 4 5 6 
#
# 1 0.012185 -0.000443 -0.003143 0.000000 -0.007451 0.000000
# 2 -0.000443 0.015078 -0.002744 0.000000 -0.003904 0.000000
# 3 -0.003143 -0.002744 0.008381 0.000000 -0.000726 0.000000
# 4 0.000000 0.000000 0.000000 0.049369 0.000000 0.015365
# 5 -0.007451 -0.003904 -0.000726 0.000000 0.021979 0.000000
# 6 0.000000 0.000000 0.000000 0.015365 0.000000 0.008891
#
#
# Mechanical properties :
#
#
# Convention : Reuss Voigt Hill
#
# Bulk Modulus (GPa) = 43.50430 70.25677 56.88053
# Shear Modulus (GPa) = 36.70999 87.12497 61.91748
#
# Velocity S-wave (km/s) = 3.78162 5.82582 4.91126
# Velocity P-wave (km/s) = 6.00125 8.52190 7.37013
#
# Compressibility (1/GPa) = 0.02298624
#
# Stress axis : x y z
#
# Youngs Moduli (GPa) = 82.07026 66.31964 119.31766
#
# Poissons Ratio (x) = 0.02936 0.37496
# Poissons Ratio (y) = 0.03634 0.32737
# Poissons Ratio (z) = 0.25791 0.18196
#
# Static dielectric constant tensor:
#      x y z
#    x 2.084580 0.000000 -0.009210 
#    y 0.000000 2.055420 0.000000 
#    z -0.009210 0.000000 2.233910 
# 
# From -- ./inp_files/200831.got.cif
#   From: 2010.05.17/outbox.cif.g08.bks.cpg/sg12_101_cif.got.tgz:200831.got - 2010.06.03 13:09:07.
