data_PCOD9193039
_publ_section_title
;
Structure prediction by ZEFSAII (Michael W. Deem and Ramdas Pophale) SiO2 
 PCOD9193039
Probable space group: C 2/M
;
_chemical_formula_sum "Si O2"
_cell_formula_units_Z 64
_cell_length_a 20.737382
_cell_length_b 8.558880
_cell_length_c 26.094002
_cell_angle_alpha 90.000000
_cell_angle_beta 128.669660
_cell_angle_gamma 90.000000
_cell_volume 3616.012158
_symmetry_space_group_name_H-M "C 2/M"
_symmetry_group_IT_number 12
_symmetry_cell_setting 'monoclinic'
loop_
_space_group_symop_operation_xyz
x,y,z
-x,y,-z
-x,-y,-z
x,-y,z
1/2+x,1/2+y,z
1/2-x,1/2+y,-z
1/2-x,1/2-y,-z
1/2+x,1/2-y,z
loop_
_atom_site_type_symbol
_atom_site_label
_atom_site_fract_x
_atom_site_fract_y
_atom_site_fract_z
Si Si1 0.493833 0.812775 0.342539
Si Si2 0.180686 0.687115 0.427570
Si Si3 0.750755 0.687913 0.839063
Si Si4 0.418916 0.689121 0.199745
Si Si5 0.046369 0.190205 0.179575
Si Si6 0.705042 0.687171 0.325351
Si Si7 0.431347 0.311376 0.925684
Si Si8 0.832554 0.186917 0.310543
O O1 0.588217 0.762935 0.398291
O O2 0.467603 0.755976 0.272814
O O3 0.425738 0.743194 0.347038
O O4 0.489160 0.000000 0.342109
O O5 0.182356 0.500000 0.428584
O O6 0.250000 0.750000 0.500000
O O7 0.196662 0.745502 0.377897
O O8 0.757529 0.500000 0.843018
O O9 0.676667 0.734216 0.840584
O O10 0.839119 0.760172 0.894113
O O11 0.718944 0.734165 0.766307
O O12 0.422759 0.500000 0.205305
O O13 0.465423 0.737825 0.171257
O O14 0.126950 0.239548 0.251816
O O15 0.050527 0.245065 0.123218
O O16 0.047325 0.000000 0.178922
O O17 0.703138 0.500000 0.327191
O O18 0.787113 0.741469 0.336758
O O19 0.433797 0.500000 0.926212
O O20 0.500000 0.256164 0.000000
O O21 0.831062 0.000000 0.312672
#
# Coordination Sequence:
#
# PCOD9193039 Si02
#       8
#     8   8   8   8   8   8   8   8
#     4  10  20  34  54  82 112 141 179 226 273 323
#     4  11  24  40  58  83 116 150 185 226 275 331
#     4   9  18  31  50  75 104 138 175 221 271 323
#     4   9  17  32  53  77 104 138 180 222 271 327
#     4   9  17  31  53  79 105 139 182 223 267 322
#     4  11  20  34  59  85 111 145 186 230 277 326
#     4  10  20  34  52  75 106 144 184 225 271 327
#     4  10  20  34  55  83 113 144 181 227 276 326
#
# _framework density 17.699055000000001
#
# number of rings (size 3 to 8) (size 9 to 14) (size 15 to 20)
#    0.000    2.125    2.500    2.250    0.000    3.750 
#    0.000    1.875    0.000    3.750    0.000    0.000 
#    0.000    0.000    0.000    0.000    0.000    0.000 
#
# Total GULP energy -178560.130837 kJ/mol
# GULP energy per Si atom -5580.004089 kJ/mol
# Density = 1.765877 g / cm^3
# Si number density = 17.699055 Si / 1000 Ang^3
#
#
#
# Elastic Constant Matrix: (Units=GPa)
#
#
# Indices 1 2 3 4 5 6 
#
# 1 163.5254 27.8360 85.8398 0.0000 15.0003 0.0000
# 2 27.8360 24.7538 27.6684 0.0000 5.1645 0.0000
# 3 85.8398 27.6684 125.3811 0.0000 11.9509 0.0000
# 4 0.0000 0.0000 0.0000 20.2387 0.0000 2.4354
# 5 15.0003 5.1645 11.9509 0.0000 26.7561 0.0000
# 6 0.0000 0.0000 0.0000 2.4354 0.0000 27.0275
#
#
#
# Elastic Compliance Matrix: (Units=1/GPa)
#
#
# Indices 1 2 3 4 5 6 
#
# 1 0.010074 -0.004501 -0.005690 0.000000 -0.002237 0.000000
# 2 -0.004501 0.056362 -0.008940 0.000000 -0.004362 0.000000
# 3 -0.005690 -0.008940 0.013971 0.000000 -0.001324 0.000000
# 4 0.000000 0.000000 0.000000 0.049952 0.000000 -0.004501
# 5 -0.002237 -0.004362 -0.001324 0.000000 0.040062 0.000000
# 6 0.000000 0.000000 0.000000 -0.004501 0.000000 0.037405
#
#
# Mechanical properties :
#
#
# Convention : Reuss Voigt Hill
#
# Bulk Modulus (GPa) = 23.72856 66.26098 44.99477
# Shear Modulus (GPa) = 19.22065 26.29220 22.75642
#
# Velocity S-wave (km/s) = 3.29898 3.85842 3.58961
# Velocity P-wave (km/s) = 5.28648 7.57421 6.53129
#
# Compressibility (1/GPa) = 0.04214331
#
# Stress axis : x y z
#
# Youngs Moduli (GPa) = 99.26883 17.74233 71.57913
#
# Poissons Ratio (x) = 0.07986 0.40730
# Poissons Ratio (y) = 0.44681 0.63995
# Poissons Ratio (z) = 0.56486 0.15862
#
# Static dielectric constant tensor:
#      x y z
#    x 1.614010 0.000000 0.007420 
#    y 0.000000 1.599460 0.000000 
#    z 0.007420 0.000000 1.577360 
# 
# From -- ./inp_files/346306.got.cif
#   From: 2010.05.17/outbox.cif.g08.bks.cpg/sg12_174_cif.got.tgz:346306.got - 2010.06.03 13:09:07.
