data_PCOD9193449
_publ_section_title
;
Structure prediction by ZEFSAII (Michael W. Deem and Ramdas Pophale) SiO2 
 PCOD9193449
Probable space group: C 2/M
;
_chemical_formula_sum "Si O2"
_cell_formula_units_Z 48
_cell_length_a 8.961881
_cell_length_b 15.256721
_cell_length_c 16.123460
_cell_angle_alpha 90.000000
_cell_angle_beta 90.006377
_cell_angle_gamma 90.000000
_cell_volume 2204.543227
_symmetry_space_group_name_H-M "C 2/M"
_symmetry_group_IT_number 12
_symmetry_cell_setting 'monoclinic'
loop_
_space_group_symop_operation_xyz
x,y,z
-x,y,-z
-x,-y,-z
x,-y,z
1/2+x,1/2+y,z
1/2-x,1/2+y,-z
1/2-x,1/2-y,-z
1/2+x,1/2-y,z
loop_
_atom_site_type_symbol
_atom_site_label
_atom_site_fract_x
_atom_site_fract_y
_atom_site_fract_z
Si Si1 0.416673 0.603729 0.749272
Si Si2 0.071945 0.846552 0.582194
Si Si3 0.428224 0.153280 0.582201
Si Si4 0.583377 0.103701 0.749332
Si Si5 0.421505 0.107482 0.914711
Si Si6 0.578464 0.607480 0.914718
O O1 0.401367 0.500000 0.762410
O O2 0.519847 0.613961 0.669057
O O3 0.250002 0.640672 0.734503
O O4 0.491097 0.638727 0.833156
O O5 0.250085 0.844256 0.574605
O O6 0.000000 0.889775 0.500000
O O7 0.000228 0.749881 0.584590
O O8 0.500000 0.110006 0.500000
O O9 0.480187 0.113774 0.669089
O O10 0.508862 0.138752 0.833161
O O11 0.598859 0.000000 0.762611
O O12 0.249984 0.135606 0.912351
O O13 0.421786 0.000000 0.913875
O O14 0.500000 0.134410 0.000000
O O15 0.578157 0.500000 0.913893
O O16 0.500000 0.634426 0.000000
#
# Coordination Sequence:
#
# PCOD9193449 Si02
#       6
#     8   8   8   8   8   8
#     4  10  20  34  53  79 109 139 174 217 262 306
#     4  11  22  38  58  78 103 136 175 215 259 313
#     4  11  22  38  58  78 103 136 175 215 259 313
#     4  10  20  34  53  79 109 139 174 217 262 306
#     4   9  16  27  45  71 103 138 174 212 256 305
#     4   9  16  27  45  71 103 138 174 212 256 305
#
# _framework density 21.773216999999999
#
# number of rings (size 3 to 8) (size 9 to 14) (size 15 to 20)
#    0.000    2.000    0.000    6.000    0.000    6.667 
#    0.000    0.000    0.000    1.000    0.000    7.000 
#    0.000    0.000    0.000    0.000    0.000    0.000 
#
# Total GULP energy -134075.013191 kJ/mol
# GULP energy per Si atom -5586.458883 kJ/mol
# Density = 2.172366 g / cm^3
# Si number density = 21.773217 Si / 1000 Ang^3
#
#
#
# Elastic Constant Matrix: (Units=GPa)
#
#
# Indices 1 2 3 4 5 6 
#
# 1 241.6265 9.9540 114.2325 0.0000 5.9960 0.0000
# 2 9.9540 25.2892 6.8999 0.0000 -1.9180 0.0000
# 3 114.2325 6.8999 215.1460 0.0000 3.7979 0.0000
# 4 0.0000 0.0000 0.0000 17.5983 0.0000 0.0431
# 5 5.9960 -1.9180 3.7979 0.0000 416.0610 0.0000
# 6 0.0000 0.0000 0.0000 0.0431 0.0000 15.2303
#
#
#
# Elastic Compliance Matrix: (Units=1/GPa)
#
#
# Indices 1 2 3 4 5 6 
#
# 1 0.005576 -0.001404 -0.002914 0.000000 -0.000060 0.000000
# 2 -0.001404 0.040261 -0.000549 0.000000 0.000211 0.000000
# 3 -0.002914 -0.000549 0.006213 0.000000 -0.000017 0.000000
# 4 0.000000 0.000000 0.000000 0.056824 0.000000 -0.000161
# 5 -0.000060 0.000211 -0.000017 0.000000 0.002405 0.000000
# 6 0.000000 0.000000 0.000000 -0.000161 0.000000 0.065659
#
#
# Mechanical properties :
#
#
# Convention : Reuss Voigt Hill
#
# Bulk Modulus (GPa) = 23.63262 82.69273 53.16267
# Shear Modulus (GPa) = 24.90295 113.17628 69.03961
#
# Velocity S-wave (km/s) = 3.38559 7.21751 5.63714
# Velocity P-wave (km/s) = 5.11474 10.36909 8.17553
#
# Compressibility (1/GPa) = 0.04231440
#
# Stress axis : x y z
#
# Youngs Moduli (GPa) = 179.34735 24.83789 160.94418
#
# Poissons Ratio (x) = 0.03487 0.46905
# Poissons Ratio (y) = 0.25182 0.08843
# Poissons Ratio (z) = 0.52269 0.01365
#
# Static dielectric constant tensor:
#      x y z
#    x 1.762530 0.000000 0.000040 
#    y 0.000000 1.867850 0.000000 
#    z 0.000040 0.000000 1.802160 
# 
# From -- ./inp_files/195943.got.cif
#   From: 2010.05.17/outbox.cif.g08.bks.cpg/sg12_98_cif.got.tgz:195943.got - 2010.06.03 13:09:07.
