data_PCOD9193220
_publ_section_title
;
Structure prediction by ZEFSAII (Michael W. Deem and Ramdas Pophale) SiO2 
 PCOD9193220
Probable space group: C 2/M
;
_chemical_formula_sum "Si O2"
_cell_formula_units_Z 48
_cell_length_a 30.843057
_cell_length_b 7.714182
_cell_length_c 9.663170
_cell_angle_alpha 90.000000
_cell_angle_beta 87.251790
_cell_angle_gamma 90.000000
_cell_volume 2296.503657
_symmetry_space_group_name_H-M "C 2/M"
_symmetry_group_IT_number 12
_symmetry_cell_setting 'monoclinic'
loop_
_space_group_symop_operation_xyz
x,y,z
-x,y,-z
-x,-y,-z
x,-y,z
1/2+x,1/2+y,z
1/2-x,1/2+y,-z
1/2-x,1/2-y,-z
1/2+x,1/2-y,z
loop_
_atom_site_type_symbol
_atom_site_label
_atom_site_fract_x
_atom_site_fract_y
_atom_site_fract_z
Si Si1 0.662860 0.294885 0.178566
Si Si2 0.241167 0.791239 0.342372
Si Si3 0.004867 0.797232 0.651925
Si Si4 0.415440 0.796667 0.188532
Si Si5 0.819168 0.289637 0.134225
Si Si6 0.933102 0.788809 0.875550
O O1 0.658380 0.500000 0.203587
O O2 0.695356 0.224132 0.289530
O O3 0.613752 0.227060 0.174386
O O4 0.684173 0.269040 0.024112
O O5 0.250000 0.750000 0.500000
O O6 0.280118 0.729426 0.237202
O O7 0.240424 0.000000 0.329701
O O8 0.053357 0.784832 0.702791
O O9 0.000000 0.719918 0.500000
O O10 0.971636 0.725534 0.771407
O O11 0.993093 0.000000 0.642523
O O12 0.366127 0.729499 0.183751
O O13 0.413221 0.000000 0.218477
O O14 0.436144 0.769721 0.033591
O O15 0.819738 0.500000 0.132760
O O16 0.933279 0.000000 0.880103
#
# Coordination Sequence:
#
# PCOD9193220 Si02
#       6
#     8   8   8   8   8   8
#     4   9  18  33  54  77  98 127 170 212 247 292
#     4  10  21  35  51  75 106 136 166 202 247 298
#     4  10  21  35  51  73 102 135 168 205 251 298
#     4  10  20  34  53  76 101 131 168 207 248 297
#     4   9  19  35  53  75 103 132 164 206 252 295
#     4   9  18  34  54  75 100 129 165 211 255 292
#
# _framework density 20.901337000000002
#
# number of rings (size 3 to 8) (size 9 to 14) (size 15 to 20)
#    0.000    2.500    0.000    1.500    0.000    6.333 
#    0.000    1.667    0.000    0.000    0.000    0.000 
#    0.000    0.000    0.000    0.000    0.000    0.000 
#
# Total GULP energy -133981.453478 kJ/mol
# GULP energy per Si atom -5582.560562 kJ/mol
# Density = 2.085376 g / cm^3
# Si number density = 20.901337 Si / 1000 Ang^3
#
#
#
# Elastic Constant Matrix: (Units=GPa)
#
#
# Indices 1 2 3 4 5 6 
#
# 1 61.3723 -4.6822 38.1594 0.0000 28.2922 0.0000
# 2 -4.6822 24.8824 -11.8169 0.0000 -5.6687 0.0000
# 3 38.1594 -11.8169 61.5357 0.0000 40.9569 0.0000
# 4 0.0000 0.0000 0.0000 -10.1475 0.0000 -3.5774
# 5 28.2922 -5.6687 40.9569 0.0000 28.9415 0.0000
# 6 0.0000 0.0000 0.0000 -3.5774 0.0000 15.3340
#
#
#
# Elastic Compliance Matrix: (Units=1/GPa)
#
#
# Indices 1 2 3 4 5 6 
#
# 1 0.030616 0.001759 0.017956 0.000000 -0.054996 0.000000
# 2 0.001759 0.050749 0.054792 0.000000 -0.069319 0.000000
# 3 0.017956 0.054792 0.347311 0.000000 -0.498323 0.000000
# 4 0.000000 0.000000 0.000000 -0.091057 0.000000 -0.021244
# 5 -0.054996 -0.069319 -0.498323 0.000000 0.779944 0.000000
# 6 0.000000 0.000000 0.000000 -0.021244 0.000000 0.060259
#
#
# Mechanical properties :
#
#
# Convention : Reuss Voigt Hill
#
# Bulk Modulus (GPa) = 1.73103 21.23456 11.48280
# Shear Modulus (GPa) = 4.09376 15.23426 9.66401
#
# Velocity S-wave (km/s) = 1.40102 2.70268 2.15260
# Velocity P-wave (km/s) = 1.85665 4.46327 3.41818
#
# Compressibility (1/GPa) = 0.57769110
#
# Stress axis : x y z
#
# Youngs Moduli (GPa) = 32.66234 19.70486 2.87926
#
# Poissons Ratio (x) = -0.03467 -0.05170
# Poissons Ratio (y) = -0.05747 -0.15776
# Poissons Ratio (z) = -0.58649 -1.07966
#
# Static dielectric constant tensor:
#      x y z
#    x 1.764940 0.000000 0.006330 
#    y 0.000000 1.775930 0.000000 
#    z 0.006330 0.000000 1.712670 
# 
# From -- ./inp_files/108602.got.cif
#   From: 2010.05.17/outbox.cif.g08.bks.cpg/sg12_55_cif.got.tgz:108602.got - 2010.06.03 13:09:07.
