data_PCOD9193964
_publ_section_title
;
Structure prediction by ZEFSAII (Michael W. Deem and Ramdas Pophale) SiO2 
 PCOD9193964
Probable space group: C 2/M
;
_chemical_formula_sum "Si O2"
_cell_formula_units_Z 40
_cell_length_a 7.128276
_cell_length_b 25.499366
_cell_length_c 12.656868
_cell_angle_alpha 90.000000
_cell_angle_beta 45.526326
_cell_angle_gamma 90.000000
_cell_volume 1641.641033
_symmetry_space_group_name_H-M "C 2/M"
_symmetry_group_IT_number 12
_symmetry_cell_setting 'monoclinic'
loop_
_space_group_symop_operation_xyz
x,y,z
-x,y,-z
-x,-y,-z
x,-y,z
1/2+x,1/2+y,z
1/2-x,1/2+y,-z
1/2-x,1/2-y,-z
1/2+x,1/2-y,z
loop_
_atom_site_type_symbol
_atom_site_label
_atom_site_fract_x
_atom_site_fract_y
_atom_site_fract_z
Si Si1 0.248664 0.164389 0.018244
Si Si2 0.379457 0.825939 0.311816
Si Si3 0.241288 0.105992 0.558660
Si Si4 0.040297 0.210753 0.696810
Si Si5 0.321349 0.558256 0.866695
O O1 0.076514 0.210454 0.137941
O O2 0.113469 0.107900 0.086377
O O3 0.500000 0.163867 0.000000
O O4 0.354706 0.167343 0.858977
O O5 0.294705 0.874300 0.418124
O O6 0.159836 0.813062 0.310428
O O7 0.399795 0.769630 0.359988
O O8 0.500000 0.076830 0.500000
O O9 0.236947 0.162021 0.622809
O O10 0.975575 0.074895 0.697229
O O11 0.411321 0.500000 0.860794
O O12 0.000000 0.556267 0.000000
#
# Coordination Sequence:
#
# PCOD9193964 Si02
#       5
#     8   8   8   8   8
#     4   8  17  33  56  84 115 153 197 242 288 349
#     4  11  20  35  58  87 123 162 204 245 291 352
#     4  11  23  38  58  89 124 158 197 247 301 352
#     4  10  20  34  54  83 122 165 201 236 290 357
#     4   9  19  40  66  87 114 155 200 249 307 365
#
# _framework density 24.365863000000001
#
# number of rings (size 3 to 8) (size 9 to 14) (size 15 to 20)
#    0.000    2.200    0.000    4.200    0.000    0.400 
#    0.000    9.000    0.000   24.000    0.000    0.000 
#    0.000    0.000    0.000    0.000    0.000    0.000 
#
# Total GULP energy -111446.193469 kJ/mol
# GULP energy per Si atom -5572.309673 kJ/mol
# Density = 2.431041 g / cm^3
# Si number density = 24.365863 Si / 1000 Ang^3
#
#
#
# Elastic Constant Matrix: (Units=GPa)
#
#
# Indices 1 2 3 4 5 6 
#
# 1 71.5105 5.8078 35.4771 0.0000 -3.0008 0.0000
# 2 5.8078 101.5436 32.6189 0.0000 -1.9390 0.0000
# 3 35.4771 32.6189 171.4422 0.0000 23.6071 0.0000
# 4 0.0000 0.0000 0.0000 16.1938 0.0000 3.4104
# 5 -3.0008 -1.9390 23.6071 0.0000 25.7802 0.0000
# 6 0.0000 0.0000 0.0000 3.4104 0.0000 11.1532
#
#
#
# Elastic Compliance Matrix: (Units=1/GPa)
#
#
# Indices 1 2 3 4 5 6 
#
# 1 0.016313 0.000557 -0.004290 0.000000 0.005869 0.000000
# 2 0.000557 0.010714 -0.002602 0.000000 0.003253 0.000000
# 3 -0.004290 -0.002602 0.008366 0.000000 -0.008356 0.000000
# 4 0.000000 0.000000 0.000000 0.066002 0.000000 -0.020182
# 5 0.005869 0.003253 -0.008356 0.000000 0.047369 0.000000
# 6 0.000000 0.000000 0.000000 -0.020182 0.000000 0.095831
#
#
# Mechanical properties :
#
#
# Convention : Reuss Voigt Hill
#
# Bulk Modulus (GPa) = 44.00548 54.70044 49.35296
# Shear Modulus (GPa) = 18.87934 28.66493 23.77213
#
# Velocity S-wave (km/s) = 2.78659 3.43365 3.12690
# Velocity P-wave (km/s) = 5.33413 6.18209 5.77370
#
# Compressibility (1/GPa) = 0.02272444
#
# Stress axis : x y z
#
# Youngs Moduli (GPa) = 61.29980 93.33600 119.52876
#
# Poissons Ratio (x) = -0.05200 0.51277
# Poissons Ratio (y) = -0.03415 0.31097
# Poissons Ratio (z) = 0.26297 0.24283
#
# Static dielectric constant tensor:
#      x y z
#    x 2.093600 0.000000 -0.072380 
#    y 0.000000 1.917160 0.000000 
#    z -0.072380 0.000000 2.137310 
# 
# From -- ./inp_files/199216.got.cif
#   From: 2010.05.17/outbox.cif.g08.bks.cpg/sg12_100_cif.got.tgz:199216.got - 2010.06.03 13:09:07.
