data_PCOD9193942
_publ_section_title
;
Structure prediction by ZEFSAII (Michael W. Deem and Ramdas Pophale) SiO2 
 PCOD9193942
Probable space group: C 2/M
;
_chemical_formula_sum "Si O2"
_cell_formula_units_Z 56
_cell_length_a 29.632798
_cell_length_b 7.538269
_cell_length_c 13.056425
_cell_angle_alpha 90.000000
_cell_angle_beta 57.220354
_cell_angle_gamma 90.000000
_cell_volume 2452.110795
_symmetry_space_group_name_H-M "C 2/M"
_symmetry_group_IT_number 12
_symmetry_cell_setting 'monoclinic'
loop_
_space_group_symop_operation_xyz
x,y,z
-x,y,-z
-x,-y,-z
x,-y,z
1/2+x,1/2+y,z
1/2-x,1/2+y,-z
1/2-x,1/2-y,-z
1/2+x,1/2-y,z
loop_
_atom_site_type_symbol
_atom_site_label
_atom_site_fract_x
_atom_site_fract_y
_atom_site_fract_z
Si Si1 0.254657 0.784727 0.673033
Si Si2 0.639498 0.714850 0.737462
Si Si3 0.451973 0.792599 0.990092
Si Si4 0.898826 0.792274 0.853203
Si Si5 0.283916 0.712273 0.059187
Si Si6 0.125502 0.794519 0.533563
Si Si7 0.561974 0.717448 0.414165
O O1 0.201203 0.729431 0.677596
O O2 0.244407 0.724160 0.802587
O O3 0.310701 0.713575 0.563416
O O4 0.257997 0.000000 0.665585
O O5 0.640051 0.500000 0.734895
O O6 0.602247 0.767811 0.877715
O O7 0.616304 0.782244 0.658019
O O8 0.462510 0.000000 0.963783
O O9 0.500000 0.715224 0.000000
O O10 0.443342 0.719560 0.886952
O O11 0.915040 0.718817 0.722936
O O12 0.888347 0.000000 0.848497
O O13 0.843663 0.715521 0.966509
O O14 0.288165 0.500000 0.068119
O O15 0.250000 0.750000 0.000000
O O16 0.095500 0.718980 0.471381
O O17 0.108533 0.000000 0.559941
O O18 0.500000 0.767321 0.500000
O O19 0.564158 0.500000 0.410399
#
# Coordination Sequence:
#
# PCOD9193942 Si02
#       7
#     8   8   8   8   8   8   8
#     4  10  20  36  55  82 120 152 188 237 288 343
#     4  10  21  39  62  88 116 151 196 238 283 347
#     4  11  25  41  59  87 120 151 191 244 298 350
#     4  10  20  38  62  84 115 154 193 240 286 339
#     4  10  20  34  54  83 116 153 195 237 285 341
#     4  10  21  36  59  89 117 151 196 237 283 346
#     4   9  19  35  57  88 117 145 191 244 285 330
#
# _framework density 22.837468000000001
#
# number of rings (size 3 to 8) (size 9 to 14) (size 15 to 20)
#    0.000    2.000    1.429    1.714    2.000    4.571 
#    0.000    0.714    0.000    0.857    0.000    0.000 
#    0.000    0.000    0.000    0.000    0.000    0.000 
#
# Total GULP energy -156498.425515 kJ/mol
# GULP energy per Si atom -5589.229483 kJ/mol
# Density = 2.278549 g / cm^3
# Si number density = 22.837468 Si / 1000 Ang^3
#
#
#
# Elastic Constant Matrix: (Units=GPa)
#
#
# Indices 1 2 3 4 5 6 
#
# 1 105.4602 -14.6989 19.7173 0.0000 28.6194 0.0000
# 2 -14.6989 52.3914 -4.7209 0.0000 0.6571 0.0000
# 3 19.7173 -4.7209 105.5876 0.0000 39.6822 0.0000
# 4 0.0000 0.0000 0.0000 -24.6260 0.0000 12.9978
# 5 28.6194 0.6571 39.6822 0.0000 41.9490 0.0000
# 6 0.0000 0.0000 0.0000 12.9978 0.0000 -1.7872
#
#
#
# Elastic Compliance Matrix: (Units=1/GPa)
#
#
# Indices 1 2 3 4 5 6 
#
# 1 0.012441 0.003765 0.001640 0.000000 -0.010098 0.000000
# 2 0.003765 0.020384 0.002007 0.000000 -0.004787 0.000000
# 3 0.001640 0.002007 0.015030 0.000000 -0.015368 0.000000
# 4 0.000000 0.000000 0.000000 0.014305 0.000000 0.104039
# 5 -0.010098 -0.004787 -0.015368 0.000000 0.045341 0.000000
# 6 0.000000 0.000000 0.000000 0.104039 0.000000 0.197114
#
#
# Mechanical properties :
#
#
# Convention : Reuss Voigt Hill
#
# Bulk Modulus (GPa) = 15.95407 29.33712 22.64560
# Shear Modulus (GPa) = 16.09356 20.64995 18.37175
#
# Velocity S-wave (km/s) = 2.65750 3.01028 2.83937
# Velocity P-wave (km/s) = 4.05185 4.99563 4.54828
#
# Compressibility (1/GPa) = 0.06267994
#
# Stress axis : x y z
#
# Youngs Moduli (GPa) = 80.38102 49.05743 66.53337
#
# Poissons Ratio (x) = -0.18469 -0.10914
# Poissons Ratio (y) = -0.30262 -0.13355
# Poissons Ratio (z) = -0.13185 -0.09847
#
# Static dielectric constant tensor:
#      x y z
#    x 1.810770 0.000000 -0.035960 
#    y 0.000000 1.883350 0.000000 
#    z -0.035960 0.000000 1.725270 
# 
# From -- ./inp_files/180758.got.cif
#   From: 2010.05.17/outbox.cif.g08.bks.cpg/sg12_91_cif.got.tgz:180758.got - 2010.06.03 13:09:07.
