data_PCOD9193938
_publ_section_title
;
Structure prediction by ZEFSAII (Michael W. Deem and Ramdas Pophale) SiO2 
 PCOD9193938
Probable space group: C 2/M
;
_chemical_formula_sum "Si O2"
_cell_formula_units_Z 64
_cell_length_a 29.397786
_cell_length_b 7.605935
_cell_length_c 12.792853
_cell_angle_alpha 90.000000
_cell_angle_beta 90.831653
_cell_angle_gamma 90.000000
_cell_volume 2860.150535
_symmetry_space_group_name_H-M "C 2/M"
_symmetry_group_IT_number 12
_symmetry_cell_setting 'monoclinic'
loop_
_space_group_symop_operation_xyz
x,y,z
-x,y,-z
-x,-y,-z
x,-y,z
1/2+x,1/2+y,z
1/2-x,1/2+y,-z
1/2-x,1/2-y,-z
1/2+x,1/2-y,z
loop_
_atom_site_type_symbol
_atom_site_label
_atom_site_fract_x
_atom_site_fract_y
_atom_site_fract_z
Si Si1 0.955356 0.787556 0.759322
Si Si2 0.752551 0.710710 0.667819
Si Si3 0.226071 0.211448 0.889996
Si Si4 0.551350 0.203319 0.011225
Si Si5 0.374787 0.703906 0.153662
Si Si6 0.446762 0.284612 0.314196
Si Si7 0.074266 0.201655 0.465189
Si Si8 0.176483 0.290198 0.503692
O O1 0.936118 0.715225 0.866412
O O2 0.932863 0.723615 0.650535
O O3 0.008481 0.739016 0.749399
O O4 0.951701 0.000000 0.765717
O O5 0.757083 0.500000 0.669709
O O6 0.752082 0.775673 0.786637
O O7 0.791986 0.775752 0.591439
O O8 0.704810 0.751849 0.609465
O O9 0.174046 0.278698 0.879867
O O10 0.224806 0.000000 0.883345
O O11 0.250000 0.250000 0.000000
O O12 0.549133 0.000000 0.978737
O O13 0.500000 0.278968 0.000000
O O14 0.589163 0.289392 0.939750
O O15 0.366573 0.500000 0.179909
O O16 0.401802 0.780820 0.253663
O O17 0.445164 0.500000 0.317109
O O18 0.450016 0.221209 0.433438
O O19 0.127275 0.205536 0.496003
O O20 0.057858 0.000000 0.456141
O O21 0.170767 0.500000 0.494767
#
# Coordination Sequence:
#
# PCOD9193938 Si02
#       8
#     8   8   8   8   8   8   8   8
#     4  10  20  35  58  83 108 146 190 231 273 325
#     4   9  19  38  60  79 107 145 187 231 276 328
#     4  10  22  39  59  85 115 149 188 235 290 340
#     4  11  23  38  56  80 113 149 186 232 287 338
#     4  10  20  36  61  86 108 144 194 238 277 330
#     4   9  17  33  58  83 108 141 185 233 274 320
#     4  10  20  34  54  83 116 146 181 225 276 332
#     4  10  20  34  56  85 112 145 183 223 277 334
#
# _framework density 22.376443999999999
#
# number of rings (size 3 to 8) (size 9 to 14) (size 15 to 20)
#    0.000    2.125    1.250    1.875    0.000    7.000 
#    0.000    5.000    0.000    1.500    0.000    0.000 
#    0.000    0.000    0.000    0.000    0.000    0.000 
#
# Total GULP energy -178766.285258 kJ/mol
# GULP energy per Si atom -5586.446414 kJ/mol
# Density = 2.232551 g / cm^3
# Si number density = 22.376444 Si / 1000 Ang^3
#
#
#
# Elastic Constant Matrix: (Units=GPa)
#
#
# Indices 1 2 3 4 5 6 
#
# 1 41.5587 -7.4334 14.5314 0.0000 5.5289 0.0000
# 2 -7.4334 50.4852 -4.8792 0.0000 0.0552 0.0000
# 3 14.5314 -4.8792 158.4967 0.0000 10.4410 0.0000
# 4 0.0000 0.0000 0.0000 -53.6801 0.0000 28.5972
# 5 5.5289 0.0552 10.4410 0.0000 25.7262 0.0000
# 6 0.0000 0.0000 0.0000 28.5972 0.0000 3.1561
#
#
#
# Elastic Compliance Matrix: (Units=1/GPa)
#
#
# Indices 1 2 3 4 5 6 
#
# 1 0.026040 0.003650 -0.001958 0.000000 -0.004809 0.000000
# 2 0.003650 0.020381 0.000357 0.000000 -0.000973 0.000000
# 3 -0.001958 0.000357 0.006650 0.000000 -0.002279 0.000000
# 4 0.000000 0.000000 0.000000 -0.003197 0.000000 0.028967
# 5 -0.004809 -0.000973 -0.002279 0.000000 0.040831 0.000000
# 6 0.000000 0.000000 0.000000 0.028967 0.000000 0.054375
#
#
# Mechanical properties :
#
#
# Convention : Reuss Voigt Hill
#
# Bulk Modulus (GPa) = 17.49235 28.33091 22.91163
# Shear Modulus (GPa) = 31.24256 11.59524 21.41890
#
# Velocity S-wave (km/s) = 3.74066 2.27885 3.09723
# Velocity P-wave (km/s) = 5.14694 4.42863 4.80124
#
# Compressibility (1/GPa) = 0.05716786
#
# Stress axis : x y z
#
# Youngs Moduli (GPa) = 38.40285 49.06582 150.37786
#
# Poissons Ratio (x) = -0.17909 0.29447
# Poissons Ratio (y) = -0.14017 -0.05366
# Poissons Ratio (z) = 0.07520 -0.01751
#
# Static dielectric constant tensor:
#      x y z
#    x 1.810560 0.000000 0.001180 
#    y 0.000000 1.841740 0.000000 
#    z 0.001180 0.000000 1.842310 
# 
# From -- ./inp_files/187600.got.cif
#   From: 2010.05.17/outbox.cif.g08.bks.cpg/sg12_94_cif.got.tgz:187600.got - 2010.06.03 13:09:07.
