data_PCOD9193302
_publ_section_title
;
Structure prediction by ZEFSAII (Michael W. Deem and Ramdas Pophale) SiO2 
 PCOD9193302
Probable space group: C 2/M
;
_chemical_formula_sum "Si O2"
_cell_formula_units_Z 48
_cell_length_a 18.486372
_cell_length_b 9.142730
_cell_length_c 24.669899
_cell_angle_alpha 90.000000
_cell_angle_beta 138.534409
_cell_angle_gamma 90.000000
_cell_volume 2760.988189
_symmetry_space_group_name_H-M "C 2/M"
_symmetry_group_IT_number 12
_symmetry_cell_setting 'monoclinic'
loop_
_space_group_symop_operation_xyz
x,y,z
-x,y,-z
-x,-y,-z
x,-y,z
1/2+x,1/2+y,z
1/2-x,1/2+y,-z
1/2-x,1/2-y,-z
1/2+x,1/2-y,z
loop_
_atom_site_type_symbol
_atom_site_label
_atom_site_fract_x
_atom_site_fract_y
_atom_site_fract_z
Si Si1 0.171521 0.326487 0.498981
Si Si2 0.630368 0.667944 0.585362
Si Si3 0.252848 0.327310 0.168949
Si Si4 0.085050 0.672689 0.668949
Si Si5 0.326438 0.826486 0.998978
Si Si6 0.959645 0.167944 0.914639
O O1 0.192117 0.500000 0.513878
O O2 0.250000 0.250000 0.500000
O O3 0.183068 0.251812 0.564341
O O4 0.045149 0.306322 0.409838
O O5 0.500000 0.665255 0.500000
O O6 0.667761 0.500000 0.610389
O O7 0.640149 0.753468 0.647173
O O8 0.257076 0.500000 0.181935
O O9 0.363371 0.250003 0.250001
O O10 0.154198 0.253466 0.147173
O O11 0.225477 0.306316 0.090164
O O12 0.106798 0.500000 0.681939
O O13 0.445613 0.751815 0.064340
O O14 0.335635 0.000000 0.013872
O O15 0.250000 0.750000 0.000000
O O16 0.946986 0.000000 0.889613
O O17 0.000000 0.165255 0.000000
#
# Coordination Sequence:
#
# PCOD9193302 Si02
#       6
#     8   8   8   8   8   8
#     4  10  20  34  53  77 105 137 174 214 258 310
#     4   9  17  31  52  75  99 130 168 207 249 301
#     4  10  20  34  53  77 104 134 170 214 260 306
#     4  10  20  34  53  77 104 134 170 214 260 306
#     4  10  20  34  53  77 105 137 174 214 258 310
#     4   9  17  31  52  75  99 130 168 207 249 301
#
# _framework density 17.385079999999999
#
# number of rings (size 3 to 8) (size 9 to 14) (size 15 to 20)
#    0.000    2.333    0.000    3.000    0.000    8.000 
#    0.000    1.667    0.000    4.000    0.000    0.000 
#    0.000    0.000    0.000    0.000    0.000    0.000 
#
# Total GULP energy -133889.781222 kJ/mol
# GULP energy per Si atom -5578.740884 kJ/mol
# Density = 1.734551 g / cm^3
# Si number density = 17.385080 Si / 1000 Ang^3
#
#
#
# Elastic Constant Matrix: (Units=GPa)
#
#
# Indices 1 2 3 4 5 6 
#
# 1 126.1108 84.0899 13.4589 0.0000 -6.9979 0.0000
# 2 84.0899 164.1325 52.3812 0.0000 -2.3974 0.0000
# 3 13.4589 52.3812 45.7505 0.0000 0.9294 0.0000
# 4 0.0000 0.0000 0.0000 28.8114 0.0000 -0.3676
# 5 -6.9979 -2.3974 0.9294 0.0000 10.5742 0.0000
# 6 0.0000 0.0000 0.0000 -0.3676 0.0000 33.6833
#
#
#
# Elastic Compliance Matrix: (Units=1/GPa)
#
#
# Indices 1 2 3 4 5 6 
#
# 1 0.013426 -0.008640 0.005812 0.000000 0.006416 0.000000
# 2 -0.008640 0.015266 -0.014918 0.000000 -0.000945 0.000000
# 3 0.005812 -0.014918 0.037285 0.000000 -0.002813 0.000000
# 4 0.000000 0.000000 0.000000 0.034713 0.000000 0.000379
# 5 0.006416 -0.000945 -0.002813 0.000000 0.098849 0.000000
# 6 0.000000 0.000000 0.000000 0.000379 0.000000 0.029692
#
#
# Mechanical properties :
#
#
# Convention : Reuss Voigt Hill
#
# Bulk Modulus (GPa) = 32.80198 70.65042 51.72620
# Shear Modulus (GPa) = 18.18941 27.01802 22.60372
#
# Velocity S-wave (km/s) = 3.23811 3.94647 3.60971
# Velocity P-wave (km/s) = 5.73492 7.84175 6.86958
#
# Compressibility (1/GPa) = 0.03048596
#
# Stress axis : x y z
#
# Youngs Moduli (GPa) = 74.48120 65.50464 26.82041
#
# Poissons Ratio (x) = 0.56594 -0.15588
# Poissons Ratio (y) = 0.64350 0.40010
# Poissons Ratio (z) = -0.43288 0.97719
#
# Static dielectric constant tensor:
#      x y z
#    x 1.562670 0.000000 0.003050 
#    y 0.000000 1.580620 0.000000 
#    z 0.003050 0.000000 1.603030 
# 
# From -- ./inp_files/342057.got.cif
#   From: 2010.05.17/outbox.cif.g08.bks.cpg/sg12_172_cif.got.tgz:342057.got - 2010.06.03 13:09:07.
