data_PCOD9193057
_publ_section_title
;
Structure prediction by ZEFSAII (Michael W. Deem and Ramdas Pophale) SiO2 
 PCOD9193057
Probable space group: C 2/M
;
_chemical_formula_sum "Si O2"
_cell_formula_units_Z 64
_cell_length_a 27.218262
_cell_length_b 7.399646
_cell_length_c 32.244896
_cell_angle_alpha 90.000000
_cell_angle_beta 156.569263
_cell_angle_gamma 90.000000
_cell_volume 2582.394388
_symmetry_space_group_name_H-M "C 2/M"
_symmetry_group_IT_number 12
_symmetry_cell_setting 'monoclinic'
loop_
_space_group_symop_operation_xyz
x,y,z
-x,y,-z
-x,-y,-z
x,-y,z
1/2+x,1/2+y,z
1/2-x,1/2+y,-z
1/2-x,1/2-y,-z
1/2+x,1/2-y,z
loop_
_atom_site_type_symbol
_atom_site_label
_atom_site_fract_x
_atom_site_fract_y
_atom_site_fract_z
Si Si1 0.493979 0.797848 0.680664
Si Si2 0.425473 0.221216 0.347276
Si Si3 0.960673 0.782411 0.014990
Si Si4 0.390968 0.216913 0.683120
Si Si5 0.285375 0.278715 0.753317
Si Si6 0.754002 0.706736 0.908069
Si Si7 0.885810 0.714671 0.086952
Si Si8 0.677130 0.215215 0.581963
O O1 0.534735 0.715047 0.668134
O O2 0.404119 0.713960 0.645921
O O3 0.625030 0.806362 0.806611
O O4 0.447945 0.000000 0.635460
O O5 0.301269 0.276179 0.275090
O O6 0.539426 0.275644 0.464928
O O7 0.418717 0.000000 0.339055
O O8 0.073616 0.720804 0.131369
O O9 0.952838 0.000000 0.010060
O O10 0.825271 0.712036 0.920300
O O11 0.000000 0.728071 0.000000
O O12 0.503053 0.287630 0.799202
O O13 0.266147 0.249955 0.611699
O O14 0.404978 0.000000 0.690221
O O15 0.285322 0.500000 0.753273
O O16 0.232896 0.216139 0.668370
O O17 0.726436 0.500000 0.898346
O O18 0.859274 0.783877 0.020201
O O19 0.908024 0.500000 0.101667
O O20 0.750000 0.750000 0.000000
O O21 0.669656 0.000000 0.580847
#
# Coordination Sequence:
#
# PCOD9193057 Si02
#       8
#     8   8   8   8   8   8   8   8
#     4  10  20  36  57  77 104 146 186 220 263 322
#     4   9  18  34  57  82 104 132 179 231 273 316
#     4  10  20  34  54  79 108 146 186 218 257 320
#     4  10  21  36  53  77 110 145 178 214 263 320
#     4   9  17  32  55  82 108 135 175 227 273 314
#     4  11  22  34  52  80 112 142 175 222 274 317
#     4  10  20  34  52  76 105 139 177 214 257 310
#     4  10  20  34  56  83 107 136 176 226 276 317
#
# _framework density 24.783200999999998
#
# number of rings (size 3 to 8) (size 9 to 14) (size 15 to 20)
#    0.000    2.125    1.250    2.250    0.000    5.750 
#    0.000    0.625    0.000    3.000    0.000    0.000 
#    0.000    0.000    0.000    0.000    0.000    0.000 
#
# Total GULP energy -178737.095426 kJ/mol
# GULP energy per Si atom -5585.534232 kJ/mol
# Density = 2.472679 g / cm^3
# Si number density = 24.783201 Si / 1000 Ang^3
#
#
#
# Elastic Constant Matrix: (Units=GPa)
#
#
# Indices 1 2 3 4 5 6 
#
# 1 108.6065 -8.8406 6.7150 -0.0009 -1.8490 -0.0028
# 2 -8.8406 85.8345 -4.8774 -0.0083 -8.9085 0.0021
# 3 6.7150 -4.8774 59.3022 -0.0016 6.8225 0.0001
# 4 -0.0009 -0.0083 -0.0016 1.6185 -0.0005 6.3248
# 5 -1.8490 -8.9085 6.8225 -0.0005 35.9869 -0.0008
# 6 -0.0028 0.0021 0.0001 6.3248 -0.0008 13.4223
#
#
#
# Elastic Compliance Matrix: (Units=1/GPa)
#
#
# Indices 1 2 3 4 5 6 
#
# 1 0.009372 0.001001 -0.001087 -0.000003 0.000935 0.000003
# 2 0.001001 0.012089 0.000543 -0.000083 0.002941 0.000038
# 3 -0.001087 0.000543 0.017401 -0.000025 -0.003220 0.000011
# 4 -0.000003 -0.000083 -0.000025 -0.734299 -0.000017 0.346013
# 5 0.000935 0.002941 -0.003220 -0.000017 0.029175 0.000010
# 6 0.000003 0.000038 0.000011 0.346013 0.000010 -0.088544
#
#
# Mechanical properties :
#
#
# Convention : Reuss Voigt Hill
#
# Bulk Modulus (GPa) = 25.14082 26.63745 25.88914
# Shear Modulus (GPa) = -6.73436 27.58862 10.42713
#
# Velocity S-wave (km/s) = -1.65021 3.34008 2.05340
# Velocity P-wave (km/s) = 2.55644 5.06423 4.01134
#
# Compressibility (1/GPa) = 0.03977595
#
# Stress axis : x y z
#
# Youngs Moduli (GPa) = 106.69963 82.71659 57.46812
#
# Poissons Ratio (x) = -0.08277 0.06244
# Poissons Ratio (y) = -0.10677 -0.03118
# Poissons Ratio (z) = 0.11593 -0.04488
#
# Static dielectric constant tensor:
#      x y z
#    x 2.055340 -0.000010 -0.084870 
#    y -0.000010 2.038710 0.000000 
#    z -0.084870 0.000000 1.927210 
# 
# From -- ./inp_files/382424.got.cif
#   From: 2010.05.17/outbox.cif.g08.bks.cpg/sg12_192_cif.got.tgz:382424.got - 2010.06.03 13:09:07.
