data_PCOD9193166
_publ_section_title
;
Structure prediction by ZEFSAII (Michael W. Deem and Ramdas Pophale) SiO2 
 PCOD9193166
Probable space group: C 2/M
;
_chemical_formula_sum "Si O2"
_cell_formula_units_Z 56
_cell_length_a 23.929954
_cell_length_b 11.183422
_cell_length_c 11.455961
_cell_angle_alpha 90.000000
_cell_angle_beta 106.161232
_cell_angle_gamma 90.000000
_cell_volume 2944.675493
_symmetry_space_group_name_H-M "C 2/M"
_symmetry_group_IT_number 12
_symmetry_cell_setting 'monoclinic'
loop_
_space_group_symop_operation_xyz
x,y,z
-x,y,-z
-x,-y,-z
x,-y,z
1/2+x,1/2+y,z
1/2-x,1/2+y,-z
1/2-x,1/2-y,-z
1/2+x,1/2-y,z
loop_
_atom_site_type_symbol
_atom_site_label
_atom_site_fract_x
_atom_site_fract_y
_atom_site_fract_z
Si Si1 0.057487 0.357678 0.794312
Si Si2 0.186114 0.132638 0.588965
Si Si3 0.171936 0.364040 0.973525
Si Si4 0.342811 0.632700 0.686246
Si Si5 0.424290 0.859295 0.695976
Si Si6 0.751825 0.203844 0.810600
Si Si7 0.435161 0.741393 0.453823
O O1 0.065536 0.500000 0.790821
O O2 0.107127 0.313684 0.912047
O O3 0.069075 0.303583 0.673772
O O4 0.989566 0.338877 0.783241
O O5 0.193759 0.148991 0.454948
O O6 0.216937 0.225519 0.690714
O O7 0.116822 0.148434 0.564384
O O8 0.205401 0.000000 0.632666
O O9 0.166891 0.500000 0.011253
O O10 0.206230 0.359453 0.869913
O O11 0.210581 0.291691 0.086286
O O12 0.371867 0.500000 0.692926
O O13 0.382948 0.751823 0.717359
O O14 0.299294 0.628679 0.768893
O O15 0.428444 0.834300 0.558163
O O16 0.408016 0.000000 0.706352
O O17 0.500000 0.689030 0.500000
#
# Coordination Sequence:
#
# PCOD9193166 Si02
#       7
#     8   8   8   8   8   8   8
#     4   9  16  31  53  80 111 140 184 234 280 329
#     4  10  20  34  52  80 114 149 188 231 276 332
#     4  10  21  35  57  82 107 143 186 238 283 324
#     4  10  22  39  58  82 116 151 187 228 280 341
#     4   9  18  32  56  85 112 144 185 232 282 331
#     4  11  21  37  56  77 111 148 191 229 276 333
#     4   9  16  29  50  79 114 144 181 227 280 331
#
# _framework density 19.017375999999999
#
# number of rings (size 3 to 8) (size 9 to 14) (size 15 to 20)
#    0.000    2.286    1.429    1.714    0.000    3.143 
#    0.000    5.000    0.000    3.429    0.000    0.000 
#    0.000    0.000    0.000    0.000    0.000    0.000 
#
# Total GULP energy -155986.624904 kJ/mol
# GULP energy per Si atom -5570.950889 kJ/mol
# Density = 1.897409 g / cm^3
# Si number density = 19.017376 Si / 1000 Ang^3
#
#
#
# Elastic Constant Matrix: (Units=GPa)
#
#
# Indices 1 2 3 4 5 6 
#
# 1 55.4830 39.9786 28.2798 0.0000 4.4072 0.0000
# 2 39.9786 86.6145 19.0591 0.0000 5.6850 0.0000
# 3 28.2798 19.0591 51.2606 0.0000 12.2910 0.0000
# 4 0.0000 0.0000 0.0000 -2.1364 0.0000 5.8292
# 5 4.4072 5.6850 12.2910 0.0000 30.0752 0.0000
# 6 0.0000 0.0000 0.0000 5.8292 0.0000 15.0906
#
#
#
# Elastic Compliance Matrix: (Units=1/GPa)
#
#
# Indices 1 2 3 4 5 6 
#
# 1 0.034869 -0.012969 -0.015274 0.000000 0.003584 0.000000
# 2 -0.012969 0.017405 0.001127 0.000000 -0.001850 0.000000
# 3 -0.015274 0.001127 0.029967 0.000000 -0.010221 0.000000
# 4 0.000000 0.000000 0.000000 -0.227889 0.000000 0.088030
# 5 0.003584 -0.001850 -0.010221 0.000000 0.037252 0.000000
# 6 0.000000 0.000000 0.000000 0.088030 0.000000 0.032262
#
#
# Mechanical properties :
#
#
# Convention : Reuss Voigt Hill
#
# Bulk Modulus (GPa) = 35.70341 40.88812 38.29577
# Shear Modulus (GPa) = -397.83593 15.67526 -191.08033
#
# Velocity S-wave (km/s) = -14.47930 2.87411 -10.03468
# Velocity P-wave (km/s) = 16.14679 5.70623 10.68077
#
# Compressibility (1/GPa) = 0.02800853
#
# Stress axis : x y z
#
# Youngs Moduli (GPa) = 28.67908 57.45557 33.37059
#
# Poissons Ratio (x) = 0.74512 0.50971
# Poissons Ratio (y) = 0.37193 -0.03761
# Poissons Ratio (z) = 0.43805 -0.06475
#
# Static dielectric constant tensor:
#      x y z
#    x 1.693720 0.000000 -0.000760 
#    y 0.000000 1.643900 0.000000 
#    z -0.000760 0.000000 1.653710 
# 
# From -- ./inp_files/165592.got.cif
#   From: 2010.05.17/outbox.cif.g08.bks.cpg/sg12_83_cif.got.tgz:165592.got - 2010.06.03 13:09:07.
