data_PCOD9193641
_publ_section_title
;
Structure prediction by ZEFSAII (Michael W. Deem and Ramdas Pophale) SiO2 
 PCOD9193641
Probable space group: C 2/M
;
_chemical_formula_sum "Si O2"
_cell_formula_units_Z 48
_cell_length_a 18.598348
_cell_length_b 9.233639
_cell_length_c 15.795308
_cell_angle_alpha 90.000000
_cell_angle_beta 90.732914
_cell_angle_gamma 90.000000
_cell_volume 2712.313135
_symmetry_space_group_name_H-M "C 2/M"
_symmetry_group_IT_number 12
_symmetry_cell_setting 'monoclinic'
loop_
_space_group_symop_operation_xyz
x,y,z
-x,y,-z
-x,-y,-z
x,-y,z
1/2+x,1/2+y,z
1/2-x,1/2+y,-z
1/2-x,1/2-y,-z
1/2+x,1/2-y,z
loop_
_atom_site_type_symbol
_atom_site_label
_atom_site_fract_x
_atom_site_fract_y
_atom_site_fract_z
Si Si1 0.210175 0.672494 0.248329
Si Si2 0.540247 0.670775 0.415193
Si Si3 0.959581 0.173726 0.086705
Si Si4 0.212307 0.829823 0.421851
Si Si5 0.539695 0.172066 0.241624
Si Si6 0.291211 0.673926 0.077085
O O1 0.218701 0.500000 0.263036
O O2 0.232731 0.758075 0.332577
O O3 0.125324 0.700092 0.231581
O O4 0.255086 0.713492 0.166133
O O5 0.500000 0.716586 0.500000
O O6 0.524985 0.500000 0.400827
O O7 0.625950 0.686372 0.428435
O O8 0.518979 0.760116 0.331888
O O9 0.875485 0.210816 0.078334
O O10 0.996392 0.253739 0.165516
O O11 0.965374 0.000000 0.099198
O O12 0.000000 0.210392 0.000000
O O13 0.250000 0.750000 0.500000
O O14 0.229289 0.000000 0.422631
O O15 0.528831 0.000000 0.241493
O O16 0.284799 0.500000 0.067674
O O17 0.250000 0.750000 0.000000
#
# Coordination Sequence:
#
# PCOD9193641 Si02
#       6
#     8   8   8   8   8   8
#     4   9  19  36  54  74 103 137 173 212 255 303
#     4   9  19  36  56  76 101 137 176 211 252 304
#     4  10  21  36  54  77 105 137 172 210 254 306
#     4  10  20  34  54  78 104 136 172 212 257 304
#     4  10  20  34  54  78 104 135 170 213 260 302
#     4  10  21  36  55  78 104 136 172 212 256 302
#
# _framework density 17.697071999999999
#
# number of rings (size 3 to 8) (size 9 to 14) (size 15 to 20)
#    0.000    2.333    0.000    2.000    0.000    4.667 
#    0.000    6.667    0.000    0.000    0.000    0.000 
#    0.000    0.000    0.000    0.000    0.000    0.000 
#
# Total GULP energy -133996.327807 kJ/mol
# GULP energy per Si atom -5583.180325 kJ/mol
# Density = 1.765679 g / cm^3
# Si number density = 17.697072 Si / 1000 Ang^3
#
#
#
# Elastic Constant Matrix: (Units=GPa)
#
#
# Indices 1 2 3 4 5 6 
#
# 1 90.0229 63.5586 110.9257 0.0000 -3.4945 0.0000
# 2 63.5586 67.9091 98.4296 0.0000 11.8362 0.0000
# 3 110.9257 98.4296 221.3271 0.0000 2.4923 0.0000
# 4 0.0000 0.0000 0.0000 38.2413 0.0000 7.0749
# 5 -3.4945 11.8362 2.4923 0.0000 40.6762 0.0000
# 6 0.0000 0.0000 0.0000 7.0749 0.0000 23.4849
#
#
#
# Elastic Compliance Matrix: (Units=1/GPa)
#
#
# Indices 1 2 3 4 5 6 
#
# 1 0.044193 -0.032110 -0.008022 0.000000 0.013632 0.000000
# 2 -0.032110 0.070271 -0.014907 0.000000 -0.022293 0.000000
# 3 -0.008022 -0.014907 0.015138 0.000000 0.002721 0.000000
# 4 0.000000 0.000000 0.000000 0.027693 0.000000 -0.008343
# 5 0.013632 -0.022293 0.002721 0.000000 0.032076 0.000000
# 6 0.000000 0.000000 0.000000 -0.008343 0.000000 0.045094
#
#
# Mechanical properties :
#
#
# Convention : Reuss Voigt Hill
#
# Bulk Modulus (GPa) = 51.22216 102.78744 77.00480
# Shear Modulus (GPa) = 14.24300 27.57017 20.90658
#
# Velocity S-wave (km/s) = 2.84002 3.95130 3.44082
# Velocity P-wave (km/s) = 6.30563 8.88958 7.70667
#
# Compressibility (1/GPa) = 0.01952280
#
# Stress axis : x y z
#
# Youngs Moduli (GPa) = 22.62814 14.23070 66.06045
#
# Poissons Ratio (x) = 0.45695 0.52995
# Poissons Ratio (y) = 0.72659 0.98476
# Poissons Ratio (z) = 0.18153 0.21214
#
# Static dielectric constant tensor:
#      x y z
#    x 1.589970 0.000000 -0.016000 
#    y 0.000000 1.588480 0.000000 
#    z -0.016000 0.000000 1.564970 
# 
# From -- ./inp_files/221532.got.cif
#   From: 2010.05.17/outbox.cif.g08.bks.cpg/sg12_111_cif.got.tgz:221532.got - 2010.06.03 13:09:07.
