data_PCOD9193457
_publ_section_title
;
Structure prediction by ZEFSAII (Michael W. Deem and Ramdas Pophale) SiO2 
 PCOD9193457
Probable space group: C 2/M
;
_chemical_formula_sum "Si O2"
_cell_formula_units_Z 64
_cell_length_a 19.426384
_cell_length_b 9.062904
_cell_length_c 22.795852
_cell_angle_alpha 90.000000
_cell_angle_beta 115.415241
_cell_angle_gamma 90.000000
_cell_volume 3625.010608
_symmetry_space_group_name_H-M "C 2/M"
_symmetry_group_IT_number 12
_symmetry_cell_setting 'monoclinic'
loop_
_space_group_symop_operation_xyz
x,y,z
-x,y,-z
-x,-y,-z
x,-y,z
1/2+x,1/2+y,z
1/2-x,1/2+y,-z
1/2-x,1/2-y,-z
1/2+x,1/2-y,z
loop_
_atom_site_type_symbol
_atom_site_label
_atom_site_fract_x
_atom_site_fract_y
_atom_site_fract_z
Si Si1 0.645438 0.825955 0.636871
Si Si2 0.013365 0.175398 0.888782
Si Si3 0.977313 0.325849 0.630527
Si Si4 0.323532 0.676474 0.997952
Si Si5 0.937442 0.176103 0.737663
Si Si6 0.914719 0.170035 0.496759
Si Si7 0.792311 0.675212 0.741529
Si Si8 0.870685 0.325281 0.894700
O O1 0.563987 0.807628 0.639256
O O2 0.636705 0.755017 0.569181
O O3 0.711295 0.744427 0.696542
O O4 0.661131 0.000000 0.638145
O O5 0.992523 0.206409 0.813477
O O6 0.953637 0.263584 0.907011
O O7 0.001063 0.000000 0.894190
O O8 0.099961 0.209781 0.936870
O O9 0.961685 0.500000 0.628895
O O10 0.966841 0.248401 0.688934
O O11 0.923324 0.251574 0.561835
O O12 0.314488 0.500000 0.992444
O O13 0.338490 0.740725 0.938881
O O14 0.250000 0.750000 0.000000
O O15 0.856548 0.246056 0.725787
O O16 0.930941 0.000000 0.728829
O O17 0.000000 0.170444 0.500000
O O18 0.891177 0.000000 0.494987
O O19 0.792371 0.500000 0.730680
O O20 0.817572 0.698917 0.818184
O O21 0.874730 0.500000 0.907662
#
# Coordination Sequence:
#
# PCOD9193457 Si02
#       8
#     8   8   8   8   8   8   8   8
#     4  10  20  34  54  80 109 142 180 222 268 317
#     4   9  20  38  58  79 105 141 181 220 264 318
#     4  10  20  34  53  79 110 141 177 221 267 316
#     4  11  23  38  56  81 113 144 177 221 270 316
#     4  10  20  36  57  79 106 140 179 221 267 319
#     4   9  17  31  52  77 105 140 181 220 263 317
#     4  10  21  37  56  79 109 142 178 221 267 318
#     4  10  21  37  58  82 107 140 181 221 264 319
#
# _framework density 17.655121000000001
#
# number of rings (size 3 to 8) (size 9 to 14) (size 15 to 20)
#    0.000    2.125    0.000    3.000    0.000    8.500 
#    0.000    4.375    0.000    0.000    0.000    0.000 
#    0.000    0.000    0.000    0.000    0.000    0.000 
#
# Total GULP energy -178680.441219 kJ/mol
# GULP energy per Si atom -5583.763788 kJ/mol
# Density = 1.761494 g / cm^3
# Si number density = 17.655121 Si / 1000 Ang^3
#
#
#
# Elastic Constant Matrix: (Units=GPa)
#
#
# Indices 1 2 3 4 5 6 
#
# 1 101.6197 90.5247 95.1417 0.0000 1.9050 0.0000
# 2 90.5247 137.9742 103.4975 0.0000 1.2454 0.0000
# 3 95.1417 103.4975 127.6289 0.0000 1.9079 0.0000
# 4 0.0000 0.0000 0.0000 34.9036 0.0000 -2.5519
# 5 1.9050 1.2454 1.9079 0.0000 36.4586 0.0000
# 6 0.0000 0.0000 0.0000 -2.5519 0.0000 34.0432
#
#
#
# Elastic Compliance Matrix: (Units=1/GPa)
#
#
# Indices 1 2 3 4 5 6 
#
# 1 0.036525 -0.009040 -0.019888 0.000000 -0.000559 0.000000
# 2 -0.009040 0.020741 -0.010085 0.000000 0.000292 0.000000
# 3 -0.019888 -0.010085 0.030843 0.000000 -0.000230 0.000000
# 4 0.000000 0.000000 0.000000 0.028808 0.000000 0.002159
# 5 -0.000559 0.000292 -0.000230 0.000000 0.027460 0.000000
# 6 0.000000 0.000000 0.000000 0.002159 0.000000 0.029536
#
#
# Mechanical properties :
#
#
# Convention : Reuss Voigt Hill
#
# Bulk Modulus (GPa) = 99.18842 105.06117 102.12480
# Shear Modulus (GPa) = 19.58477 26.28501 22.93489
#
# Velocity S-wave (km/s) = 3.33422 3.86269 3.60814
# Velocity P-wave (km/s) = 8.43361 8.91799 8.67918
#
# Compressibility (1/GPa) = 0.01008182
#
# Stress axis : x y z
#
# Youngs Moduli (GPa) = 27.37872 48.21317 32.42250
#
# Poissons Ratio (x) = 0.43585 0.64483
# Poissons Ratio (y) = 0.24750 0.32698
# Poissons Ratio (z) = 0.54452 0.48623
#
# Static dielectric constant tensor:
#      x y z
#    x 1.569220 0.000000 0.007070 
#    y 0.000000 1.586750 0.000000 
#    z 0.007070 0.000000 1.589750 
# 
# From -- ./inp_files/320030.got.cif
#   From: 2010.05.17/outbox.cif.g08.bks.cpg/sg12_161_cif.got.tgz:320030.got - 2010.06.03 13:09:07.
