data_PCOD9193974
_publ_section_title
;
Structure prediction by ZEFSAII (Michael W. Deem and Ramdas Pophale) SiO2 
 PCOD9193974
Probable space group: C 2/M
;
_chemical_formula_sum "Si O2"
_cell_formula_units_Z 56
_cell_length_a 22.930899
_cell_length_b 8.743529
_cell_length_c 14.872108
_cell_angle_alpha 90.000000
_cell_angle_beta 73.755520
_cell_angle_gamma 90.000000
_cell_volume 2862.769267
_symmetry_space_group_name_H-M "C 2/M"
_symmetry_group_IT_number 12
_symmetry_cell_setting 'monoclinic'
loop_
_space_group_symop_operation_xyz
x,y,z
-x,y,-z
-x,-y,-z
x,-y,z
1/2+x,1/2+y,z
1/2-x,1/2+y,-z
1/2-x,1/2-y,-z
1/2+x,1/2-y,z
loop_
_atom_site_type_symbol
_atom_site_label
_atom_site_fract_x
_atom_site_fract_y
_atom_site_fract_z
Si Si1 0.886625 0.817271 0.394480
Si Si2 0.342784 0.182124 0.233792
Si Si3 0.881670 0.684844 0.873016
Si Si4 0.026916 0.182831 0.312237
Si Si5 0.778870 0.681264 0.785324
Si Si6 0.881674 0.680187 0.589827
Si Si7 0.069176 0.686360 0.958272
O O1 0.846402 0.760016 0.329109
O O2 0.868865 0.746332 0.497497
O O3 0.956610 0.770486 0.344713
O O4 0.884219 0.000000 0.401421
O O5 0.281745 0.226773 0.207900
O O6 0.398959 0.235710 0.147280
O O7 0.346337 0.000000 0.243216
O O8 0.883748 0.500000 0.867699
O O9 0.935980 0.745665 0.786740
O O10 0.818083 0.731581 0.855082
O O11 0.892505 0.733064 0.970576
O O12 0.061425 0.237463 0.387262
O O13 0.030080 0.000000 0.305211
O O14 0.765301 0.500000 0.798786
O O15 0.824937 0.701262 0.681559
O O16 0.894429 0.500000 0.578962
O O17 0.068537 0.500000 0.957331
O O18 0.000000 0.738289 0.000000
#
# Coordination Sequence:
#
# PCOD9193974 Si02
#       7
#     8   8   8   8   8   8   8
#     4  11  23  37  54  79 114 150 181 225 282 328
#     4  11  23  37  57  82 107 143 189 230 271 326
#     4   9  18  35  59  82 109 149 188 224 270 323
#     4  10  20  34  54  84 117 145 178 224 278 329
#     4   9  20  38  56  78 110 144 180 226 278 325
#     4  10  21  37  59  83 108 145 188 226 269 326
#     4   9  18  34  57  85 113 140 178 228 274 319
#
# _framework density 19.561478000000001
#
# number of rings (size 3 to 8) (size 9 to 14) (size 15 to 20)
#    0.000    2.143    0.000    3.857    0.000    9.143 
#    0.000    1.429    0.000    3.857    0.000    0.000 
#    0.000    0.000    0.000    0.000    0.000    0.000 
#
# Total GULP energy -156414.403352 kJ/mol
# GULP energy per Si atom -5586.228691 kJ/mol
# Density = 1.951696 g / cm^3
# Si number density = 19.561478 Si / 1000 Ang^3
#
#
#
# Elastic Constant Matrix: (Units=GPa)
#
#
# Indices 1 2 3 4 5 6 
#
# 1 47.7863 4.8392 -7.2234 0.0000 12.9767 0.0000
# 2 4.8392 12.1027 -0.2790 0.0000 -1.4838 0.0000
# 3 -7.2234 -0.2790 71.7255 0.0000 27.4505 0.0000
# 4 0.0000 0.0000 0.0000 2.3619 0.0000 -1.4429
# 5 12.9767 -1.4838 27.4505 0.0000 19.5053 0.0000
# 6 0.0000 0.0000 0.0000 -1.4429 0.0000 23.8026
#
#
#
# Elastic Compliance Matrix: (Units=1/GPa)
#
#
# Indices 1 2 3 4 5 6 
#
# 1 0.066041 -0.040097 0.053052 0.000000 -0.121648 0.000000
# 2 -0.040097 0.108443 -0.036808 0.000000 0.086727 0.000000
# 3 0.053052 -0.036808 0.073086 0.000000 -0.140951 0.000000
# 4 0.000000 0.000000 0.000000 0.439668 0.000000 0.026652
# 5 -0.121648 0.086727 -0.140951 0.000000 0.337163 0.000000
# 6 0.000000 0.000000 0.000000 0.026652 0.000000 0.043628
#
#
# Mechanical properties :
#
#
# Convention : Reuss Voigt Hill
#
# Bulk Modulus (GPa) = 5.00344 14.03201 9.51773
# Shear Modulus (GPa) = 4.22884 18.08581 11.15733
#
# Velocity S-wave (km/s) = 1.47191 3.04396 2.39084
# Velocity P-wave (km/s) = 2.33496 4.42076 3.53519
#
# Compressibility (1/GPa) = 0.19986234
#
# Stress axis : x y z
#
# Youngs Moduli (GPa) = 15.14212 9.22141 13.68250
#
# Poissons Ratio (x) = 0.36975 -0.72588
# Poissons Ratio (y) = 0.60716 0.50363
# Poissons Ratio (z) = -0.80332 0.33942
#
# Static dielectric constant tensor:
#      x y z
#    x 1.679050 0.000000 0.002610 
#    y 0.000000 1.654560 0.000000 
#    z 0.002610 0.000000 1.673660 
# 
# From -- ./inp_files/230877.got.cif
#   From: 2010.05.17/outbox.cif.g08.bks.cpg/sg12_116_cif.got.tgz:230877.got - 2010.06.03 13:09:07.
