data_PCOD9193471
_publ_section_title
;
Structure prediction by ZEFSAII (Michael W. Deem and Ramdas Pophale) SiO2 
 PCOD9193471
Probable space group: C 2/M
;
_chemical_formula_sum "Si O2"
_cell_formula_units_Z 64
_cell_length_a 15.459303
_cell_length_b 7.665939
_cell_length_c 25.284597
_cell_angle_alpha 90.000000
_cell_angle_beta 92.269217
_cell_angle_gamma 90.000000
_cell_volume 2994.129654
_symmetry_space_group_name_H-M "C 2/M"
_symmetry_group_IT_number 12
_symmetry_cell_setting 'monoclinic'
loop_
_space_group_symop_operation_xyz
x,y,z
-x,y,-z
-x,-y,-z
x,-y,z
1/2+x,1/2+y,z
1/2-x,1/2+y,-z
1/2-x,1/2-y,-z
1/2+x,1/2-y,z
loop_
_atom_site_type_symbol
_atom_site_label
_atom_site_fract_x
_atom_site_fract_y
_atom_site_fract_z
Si Si1 0.967574 0.213746 0.440997
Si Si2 0.285353 0.787593 0.171054
Si Si3 0.205295 0.292127 0.943911
Si Si4 0.985950 0.703414 0.173935
Si Si5 0.487760 0.695699 0.057091
Si Si6 0.111124 0.203453 0.363677
Si Si7 0.271014 0.291785 0.439629
Si Si8 0.644218 0.702690 0.248887
O O1 0.868637 0.268183 0.430106
O O2 0.000000 0.268081 0.500000
O O3 0.033418 0.276996 0.397593
O O4 0.969104 0.000000 0.441358
O O5 0.250767 0.745467 0.111016
O O6 0.386334 0.732016 0.177497
O O7 0.221653 0.720960 0.214972
O O8 0.286127 0.000000 0.173637
O O9 0.187821 0.500000 0.941802
O O10 0.115286 0.192301 0.941074
O O11 0.250000 0.250000 0.000000
O O12 0.985084 0.500000 0.187231
O O13 0.014789 0.722309 0.113266
O O14 0.056202 0.791181 0.212978
O O15 0.525766 0.500000 0.055346
O O16 0.500000 0.782643 0.000000
O O17 0.198056 0.213454 0.400310
O O18 0.127720 0.281912 0.306256
O O19 0.088366 0.000000 0.354875
O O20 0.268053 0.500000 0.432958
O O21 0.250000 0.250000 0.500000
O O22 0.668138 0.500000 0.258113
#
# Coordination Sequence:
#
# PCOD9193471 Si02
#       8
#     8   8   8   8   8   8   8   8
#     4   9  17  33  56  80 115 154 181 222 284 335
#     4   8  18  37  56  76 109 149 181 226 287 333
#     4  10  20  34  53  79 112 145 183 228 285 344
#     4  10  21  38  58  81 112 148 186 234 289 340
#     4  10  21  36  55  80 110 144 183 231 289 346
#     4  10  21  38  58  84 114 150 194 229 272 335
#     4  11  21  35  58  84 115 151 187 230 281 332
#     4  10  21  38  61  83 109 151 196 230 271 338
#
# _framework density 21.375160999999999
#
# number of rings (size 3 to 8) (size 9 to 14) (size 15 to 20)
#    0.000    2.250    1.250    2.250    1.750    2.500 
#    0.000    5.000    0.000    0.000    0.000    0.000 
#    0.000    0.000    0.000    0.000    0.000    0.000 
#
# Total GULP energy -178535.826239 kJ/mol
# GULP energy per Si atom -5579.244570 kJ/mol
# Density = 2.132651 g / cm^3
# Si number density = 21.375161 Si / 1000 Ang^3
#
#
#
# Elastic Constant Matrix: (Units=GPa)
#
#
# Indices 1 2 3 4 5 6 
#
# 1 117.7974 -9.4229 75.7278 0.0000 -26.3638 0.0000
# 2 -9.4229 45.9526 -4.9065 0.0000 -10.3956 0.0000
# 3 75.7278 -4.9065 183.5571 0.0000 -30.8376 0.0000
# 4 0.0000 0.0000 0.0000 -18.0467 0.0000 5.5851
# 5 -26.3638 -10.3956 -30.8376 0.0000 36.9070 0.0000
# 6 0.0000 0.0000 0.0000 5.5851 0.0000 19.3610
#
#
#
# Elastic Compliance Matrix: (Units=1/GPa)
#
#
# Indices 1 2 3 4 5 6 
#
# 1 0.012967 0.003787 -0.004087 0.000000 0.006915 0.000000
# 2 0.003787 0.024999 0.000865 0.000000 0.010469 0.000000
# 3 -0.004087 0.000865 0.007803 0.000000 0.003844 0.000000
# 4 0.000000 0.000000 0.000000 -0.050870 0.000000 0.014675
# 5 0.006915 0.010469 0.003844 0.000000 0.038195 0.000000
# 6 0.000000 0.000000 0.000000 0.014675 0.000000 0.047417
#
#
# Mechanical properties :
#
#
# Convention : Reuss Voigt Hill
#
# Bulk Modulus (GPa) = 21.32282 52.23378 36.77830
# Shear Modulus (GPa) = 52.62438 26.70484 39.66461
#
# Velocity S-wave (km/s) = 4.96718 3.53843 4.31239
# Velocity P-wave (km/s) = 6.54937 6.41746 6.48375
#
# Compressibility (1/GPa) = 0.04689811
#
# Stress axis : x y z
#
# Youngs Moduli (GPa) = 77.12025 40.00196 128.15957
#
# Poissons Ratio (x) = -0.15148 0.52374
# Poissons Ratio (y) = -0.29204 -0.11082
# Poissons Ratio (z) = 0.31516 -0.03459
#
# Static dielectric constant tensor:
#      x y z
#    x 1.761280 0.000000 -0.030810 
#    y 0.000000 1.823840 0.000000 
#    z -0.030810 0.000000 1.792190 
# 
# From -- ./inp_files/338745.got.cif
#   From: 2010.05.17/outbox.cif.g08.bks.cpg/sg12_170_cif.got.tgz:338745.got - 2010.06.03 13:09:07.
