data_PCOD9193460
_publ_section_title
;
Structure prediction by ZEFSAII (Michael W. Deem and Ramdas Pophale) SiO2 
 PCOD9193460
Probable space group: C 2/M
;
_chemical_formula_sum "Si O2"
_cell_formula_units_Z 64
_cell_length_a 19.554119
_cell_length_b 8.977301
_cell_length_c 21.004203
_cell_angle_alpha 90.000000
_cell_angle_beta 103.691926
_cell_angle_gamma 90.000000
_cell_volume 3582.365756
_symmetry_space_group_name_H-M "C 2/M"
_symmetry_group_IT_number 12
_symmetry_cell_setting 'monoclinic'
loop_
_space_group_symop_operation_xyz
x,y,z
-x,y,-z
-x,-y,-z
x,-y,z
1/2+x,1/2+y,z
1/2-x,1/2+y,-z
1/2-x,1/2-y,-z
1/2+x,1/2-y,z
loop_
_atom_site_type_symbol
_atom_site_label
_atom_site_fract_x
_atom_site_fract_y
_atom_site_fract_z
Si Si1 0.115199 0.321199 0.183222
Si Si2 0.070208 0.676631 0.553942
Si Si3 0.284623 0.323228 0.446532
Si Si4 0.966878 0.822279 0.185865
Si Si5 0.197969 0.677163 0.075047
Si Si6 0.398887 0.177094 0.294055
Si Si7 0.656577 0.176700 0.920428
Si Si8 0.248360 0.178977 0.703362
O O1 0.103226 0.500000 0.183434
O O2 0.144103 0.284234 0.119183
O O3 0.179450 0.284967 0.245022
O O4 0.043866 0.238555 0.185324
O O5 0.084741 0.500000 0.548780
O O6 0.135405 0.769296 0.542187
O O7 0.066308 0.703120 0.628884
O O8 0.000000 0.712563 0.500000
O O9 0.280859 0.500000 0.451624
O O10 0.250000 0.250000 0.500000
O O11 0.249239 0.281588 0.370957
O O12 0.941407 0.757815 0.248004
O O13 0.909873 0.761057 0.122895
O O14 0.966196 0.000000 0.186742
O O15 0.213250 0.500000 0.083577
O O16 0.271382 0.764656 0.095675
O O17 0.166079 0.704461 0.998044
O O18 0.319455 0.240235 0.281674
O O19 0.397022 0.000000 0.281878
O O20 0.649175 0.000000 0.908689
O O21 0.237317 0.000000 0.706095
#
# Coordination Sequence:
#
# PCOD9193460 Si02
#       8
#     8   8   8   8   8   8   8   8
#     4  10  21  38  57  78 107 141 177 219 272 326
#     4   9  19  36  57  81 109 141 177 219 270 327
#     4  10  20  34  53  79 110 144 182 222 267 318
#     4  12  25  38  53  77 111 146 182 225 271 316
#     4   9  19  36  60  87 112 141 177 221 271 322
#     4  10  20  36  59  82 106 140 181 223 268 323
#     4  10  20  36  59  85 112 143 181 220 263 322
#     4   9  19  36  58  81 107 141 179 222 271 325
#
# _framework density 17.865290000000002
#
# number of rings (size 3 to 8) (size 9 to 14) (size 15 to 20)
#    0.000    2.125    0.000    3.000    0.000    5.250 
#    0.000    7.500    0.000    0.000    0.000    0.000 
#    0.000    0.000    0.000    0.000    0.000    0.000 
#
# Total GULP energy -178711.654315 kJ/mol
# GULP energy per Si atom -5584.739197 kJ/mol
# Density = 1.782463 g / cm^3
# Si number density = 17.865290 Si / 1000 Ang^3
#
#
#
# Elastic Constant Matrix: (Units=GPa)
#
#
# Indices 1 2 3 4 5 6 
#
# 1 151.6120 86.2782 103.2716 0.0000 -6.4766 0.0000
# 2 86.2782 82.9846 74.0330 0.0000 -4.3753 0.0000
# 3 103.2716 74.0330 116.5660 0.0000 -14.4215 0.0000
# 4 0.0000 0.0000 0.0000 26.1950 0.0000 -2.7514
# 5 -6.4766 -4.3753 -14.4215 0.0000 30.2579 0.0000
# 6 0.0000 0.0000 0.0000 -2.7514 0.0000 37.8995
#
#
#
# Elastic Compliance Matrix: (Units=1/GPa)
#
#
# Indices 1 2 3 4 5 6 
#
# 1 0.020936 -0.011688 -0.011455 0.000000 -0.002668 0.000000
# 2 -0.011688 0.034966 -0.012259 0.000000 -0.003289 0.000000
# 3 -0.011455 -0.012259 0.027619 0.000000 0.008939 0.000000
# 4 0.000000 0.000000 0.000000 0.038469 0.000000 0.002793
# 5 -0.002668 -0.003289 0.008939 0.000000 0.036263 0.000000
# 6 0.000000 0.000000 0.000000 0.002793 0.000000 0.026588
#
#
# Mechanical properties :
#
#
# Convention : Reuss Voigt Hill
#
# Bulk Modulus (GPa) = 78.63784 97.59204 88.11494
# Shear Modulus (GPa) = 19.23938 24.70914 21.97426
#
# Velocity S-wave (km/s) = 3.28520 3.72301 3.51094
# Velocity P-wave (km/s) = 7.64871 8.55724 8.11570
#
# Compressibility (1/GPa) = 0.01271652
#
# Stress axis : x y z
#
# Youngs Moduli (GPa) = 47.76524 28.59926 36.20688
#
# Poissons Ratio (x) = 0.33428 0.41474
# Poissons Ratio (y) = 0.55829 0.44386
# Poissons Ratio (z) = 0.54714 0.35060
#
# Static dielectric constant tensor:
#      x y z
#    x 1.563260 0.000000 0.006270 
#    y 0.000000 1.596790 0.000000 
#    z 0.006270 0.000000 1.619880 
# 
# From -- ./inp_files/314141.got.cif
#   From: 2010.05.17/outbox.cif.g08.bks.cpg/sg12_158_cif.got.tgz:314141.got - 2010.06.03 13:09:07.
