data_PCOD9193917
_publ_section_title
;
Structure prediction by ZEFSAII (Michael W. Deem and Ramdas Pophale) SiO2 
 PCOD9193917
Probable space group: C 2/M
;
_chemical_formula_sum "Si O2"
_cell_formula_units_Z 64
_cell_length_a 29.469518
_cell_length_b 7.769993
_cell_length_c 14.579922
_cell_angle_alpha 90.000000
_cell_angle_beta 59.563932
_cell_angle_gamma 90.000000
_cell_volume 2878.421131
_symmetry_space_group_name_H-M "C 2/M"
_symmetry_group_IT_number 12
_symmetry_cell_setting 'monoclinic'
loop_
_space_group_symop_operation_xyz
x,y,z
-x,y,-z
-x,-y,-z
x,-y,z
1/2+x,1/2+y,z
1/2-x,1/2+y,-z
1/2-x,1/2-y,-z
1/2+x,1/2-y,z
loop_
_atom_site_type_symbol
_atom_site_label
_atom_site_fract_x
_atom_site_fract_y
_atom_site_fract_z
Si Si1 0.609195 0.697742 0.458146
Si Si2 0.797813 0.205858 0.884135
Si Si3 0.960614 0.695727 0.618043
Si Si4 0.295806 0.706410 0.380488
Si Si5 0.221105 0.297479 0.306209
Si Si6 0.089279 0.210833 0.677201
Si Si7 0.507874 0.711232 0.096701
Si Si8 0.591923 0.699431 0.149179
O O1 0.594483 0.500000 0.457095
O O2 0.593475 0.801131 0.384356
O O3 0.671658 0.706513 0.404600
O O4 0.582617 0.764059 0.578087
O O5 0.783384 0.269212 0.797361
O O6 0.852915 0.274623 0.870660
O O7 0.803836 0.000000 0.869513
O O8 0.750000 0.250000 0.000000
O O9 0.976029 0.500000 0.622285
O O10 0.949225 0.791417 0.723765
O O11 0.000000 0.767916 0.500000
O O12 0.301003 0.500000 0.374325
O O13 0.250000 0.750000 0.500000
O O14 0.274045 0.761396 0.303070
O O15 0.353534 0.772701 0.347444
O O16 0.215435 0.500000 0.330128
O O17 0.042046 0.264444 0.790940
O O18 0.089778 0.000000 0.674653
O O19 0.509065 0.500000 0.096403
O O20 0.561138 0.772188 0.092882
O O21 0.500000 0.765085 0.000000
O O22 0.602791 0.500000 0.117010
#
# Coordination Sequence:
#
# PCOD9193917 Si02
#       8
#     8   8   8   8   8   8   8   8
#     4  11  20  33  56  82 115 154 193 243 296 356
#     4  11  24  41  62  88 119 157 201 248 297 354
#     4  11  23  36  54  84 120 157 195 240 298 358
#     4  10  20  34  54  82 118 158 197 242 297 357
#     4  11  22  36  57  85 119 157 196 243 298 354
#     4   9  18  32  53  83 116 151 193 242 296 347
#     4   9  18  34  58  86 114 146 191 246 292 340
#     4  10  21  38  61  88 115 151 197 242 293 351
#
# _framework density 22.234411999999999
#
# number of rings (size 3 to 8) (size 9 to 14) (size 15 to 20)
#    0.000    1.750    2.500    2.250    0.000    4.000 
#    0.000    3.750    0.000    0.375    0.000    0.000 
#    0.000    0.000    0.000    0.000    0.000    0.000 
#
# Total GULP energy -178746.024855 kJ/mol
# GULP energy per Si atom -5585.813277 kJ/mol
# Density = 2.218381 g / cm^3
# Si number density = 22.234412 Si / 1000 Ang^3
#
#
#
# Elastic Constant Matrix: (Units=GPa)
#
#
# Indices 1 2 3 4 5 6 
#
# 1 144.5951 9.3845 51.1927 0.0000 23.9970 0.0000
# 2 9.3845 45.7951 -6.6923 0.0000 3.0926 0.0000
# 3 51.1927 -6.6923 116.2097 0.0000 18.3663 0.0000
# 4 0.0000 0.0000 0.0000 15.9124 0.0000 -5.2645
# 5 23.9970 3.0926 18.3663 0.0000 38.5500 0.0000
# 6 0.0000 0.0000 0.0000 -5.2645 0.0000 15.4353
#
#
#
# Elastic Compliance Matrix: (Units=1/GPa)
#
#
# Indices 1 2 3 4 5 6 
#
# 1 0.008889 -0.002074 -0.003446 0.000000 -0.003725 0.000000
# 2 -0.002074 0.022742 0.002495 0.000000 -0.001723 0.000000
# 3 -0.003446 0.002495 0.010771 0.000000 -0.003186 0.000000
# 4 0.000000 0.000000 0.000000 0.070838 0.000000 0.024161
# 5 -0.003725 -0.001723 -0.003186 0.000000 0.029915 0.000000
# 6 0.000000 0.000000 0.000000 0.024161 0.000000 0.073027
#
#
# Mechanical properties :
#
#
# Convention : Reuss Voigt Hill
#
# Bulk Modulus (GPa) = 27.50843 46.04107 36.77475
# Shear Modulus (GPa) = 21.33575 30.82720 26.08148
#
# Velocity S-wave (km/s) = 3.10107 3.72756 3.42866
# Velocity P-wave (km/s) = 5.02206 6.26725 5.67888
#
# Compressibility (1/GPa) = 0.03635250
#
# Stress axis : x y z
#
# Youngs Moduli (GPa) = 112.50110 43.97086 92.84511
#
# Poissons Ratio (x) = 0.09118 0.31998
# Poissons Ratio (y) = 0.23328 -0.23169
# Poissons Ratio (z) = 0.38773 -0.10973
#
# Static dielectric constant tensor:
#      x y z
#    x 1.900140 0.000000 -0.007090 
#    y 0.000000 1.824950 0.000000 
#    z -0.007090 0.000000 1.780070 
# 
# From -- ./inp_files/248950.got.cif
#   From: 2010.05.17/outbox.cif.g08.bks.cpg/sg12_125_cif.got.tgz:248950.got - 2010.06.03 13:09:07.
