data_PCOD9193459
_publ_section_title
;
Structure prediction by ZEFSAII (Michael W. Deem and Ramdas Pophale) SiO2 
 PCOD9193459
Probable space group: C 2/M
;
_chemical_formula_sum "Si O2"
_cell_formula_units_Z 64
_cell_length_a 26.043612
_cell_length_b 7.642663
_cell_length_c 14.805398
_cell_angle_alpha 90.000000
_cell_angle_beta 85.956931
_cell_angle_gamma 90.000000
_cell_volume 2939.570305
_symmetry_space_group_name_H-M "C 2/M"
_symmetry_group_IT_number 12
_symmetry_cell_setting 'monoclinic'
loop_
_space_group_symop_operation_xyz
x,y,z
-x,y,-z
-x,-y,-z
x,-y,z
1/2+x,1/2+y,z
1/2-x,1/2+y,-z
1/2-x,1/2-y,-z
1/2+x,1/2-y,z
loop_
_atom_site_type_symbol
_atom_site_label
_atom_site_fract_x
_atom_site_fract_y
_atom_site_fract_z
Si Si1 0.013260 0.204247 0.400898
Si Si2 0.130500 0.712292 0.401131
Si Si3 0.508013 0.293414 0.790812
Si Si4 0.103050 0.295453 0.900220
Si Si5 0.600436 0.212397 0.104718
Si Si6 0.303556 0.210235 0.443249
Si Si7 0.806413 0.711038 0.781076
Si Si8 0.692046 0.793265 0.761487
O O1 0.074687 0.216523 0.384437
O O2 0.000000 0.284318 0.500000
O O3 0.989159 0.279175 0.311947
O O4 0.997857 0.000000 0.405960
O O5 0.127363 0.500000 0.400373
O O6 0.150902 0.770978 0.496140
O O7 0.171242 0.765155 0.319353
O O8 0.518148 0.500000 0.785823
O O9 0.549484 0.215508 0.853741
O O10 0.450570 0.267573 0.835541
O O11 0.115895 0.500000 0.911502
O O12 0.147698 0.218232 0.831154
O O13 0.099026 0.222633 0.001820
O O14 0.652229 0.269373 0.149672
O O15 0.599843 0.000000 0.105768
O O16 0.250000 0.250000 0.500000
O O17 0.306181 0.280066 0.340933
O O18 0.306983 0.000000 0.438816
O O19 0.805260 0.500000 0.782646
O O20 0.748308 0.773642 0.797724
O O21 0.681281 0.000000 0.753020
#
# Coordination Sequence:
#
# PCOD9193459 Si02
#       8
#     8   8   8   8   8   8   8   8
#     4  10  23  40  56  82 118 151 182 225 286 343
#     4  10  20  35  56  83 111 144 190 236 276 330
#     4  11  23  39  61  88 116 147 190 239 284 338
#     4  10  23  41  60  83 115 154 192 234 290 346
#     4  10  21  40  63  85 112 150 192 237 290 344
#     4  10  20  34  53  79 110 143 182 225 271 326
#     4  10  20  36  59  85 114 148 190 235 281 336
#     4  10  22  38  56  83 117 151 189 233 283 340
#
# _framework density 21.771889000000002
#
# number of rings (size 3 to 8) (size 9 to 14) (size 15 to 20)
#    0.000    1.875    2.500    0.750    1.750    5.250 
#    0.000    0.000    0.000    0.000    0.000    0.000 
#    0.000    0.000    0.000    0.000    0.000    0.000 
#
# Total GULP energy -178793.334110 kJ/mol
# GULP energy per Si atom -5587.291691 kJ/mol
# Density = 2.172234 g / cm^3
# Si number density = 21.771889 Si / 1000 Ang^3
#
#
#
# Elastic Constant Matrix: (Units=GPa)
#
#
# Indices 1 2 3 4 5 6 
#
# 1 58.5967 -13.6485 46.7191 0.0000 12.8762 0.0000
# 2 -13.6485 41.3389 3.3032 0.0000 -5.5283 0.0000
# 3 46.7191 3.3032 166.0804 0.0000 4.9841 0.0000
# 4 0.0000 0.0000 0.0000 10.8561 0.0000 -1.6223
# 5 12.8762 -5.5283 4.9841 0.0000 30.3402 0.0000
# 6 0.0000 0.0000 0.0000 -1.6223 0.0000 20.0957
#
#
#
# Elastic Compliance Matrix: (Units=1/GPa)
#
#
# Indices 1 2 3 4 5 6 
#
# 1 0.026848 0.008302 -0.007458 0.000000 -0.008656 0.000000
# 2 0.008302 0.027428 -0.002940 0.000000 0.001957 0.000000
# 3 -0.007458 -0.002940 0.008139 0.000000 0.001292 0.000000
# 4 0.000000 0.000000 0.000000 0.093239 0.000000 0.007527
# 5 -0.008656 0.001957 0.001292 0.000000 0.036778 0.000000
# 6 0.000000 0.000000 0.000000 0.007527 0.000000 0.050370
#
#
# Mechanical properties :
#
#
# Convention : Reuss Voigt Hill
#
# Bulk Modulus (GPa) = 17.17492 37.64038 27.40765
# Shear Modulus (GPa) = 18.76882 27.56788 23.16835
#
# Velocity S-wave (km/s) = 2.93928 3.56225 3.26566
# Velocity P-wave (km/s) = 4.40737 5.85197 5.18027
#
# Compressibility (1/GPa) = 0.05822444
#
# Stress axis : x y z
#
# Youngs Moduli (GPa) = 37.24697 36.45905 122.86883
#
# Poissons Ratio (x) = -0.30270 0.91633
# Poissons Ratio (y) = -0.30924 0.36120
# Poissons Ratio (z) = 0.27778 0.10718
#
# Static dielectric constant tensor:
#      x y z
#    x 1.739860 0.000000 0.001940 
#    y 0.000000 1.830190 0.000000 
#    z 0.001940 0.000000 1.819730 
# 
# From -- ./inp_files/238736.got.cif
#   From: 2010.05.17/outbox.cif.g08.bks.cpg/sg12_120_cif.got.tgz:238736.got - 2010.06.03 13:09:07.
