data_PCOD9193064
_publ_section_title
;
Structure prediction by ZEFSAII (Michael W. Deem and Ramdas Pophale) SiO2 
 PCOD9193064
Probable space group: C 2/M
;
_chemical_formula_sum "Si O2"
_cell_formula_units_Z 56
_cell_length_a 8.678116
_cell_length_b 20.308220
_cell_length_c 25.830851
_cell_angle_alpha 90.000000
_cell_angle_beta 39.019551
_cell_angle_gamma 90.000000
_cell_volume 2866.096239
_symmetry_space_group_name_H-M "C 2/M"
_symmetry_group_IT_number 12
_symmetry_cell_setting 'monoclinic'
loop_
_space_group_symop_operation_xyz
x,y,z
-x,y,-z
-x,-y,-z
x,-y,z
1/2+x,1/2+y,z
1/2-x,1/2+y,-z
1/2-x,1/2-y,-z
1/2+x,1/2-y,z
loop_
_atom_site_type_symbol
_atom_site_label
_atom_site_fract_x
_atom_site_fract_y
_atom_site_fract_z
Si Si1 0.167576 0.072519 0.835991
Si Si2 0.259117 0.578289 0.595323
Si Si3 0.100242 0.668467 0.728512
Si Si4 0.393211 0.301077 0.755825
Si Si5 0.475724 0.801447 0.945035
Si Si6 0.772559 0.072414 0.020179
Si Si7 0.781329 0.924852 0.299306
O O1 0.347365 0.129884 0.806589
O O2 0.147950 0.074557 0.779805
O O3 0.903819 0.077251 0.930387
O O4 0.266951 0.000000 0.825197
O O5 0.500000 0.594648 0.500000
O O6 0.260746 0.500000 0.606388
O O7 0.240337 0.618624 0.653470
O O8 0.009976 0.589735 0.627282
O O9 0.231076 0.687446 0.747404
O O10 0.051061 0.734949 0.709443
O O11 0.559643 0.366068 0.718805
O O12 0.227486 0.283832 0.850098
O O13 0.500000 0.812996 0.000000
O O14 0.250000 0.750000 0.000000
O O15 0.406404 0.867316 0.931733
O O16 0.662066 0.000000 0.056064
O O17 0.000000 0.078724 0.000000
O O18 0.819641 0.000000 0.309418
#
# Coordination Sequence:
#
# PCOD9193064 Si02
#       7
#     8   8   8   8   8   8   8
#     4   9  17  33  55  76 105 145 186 232 288 348
#     4   9  19  40  69  95 119 148 181 222 279 349
#     4  11  21  36  56  82 115 150 191 234 283 345
#     4  12  24  37  56  82 116 155 199 245 289 341
#     4  12  24  38  56  78 110 154 203 253 298 339
#     4  10  20  34  52  76 106 141 186 239 292 342
#     4   9  19  36  57  82 113 147 185 231 286 344
#
# _framework density 19.538772000000002
#
# number of rings (size 3 to 8) (size 9 to 14) (size 15 to 20)
#    0.000    1.714    0.000    6.857    0.000    2.000 
#    0.000    3.571    0.000    2.571    0.000    0.000 
#    0.000    0.000    0.000    0.000    0.000    0.000 
#
# Total GULP energy -156260.195443 kJ/mol
# GULP energy per Si atom -5580.721266 kJ/mol
# Density = 1.949430 g / cm^3
# Si number density = 19.538772 Si / 1000 Ang^3
#
#
#
# Elastic Constant Matrix: (Units=GPa)
#
#
# Indices 1 2 3 4 5 6 
#
# 1 59.7985 48.7913 -15.8658 0.0011 6.7911 -0.0007
# 2 48.7913 119.9410 8.5569 -0.0084 -4.8556 0.0047
# 3 -15.8658 8.5569 53.9553 -0.0246 2.8682 0.0168
# 4 0.0011 -0.0084 -0.0246 18.0401 0.0008 -5.8696
# 5 6.7911 -4.8556 2.8682 0.0008 12.0568 0.0040
# 6 -0.0007 0.0047 0.0168 -5.8696 0.0040 37.5941
#
#
#
# Elastic Compliance Matrix: (Units=1/GPa)
#
#
# Indices 1 2 3 4 5 6 
#
# 1 0.040852 -0.019233 0.016912 0.000014 -0.034779 0.000001
# 2 -0.019233 0.017660 -0.009531 -0.000005 0.020212 -0.000001
# 3 0.016912 -0.009531 0.026058 0.000030 -0.019563 -0.000003
# 4 0.000014 -0.000005 0.000030 0.058399 -0.000024 0.009118
# 5 -0.034779 0.020212 -0.019563 -0.000024 0.115324 -0.000010
# 6 0.000001 -0.000001 -0.000003 0.009118 -0.000010 0.028023
#
#
# Mechanical properties :
#
#
# Convention : Reuss Voigt Hill
#
# Bulk Modulus (GPa) = 16.42942 35.18442 25.80692
# Shear Modulus (GPa) = 15.13734 26.35237 20.74485
#
# Velocity S-wave (km/s) = 2.78642 3.67648 3.26195
# Velocity P-wave (km/s) = 4.33348 6.00571 5.23678
#
# Compressibility (1/GPa) = 0.06086643
#
# Stress axis : x y z
#
# Youngs Moduli (GPa) = 24.47835 56.62661 38.37554
#
# Poissons Ratio (x) = 1.08910 -0.64900
# Poissons Ratio (y) = 0.47079 0.36574
# Poissons Ratio (z) = -0.41397 0.53969
#
# Static dielectric constant tensor:
#      x y z
#    x 1.687420 0.000000 -0.012100 
#    y 0.000000 1.740660 0.000000 
#    z -0.012100 0.000000 1.719450 
# 
# From -- ./inp_files/333320.got.cif
#   From: 2010.05.17/outbox.cif.g08.bks.cpg/sg12_167_cif.got.tgz:333320.got - 2010.06.03 13:09:07.
