data_PCOD9193524
_publ_section_title
;
Structure prediction by ZEFSAII (Michael W. Deem and Ramdas Pophale) SiO2 
 PCOD9193524
Probable space group: C 2/M
;
_chemical_formula_sum "Si O2"
_cell_formula_units_Z 32
_cell_length_a 17.233025
_cell_length_b 12.314745
_cell_length_c 8.403521
_cell_angle_alpha 90.000000
_cell_angle_beta 66.015206
_cell_angle_gamma 90.000000
_cell_volume 1629.407429
_symmetry_space_group_name_H-M "C 2/M"
_symmetry_group_IT_number 12
_symmetry_cell_setting 'monoclinic'
loop_
_space_group_symop_operation_xyz
x,y,z
-x,y,-z
-x,-y,-z
x,-y,z
1/2+x,1/2+y,z
1/2-x,1/2+y,-z
1/2-x,1/2-y,-z
1/2+x,1/2-y,z
loop_
_atom_site_type_symbol
_atom_site_label
_atom_site_fract_x
_atom_site_fract_y
_atom_site_fract_z
Si Si1 0.798981 0.377596 0.083976
Si Si2 0.583064 0.717437 0.858603
Si Si3 0.931970 0.378139 0.415989
Si Si4 0.734689 0.168116 0.253563
O O1 0.801591 0.500000 0.139505
O O2 0.778476 0.375067 0.914205
O O3 0.885942 0.312262 0.043904
O O4 0.733203 0.299813 0.232648
O O5 0.562873 0.782623 0.715635
O O6 0.668736 0.646943 0.771369
O O7 0.500000 0.662730 0.000000
O O8 0.945344 0.500000 0.337672
O O9 0.838249 0.372074 0.571164
O O10 0.000000 0.363759 0.500000
#
# Coordination Sequence:
#
# PCOD9193524 Si02
#       4
#     8   8   8   8
#     4   9  18  33  56  78 103 138 177 217 264 309
#     4  10  20  34  53  81 109 141 174 212 266 317
#     4  11  22  34  55  83 109 137 175 224 267 309
#     4   9  20  35  52  81 106 145 169 220 266 311
#
# _framework density 19.639040999999999
#
# number of rings (size 3 to 8) (size 9 to 14) (size 15 to 20)
#    1.500    0.750    0.000    3.750    0.000    4.000 
#    0.000    0.000    0.000    3.750    0.000    0.000 
#    0.000    0.000    0.000    0.000    0.000    0.000 
#
# Total GULP energy -89089.513076 kJ/mol
# GULP energy per Si atom -5568.094567 kJ/mol
# Density = 1.959434 g / cm^3
# Si number density = 19.639041 Si / 1000 Ang^3
#
#
#
# Elastic Constant Matrix: (Units=GPa)
#
#
# Indices 1 2 3 4 5 6 
#
# 1 108.0384 5.3649 34.1228 0.0000 -9.5508 0.0000
# 2 5.3649 31.0398 -12.6649 0.0000 -8.1780 0.0000
# 3 34.1228 -12.6649 47.0574 0.0000 -10.3740 0.0000
# 4 0.0000 0.0000 0.0000 0.7923 0.0000 -3.5491
# 5 -9.5508 -8.1780 -10.3740 0.0000 33.8999 0.0000
# 6 0.0000 0.0000 0.0000 -3.5491 0.0000 4.2954
#
#
#
# Elastic Compliance Matrix: (Units=1/GPa)
#
#
# Indices 1 2 3 4 5 6 
#
# 1 0.013312 -0.007736 -0.012139 0.000000 -0.001830 0.000000
# 2 -0.007736 0.046469 0.021562 0.000000 0.015629 0.000000
# 3 -0.012139 0.021562 0.038871 0.000000 0.013677 0.000000
# 4 0.000000 0.000000 0.000000 -0.467229 0.000000 -0.386055
# 5 -0.001830 0.015629 0.013677 0.000000 0.036939 0.000000
# 6 0.000000 0.000000 0.000000 -0.386055 0.000000 -0.086177
#
#
# Mechanical properties :
#
#
# Convention : Reuss Voigt Hill
#
# Bulk Modulus (GPa) = 9.80137 26.64235 18.22186
# Shear Modulus (GPa) = -12.91388 18.41836 2.75224
#
# Velocity S-wave (km/s) = -2.56708 3.06575 1.18510
# Velocity P-wave (km/s) = 1.94549 5.11148 3.34232
#
# Compressibility (1/GPa) = 0.10202657
#
# Stress axis : x y z
#
# Youngs Moduli (GPa) = 75.11929 21.51961 25.72618
#
# Poissons Ratio (x) = 0.16647 0.31228
# Poissons Ratio (y) = 0.58112 -0.55470
# Poissons Ratio (z) = 0.91184 -0.46400
#
# Static dielectric constant tensor:
#      x y z
#    x 1.722530 0.000000 -0.003760 
#    y 0.000000 1.676950 0.000000 
#    z -0.003760 0.000000 1.682400 
# 
# From -- ./inp_files/58711.got.cif
#   From: 2010.05.17/outbox.cif.g08.bks.cpg/sg12_30_cif.got.tgz:58711.got - 2010.06.03 13:09:07.
