data_PCOD9193323
_publ_section_title
;
Structure prediction by ZEFSAII (Michael W. Deem and Ramdas Pophale) SiO2 
 PCOD9193323
Probable space group: C 2/M
;
_chemical_formula_sum "Si O2"
_cell_formula_units_Z 48
_cell_length_a 15.884562
_cell_length_b 16.201871
_cell_length_c 9.481345
_cell_angle_alpha 90.000000
_cell_angle_beta 90.242168
_cell_angle_gamma 90.000000
_cell_volume 2440.093593
_symmetry_space_group_name_H-M "C 2/M"
_symmetry_group_IT_number 12
_symmetry_cell_setting 'monoclinic'
loop_
_space_group_symop_operation_xyz
x,y,z
-x,y,-z
-x,-y,-z
x,-y,z
1/2+x,1/2+y,z
1/2-x,1/2+y,-z
1/2-x,1/2-y,-z
1/2+x,1/2-y,z
loop_
_atom_site_type_symbol
_atom_site_label
_atom_site_fract_x
_atom_site_fract_y
_atom_site_fract_z
Si Si1 0.920510 0.400402 0.596479
Si Si2 0.578507 0.628161 0.095282
Si Si3 0.270856 0.903732 0.079605
Si Si4 0.579744 0.595694 0.423304
Si Si5 0.919711 0.325860 0.906720
Si Si6 0.235885 0.398967 0.594926
O O1 0.918957 0.500000 0.611279
O O2 0.925611 0.361403 0.750030
O O3 0.836905 0.374395 0.511892
O O4 0.000000 0.378928 0.500000
O O5 0.671532 0.602693 0.043799
O O6 0.568359 0.597142 0.255062
O O7 0.577932 0.727182 0.099445
O O8 0.500000 0.600409 0.000000
O O9 0.279883 0.874674 0.242599
O O10 0.294902 0.000000 0.073192
O O11 0.333334 0.854347 0.979794
O O12 0.500000 0.635178 0.500000
O O13 0.584055 0.500000 0.470817
O O14 0.672134 0.632127 0.450645
O O15 0.000000 0.354254 0.000000
O O16 0.238774 0.500000 0.597888
#
# Coordination Sequence:
#
# PCOD9193323 Si02
#       6
#     8   8   8   8   8   8
#     4  10  20  34  53  77 105 139 182 227 268 317
#     4  10  22  38  55  80 116 150 179 219 273 328
#     4  10  20  37  60  81 106 142 184 229 273 319
#     4   9  18  34  56  80 107 140 180 223 265 316
#     4  11  23  37  54  80 114 148 182 222 271 328
#     4   8  16  32  52  76 104 133 171 223 274 312
#
# _framework density 19.671377
#
# number of rings (size 3 to 8) (size 9 to 14) (size 15 to 20)
#    0.000    2.333    0.000    3.500    0.000    6.000 
#    0.000    5.000    0.000    0.000    0.000    0.000 
#    0.000    0.000    0.000    0.000    0.000    0.000 
#
# Total GULP energy -133982.661407 kJ/mol
# GULP energy per Si atom -5582.610892 kJ/mol
# Density = 1.962660 g / cm^3
# Si number density = 19.671377 Si / 1000 Ang^3
#
#
#
# Elastic Constant Matrix: (Units=GPa)
#
#
# Indices 1 2 3 4 5 6 
#
# 1 150.7293 21.5258 87.9731 0.0000 -0.0026 0.0000
# 2 21.5258 36.3886 21.2459 0.0000 -4.9424 0.0000
# 3 87.9731 21.2459 103.1849 0.0000 0.1205 0.0000
# 4 0.0000 0.0000 0.0000 32.1387 0.0000 11.7371
# 5 -0.0026 -4.9424 0.1205 0.0000 43.4952 0.0000
# 6 0.0000 0.0000 0.0000 11.7371 0.0000 -6.3423
#
#
#
# Elastic Compliance Matrix: (Units=1/GPa)
#
#
# Indices 1 2 3 4 5 6 
#
# 1 0.013270 -0.001435 -0.011018 0.000000 -0.000132 0.000000
# 2 -0.001435 0.031955 -0.005361 0.000000 0.003646 0.000000
# 3 -0.011018 -0.005361 0.020190 0.000000 -0.000666 0.000000
# 4 0.000000 0.000000 0.000000 0.018567 0.000000 0.034360
# 5 -0.000132 0.003646 -0.000666 0.000000 0.023407 0.000000
# 6 0.000000 0.000000 0.000000 0.034360 0.000000 -0.094085
#
#
# Mechanical properties :
#
#
# Convention : Reuss Voigt Hill
#
# Bulk Modulus (GPa) = 33.57098 61.31029 47.44063
# Shear Modulus (GPa) = 84.94748 24.49552 54.72150
#
# Velocity S-wave (km/s) = 6.57853 3.53262 5.27998
# Velocity P-wave (km/s) = 8.64903 6.91911 7.83198
#
# Compressibility (1/GPa) = 0.02978763
#
# Stress axis : x y z
#
# Youngs Moduli (GPa) = 75.35759 31.29417 49.53022
#
# Poissons Ratio (x) = 0.04490 0.54573
# Poissons Ratio (y) = 0.10812 0.26551
# Poissons Ratio (z) = 0.83030 0.16775
#
# Static dielectric constant tensor:
#      x y z
#    x 1.718410 0.000000 -0.002500 
#    y 0.000000 1.685830 0.000000 
#    z -0.002500 0.000000 1.652620 
# 
# From -- ./inp_files/61734.got.cif
#   From: 2010.05.17/outbox.cif.g08.bks.cpg/sg12_31_cif.got.tgz:61734.got - 2010.06.03 13:09:07.
