data_PCOD9193500
_publ_section_title
;
Structure prediction by ZEFSAII (Michael W. Deem and Ramdas Pophale) SiO2 
 PCOD9193500
Probable space group: C 2/M
;
_chemical_formula_sum "Si O2"
_cell_formula_units_Z 48
_cell_length_a 19.409670
_cell_length_b 9.034547
_cell_length_c 30.226596
_cell_angle_alpha 90.000000
_cell_angle_beta 30.918757
_cell_angle_gamma 90.000000
_cell_volume 2723.494986
_symmetry_space_group_name_H-M "C 2/M"
_symmetry_group_IT_number 12
_symmetry_cell_setting 'monoclinic'
loop_
_space_group_symop_operation_xyz
x,y,z
-x,y,-z
-x,-y,-z
x,-y,z
1/2+x,1/2+y,z
1/2-x,1/2+y,-z
1/2-x,1/2-y,-z
1/2+x,1/2-y,z
loop_
_atom_site_type_symbol
_atom_site_label
_atom_site_fract_x
_atom_site_fract_y
_atom_site_fract_z
Si Si1 0.832853 0.174114 0.221913
Si Si2 0.108845 0.176549 0.477414
Si Si3 0.478863 0.174967 0.631048
Si Si4 0.412456 0.323724 0.758310
Si Si5 0.599868 0.824727 0.724988
Si Si6 0.127815 0.823024 0.899566
O O1 0.672941 0.197721 0.303663
O O2 0.887802 0.270805 0.231494
O O3 0.895982 0.208304 0.139254
O O4 0.852987 0.000000 0.220483
O O5 0.256262 0.205052 0.377279
O O6 0.000000 0.220235 0.500000
O O7 0.077876 0.260630 0.539783
O O8 0.093915 0.000000 0.492949
O O9 0.483891 0.256871 0.675214
O O10 0.498602 0.000000 0.626660
O O11 0.414733 0.500000 0.755362
O O12 0.488142 0.262523 0.759406
O O13 0.260522 0.263590 0.840742
O O14 0.574812 0.000000 0.736622
O O15 0.155542 0.000000 0.887349
O O16 0.000000 0.788766 0.000000
#
# Coordination Sequence:
#
# PCOD9193500 Si02
#       6
#     8   8   8   8   8   8
#     4   9  18  33  55  83 111 142 181 223 271 328
#     4  10  20  34  53  80 111 146 192 237 277 322
#     4  10  20  35  56  80 109 148 192 232 276 329
#     4  11  23  38  57  81 114 147 184 231 278 329
#     4  11  22  36  55  79 113 151 186 229 280 329
#     4   9  19  39  65  89 113 142 178 222 274 336
#
# _framework density 17.624412
#
# number of rings (size 3 to 8) (size 9 to 14) (size 15 to 20)
#    0.000    2.000    1.667    3.500    0.000    5.333 
#    0.000    0.833    0.000    0.000    0.000    0.000 
#    0.000    0.000    0.000    0.000    0.000    0.000 
#
# Total GULP energy -134040.136009 kJ/mol
# GULP energy per Si atom -5585.005667 kJ/mol
# Density = 1.758430 g / cm^3
# Si number density = 17.624412 Si / 1000 Ang^3
#
#
#
# Elastic Constant Matrix: (Units=GPa)
#
#
# Indices 1 2 3 4 5 6 
#
# 1 104.5497 71.6535 49.9777 0.0001 10.6891 -0.0003
# 2 71.6535 84.9353 57.4871 0.0001 6.9756 -0.0005
# 3 49.9777 57.4871 88.1112 -0.0001 23.4915 0.0000
# 4 0.0001 0.0001 -0.0001 20.3218 0.0000 4.1902
# 5 10.6891 6.9756 23.4915 0.0000 21.4044 0.0000
# 6 -0.0003 -0.0005 0.0000 4.1902 0.0000 32.9698
#
#
#
# Elastic Compliance Matrix: (Units=1/GPa)
#
#
# Indices 1 2 3 4 5 6 
#
# 1 0.023396 -0.020539 0.002064 0.000000 -0.007256 0.000000
# 2 -0.020539 0.041383 -0.020482 0.000000 0.019250 0.000000
# 3 0.002064 -0.020482 0.031152 0.000000 -0.028546 0.000000
# 4 0.000000 0.000000 0.000000 0.050533 0.000000 -0.006422
# 5 -0.007256 0.019250 -0.028546 0.000000 0.075399 0.000000
# 6 0.000000 0.000000 0.000000 -0.006422 0.000000 0.031147
#
#
# Mechanical properties :
#
#
# Convention : Reuss Voigt Hill
#
# Bulk Modulus (GPa) = 55.49988 70.64808 63.07398
# Shear Modulus (GPa) = 14.83991 21.50438 18.17215
#
# Velocity S-wave (km/s) = 2.90489 3.49685 3.21452
# Velocity P-wave (km/s) = 6.54292 7.51507 7.04579
#
# Compressibility (1/GPa) = 0.01801806
#
# Stress axis : x y z
#
# Youngs Moduli (GPa) = 42.74171 24.16467 32.10036
#
# Poissons Ratio (x) = 0.49632 -0.06626
# Poissons Ratio (y) = 0.87787 0.65748
# Poissons Ratio (z) = -0.08823 0.49494
#
# Static dielectric constant tensor:
#      x y z
#    x 1.585290 0.000000 0.001520 
#    y 0.000000 1.583610 0.000000 
#    z 0.001520 0.000000 1.583270 
# 
# From -- ./inp_files/274050.got.cif
#   From: 2010.05.17/outbox.cif.g08.bks.cpg/sg12_138_cif.got.tgz:274050.got - 2010.06.03 13:09:07.
