data_PCOD9193114
_publ_section_title
;
Structure prediction by ZEFSAII (Michael W. Deem and Ramdas Pophale) SiO2 
 PCOD9193114
Probable space group: C 2/M
;
_chemical_formula_sum "Si O2"
_cell_formula_units_Z 56
_cell_length_a 15.022313
_cell_length_b 7.654471
_cell_length_c 27.216103
_cell_angle_alpha 90.000000
_cell_angle_beta 63.369248
_cell_angle_gamma 90.000000
_cell_volume 2797.522338
_symmetry_space_group_name_H-M "C 2/M"
_symmetry_group_IT_number 12
_symmetry_cell_setting 'monoclinic'
loop_
_space_group_symop_operation_xyz
x,y,z
-x,y,-z
-x,-y,-z
x,-y,z
1/2+x,1/2+y,z
1/2-x,1/2+y,-z
1/2-x,1/2-y,-z
1/2+x,1/2-y,z
loop_
_atom_site_type_symbol
_atom_site_label
_atom_site_fract_x
_atom_site_fract_y
_atom_site_fract_z
Si Si1 0.301019 0.708304 0.435947
Si Si2 0.016921 0.705723 0.347964
Si Si3 0.570859 0.211745 0.732572
Si Si4 0.710787 0.208597 0.356828
Si Si5 0.778466 0.208209 0.936879
Si Si6 0.923786 0.714095 0.061543
Si Si7 0.998205 0.297484 0.854998
O O1 0.307975 0.500000 0.429165
O O2 0.250000 0.750000 0.500000
O O3 0.413815 0.776955 0.403477
O O4 0.236097 0.775935 0.405535
O O5 0.037094 0.500000 0.336104
O O6 0.112829 0.778789 0.353185
O O7 0.989558 0.777648 0.300473
O O8 0.686836 0.259215 0.697905
O O9 0.527748 0.277355 0.794916
O O10 0.564533 0.000000 0.732923
O O11 0.696391 0.000000 0.365136
O O12 0.686316 0.265934 0.926565
O O13 0.881029 0.290480 0.894325
O O14 0.789134 0.000000 0.930178
O O15 0.750000 0.250000 0.000000
O O16 0.928499 0.500000 0.060752
O O17 0.952912 0.779884 0.108035
O O18 0.000000 0.770493 0.000000
O O19 0.030052 0.500000 0.845445
#
# Coordination Sequence:
#
# PCOD9193114 Si02
#       7
#     8   8   8   8   8   8   8
#     4  10  20  34  52  78 108 141 176 214 254 300
#     4   9  18  35  55  76 104 140 174 212 260 304
#     4   9  19  34  54  77 102 132 170 215 258 299
#     4   9  19  35  55  75 103 140 174 209 256 307
#     4  11  21  34  53  75  98 130 167 205 251 305
#     4   9  17  32  52  70  96 134 163 192 247 311
#     4  10  20  36  54  75 103 134 168 208 255 309
#
# _framework density 20.017712
#
# number of rings (size 3 to 8) (size 9 to 14) (size 15 to 20)
#    0.000    2.429    1.429    0.857    0.000    3.429 
#    0.000    5.000    0.000    0.000    0.000    0.000 
#    0.000    0.000    0.000    0.000    0.000    0.000 
#
# Total GULP energy -156209.589176 kJ/mol
# GULP energy per Si atom -5578.913899 kJ/mol
# Density = 1.997215 g / cm^3
# Si number density = 20.017712 Si / 1000 Ang^3
#
#
#
# Elastic Constant Matrix: (Units=GPa)
#
#
# Indices 1 2 3 4 5 6 
#
# 1 205.1612 -1.6178 96.7640 0.0000 13.0178 0.0000
# 2 -1.6178 35.5533 -15.5609 -0.0001 6.6334 -0.0001
# 3 96.7640 -15.5609 174.9933 0.0000 17.5682 0.0000
# 4 0.0000 -0.0001 0.0000 12.6192 0.0000 -10.5634
# 5 13.0178 6.6334 17.5682 0.0000 13.0644 0.0000
# 6 0.0000 -0.0001 0.0000 -10.5634 0.0000 13.5499
#
#
#
# Elastic Compliance Matrix: (Units=1/GPa)
#
#
# Indices 1 2 3 4 5 6 
#
# 1 0.006669 -0.001085 -0.003668 0.000000 -0.001163 0.000000
# 2 -0.001085 0.035605 0.006326 0.000001 -0.025505 0.000001
# 3 -0.003668 0.006326 0.009550 0.000000 -0.012400 0.000000
# 4 0.000000 0.000001 0.000000 0.228100 0.000000 0.177824
# 5 -0.001163 -0.025505 -0.012400 0.000000 0.107327 0.000000
# 6 0.000000 0.000001 0.000000 0.177824 0.000000 0.212431
#
#
# Mechanical properties :
#
#
# Convention : Reuss Voigt Hill
#
# Bulk Modulus (GPa) = 18.19096 63.87539 41.03318
# Shear Modulus (GPa) = 8.13195 30.25483 19.19339
#
# Velocity S-wave (km/s) = 2.01772 3.89189 3.09984
# Velocity P-wave (km/s) = 3.81253 7.22319 5.77538
#
# Compressibility (1/GPa) = 0.05497236
#
# Stress axis : x y z
#
# Youngs Moduli (GPa) = 149.94226 28.08598 104.71272
#
# Poissons Ratio (x) = 0.03047 0.38404
# Poissons Ratio (y) = 0.16265 -0.66246
# Poissons Ratio (z) = 0.54992 -0.17768
#
# Static dielectric constant tensor:
#      x y z
#    x 1.706980 0.000000 0.032780 
#    y 0.000000 1.868410 0.000000 
#    z 0.032780 0.000000 1.698080 
# 
# From -- ./inp_files/359666.got.cif
#   From: 2010.05.17/outbox.cif.g08.bks.cpg/sg12_180_cif.got.tgz:359666.got - 2010.06.03 13:09:07.
