data_PCOD9193167
_publ_section_title
;
Structure prediction by ZEFSAII (Michael W. Deem and Ramdas Pophale) SiO2 
 PCOD9193167
Probable space group: C 2/M
;
_chemical_formula_sum "Si O2"
_cell_formula_units_Z 40
_cell_length_a 9.900530
_cell_length_b 28.622063
_cell_length_c 7.878435
_cell_angle_alpha 90.000000
_cell_angle_beta 121.175543
_cell_angle_gamma 90.000000
_cell_volume 1910.128790
_symmetry_space_group_name_H-M "C 2/M"
_symmetry_group_IT_number 12
_symmetry_cell_setting 'monoclinic'
loop_
_space_group_symop_operation_xyz
x,y,z
-x,y,-z
-x,-y,-z
x,-y,z
1/2+x,1/2+y,z
1/2-x,1/2+y,-z
1/2-x,1/2-y,-z
1/2+x,1/2-y,z
loop_
_atom_site_type_symbol
_atom_site_label
_atom_site_fract_x
_atom_site_fract_y
_atom_site_fract_z
Si Si1 0.320060 0.800730 0.019922
Si Si2 0.180314 0.052531 0.050172
Si Si3 0.228416 0.137558 0.286863
Si Si4 0.610319 0.212227 0.412348
Si Si5 0.593988 0.628618 0.735993
O O1 0.268661 0.830891 0.151808
O O2 0.506267 0.792143 0.175519
O O3 0.250000 0.750000 0.000000
O O4 0.223981 0.830252 0.815820
O O5 0.261843 0.085068 0.245897
O O6 0.241767 0.000000 0.071164
O O7 0.172769 0.082399 0.870672
O O8 0.000000 0.049281 0.000000
O O9 0.328860 0.160491 0.501242
O O10 0.046826 0.142054 0.225292
O O11 0.500000 0.227064 0.500000
O O12 0.750000 0.250000 0.500000
O O13 0.500000 0.620500 0.500000
#
# Coordination Sequence:
#
# PCOD9193167 Si02
#       5
#     8   8   8   8   8
#     4  10  20  34  53  75 105 148 191 229 275 330
#     4   8  15  31  56  81 105 140 186 235 285 337
#     4   9  19  35  53  77 112 147 187 237 282 337
#     4  10  21  36  55  79 111 150 196 238 280 334
#     4  10  20  34  52  80 115 146 185 235 285 339
#
# _framework density 20.940996999999999
#
# number of rings (size 3 to 8) (size 9 to 14) (size 15 to 20)
#    0.000    2.600    0.000    3.000    0.000    8.400 
#    0.000    5.000    0.000   15.000    0.000    0.000 
#    0.000   32.000    0.000    0.000    0.000    0.000 
#
# Total GULP energy -111504.924547 kJ/mol
# GULP energy per Si atom -5575.246227 kJ/mol
# Density = 2.089333 g / cm^3
# Si number density = 20.940997 Si / 1000 Ang^3
#
#
#
# Elastic Constant Matrix: (Units=GPa)
#
#
# Indices 1 2 3 4 5 6 
#
# 1 61.7085 22.5797 17.2441 0.0000 14.4031 0.0000
# 2 22.5797 190.4436 75.2974 0.0000 20.2327 0.0000
# 3 17.2441 75.2974 165.6164 0.0000 7.4852 0.0000
# 4 0.0000 0.0000 0.0000 18.8680 0.0000 9.5203
# 5 14.4031 20.2327 7.4852 0.0000 30.5353 0.0000
# 6 0.0000 0.0000 0.0000 9.5203 0.0000 16.9323
#
#
#
# Elastic Compliance Matrix: (Units=1/GPa)
#
#
# Indices 1 2 3 4 5 6 
#
# 1 0.018720 -0.000911 -0.001176 0.000000 -0.007938 0.000000
# 2 -0.000911 0.006855 -0.002868 0.000000 -0.003409 0.000000
# 3 -0.001176 -0.002868 0.007436 0.000000 0.000632 0.000000
# 4 0.000000 0.000000 0.000000 0.073991 0.000000 -0.041602
# 5 -0.007938 -0.003409 0.000632 0.000000 0.038597 0.000000
# 6 0.000000 0.000000 0.000000 -0.041602 0.000000 0.082449
#
#
# Mechanical properties :
#
#
# Convention : Reuss Voigt Hill
#
# Bulk Modulus (GPa) = 43.28845 72.00121 57.64483
# Shear Modulus (GPa) = 20.35348 33.44362 26.89855
#
# Velocity S-wave (km/s) = 3.12098 4.00063 3.58787
# Velocity P-wave (km/s) = 5.80551 7.46978 6.68960
#
# Compressibility (1/GPa) = 0.02310085
#
# Stress axis : x y z
#
# Youngs Moduli (GPa) = 53.41864 145.88011 134.48622
#
# Poissons Ratio (x) = 0.13292 0.15817
# Poissons Ratio (y) = 0.04867 0.38566
# Poissons Ratio (z) = 0.06283 0.41833
#
# Static dielectric constant tensor:
#      x y z
#    x 1.907490 0.000000 -0.027630 
#    y 0.000000 1.747860 0.000000 
#    z -0.027630 0.000000 1.881960 
# 
# From -- ./inp_files/53666.got.cif
#   From: 2010.05.17/outbox.cif.g08.bks.cpg/sg12_27_cif.got.tgz:53666.got - 2010.06.03 13:09:07.
