data_PCOD9193786
_publ_section_title
;
Structure prediction by ZEFSAII (Michael W. Deem and Ramdas Pophale) SiO2 
 PCOD9193786
Probable space group: C 2/M
;
_chemical_formula_sum "Si O2"
_cell_formula_units_Z 40
_cell_length_a 10.526538
_cell_length_b 28.396129
_cell_length_c 8.202001
_cell_angle_alpha 90.000000
_cell_angle_beta 52.022375
_cell_angle_gamma 90.000000
_cell_volume 1932.542784
_symmetry_space_group_name_H-M "C 2/M"
_symmetry_group_IT_number 12
_symmetry_cell_setting 'monoclinic'
loop_
_space_group_symop_operation_xyz
x,y,z
-x,y,-z
-x,-y,-z
x,-y,z
1/2+x,1/2+y,z
1/2-x,1/2+y,-z
1/2-x,1/2-y,-z
1/2+x,1/2-y,z
loop_
_atom_site_type_symbol
_atom_site_label
_atom_site_fract_x
_atom_site_fract_y
_atom_site_fract_z
Si Si1 0.637294 0.906983 0.286881
Si Si2 0.059331 0.761120 0.640764
Si Si3 0.417050 0.552025 0.885038
Si Si4 0.121717 0.137200 0.639074
Si Si5 0.556309 0.836672 0.779559
O O1 0.500000 0.933884 0.500000
O O2 0.768364 0.880689 0.297374
O O3 0.536549 0.866877 0.279291
O O4 0.733383 0.936840 0.077776
O O5 0.250000 0.750000 0.500000
O O6 0.030353 0.813163 0.735491
O O7 0.998505 0.716949 0.792872
O O8 0.000000 0.758942 0.500000
O O9 0.437663 0.500000 0.796700
O O10 0.498161 0.593989 0.717589
O O11 0.500000 0.551140 0.000000
O O12 0.253782 0.151333 0.397076
O O13 0.500000 0.851358 0.000000
#
# Coordination Sequence:
#
# PCOD9193786 Si02
#       5
#     8   8   8   8   8
#     4   9  18  35  56  79 111 143 179 226 275 330
#     4  10  20  36  56  80 113 151 189 228 277 334
#     4   9  18  33  56  83 105 134 181 232 279 326
#     4   9  19  36  55  79 112 145 180 228 277 327
#     4  10  20  34  54  80 111 147 186 224 270 329
#
# _framework density 20.698118000000001
#
# number of rings (size 3 to 8) (size 9 to 14) (size 15 to 20)
#    0.000    2.600    0.000    3.000    0.000    6.000 
#    0.000    9.000    0.000    6.600    0.000    0.000 
#    0.000    0.000    0.000    0.000    0.000    0.000 
#
# Total GULP energy -111362.849184 kJ/mol
# GULP energy per Si atom -5568.142459 kJ/mol
# Density = 2.065101 g / cm^3
# Si number density = 20.698118 Si / 1000 Ang^3
#
#
#
# Elastic Constant Matrix: (Units=GPa)
#
#
# Indices 1 2 3 4 5 6 
#
# 1 56.3298 5.4857 14.2372 0.0000 -5.3417 0.0000
# 2 5.4857 156.0724 56.2643 0.0000 -24.4559 0.0000
# 3 14.2372 56.2643 87.5677 0.0000 -9.7638 0.0000
# 4 0.0000 0.0000 0.0000 29.4422 0.0000 -6.4976
# 5 -5.3417 -24.4559 -9.7638 0.0000 23.9080 0.0000
# 6 0.0000 0.0000 0.0000 -6.4976 0.0000 23.8961
#
#
#
# Elastic Compliance Matrix: (Units=1/GPa)
#
#
# Indices 1 2 3 4 5 6 
#
# 1 0.018876 0.001191 -0.003382 0.000000 0.004055 0.000000
# 2 0.001191 0.009560 -0.005465 0.000000 0.007813 0.000000
# 3 -0.003382 -0.005465 0.015478 0.000000 -0.000025 0.000000
# 4 0.000000 0.000000 0.000000 0.036133 0.000000 0.009825
# 5 0.004055 0.007813 -0.000025 0.000000 0.050715 0.000000
# 6 0.000000 0.000000 0.000000 0.009825 0.000000 0.044519
#
#
# Mechanical properties :
#
#
# Convention : Reuss Voigt Hill
#
# Bulk Modulus (GPa) = 34.96251 50.21605 42.58928
# Shear Modulus (GPa) = 24.98407 30.38144 27.68276
#
# Velocity S-wave (km/s) = 3.47806 3.83539 3.66109
# Velocity P-wave (km/s) = 5.74957 6.62778 6.20423
#
# Compressibility (1/GPa) = 0.02860207
#
# Stress axis : x y z
#
# Youngs Moduli (GPa) = 52.97754 104.60443 64.60693
#
# Poissons Ratio (x) = -0.12460 0.21851
# Poissons Ratio (y) = -0.06311 0.35307
# Poissons Ratio (z) = 0.17918 0.57165
#
# Static dielectric constant tensor:
#      x y z
#    x 1.715090 0.000000 0.005890 
#    y 0.000000 1.773690 0.000000 
#    z 0.005890 0.000000 1.776840 
# 
# From -- ./inp_files/52342.got.cif
#   From: 2010.05.17/outbox.cif.g08.bks.cpg/sg12_27_cif.got.tgz:52342.got - 2010.06.03 13:09:07.
