data_PCOD9193294
_publ_section_title
;
Structure prediction by ZEFSAII (Michael W. Deem and Ramdas Pophale) SiO2 
 PCOD9193294
Probable space group: C 2/M
;
_chemical_formula_sum "Si O2"
_cell_formula_units_Z 52
_cell_length_a 8.418856
_cell_length_b 11.828156
_cell_length_c 27.638031
_cell_angle_alpha 90.000000
_cell_angle_beta 99.027479
_cell_angle_gamma 90.000000
_cell_volume 2718.091741
_symmetry_space_group_name_H-M "C 2/M"
_symmetry_group_IT_number 12
_symmetry_cell_setting 'monoclinic'
loop_
_space_group_symop_operation_xyz
x,y,z
-x,y,-z
-x,-y,-z
x,-y,z
1/2+x,1/2+y,z
1/2-x,1/2+y,-z
1/2-x,1/2-y,-z
1/2+x,1/2-y,z
loop_
_atom_site_type_symbol
_atom_site_label
_atom_site_fract_x
_atom_site_fract_y
_atom_site_fract_z
Si Si1 0.864502 0.127086 0.674502
Si Si2 0.757912 0.628307 0.437866
Si Si3 0.602159 0.191118 0.734315
Si Si4 0.619263 0.377111 0.863913
Si Si5 0.329274 0.629040 0.018883
Si Si6 0.387001 0.189264 0.807133
Si Si7 0.500000 0.294242 0.500000
O O1 0.820884 0.157501 0.617421
O O2 0.699022 0.127033 0.697353
O O3 0.988430 0.215319 0.703667
O O4 0.933003 0.000000 0.678884
O O5 0.819495 0.500000 0.437449
O O6 0.623249 0.636254 0.473144
O O7 0.896571 0.714349 0.459641
O O8 0.493600 0.131063 0.770219
O O9 0.744318 0.250332 0.771048
O O10 0.543287 0.500000 0.850802
O O11 0.646664 0.364658 0.922236
O O12 0.503246 0.280397 0.838099
O O13 0.790004 0.374145 0.844310
O O14 0.256913 0.500000 0.005778
O O15 0.500000 0.627357 0.000000
O O16 0.250000 0.750000 0.000000
#
# Coordination Sequence:
#
# PCOD9193294 Si02
#       7
#     8   8   8   8   8   8   4
#     4  10  20  35  54  74 103 139 173 213 259 309
#     4  10  20  34  53  77 102 135 174 210 258 313
#     4   9  19  34  52  77 104 134 175 215 258 313
#     4  10  20  36  56  78 107 141 176 220 269 317
#     4  10  21  37  58  83 113 148 187 230 279 333
#     4   9  19  34  53  77 104 134 174 217 257 314
#     4  10  20  34  54  76 106 134 164 218 262 302
#
# _framework density 19.131067000000002
#
# number of rings (size 3 to 8) (size 9 to 14) (size 15 to 20)
#    0.000    2.308    0.000    2.308    0.000    6.462 
#    0.000    5.385    0.000   12.923    0.000    0.000 
#    0.000    0.000    0.000    0.000    0.000    0.000 
#
# Total GULP energy -144778.990170 kJ/mol
# GULP energy per Si atom -5568.422699 kJ/mol
# Density = 1.908752 g / cm^3
# Si number density = 19.131067 Si / 1000 Ang^3
#
#
#
# Elastic Constant Matrix: (Units=GPa)
#
#
# Indices 1 2 3 4 5 6 
#
# 1 59.0836 24.5598 17.0658 0.0000 -4.6462 0.0000
# 2 24.5598 116.1423 40.0626 0.0000 17.9274 0.0000
# 3 17.0658 40.0626 91.9199 0.0000 -10.0992 0.0000
# 4 0.0000 0.0000 0.0000 140.0489 0.0000 5.0684
# 5 -4.6462 17.9274 -10.0992 0.0000 26.0517 0.0000
# 6 0.0000 0.0000 0.0000 5.0684 0.0000 17.5212
#
#
#
# Elastic Compliance Matrix: (Units=1/GPa)
#
#
# Indices 1 2 3 4 5 6 
#
# 1 0.019715 -0.004911 -0.000796 0.000000 0.006587 0.000000
# 2 -0.004911 0.013931 -0.006590 0.000000 -0.013017 0.000000
# 3 -0.000796 -0.006590 0.015022 0.000000 0.010216 0.000000
# 4 0.000000 0.000000 0.000000 0.007216 0.000000 -0.002087
# 5 0.006587 -0.013017 0.010216 0.000000 0.052478 0.000000
# 6 0.000000 0.000000 0.000000 -0.002087 0.000000 0.057678
#
#
# Mechanical properties :
#
#
# Convention : Reuss Voigt Hill
#
# Bulk Modulus (GPa) = 41.54086 47.83580 44.68833
# Shear Modulus (GPa) = 25.16885 49.08818 37.12852
#
# Velocity S-wave (km/s) = 3.63106 5.07096 4.41017
# Velocity P-wave (km/s) = 6.27219 7.70355 7.02442
#
# Compressibility (1/GPa) = 0.02407268
#
# Stress axis : x y z
#
# Youngs Moduli (GPa) = 50.72406 71.78108 66.57072
#
# Poissons Ratio (x) = 0.35252 0.05299
# Poissons Ratio (y) = 0.24911 0.43872
# Poissons Ratio (z) = 0.04038 0.47306
#
# Static dielectric constant tensor:
#      x y z
#    x 1.655290 0.000000 -0.032630 
#    y 0.000000 1.672570 0.000000 
#    z -0.032630 0.000000 1.649280 
# 
# From -- ./inp_files/355556.got.cif
#   From: 2010.05.17/outbox.cif.g08.bks.cpg/sg12_178_cif.got.tgz:355556.got - 2010.06.03 13:09:07.
