data_PCOD9193071
_publ_section_title
;
Structure prediction by ZEFSAII (Michael W. Deem and Ramdas Pophale) SiO2 
 PCOD9193071
Probable space group: C 2/M
;
_chemical_formula_sum "Si O2"
_cell_formula_units_Z 56
_cell_length_a 19.090588
_cell_length_b 8.546391
_cell_length_c 30.138505
_cell_angle_alpha 90.000000
_cell_angle_beta 37.710587
_cell_angle_gamma 90.000000
_cell_volume 3007.760441
_symmetry_space_group_name_H-M "C 2/M"
_symmetry_group_IT_number 12
_symmetry_cell_setting 'monoclinic'
loop_
_space_group_symop_operation_xyz
x,y,z
-x,y,-z
-x,-y,-z
x,-y,z
1/2+x,1/2+y,z
1/2-x,1/2+y,-z
1/2-x,1/2-y,-z
1/2+x,1/2-y,z
loop_
_atom_site_type_symbol
_atom_site_label
_atom_site_fract_x
_atom_site_fract_y
_atom_site_fract_z
Si Si1 0.551945 0.687415 0.297575
Si Si2 0.706956 0.812144 0.299135
Si Si3 0.588758 0.690029 0.865064
Si Si4 0.172381 0.810493 0.999321
Si Si5 0.632501 0.312528 0.431275
Si Si6 0.744649 0.810800 0.139169
Si Si7 0.212046 0.187662 0.566876
O O1 0.556690 0.500000 0.298976
O O2 0.610296 0.759127 0.312365
O O3 0.628863 0.741687 0.217623
O O4 0.420009 0.735694 0.359071
O O5 0.828317 0.761242 0.216737
O O6 0.684333 0.742870 0.358624
O O7 0.705997 0.000000 0.302083
O O8 0.585973 0.500000 0.865809
O O9 0.653839 0.734586 0.877722
O O10 0.458600 0.744973 0.929382
O O11 0.223700 0.761177 0.926156
O O12 0.171107 0.000000 0.000233
O O13 0.250000 0.750000 0.000000
O O14 0.500000 0.259538 0.500000
O O15 0.633617 0.500000 0.432498
O O16 0.705337 0.248843 0.435927
O O17 0.736169 0.000000 0.144514
O O18 0.250000 0.250000 0.500000
O O19 0.216420 0.000000 0.564342
#
# Coordination Sequence:
#
# PCOD9193071 Si02
#       7
#     8   8   8   8   8   8   8
#     4  10  21  37  57  83 114 144 177 223 276 325
#     4  10  20  36  60  86 110 142 184 225 271 327
#     4   8  16  33  56  78 102 137 180 222 263 313
#     4  10  20  34  52  76 108 141 176 222 272 321
#     4  11  24  40  58  82 113 147 182 224 274 323
#     4   9  18  34  57  80 101 138 188 225 261 317
#     4  11  24  40  59  83 111 146 185 224 271 325
#
# _framework density 18.618504000000001
#
# number of rings (size 3 to 8) (size 9 to 14) (size 15 to 20)
#    0.000    2.143    0.000    3.857    0.000   10.286 
#    0.000    7.857    0.000    4.286    0.000    0.000 
#    0.000    0.000    0.000    0.000    0.000    0.000 
#
# Total GULP energy -156364.658633 kJ/mol
# GULP energy per Si atom -5584.452094 kJ/mol
# Density = 1.857613 g / cm^3
# Si number density = 18.618504 Si / 1000 Ang^3
#
#
#
# Elastic Constant Matrix: (Units=GPa)
#
#
# Indices 1 2 3 4 5 6 
#
# 1 161.9954 34.1455 143.0875 0.0000 -2.3564 -0.0014
# 2 34.1455 29.8126 38.2258 0.0000 -2.6786 -0.0008
# 3 143.0875 38.2258 189.2900 0.0000 1.5741 -0.0003
# 4 0.0000 0.0000 0.0000 28.1706 0.0000 1.4469
# 5 -2.3564 -2.6786 1.5741 0.0000 38.3847 0.0000
# 6 -0.0014 -0.0008 -0.0003 1.4469 0.0000 34.5030
#
#
#
# Elastic Compliance Matrix: (Units=1/GPa)
#
#
# Indices 1 2 3 4 5 6 
#
# 1 0.019093 -0.004344 -0.013568 0.000000 0.001425 0.000001
# 2 -0.004344 0.046736 -0.006181 0.000000 0.003248 0.000001
# 3 -0.013568 -0.006181 0.016803 0.000000 -0.001953 -0.000001
# 4 0.000000 0.000000 0.000000 0.035575 0.000000 -0.001492
# 5 0.001425 0.003248 -0.001953 0.000000 0.026446 0.000000
# 6 0.000001 0.000001 -0.000001 -0.001492 0.000000 0.029046
#
#
# Mechanical properties :
#
#
# Convention : Reuss Voigt Hill
#
# Bulk Modulus (GPa) = 29.03035 90.22394 59.62714
# Shear Modulus (GPa) = 21.42548 31.25427 26.33988
#
# Velocity S-wave (km/s) = 3.39597 4.10160 3.76535
# Velocity P-wave (km/s) = 5.56802 8.42587 7.14136
#
# Compressibility (1/GPa) = 0.03444671
#
# Stress axis : x y z
#
# Youngs Moduli (GPa) = 52.37402 21.39699 59.51144
#
# Poissons Ratio (x) = 0.09294 0.80743
# Poissons Ratio (y) = 0.22750 0.36786
# Poissons Ratio (z) = 0.71060 0.13226
#
# Static dielectric constant tensor:
#      x y z
#    x 1.605910 0.000000 -0.014010 
#    y 0.000000 1.640830 0.000000 
#    z -0.014010 0.000000 1.639360 
# 
# From -- ./inp_files/275196.got.cif
#   From: 2010.05.17/outbox.cif.g08.bks.cpg/sg12_138_cif.got.tgz:275196.got - 2010.06.03 13:09:07.
