data_PCOD9193298
_publ_section_title
;
Structure prediction by ZEFSAII (Michael W. Deem and Ramdas Pophale) SiO2 
 PCOD9193298
Probable space group: C 2/M
;
_chemical_formula_sum "Si O2"
_cell_formula_units_Z 56
_cell_length_a 14.269874
_cell_length_b 9.341024
_cell_length_c 23.483685
_cell_angle_alpha 90.000000
_cell_angle_beta 71.271193
_cell_angle_gamma 90.000000
_cell_volume 2964.512628
_symmetry_space_group_name_H-M "C 2/M"
_symmetry_group_IT_number 12
_symmetry_cell_setting 'monoclinic'
loop_
_space_group_symop_operation_xyz
x,y,z
-x,y,-z
-x,-y,-z
x,-y,z
1/2+x,1/2+y,z
1/2-x,1/2+y,-z
1/2-x,1/2-y,-z
1/2+x,1/2-y,z
loop_
_atom_site_type_symbol
_atom_site_label
_atom_site_fract_x
_atom_site_fract_y
_atom_site_fract_z
Si Si1 0.096728 0.835739 0.549209
Si Si2 0.101494 0.671361 0.010360
Si Si3 0.508446 0.831348 0.669442
Si Si4 0.195683 0.171441 0.094057
Si Si5 0.336014 0.669848 0.769394
Si Si6 0.685500 0.163291 0.432785
Si Si7 0.722985 0.834771 0.683190
O O1 0.028322 0.745997 0.605335
O O2 0.206417 0.837359 0.557223
O O3 0.114714 0.759275 0.485550
O O4 0.064156 0.000000 0.550365
O O5 0.099409 0.500000 0.019924
O O6 0.121154 0.749886 0.065965
O O7 0.194569 0.703785 0.951148
O O8 0.000000 0.714264 0.000000
O O9 0.423337 0.756092 0.722167
O O10 0.610837 0.815201 0.684900
O O11 0.490121 0.000000 0.664969
O O12 0.182884 0.214252 0.162146
O O13 0.182311 0.000000 0.092874
O O14 0.359934 0.500000 0.764759
O O15 0.241831 0.688331 0.746155
O O16 0.707688 0.232045 0.367469
O O17 0.650943 0.000000 0.436156
O O18 0.749925 0.000000 0.664594
#
# Coordination Sequence:
#
# PCOD9193298 Si02
#       7
#     8   8   8   8   8   8   8
#     4   9  16  28  48  72 100 135 172 214 270 328
#     4   9  18  34  58  85 111 140 175 214 255 301
#     4  10  20  34  53  77 103 134 177 225 267 311
#     4   9  19  35  54  79 111 143 175 213 256 303
#     4  10  21  37  54  74 106 145 178 210 256 314
#     4   9  16  27  47  74 101 130 170 221 270 316
#     4   9  19  35  53  73 101 138 176 215 265 322
#
# _framework density 18.890118999999999
#
# number of rings (size 3 to 8) (size 9 to 14) (size 15 to 20)
#    0.000    2.714    0.000    1.286    0.000    6.571 
#    0.000    3.571    0.000    4.286    0.000    0.000 
#    0.000    0.000    0.000    0.000    0.000    0.000 
#
# Total GULP energy -156349.047431 kJ/mol
# GULP energy per Si atom -5583.894551 kJ/mol
# Density = 1.884712 g / cm^3
# Si number density = 18.890119 Si / 1000 Ang^3
#
#
#
# Elastic Constant Matrix: (Units=GPa)
#
#
# Indices 1 2 3 4 5 6 
#
# 1 77.5851 26.8788 33.1750 0.0000 15.7071 0.0000
# 2 26.8788 60.5186 40.0722 0.0000 9.1824 0.0000
# 3 33.1750 40.0722 112.5223 0.0000 26.1858 0.0000
# 4 0.0000 0.0000 0.0000 32.1070 0.0000 0.1378
# 5 15.7071 9.1824 26.1858 0.0000 23.6214 0.0000
# 6 0.0000 0.0000 0.0000 0.1378 0.0000 19.9981
#
#
#
# Elastic Compliance Matrix: (Units=1/GPa)
#
#
# Indices 1 2 3 4 5 6 
#
# 1 0.016888 -0.005525 -0.001210 0.000000 -0.007740 0.000000
# 2 -0.005525 0.023431 -0.007346 0.000000 0.002709 0.000000
# 3 -0.001210 -0.007346 0.014835 0.000000 -0.012786 0.000000
# 4 0.000000 0.000000 0.000000 0.031147 0.000000 -0.000215
# 5 -0.007740 0.002709 -0.012786 0.000000 0.060602 0.000000
# 6 0.000000 0.000000 0.000000 -0.000215 0.000000 0.050006
#
#
# Mechanical properties :
#
#
# Convention : Reuss Voigt Hill
#
# Bulk Modulus (GPa) = 37.04776 50.09753 43.57265
# Shear Modulus (GPa) = 21.36137 25.17863 23.27000
#
# Velocity S-wave (km/s) = 3.36642 3.65485 3.51360
# Velocity P-wave (km/s) = 5.89620 6.66248 6.29102
#
# Compressibility (1/GPa) = 0.02699219
#
# Stress axis : x y z
#
# Youngs Moduli (GPa) = 59.21521 42.67926 67.40642
#
# Poissons Ratio (x) = 0.23579 0.08157
# Poissons Ratio (y) = 0.32715 0.49515
# Poissons Ratio (z) = 0.07166 0.31351
#
# Static dielectric constant tensor:
#      x y z
#    x 1.689520 0.000000 0.014780 
#    y 0.000000 1.635460 0.000000 
#    z 0.014780 0.000000 1.609450 
# 
# From -- ./inp_files/338556.got.cif
#   From: 2010.05.17/outbox.cif.g08.bks.cpg/sg12_170_cif.got.tgz:338556.got - 2010.06.03 13:09:07.
