data_PCOD9193910
_publ_section_title
;
Structure prediction by ZEFSAII (Michael W. Deem and Ramdas Pophale) SiO2 
 PCOD9193910
Probable space group: C 2/M
;
_chemical_formula_sum "Si O2"
_cell_formula_units_Z 48
_cell_length_a 20.245030
_cell_length_b 9.977188
_cell_length_c 12.643648
_cell_angle_alpha 90.000000
_cell_angle_beta 120.821781
_cell_angle_gamma 90.000000
_cell_volume 2193.175596
_symmetry_space_group_name_H-M "C 2/M"
_symmetry_group_IT_number 12
_symmetry_cell_setting 'monoclinic'
loop_
_space_group_symop_operation_xyz
x,y,z
-x,y,-z
-x,-y,-z
x,-y,z
1/2+x,1/2+y,z
1/2-x,1/2+y,-z
1/2-x,1/2-y,-z
1/2+x,1/2-y,z
loop_
_atom_site_type_symbol
_atom_site_label
_atom_site_fract_x
_atom_site_fract_y
_atom_site_fract_z
Si Si1 0.992508 0.846050 0.230900
Si Si2 0.729407 0.151684 0.388571
Si Si3 0.394321 0.846030 0.283986
Si Si4 0.096477 0.852169 0.524885
Si Si5 0.118417 0.842608 0.170012
Si Si6 0.274646 0.649221 0.930070
O O1 0.059225 0.835118 0.377685
O O2 0.033412 0.827158 0.150447
O O3 0.928908 0.739116 0.214359
O O4 0.964298 0.000000 0.212505
O O5 0.750000 0.250000 0.500000
O O6 0.811691 0.142150 0.401222
O O7 0.667155 0.229282 0.269152
O O8 0.705330 0.000000 0.398793
O O9 0.421611 0.765889 0.409300
O O10 0.301249 0.848737 0.206924
O O11 0.420587 0.000000 0.301934
O O12 0.074338 0.000000 0.546555
O O13 0.147753 0.826680 0.073473
O O14 0.138779 0.000000 0.212735
O O15 0.280161 0.500000 0.980149
O O16 0.250000 0.750000 0.000000
#
# Coordination Sequence:
#
# PCOD9193910 Si02
#       6
#     8   8   8   8   8   8
#     4  10  21  37  57  83 120 159 192 226 274 343
#     4  11  20  31  52  83 118 155 194 238 280 332
#     4  11  23  38  57  85 119 152 189 240 289 333
#     4  10  20  34  54  82 117 161 199 227 271 335
#     4  10  20  39  60  83 114 150 192 241 286 337
#     4  10  23  42  65  87 110 142 189 245 297 347
#
# _framework density 21.886074000000001
#
# number of rings (size 3 to 8) (size 9 to 14) (size 15 to 20)
#    0.000    1.667    3.333    1.500    0.000    6.000 
#    0.000    0.833    0.000    5.000    0.000    0.000 
#    0.000    0.000    0.000    0.000    0.000    0.000 
#
# Total GULP energy -133869.971984 kJ/mol
# GULP energy per Si atom -5577.915499 kJ/mol
# Density = 2.183626 g / cm^3
# Si number density = 21.886074 Si / 1000 Ang^3
#
#
#
# Elastic Constant Matrix: (Units=GPa)
#
#
# Indices 1 2 3 4 5 6 
#
# 1 143.4407 65.3398 15.6297 0.0000 -15.7004 0.0000
# 2 65.3398 161.4286 45.8278 0.0000 -33.1280 0.0000
# 3 15.6297 45.8278 50.2246 0.0000 -14.1775 0.0000
# 4 0.0000 0.0000 0.0000 15.2843 0.0000 -18.5130
# 5 -15.7004 -33.1280 -14.1775 0.0000 40.4762 0.0000
# 6 0.0000 0.0000 0.0000 -18.5130 0.0000 20.6479
#
#
#
# Elastic Compliance Matrix: (Units=1/GPa)
#
#
# Indices 1 2 3 4 5 6 
#
# 1 0.008580 -0.003547 0.000762 0.000000 0.000692 0.000000
# 2 -0.003547 0.010689 -0.007289 0.000000 0.004819 0.000000
# 3 0.000762 -0.007289 0.027436 0.000000 0.003940 0.000000
# 4 0.000000 0.000000 0.000000 -0.760737 0.000000 -0.682080
# 5 0.000692 0.004819 0.003940 0.000000 0.030299 0.000000
# 6 0.000000 0.000000 0.000000 -0.682080 0.000000 -0.563125
#
#
# Mechanical properties :
#
#
# Convention : Reuss Voigt Hill
#
# Bulk Modulus (GPa) = 37.65485 67.63204 52.64344
# Shear Modulus (GPa) = -4.10557 30.50145 13.19794
#
# Velocity S-wave (km/s) = -1.37111 3.73721 2.45833
# Velocity P-wave (km/s) = 3.83871 7.04210 5.67128
#
# Compressibility (1/GPa) = 0.02655701
#
# Stress axis : x y z
#
# Youngs Moduli (GPa) = 116.54975 93.55760 36.44806
#
# Poissons Ratio (x) = 0.33186 -0.02777
# Poissons Ratio (y) = 0.41342 0.26566
# Poissons Ratio (z) = -0.08879 0.68191
#
# Static dielectric constant tensor:
#      x y z
#    x 2.307670 0.000000 -0.073990 
#    y 0.000000 1.164460 0.000000 
#    z -0.073990 0.000000 1.873440 
# 
# From -- ./inp_files/230340.got.cif
#   From: 2010.05.17/outbox.cif.g08.bks.cpg/sg12_116_cif.got.tgz:230340.got - 2010.06.03 13:09:07.
