data_PCOD9193603
_publ_section_title
;
Structure prediction by ZEFSAII (Michael W. Deem and Ramdas Pophale) SiO2 
 PCOD9193603
Probable space group: C 2/M
;
_chemical_formula_sum "Si O2"
_cell_formula_units_Z 58
_cell_length_a 14.162891
_cell_length_b 16.246431
_cell_length_c 18.630647
_cell_angle_alpha 90.000000
_cell_angle_beta 143.596990
_cell_angle_gamma 90.000000
_cell_volume 2544.076282
_symmetry_space_group_name_H-M "C 2/M"
_symmetry_group_IT_number 12
_symmetry_cell_setting 'monoclinic'
loop_
_space_group_symop_operation_xyz
x,y,z
-x,y,-z
-x,-y,-z
x,-y,z
1/2+x,1/2+y,z
1/2-x,1/2+y,-z
1/2-x,1/2-y,-z
1/2+x,1/2-y,z
loop_
_atom_site_type_symbol
_atom_site_label
_atom_site_fract_x
_atom_site_fract_y
_atom_site_fract_z
Si Si1 0.675753 0.724637 0.084890
Si Si2 0.500000 0.500000 0.500000
Si Si3 0.765806 0.130435 0.310119
Si Si4 0.737950 0.409527 0.859032
Si Si5 0.471067 0.835667 0.209508
Si Si6 0.666195 0.187038 0.665801
Si Si7 0.907907 0.850910 0.698609
Si Si8 0.618047 0.096085 0.441937
O O1 0.676628 0.822816 0.069401
O O2 0.773205 0.706745 0.216878
O O3 0.779446 0.673654 0.089953
O O4 0.500000 0.698694 0.000000
O O5 0.360962 0.570505 0.419499
O O6 0.793074 0.099259 0.245763
O O7 0.575922 0.134596 0.206915
O O8 0.832222 0.221502 0.364906
O O9 0.810741 0.500000 0.917748
O O10 0.564763 0.405215 0.789641
O O11 0.528701 0.742401 0.260707
O O12 0.537789 0.889943 0.315758
O O13 0.796852 0.136726 0.700408
O O14 0.499329 0.142895 0.575094
O O15 0.792530 0.865969 0.560290
O O16 0.626953 0.000000 0.463802
#
# Coordination Sequence:
#
# PCOD9193603 Si02
#       8
#     8   2   8   8   8   8   8   8
#     4   9  19  40  66  82  99 140 192 238 294 340
#     4  12  24  28  60  88 114 166 192 216 270 332
#     4  10  22  35  52  83 118 153 191 222 269 323
#     4  10  20  35  51  83 121 145 177 231 280 335
#     4   9  21  37  54  81 113 145 189 242 274 316
#     4   9  21  39  54  80 113 146 188 242 274 328
#     4  10  20  34  54  76 114 156 186 216 272 338
#     4  11  22  32  53  81 113 153 191 224 271 331
#
# _framework density 22.798058999999999
#
# number of rings (size 3 to 8) (size 9 to 14) (size 15 to 20)
#    0.000    2.207    0.690    2.069    6.759    1.931 
#    0.000   11.034    0.000    6.621    0.000    0.000 
#    0.000    0.000    0.000    0.000    0.000    0.000 
#
# Total GULP energy -161621.125826 kJ/mol
# GULP energy per Si atom -5573.142270 kJ/mol
# Density = 2.274617 g / cm^3
# Si number density = 22.798059 Si / 1000 Ang^3
#
#
#
# Elastic Constant Matrix: (Units=GPa)
#
#
# Indices 1 2 3 4 5 6 
#
# 1 79.0776 12.5633 15.0891 0.0000 24.7658 0.0000
# 2 12.5633 64.0384 5.1449 0.0002 13.7663 0.0000
# 3 15.0891 5.1449 68.6246 0.0004 32.9924 0.0001
# 4 0.0000 0.0002 0.0004 6.3554 0.0001 2.6461
# 5 24.7658 13.7663 32.9924 0.0001 40.2266 0.0000
# 6 0.0000 0.0000 0.0001 2.6461 0.0000 -13.9786
#
#
#
# Elastic Compliance Matrix: (Units=1/GPa)
#
#
# Indices 1 2 3 4 5 6 
#
# 1 0.015877 -0.000901 0.001862 0.000000 -0.010993 0.000000
# 2 -0.000901 0.017169 0.002425 -0.000001 -0.007310 0.000000
# 3 0.001862 0.002425 0.024651 -0.000001 -0.022194 0.000000
# 4 0.000000 -0.000001 -0.000001 0.145851 0.000001 0.027609
# 5 -0.010993 -0.007310 -0.022194 0.000001 0.052331 0.000000
# 6 0.000000 0.000000 0.000000 0.027609 0.000000 -0.066312
#
#
# Mechanical properties :
#
#
# Convention : Reuss Voigt Hill
#
# Bulk Modulus (GPa) = 15.51151 30.81504 23.16327
# Shear Modulus (GPa) = 24.47565 18.45026 21.46295
#
# Velocity S-wave (km/s) = 3.28012 2.84789 3.07161
# Velocity P-wave (km/s) = 4.60045 4.93557 4.77095
#
# Compressibility (1/GPa) = 0.06446826
#
# Stress axis : x y z
#
# Youngs Moduli (GPa) = 62.98587 58.24467 40.56638
#
# Poissons Ratio (x) = 0.05249 -0.07552
# Poissons Ratio (y) = 0.05676 -0.09839
# Poissons Ratio (z) = -0.11726 -0.14126
#
# Static dielectric constant tensor:
#      x y z
#    x 1.936680 0.000000 0.002170 
#    y 0.000000 1.798900 0.000000 
#    z 0.002170 0.000000 1.897230 
# 
# From -- ./inp_files/241323.got.cif
#   From: 2010.05.17/outbox.cif.g08.bks.cpg/sg12_121_cif.got.tgz:241323.got - 2010.06.03 13:09:07.
