data_PCOD9193285
_publ_section_title
;
Structure prediction by ZEFSAII (Michael W. Deem and Ramdas Pophale) SiO2 
 PCOD9193285
Probable space group: C 2/M
;
_chemical_formula_sum "Si O2"
_cell_formula_units_Z 58
_cell_length_a 29.869038
_cell_length_b 7.469580
_cell_length_c 12.068627
_cell_angle_alpha 90.000000
_cell_angle_beta 67.466393
_cell_angle_gamma 90.000000
_cell_volume 2487.052920
_symmetry_space_group_name_H-M "C 2/M"
_symmetry_group_IT_number 12
_symmetry_cell_setting 'monoclinic'
loop_
_space_group_symop_operation_xyz
x,y,z
-x,y,-z
-x,-y,-z
x,-y,z
1/2+x,1/2+y,z
1/2-x,1/2+y,-z
1/2-x,1/2-y,-z
1/2+x,1/2-y,z
loop_
_atom_site_type_symbol
_atom_site_label
_atom_site_fract_x
_atom_site_fract_y
_atom_site_fract_z
Si Si1 0.384815 0.710499 0.300585
Si Si2 0.554220 0.215657 0.300213
Si Si3 0.115269 0.284072 0.441567
Si Si4 0.352469 0.784188 0.935488
Si Si5 0.708659 0.781711 0.208142
Si Si6 0.000000 0.500000 0.000000
Si Si7 0.508934 0.706355 0.831723
Si Si8 0.689959 0.705600 0.797384
O O1 0.386763 0.500000 0.271256
O O2 0.383027 0.726049 0.433901
O O3 0.436470 0.783756 0.211786
O O4 0.338717 0.786647 0.279222
O O5 0.570342 0.276622 0.407063
O O6 0.598985 0.265730 0.176532
O O7 0.507297 0.283409 0.280988
O O8 0.550723 0.000000 0.307355
O O9 0.113604 0.500000 0.443323
O O10 0.164595 0.231936 0.331417
O O11 0.307807 0.724584 0.898953
O O12 0.351730 0.000000 0.943102
O O13 0.345999 0.709886 0.063736
O O14 0.759673 0.714389 0.206281
O O15 0.710158 0.000000 0.202971
O O16 0.979306 0.341680 0.935547
O O17 0.505817 0.500000 0.867960
O O18 0.701688 0.500000 0.756706
#
# Coordination Sequence:
#
# PCOD9193285 Si02
#       8
#     8   8   8   8   8   2   8   8
#     4  10  24  40  53  83 120 154 194 247 302 355
#     4   9  19  38  60  87 115 155 201 249 303 356
#     4   9  19  37  63  84 111 150 201 250 295 355
#     4   9  18  32  55  83 114 144 189 244 293 353
#     4   8  16  34  56  82 109 147 192 240 295 353
#     4  12  26  44  68  88 128 168 202 248 294 370
#     4  11  25  42  63  93 127 162 204 246 300 358
#     4  10  20  34  53  76 115 155 189 235 298 359
#
# _framework density 23.320775000000001
#
# number of rings (size 3 to 8) (size 9 to 14) (size 15 to 20)
#    0.000    2.483    0.690    2.276    2.897    2.759 
#    0.000    5.517    0.000    0.000    0.000    0.000 
#    0.000    0.000    0.000    0.000    0.000    0.000 
#
# Total GULP energy -161751.071345 kJ/mol
# GULP energy per Si atom -5577.623150 kJ/mol
# Density = 2.326770 g / cm^3
# Si number density = 23.320775 Si / 1000 Ang^3
#
#
#
# Elastic Constant Matrix: (Units=GPa)
#
#
# Indices 1 2 3 4 5 6 
#
# 1 85.1618 11.4893 22.9077 0.0000 40.3099 0.0000
# 2 11.4893 93.8042 -1.2179 0.0000 5.9777 0.0000
# 3 22.9077 -1.2179 94.9507 0.0000 36.8139 0.0000
# 4 0.0000 0.0000 0.0000 20.0653 0.0000 8.2084
# 5 40.3099 5.9777 36.8139 0.0000 37.6088 0.0000
# 6 0.0000 0.0000 0.0000 8.2084 0.0000 10.9902
#
#
#
# Elastic Compliance Matrix: (Units=1/GPa)
#
#
# Indices 1 2 3 4 5 6 
#
# 1 0.026879 -0.000905 0.007442 0.000000 -0.035951 0.000000
# 2 -0.000905 0.010899 0.001054 0.000000 -0.001794 0.000000
# 3 0.007442 0.001054 0.019191 0.000000 -0.026929 0.000000
# 4 0.000000 0.000000 0.000000 0.071764 0.000000 -0.053599
# 5 -0.035951 -0.001794 -0.026929 0.000000 0.091767 0.000000
# 6 0.000000 0.000000 0.000000 -0.053599 0.000000 0.131022
#
#
# Mechanical properties :
#
#
# Convention : Reuss Voigt Hill
#
# Bulk Modulus (GPa) = 13.85970 37.80834 25.83402
# Shear Modulus (GPa) = 13.87385 29.78203 21.82794
#
# Velocity S-wave (km/s) = 2.44173 3.57747 3.06271
# Velocity P-wave (km/s) = 3.72899 5.77165 4.85887
#
# Compressibility (1/GPa) = 0.07215164
#
# Stress axis : x y z
#
# Youngs Moduli (GPa) = 37.20356 91.74881 52.10865
#
# Poissons Ratio (x) = 0.08300 -0.38780
# Poissons Ratio (y) = 0.03366 -0.05491
# Poissons Ratio (z) = -0.27688 -0.09667
#
# Static dielectric constant tensor:
#      x y z
#    x 1.950740 0.000000 0.007340 
#    y 0.000000 2.801690 0.000000 
#    z 0.007340 0.000000 1.890350 
# 
# From -- ./inp_files/186523.got.cif
#   From: 2010.05.17/outbox.cif.g08.bks.cpg/sg12_94_cif.got.tgz:186523.got - 2010.06.03 13:09:07.
