data_PCOD9193506
_publ_section_title
;
Structure prediction by ZEFSAII (Michael W. Deem and Ramdas Pophale) SiO2 
 PCOD9193506
Probable space group: C 2/M
;
_chemical_formula_sum "Si O2"
_cell_formula_units_Z 56
_cell_length_a 25.573264
_cell_length_b 8.909357
_cell_length_c 15.294662
_cell_angle_alpha 90.000000
_cell_angle_beta 105.357434
_cell_angle_gamma 90.000000
_cell_volume 3360.324066
_symmetry_space_group_name_H-M "C 2/M"
_symmetry_group_IT_number 12
_symmetry_cell_setting 'monoclinic'
loop_
_space_group_symop_operation_xyz
x,y,z
-x,y,-z
-x,-y,-z
x,-y,z
1/2+x,1/2+y,z
1/2-x,1/2+y,-z
1/2-x,1/2-y,-z
1/2+x,1/2-y,z
loop_
_atom_site_type_symbol
_atom_site_label
_atom_site_fract_x
_atom_site_fract_y
_atom_site_fract_z
Si Si1 0.180109 0.819988 0.616400
Si Si2 0.987708 0.680246 0.595663
Si Si3 0.825255 0.178816 0.100288
Si Si4 0.397492 0.820603 0.271395
Si Si5 0.626706 0.679416 0.407530
Si Si6 0.304473 0.179659 0.716208
Si Si7 0.788312 0.820949 0.891607
O O1 0.141783 0.738910 0.669247
O O2 0.160697 0.781698 0.510212
O O3 0.242796 0.781017 0.660281
O O4 0.174394 0.000000 0.625542
O O5 0.979322 0.500000 0.595438
O O6 0.934046 0.762136 0.604385
O O7 0.000000 0.719451 0.500000
O O8 0.041008 0.717739 0.675384
O O9 0.876278 0.247155 0.172875
O O10 0.771216 0.251078 0.118415
O O11 0.823089 0.000000 0.112466
O O12 0.821813 0.209631 0.995228
O O13 0.392950 0.000000 0.264361
O O14 0.627189 0.500000 0.398349
O O15 0.654540 0.754730 0.336543
O O16 0.312757 0.248634 0.815768
O O17 0.308577 0.000000 0.721362
O O18 0.783275 0.000000 0.879381
#
# Coordination Sequence:
#
# PCOD9193506 Si02
#       7
#     8   8   8   8   8   8   8
#     4  10  21  35  52  79 112 146 182 220 269 323
#     4  10  21  38  56  78 108 144 185 228 273 319
#     4  10  20  34  53  80 113 143 176 223 274 322
#     4  11  21  33  56  82 109 145 182 225 271 321
#     4  11  23  37  55  79 109 148 189 227 267 323
#     4  11  22  36  55  79 112 150 182 223 273 324
#     4  10  20  34  54  80 110 144 181 220 267 326
#
# _framework density 16.66506
#
# number of rings (size 3 to 8) (size 9 to 14) (size 15 to 20)
#    0.000    1.571    2.857    2.571    0.000    4.286 
#    0.000    0.000    0.000    0.857    0.000    6.000 
#    0.000    0.000    0.000    0.000    0.000    0.000 
#
# Total GULP energy -156420.825272 kJ/mol
# GULP energy per Si atom -5586.458045 kJ/mol
# Density = 1.662713 g / cm^3
# Si number density = 16.665060 Si / 1000 Ang^3
#
#
#
# Elastic Constant Matrix: (Units=GPa)
#
#
# Indices 1 2 3 4 5 6 
#
# 1 101.3570 51.3178 73.8206 0.0000 -11.1205 0.0000
# 2 51.3178 58.2916 65.5905 0.0000 -3.5631 0.0000
# 3 73.8206 65.5905 150.4944 0.0000 -0.1026 0.0000
# 4 0.0000 0.0000 0.0000 29.5464 0.0000 -1.0901
# 5 -11.1205 -3.5631 -0.1026 0.0000 24.1689 0.0000
# 6 0.0000 0.0000 0.0000 -1.0901 0.0000 28.1329
#
#
#
# Elastic Compliance Matrix: (Units=1/GPa)
#
#
# Indices 1 2 3 4 5 6 
#
# 1 0.020183 -0.012122 -0.004612 0.000000 0.007480 0.000000
# 2 -0.012122 0.041535 -0.012156 0.000000 0.000494 0.000000
# 3 -0.004612 -0.012156 0.014203 0.000000 -0.003854 0.000000
# 4 0.000000 0.000000 0.000000 0.033893 0.000000 0.001313
# 5 0.007480 0.000494 -0.003854 0.000000 0.044874 0.000000
# 6 0.000000 0.000000 0.000000 0.001313 0.000000 0.035596
#
#
# Mechanical properties :
#
#
# Convention : Reuss Voigt Hill
#
# Bulk Modulus (GPa) = 55.12395 76.84451 65.98423
# Shear Modulus (GPa) = 19.67642 24.33059 22.00351
#
# Velocity S-wave (km/s) = 3.43986 3.82511 3.63759
# Velocity P-wave (km/s) = 6.99473 8.10678 7.57120
#
# Compressibility (1/GPa) = 0.01814094
#
# Stress axis : x y z
#
# Youngs Moduli (GPa) = 49.54603 24.07605 70.41011
#
# Poissons Ratio (x) = 0.29184 0.32474
# Poissons Ratio (y) = 0.60058 0.85591
# Poissons Ratio (z) = 0.22851 0.29267
#
# Static dielectric constant tensor:
#      x y z
#    x 1.520110 0.000000 0.010880 
#    y 0.000000 1.553100 0.000000 
#    z 0.010880 0.000000 1.569120 
# 
# From -- ./inp_files/230866.got.cif
#   From: 2010.05.17/outbox.cif.g08.bks.cpg/sg12_116_cif.got.tgz:230866.got - 2010.06.03 13:09:07.
