data_PCOD9193920
_publ_section_title
;
Structure prediction by ZEFSAII (Michael W. Deem and Ramdas Pophale) SiO2 
 PCOD9193920
Probable space group: C 2/M
;
_chemical_formula_sum "Si O2"
_cell_formula_units_Z 42
_cell_length_a 12.280510
_cell_length_b 12.247981
_cell_length_c 14.059195
_cell_angle_alpha 90.000000
_cell_angle_beta 100.709674
_cell_angle_gamma 90.000000
_cell_volume 2077.829536
_symmetry_space_group_name_H-M "C 2/M"
_symmetry_group_IT_number 12
_symmetry_cell_setting 'monoclinic'
loop_
_space_group_symop_operation_xyz
x,y,z
-x,y,-z
-x,-y,-z
x,-y,z
1/2+x,1/2+y,z
1/2-x,1/2+y,-z
1/2-x,1/2-y,-z
1/2+x,1/2-y,z
loop_
_atom_site_type_symbol
_atom_site_label
_atom_site_fract_x
_atom_site_fract_y
_atom_site_fract_z
Si Si1 0.727302 0.793691 0.352975
Si Si2 0.334231 0.308636 0.942644
Si Si3 0.385209 0.376905 0.536817
Si Si4 0.000000 0.000000 0.000000
Si Si5 0.660114 0.123911 0.756656
Si Si6 0.431168 0.123387 0.831607
O O1 0.638076 0.712974 0.387195
O O2 0.786721 0.863117 0.444058
O O3 0.818513 0.714288 0.319896
O O4 0.666101 0.862743 0.262512
O O5 0.262230 0.362545 0.846000
O O6 0.408314 0.214852 0.905887
O O7 0.250000 0.250000 0.000000
O O8 0.406186 0.403501 0.000625
O O9 0.500000 0.359894 0.500000
O O10 0.385488 0.500000 0.576315
O O11 0.547332 0.141555 0.796712
O O12 0.658149 0.000000 0.718081
O O13 0.430218 0.000000 0.869805
#
# Coordination Sequence:
#
# PCOD9193920 Si02
#       6
#     8   8   8   2   8   8
#     4  10  20  35  57  84 115 158 203 249 305 374
#     4  11  24  41  64  92 123 162 207 260 318 384
#     4  10  20  34  54  82 119 156 199 250 304 361
#     4  12  24  44  66  94 128 164 212 270 312 402
#     4  10  20  38  58  83 117 153 198 253 308 367
#     4  10  22  39  62  88 121 160 204 257 315 376
#
# _framework density 20.213398999999999
#
# number of rings (size 3 to 8) (size 9 to 14) (size 15 to 20)
#    0.000    1.714    0.952    3.429    1.333    0.000 
#    0.000    2.381   10.476    9.143    0.000    0.000 
#    0.000    0.000    0.000    0.000    0.000    0.000 
#
# Total GULP energy -117078.261785 kJ/mol
# GULP energy per Si atom -5575.155323 kJ/mol
# Density = 2.016739 g / cm^3
# Si number density = 20.213399 Si / 1000 Ang^3
#
#
#
# Elastic Constant Matrix: (Units=GPa)
#
#
# Indices 1 2 3 4 5 6 
#
# 1 84.4676 56.6396 -7.0075 0.0000 -11.1359 0.0000
# 2 56.6396 136.4290 12.8398 0.0000 -19.6035 0.0000
# 3 -7.0075 12.8398 24.7113 0.0000 -2.9266 0.0000
# 4 0.0000 0.0000 0.0000 -0.8937 0.0000 5.2653
# 5 -11.1359 -19.6035 -2.9266 0.0000 24.9305 0.0000
# 6 0.0000 0.0000 0.0000 5.2653 0.0000 22.8361
#
#
#
# Elastic Compliance Matrix: (Units=1/GPa)
#
#
# Indices 1 2 3 4 5 6 
#
# 1 0.018553 -0.008201 0.009877 0.000000 0.002998 0.000000
# 2 -0.008201 0.012212 -0.008080 0.000000 0.004991 0.000000
# 3 0.009877 -0.008080 0.047903 0.000000 0.003682 0.000000
# 4 0.000000 0.000000 0.000000 -0.474450 0.000000 0.109394
# 5 0.002998 0.004991 0.003682 0.000000 0.045807 0.000000
# 6 0.000000 0.000000 0.000000 0.109394 0.000000 0.018567
#
#
# Mechanical properties :
#
#
# Convention : Reuss Voigt Hill
#
# Bulk Modulus (GPa) = 15.18369 41.17241 28.17805
# Shear Modulus (GPa) = -16.85503 21.58365 2.36431
#
# Velocity S-wave (km/s) = -2.89079 3.27125 1.08269
# Velocity P-wave (km/s) = 1.90110 5.88907 3.94126
#
# Compressibility (1/GPa) = 0.06586016
#
# Stress axis : x y z
#
# Youngs Moduli (GPa) = 53.90024 81.88549 20.87569
#
# Poissons Ratio (x) = 0.67156 -0.20620
# Poissons Ratio (y) = 0.44205 0.16867
# Poissons Ratio (z) = -0.53239 0.66163
#
# Static dielectric constant tensor:
#      x y z
#    x 1.698950 0.000000 0.020620 
#    y 0.000000 1.682210 0.000000 
#    z 0.020620 0.000000 1.724100 
# 
# From -- ./inp_files/203349.got.cif
#   From: 2010.05.17/outbox.cif.g08.bks.cpg/sg12_102_cif.got.tgz:203349.got - 2010.06.03 13:09:07.
