data_PCOD9193522
_publ_section_title
;
Structure prediction by ZEFSAII (Michael W. Deem and Ramdas Pophale) SiO2 
 PCOD9193522
Probable space group: C 2/M
;
_chemical_formula_sum "Si O2"
_cell_formula_units_Z 64
_cell_length_a 15.998957
_cell_length_b 16.839520
_cell_length_c 11.863399
_cell_angle_alpha 90.000000
_cell_angle_beta 116.676802
_cell_angle_gamma 90.000000
_cell_volume 2855.952292
_symmetry_space_group_name_H-M "C 2/M"
_symmetry_group_IT_number 12
_symmetry_cell_setting 'monoclinic'
loop_
_space_group_symop_operation_xyz
x,y,z
-x,y,-z
-x,-y,-z
x,-y,z
1/2+x,1/2+y,z
1/2-x,1/2+y,-z
1/2-x,1/2-y,-z
1/2+x,1/2-y,z
loop_
_atom_site_type_symbol
_atom_site_label
_atom_site_fract_x
_atom_site_fract_y
_atom_site_fract_z
Si Si1 0.483157 0.173980 0.754396
Si Si2 0.345548 0.086509 0.793898
Si Si3 0.835009 0.358536 0.028462
Si Si4 0.701493 0.293524 0.118424
Si Si5 0.603221 0.726097 0.680017
Si Si6 0.647846 0.590870 0.547994
Si Si7 0.813376 0.909184 0.685896
Si Si8 0.402813 0.119119 0.478761
O O1 0.414209 0.161416 0.816621
O O2 0.575366 0.123322 0.840459
O O3 0.525616 0.254577 0.727642
O O4 0.419473 0.135463 0.619242
O O5 0.253614 0.092883 0.661832
O O6 0.389917 0.000000 0.796141
O O7 0.321705 0.088512 0.911475
O O8 0.746161 0.355076 0.056074
O O9 0.855516 0.269261 0.991335
O O10 0.791863 0.239589 0.209294
O O11 0.665632 0.343889 0.203976
O O12 0.594801 0.646405 0.604484
O O13 0.596216 0.797832 0.587335
O O14 0.615900 0.500000 0.531913
O O15 0.651849 0.615670 0.418624
O O16 0.699690 0.913733 0.607692
O O17 0.846082 0.000000 0.729196
O O18 0.500000 0.079533 0.500000
#
# Coordination Sequence:
#
# PCOD9193522 Si02
#       8
#     8   8   8   8   8   8   8   8
#     4  10  20  34  53  80 117 157 194 230 287 356
#     4  11  22  36  55  86 125 156 189 237 300 359
#     4  10  20  35  53  76 116 162 199 238 278 340
#     4   9  19  35  55  79 111 157 204 247 281 336
#     4   9  18  35  56  79 111 151 198 238 286 344
#     4  10  20  35  58  87 118 149 189 247 300 344
#     4  10  20  34  54  84 119 154 193 242 300 350
#     4   9  18  32  51  80 113 149 185 231 286 353
#
# _framework density 22.409338999999999
#
# number of rings (size 3 to 8) (size 9 to 14) (size 15 to 20)
#    0.000    2.250    2.500    1.125    0.000    4.750 
#    0.000    8.750    0.000    3.375    0.000    0.875 
#    0.000    7.000    0.000    0.000    0.000    0.000 
#
# Total GULP energy -178311.447510 kJ/mol
# GULP energy per Si atom -5572.232735 kJ/mol
# Density = 2.235833 g / cm^3
# Si number density = 22.409339 Si / 1000 Ang^3
#
#
#
# Elastic Constant Matrix: (Units=GPa)
#
#
# Indices 1 2 3 4 5 6 
#
# 1 43.1340 26.4883 14.6310 0.0000 -18.8879 0.0000
# 2 26.4883 98.1135 36.7811 0.0000 -18.6362 0.0000
# 3 14.6310 36.7811 96.8029 0.0000 -25.8156 0.0000
# 4 0.0000 0.0000 0.0000 3.0597 0.0000 -57.0854
# 5 -18.8879 -18.6362 -25.8156 0.0000 41.4243 0.0000
# 6 0.0000 0.0000 0.0000 -57.0854 0.0000 -25.6211
#
#
#
# Elastic Compliance Matrix: (Units=1/GPa)
#
#
# Indices 1 2 3 4 5 6 
#
# 1 0.032415 -0.006769 0.000962 0.000000 0.012334 0.000000
# 2 -0.006769 0.013626 -0.004009 0.000000 0.000545 0.000000
# 3 0.000962 -0.004009 0.013605 0.000000 0.007114 0.000000
# 4 0.000000 0.000000 0.000000 0.007678 0.000000 -0.017106
# 5 0.012334 0.000545 0.007114 0.000000 0.034443 0.000000
# 6 0.000000 0.000000 0.000000 -0.017106 0.000000 -0.000917
#
#
# Mechanical properties :
#
#
# Convention : Reuss Voigt Hill
#
# Bulk Modulus (GPa) = 24.99081 43.76126 34.37604
# Shear Modulus (GPa) = 37.36345 14.44923 25.90634
#
# Velocity S-wave (km/s) = 4.08771 2.54202 3.40376
# Velocity P-wave (km/s) = 5.78406 5.30908 5.55165
#
# Compressibility (1/GPa) = 0.04001471
#
# Stress axis : x y z
#
# Youngs Moduli (GPa) = 30.84978 73.38780 73.50131
#
# Poissons Ratio (x) = 0.49677 -0.07071
# Poissons Ratio (y) = 0.20883 0.29465
# Poissons Ratio (z) = -0.02968 0.29420
#
# Static dielectric constant tensor:
#      x y z
#    x 1.909480 0.000000 -0.008340 
#    y 0.000000 1.839760 0.000000 
#    z -0.008340 0.000000 1.856400 
# 
# From -- ./inp_files/167273.got.cif
#   From: 2010.05.17/outbox.cif.g08.bks.cpg/sg12_84_cif.got.tgz:167273.got - 2010.06.03 13:09:07.
