data_PCOD9193191
_publ_section_title
;
Structure prediction by ZEFSAII (Michael W. Deem and Ramdas Pophale) SiO2 
 PCOD9193191
Probable space group: C 2/M
;
_chemical_formula_sum "Si O2"
_cell_formula_units_Z 64
_cell_length_a 23.223595
_cell_length_b 7.838172
_cell_length_c 20.328293
_cell_angle_alpha 90.000000
_cell_angle_beta 63.402765
_cell_angle_gamma 90.000000
_cell_volume 3308.781459
_symmetry_space_group_name_H-M "C 2/M"
_symmetry_group_IT_number 12
_symmetry_cell_setting 'monoclinic'
loop_
_space_group_symop_operation_xyz
x,y,z
-x,y,-z
-x,-y,-z
x,-y,z
1/2+x,1/2+y,z
1/2-x,1/2+y,-z
1/2-x,1/2-y,-z
1/2+x,1/2-y,z
loop_
_atom_site_type_symbol
_atom_site_label
_atom_site_fract_x
_atom_site_fract_y
_atom_site_fract_z
Si Si1 0.336025 0.702310 0.603469
Si Si2 0.956252 0.697316 0.463354
Si Si3 0.449245 0.709344 0.801329
Si Si4 0.255973 0.699948 0.105524
Si Si5 0.347217 0.299327 0.744467
Si Si6 0.651755 0.707601 0.047162
Si Si7 0.070938 0.799362 0.666637
Si Si8 0.783885 0.204336 0.413887
O O1 0.349269 0.500000 0.594038
O O2 0.383570 0.788369 0.527048
O O3 0.349346 0.771026 0.669831
O O4 0.262851 0.730899 0.619375
O O5 0.974514 0.500000 0.445329
O O6 0.959563 0.782427 0.390596
O O7 0.000000 0.770911 0.500000
O O8 0.449398 0.500000 0.800048
O O9 0.400270 0.768337 0.768536
O O10 0.417090 0.758247 0.887359
O O11 0.520024 0.770419 0.745454
O O12 0.262945 0.500000 0.115275
O O13 0.222880 0.780105 0.186170
O O14 0.202956 0.727841 0.075112
O O15 0.321817 0.764452 0.037506
O O16 0.360235 0.500000 0.731958
O O17 0.655115 0.500000 0.045899
O O18 0.143163 0.726986 0.627883
O O19 0.077478 0.000000 0.677146
O O20 0.750000 0.250000 0.500000
O O21 0.786342 0.000000 0.409668
#
# Coordination Sequence:
#
# PCOD9193191 Si02
#       8
#     8   8   8   8   8   8   8   8
#     4  11  22  36  54  72  92 127 168 203 244 291
#     4  11  23  35  49  72 101 128 154 194 245 291
#     4   8  14  28  48  69  94 123 158 196 230 278
#     4   9  15  23  40  66  95 127 158 189 230 279
#     4   9  18  31  47  68  96 127 158 195 238 286
#     4   8  14  25  41  63  94 129 160 190 226 274
#     4  10  20  34  53  72  91 125 166 199 238 290
#     4  11  22  36  54  74  95 122 161 209 252 289
#
# _framework density 19.342468
#
# number of rings (size 3 to 8) (size 9 to 14) (size 15 to 20)
#    0.000    2.375    1.250    3.000    0.000    4.000 
#    0.000    3.750    0.000    0.000    0.000    0.875 
#    0.000    7.000    0.000    0.000    0.000    0.000 
#
# Total GULP energy -178346.075563 kJ/mol
# GULP energy per Si atom -5573.314861 kJ/mol
# Density = 1.929844 g / cm^3
# Si number density = 19.342468 Si / 1000 Ang^3
#
#
#
# Elastic Constant Matrix: (Units=GPa)
#
#
# Indices 1 2 3 4 5 6 
#
# 1 54.8874 -2.5454 9.8696 -0.0002 -25.5719 -0.0011
# 2 -2.5454 27.1474 -5.3854 -0.0008 0.0774 -0.0017
# 3 9.8696 -5.3854 84.1842 0.0000 -37.5405 0.0000
# 4 -0.0002 -0.0008 0.0000 16.0379 0.0000 0.0482
# 5 -25.5719 0.0774 -37.5405 0.0000 30.0220 -0.0002
# 6 -0.0011 -0.0017 0.0000 0.0482 -0.0002 14.6961
#
#
#
# Elastic Compliance Matrix: (Units=1/GPa)
#
#
# Indices 1 2 3 4 5 6 
#
# 1 0.053226 0.011330 0.033203 0.000001 0.086825 0.000007
# 2 0.011330 0.040296 0.012447 0.000002 0.025111 0.000006
# 3 0.033203 0.012447 0.048327 0.000001 0.088679 0.000006
# 4 0.000001 0.000002 0.000001 0.062353 0.000002 -0.000205
# 5 0.086825 0.025111 0.088679 0.000002 0.218087 0.000014
# 6 0.000007 0.000006 0.000006 -0.000205 0.000014 0.068046
#
#
# Mechanical properties :
#
#
# Convention : Reuss Voigt Hill
#
# Bulk Modulus (GPa) = 3.90917 18.89962 11.40439
# Shear Modulus (GPa) = 10.83083 23.10321 16.96702
#
# Velocity S-wave (km/s) = 2.36890 3.45980 2.96495
# Velocity P-wave (km/s) = 3.08345 5.07470 4.19882
#
# Compressibility (1/GPa) = 0.25580887
#
# Stress axis : x y z
#
# Youngs Moduli (GPa) = 18.78789 24.81641 20.69217
#
# Poissons Ratio (x) = -0.28116 -0.68704
# Poissons Ratio (y) = -0.21286 -0.25756
# Poissons Ratio (z) = -0.62381 -0.30890
#
# Static dielectric constant tensor:
#      x y z
#    x 1.684230 0.000000 -0.044510 
#    y 0.000000 1.708250 0.000000 
#    z -0.044510 0.000000 1.719120 
# 
# From -- ./inp_files/323601.got.cif
#   From: 2010.05.17/outbox.cif.g08.bks.cpg/sg12_162_cif.got.tgz:323601.got - 2010.06.03 13:09:07.
