data_PCOD9193925
_publ_section_title
;
Structure prediction by ZEFSAII (Michael W. Deem and Ramdas Pophale) SiO2 
 PCOD9193925
Probable space group: C 2/M
;
_chemical_formula_sum "Si O2"
_cell_formula_units_Z 40
_cell_length_a 11.371576
_cell_length_b 28.855528
_cell_length_c 8.332029
_cell_angle_alpha 90.000000
_cell_angle_beta 51.762817
_cell_angle_gamma 90.000000
_cell_volume 2147.444693
_symmetry_space_group_name_H-M "C 2/M"
_symmetry_group_IT_number 12
_symmetry_cell_setting 'monoclinic'
loop_
_space_group_symop_operation_xyz
x,y,z
-x,y,-z
-x,-y,-z
x,-y,z
1/2+x,1/2+y,z
1/2-x,1/2+y,-z
1/2-x,1/2-y,-z
1/2+x,1/2-y,z
loop_
_atom_site_type_symbol
_atom_site_label
_atom_site_fract_x
_atom_site_fract_y
_atom_site_fract_z
Si Si1 0.613336 0.314267 0.045617
Si Si2 0.079312 0.637549 0.760071
Si Si3 0.053856 0.278140 0.284788
Si Si4 0.905530 0.449024 0.913211
Si Si5 0.644661 0.394590 0.283876
O O1 0.561777 0.264531 0.157134
O O2 0.613486 0.352570 0.186660
O O3 0.500000 0.328141 0.000000
O O4 0.784966 0.304108 0.846981
O O5 0.244781 0.623732 0.669948
O O6 0.063730 0.683194 0.670810
O O7 0.988919 0.594240 0.759463
O O8 0.000000 0.647407 0.000000
O O9 0.000000 0.259539 0.500000
O O10 0.907712 0.500000 0.835935
O O11 0.740329 0.432607 0.104542
O O12 0.000000 0.452135 0.000000
O O13 0.500000 0.411997 0.500000
#
# Coordination Sequence:
#
# PCOD9193925 Si02
#       5
#     8   8   8   8   8
#     4  11  24  37  52  78 112 141 177 221 266 313
#     4   9  17  36  56  76 107 142 177 220 258 317
#     4  11  23  37  56  78 104 145 182 216 262 313
#     4   8  15  31  56  81 105 137 174 219 268 312
#     4  10  20  34  54  83 110 140 175 223 267 308
#
# _framework density 18.62679
#
# number of rings (size 3 to 8) (size 9 to 14) (size 15 to 20)
#    0.000    2.600    4.000    1.200    5.600    1.200 
#    0.000    0.000    0.000    1.200    0.000    0.000 
#    0.000    0.000    0.000    0.000    0.000    0.000 
#
# Total GULP energy -111437.689142 kJ/mol
# GULP energy per Si atom -5571.884457 kJ/mol
# Density = 1.858440 g / cm^3
# Si number density = 18.626790 Si / 1000 Ang^3
#
#
#
# Elastic Constant Matrix: (Units=GPa)
#
#
# Indices 1 2 3 4 5 6 
#
# 1 62.7680 20.5372 20.6420 0.0000 -11.2550 0.0000
# 2 20.5372 89.9667 2.0802 0.0000 5.8327 0.0000
# 3 20.6420 2.0802 39.3209 0.0000 -4.1493 0.0000
# 4 0.0000 0.0000 0.0000 3.6569 0.0000 4.3630
# 5 -11.2550 5.8327 -4.1493 0.0000 10.9018 0.0000
# 6 0.0000 0.0000 0.0000 4.3630 0.0000 6.1630
#
#
#
# Elastic Compliance Matrix: (Units=1/GPa)
#
#
# Indices 1 2 3 4 5 6 
#
# 1 0.027030 -0.007730 -0.010835 0.000000 0.027917 0.000000
# 2 -0.007730 0.013790 0.001779 0.000000 -0.014681 0.000000
# 3 -0.010835 0.001779 0.030989 0.000000 -0.000343 0.000000
# 4 0.000000 0.000000 0.000000 1.759824 0.000000 -1.245834
# 5 0.027917 -0.014681 -0.000343 0.000000 0.128273 0.000000
# 6 0.000000 0.000000 0.000000 -1.245834 0.000000 1.044223
#
#
# Mechanical properties :
#
#
# Convention : Reuss Voigt Hill
#
# Bulk Modulus (GPa) = 26.15155 30.95271 28.55213
# Shear Modulus (GPa) = 1.63910 14.06409 7.85160
#
# Velocity S-wave (km/s) = 0.93909 2.75079 2.05533
# Velocity P-wave (km/s) = 3.90462 5.17132 4.58195
#
# Compressibility (1/GPa) = 0.03823865
#
# Stress axis : x y z
#
# Youngs Moduli (GPa) = 36.99634 72.51433 32.26921
#
# Poissons Ratio (x) = 0.56051 0.34963
# Poissons Ratio (y) = 0.28597 -0.05741
# Poissons Ratio (z) = 0.40085 -0.12900
#
# Static dielectric constant tensor:
#      x y z
#    x 1.668120 0.000000 -0.017960 
#    y 0.000000 1.664750 0.000000 
#    z -0.017960 0.000000 1.637150 
# 
# From -- ./inp_files/53662.got.cif
#   From: 2010.05.17/outbox.cif.g08.bks.cpg/sg12_27_cif.got.tgz:53662.got - 2010.06.03 13:09:07.
