data_PCOD9193749
_publ_section_title
;
Structure prediction by ZEFSAII (Michael W. Deem and Ramdas Pophale) SiO2 
 PCOD9193749
Probable space group: C 2/M
;
_chemical_formula_sum "Si O2"
_cell_formula_units_Z 56
_cell_length_a 11.130449
_cell_length_b 14.710314
_cell_length_c 16.261418
_cell_angle_alpha 90.000000
_cell_angle_beta 106.173571
_cell_angle_gamma 90.000000
_cell_volume 2557.144468
_symmetry_space_group_name_H-M "C 2/M"
_symmetry_group_IT_number 12
_symmetry_cell_setting 'monoclinic'
loop_
_space_group_symop_operation_xyz
x,y,z
-x,y,-z
-x,-y,-z
x,-y,z
1/2+x,1/2+y,z
1/2-x,1/2+y,-z
1/2-x,1/2-y,-z
1/2+x,1/2-y,z
loop_
_atom_site_type_symbol
_atom_site_label
_atom_site_fract_x
_atom_site_fract_y
_atom_site_fract_z
Si Si1 0.052218 0.601119 0.424764
Si Si2 0.153544 0.896825 0.497035
Si Si3 0.586578 0.728505 0.329750
Si Si4 0.932226 0.272395 0.075821
Si Si5 0.119521 0.596607 0.177495
Si Si6 0.729752 0.603422 0.964363
Si Si7 0.673572 0.324016 0.680897
O O1 0.999407 0.500000 0.400047
O O2 0.198179 0.594027 0.468291
O O3 0.041128 0.671284 0.349478
O O4 0.000000 0.639034 0.500000
O O5 0.126990 0.828670 0.418027
O O6 0.124121 0.854335 0.581371
O O7 0.106392 0.000000 0.473427
O O8 0.448643 0.686298 0.284536
O O9 0.721732 0.742292 0.309243
O O10 0.884584 0.170244 0.078438
O O11 0.027646 0.317002 0.158681
O O12 0.813249 0.340430 0.046128
O O13 0.000000 0.273392 0.000000
O O14 0.051618 0.500000 0.174114
O O15 0.184434 0.597531 0.100469
O O16 0.232799 0.602471 0.262711
O O17 0.698432 0.500000 0.982842
#
# Coordination Sequence:
#
# PCOD9193749 Si02
#       7
#     8   8   8   8   8   8   8
#     4   9  16  29  51  74  99 132 173 225 289 346
#     4  10  20  34  54  80 107 139 192 247 293 345
#     4  11  22  37  55  78 106 144 187 248 290 346
#     4   9  18  34  59  89 117 153 192 233 281 341
#     4  10  21  36  57  82 117 155 194 239 289 348
#     4   9  18  34  59  89 119 152 192 237 282 337
#     4  11  23  36  56  80 112 150 191 238 297 352
#
# _framework density 21.899428
#
# number of rings (size 3 to 8) (size 9 to 14) (size 15 to 20)
#    0.000    2.143    0.000    4.714    2.000    4.286 
#    0.000    0.000    0.000    0.857    0.000    0.000 
#    0.000    0.000    0.000    0.000    0.000    0.000 
#
# Total GULP energy -155910.130602 kJ/mol
# GULP energy per Si atom -5568.218950 kJ/mol
# Density = 2.184958 g / cm^3
# Si number density = 21.899428 Si / 1000 Ang^3
#
#
#
# Elastic Constant Matrix: (Units=GPa)
#
#
# Indices 1 2 3 4 5 6 
#
# 1 44.5926 22.6160 -3.1210 0.0000 2.5451 0.0000
# 2 22.6160 133.7581 17.0661 0.0000 18.3505 0.0000
# 3 -3.1210 17.0661 46.9365 0.0000 12.0618 0.0000
# 4 0.0000 0.0000 0.0000 7.2749 0.0000 -6.5284
# 5 2.5451 18.3505 12.0618 0.0000 24.0239 0.0000
# 6 0.0000 0.0000 0.0000 -6.5284 0.0000 49.4553
#
#
#
# Elastic Compliance Matrix: (Units=1/GPa)
#
#
# Indices 1 2 3 4 5 6 
#
# 1 0.025041 -0.004557 0.003570 0.000000 -0.000964 0.000000
# 2 -0.004557 0.009287 -0.002274 0.000000 -0.005469 0.000000
# 3 0.003570 -0.002274 0.025282 0.000000 -0.011335 0.000000
# 4 0.000000 0.000000 0.000000 0.155931 0.000000 0.020584
# 5 -0.000964 -0.005469 -0.011335 0.000000 0.051596 0.000000
# 6 0.000000 0.000000 0.000000 0.020584 0.000000 0.022937
#
#
# Mechanical properties :
#
#
# Convention : Reuss Voigt Hill
#
# Bulk Modulus (GPa) = 18.83672 33.15660 25.99666
# Shear Modulus (GPa) = 15.90862 28.73256 22.32059
#
# Velocity S-wave (km/s) = 2.69818 3.62612 3.19600
# Velocity P-wave (km/s) = 4.28101 5.71882 5.05133
#
# Compressibility (1/GPa) = 0.05308779
#
# Stress axis : x y z
#
# Youngs Moduli (GPa) = 39.93380 107.67448 39.55309
#
# Poissons Ratio (x) = 0.49070 -0.14120
# Poissons Ratio (y) = 0.18199 0.08996
# Poissons Ratio (z) = -0.14256 0.24489
#
# Static dielectric constant tensor:
#      x y z
#    x 1.841030 0.000000 -0.008690 
#    y 0.000000 1.888160 0.000000 
#    z -0.008690 0.000000 1.845830 
# 
# From -- ./inp_files/305171.got.cif
#   From: 2010.05.17/outbox.cif.g08.bks.cpg/sg12_153_cif.got.tgz:305171.got - 2010.06.03 13:09:07.
