data_PCOD9193725
_publ_section_title
;
Structure prediction by ZEFSAII (Michael W. Deem and Ramdas Pophale) SiO2 
 PCOD9193725
Probable space group: C 2/M
;
_chemical_formula_sum "Si O2"
_cell_formula_units_Z 64
_cell_length_a 27.477759
_cell_length_b 7.595073
_cell_length_c 22.984095
_cell_angle_alpha 90.000000
_cell_angle_beta 147.549135
_cell_angle_gamma 90.000000
_cell_volume 2573.783618
_symmetry_space_group_name_H-M "C 2/M"
_symmetry_group_IT_number 12
_symmetry_cell_setting 'monoclinic'
loop_
_space_group_symop_operation_xyz
x,y,z
-x,y,-z
-x,-y,-z
x,-y,z
1/2+x,1/2+y,z
1/2-x,1/2+y,-z
1/2-x,1/2-y,-z
1/2+x,1/2-y,z
loop_
_atom_site_type_symbol
_atom_site_label
_atom_site_fract_x
_atom_site_fract_y
_atom_site_fract_z
Si Si1 0.054066 0.198159 0.003384
Si Si2 0.662130 0.293500 0.752852
Si Si3 0.674272 0.207517 0.320617
Si Si4 0.488887 0.211993 0.763651
Si Si5 0.348000 0.291571 0.004052
Si Si6 0.973986 0.297957 0.535587
Si Si7 0.869448 0.713282 0.536220
Si Si8 0.227157 0.285435 0.244928
O O1 0.151471 0.191432 0.130356
O O2 0.015915 0.000000 0.956163
O O3 0.078562 0.288276 0.967740
O O4 0.000000 0.292598 0.000000
O O5 0.644433 0.500000 0.736102
O O6 0.566657 0.200976 0.667146
O O7 0.688451 0.244480 0.712292
O O8 0.747039 0.265196 0.882993
O O9 0.584580 0.278961 0.261828
O O10 0.767806 0.232020 0.449829
O O11 0.702889 0.275613 0.285541
O O12 0.657916 0.000000 0.297043
O O13 0.594975 0.260113 0.879676
O O14 0.443335 0.272463 0.657580
O O15 0.485135 0.000000 0.760166
O O16 0.347208 0.500000 0.994188
O O17 0.947241 0.500000 0.497228
O O18 0.000000 0.213743 0.500000
O O19 0.897389 0.217904 0.500107
O O20 0.871072 0.500000 0.535918
O O21 0.219109 0.500000 0.235260
#
# Coordination Sequence:
#
# PCOD9193725 Si02
#       8
#     8   8   8   8   8   8   8   8
#     4   9  17  28  43  68 101 135 173 215 256 303
#     4  10  20  35  56  82 113 146 181 226 276 324
#     4  10  20  34  54  80 111 146 182 222 268 322
#     4  10  21  37  55  78 110 146 184 225 269 319
#     4  10  20  34  54  79 108 145 187 227 269 321
#     4  10  21  38  60  85 112 142 178 224 277 328
#     4  10  22  38  56  80 109 141 180 227 275 325
#     4   9  18  30  46  73 105 136 171 210 257 312
#
# _framework density 24.866114
#
# number of rings (size 3 to 8) (size 9 to 14) (size 15 to 20)
#    0.000    2.250    0.000    2.625    0.000    3.500 
#    0.000    0.625    0.000    0.000    0.000    0.000 
#    0.000    0.000    0.000    0.000    0.000    0.000 
#
# Total GULP energy -178336.731270 kJ/mol
# GULP energy per Si atom -5573.022852 kJ/mol
# Density = 2.480952 g / cm^3
# Si number density = 24.866114 Si / 1000 Ang^3
#
#
#
# Elastic Constant Matrix: (Units=GPa)
#
#
# Indices 1 2 3 4 5 6 
#
# 1 57.1329 -1.3487 23.3926 0.0000 8.3786 0.0000
# 2 -1.3487 64.3560 -4.2929 0.0000 4.3737 0.0000
# 3 23.3926 -4.2929 120.6056 0.0000 -1.5074 0.0000
# 4 0.0000 0.0000 0.0000 35.2893 0.0000 4.4287
# 5 8.3786 4.3737 -1.5074 0.0000 33.9654 0.0000
# 6 0.0000 0.0000 0.0000 4.4287 0.0000 0.3307
#
#
#
# Elastic Compliance Matrix: (Units=1/GPa)
#
#
# Indices 1 2 3 4 5 6 
#
# 1 0.019865 0.000505 -0.003899 0.000000 -0.005138 -0.000001
# 2 0.000505 0.015723 0.000435 0.000000 -0.002130 -0.000002
# 3 -0.003899 0.000435 0.009080 0.000000 0.001309 0.000000
# 4 0.000000 0.000000 0.000000 -0.041636 0.000000 0.557566
# 5 -0.005138 -0.002130 0.001309 0.000000 0.031042 0.000000
# 6 -0.000001 -0.000002 0.000000 0.557566 0.000000 -4.442871
#
#
# Mechanical properties :
#
#
# Convention : Reuss Voigt Hill
#
# Bulk Modulus (GPa) = 25.80648 30.84405 28.32527
# Shear Modulus (GPa) = -1.13896 28.87332 13.86718
#
# Velocity S-wave (km/s) = -0.67752 3.41126 2.36407
# Velocity P-wave (km/s) = 3.12868 5.28645 4.34369
#
# Compressibility (1/GPa) = 0.03874995
#
# Stress axis : x y z
#
# Youngs Moduli (GPa) = 50.33970 63.60138 110.13672
#
# Poissons Ratio (x) = -0.03215 0.42945
# Poissons Ratio (y) = -0.02544 -0.04791
# Poissons Ratio (z) = 0.19629 -0.02767
#
# Static dielectric constant tensor:
#      x y z
#    x 2.185720 0.000000 0.040000 
#    y 0.000000 1.922180 0.000000 
#    z 0.040000 0.000000 2.077880 
# 
# From -- ./inp_files/353539.got.cif
#   From: 2010.05.17/outbox.cif.g08.bks.cpg/sg12_177_cif.got.tgz:353539.got - 2010.06.03 13:09:07.
