data_PCOD9193755
_publ_section_title
;
Structure prediction by ZEFSAII (Michael W. Deem and Ramdas Pophale) SiO2 
 PCOD9193755
Probable space group: C 2/M
;
_chemical_formula_sum "Si O2"
_cell_formula_units_Z 48
_cell_length_a 18.714839
_cell_length_b 8.042024
_cell_length_c 21.331408
_cell_angle_alpha 90.000000
_cell_angle_beta 48.355142
_cell_angle_gamma 90.000000
_cell_volume 2399.126868
_symmetry_space_group_name_H-M "C 2/M"
_symmetry_group_IT_number 12
_symmetry_cell_setting 'monoclinic'
loop_
_space_group_symop_operation_xyz
x,y,z
-x,y,-z
-x,-y,-z
x,-y,z
1/2+x,1/2+y,z
1/2-x,1/2+y,-z
1/2-x,1/2-y,-z
1/2+x,1/2-y,z
loop_
_atom_site_type_symbol
_atom_site_label
_atom_site_fract_x
_atom_site_fract_y
_atom_site_fract_z
Si Si1 0.387199 0.698441 0.758454
Si Si2 0.229127 0.704047 0.752108
Si Si3 0.479572 0.800064 0.082079
Si Si4 0.234708 0.200932 0.410450
Si Si5 0.095936 0.302033 0.596302
Si Si6 0.144017 0.199048 0.082367
O O1 0.373610 0.500000 0.770092
O O2 0.305203 0.761709 0.759492
O O3 0.491841 0.731182 0.670022
O O4 0.377606 0.764253 0.834873
O O5 0.229491 0.500000 0.751610
O O6 0.122387 0.759278 0.832210
O O7 0.257738 0.757433 0.665483
O O8 0.565249 0.759606 0.079089
O O9 0.472822 0.000000 0.081989
O O10 0.500000 0.736547 0.000000
O O11 0.141463 0.257427 0.502748
O O12 0.326902 0.258925 0.396896
O O13 0.235615 0.000000 0.410402
O O14 0.090158 0.500000 0.605164
O O15 0.139272 0.000000 0.086429
O O16 0.250000 0.250000 0.000000
#
# Coordination Sequence:
#
# PCOD9193755 Si02
#       6
#     8   8   8   8   8   8
#     4  10  21  37  56  79 108 143 182 222 268 323
#     4   9  18  34  56  79 104 141 187 225 264 323
#     4  10  20  37  61  85 112 146 184 228 276 327
#     4   9  18  34  55  76 102 140 183 223 265 322
#     4  10  20  34  54  80 108 138 176 225 277 324
#     4  11  23  38  58  84 114 147 184 227 275 328
#
# _framework density 20.007277999999999
#
# number of rings (size 3 to 8) (size 9 to 14) (size 15 to 20)
#    0.000    2.167    0.000    3.000    0.000    7.000 
#    0.000    5.833    0.000    0.000    0.000    0.000 
#    0.000    0.000    0.000    0.000    0.000    0.000 
#
# Total GULP energy -134062.583645 kJ/mol
# GULP energy per Si atom -5585.940985 kJ/mol
# Density = 1.996174 g / cm^3
# Si number density = 20.007278 Si / 1000 Ang^3
#
#
#
# Elastic Constant Matrix: (Units=GPa)
#
#
# Indices 1 2 3 4 5 6 
#
# 1 167.9816 -4.6229 118.6983 0.0000 7.6908 0.0000
# 2 -4.6229 3.0246 -7.3157 0.0001 8.1283 -0.0001
# 3 118.6983 -7.3157 179.4544 0.0000 11.7296 0.0000
# 4 0.0000 0.0001 0.0000 18.8935 0.0000 -4.0461
# 5 7.6908 8.1283 11.7296 0.0000 41.4828 0.0000
# 6 0.0000 -0.0001 0.0000 -4.0461 0.0000 23.5809
#
#
#
# Elastic Compliance Matrix: (Units=1/GPa)
#
#
# Indices 1 2 3 4 5 6 
#
# 1 0.011184 -0.002839 -0.007554 0.000000 0.000619 0.000000
# 2 -0.002839 1.103112 0.062089 -0.000006 -0.233179 0.000005
# 3 -0.007554 0.062089 0.014064 0.000000 -0.014742 0.000000
# 4 0.000000 -0.000006 0.000000 0.054947 0.000001 0.009428
# 5 0.000619 -0.233179 -0.014742 0.000001 0.073850 -0.000001
# 6 0.000000 0.000005 0.000000 0.009428 -0.000001 0.044025
#
#
# Mechanical properties :
#
#
# Convention : Reuss Voigt Hill
#
# Bulk Modulus (GPa) = 0.81185 62.66443 31.73814
# Shear Modulus (GPa) = 3.10873 33.03817 18.07345
#
# Velocity S-wave (km/s) = 1.24787 4.06804 3.00883
# Velocity P-wave (km/s) = 1.57572 7.31123 5.28852
#
# Compressibility (1/GPa) = 1.23175100
#
# Stress axis : x y z
#
# Youngs Moduli (GPa) = 89.41119 0.90653 71.10534
#
# Poissons Ratio (x) = 0.00257 0.53712
# Poissons Ratio (y) = 0.25387 -4.41486
# Poissons Ratio (z) = 0.67541 -0.05629
#
# Static dielectric constant tensor:
#      x y z
#    x 1.668020 0.000000 0.025850 
#    y 0.000000 1.724370 0.000000 
#    z 0.025850 0.000000 1.678390 
# 
# From -- ./inp_files/313573.got.cif
#   From: 2010.05.17/outbox.cif.g08.bks.cpg/sg12_157_cif.got.tgz:313573.got - 2010.06.03 13:09:07.
