data_PCOD9193466
_publ_section_title
;
Structure prediction by ZEFSAII (Michael W. Deem and Ramdas Pophale) SiO2 
 PCOD9193466
Probable space group: C 2/M
;
_chemical_formula_sum "Si O2"
_cell_formula_units_Z 56
_cell_length_a 16.402705
_cell_length_b 9.024456
_cell_length_c 26.667687
_cell_angle_alpha 90.000000
_cell_angle_beta 38.430829
_cell_angle_gamma 90.000000
_cell_volume 2453.643488
_symmetry_space_group_name_H-M "C 2/M"
_symmetry_group_IT_number 12
_symmetry_cell_setting 'monoclinic'
loop_
_space_group_symop_operation_xyz
x,y,z
-x,y,-z
-x,-y,-z
x,-y,z
1/2+x,1/2+y,z
1/2-x,1/2+y,-z
1/2-x,1/2-y,-z
1/2+x,1/2-y,z
loop_
_atom_site_type_symbol
_atom_site_label
_atom_site_fract_x
_atom_site_fract_y
_atom_site_fract_z
Si Si1 0.438876 0.168250 0.381327
Si Si2 0.251253 0.823631 0.327985
Si Si3 0.363332 0.330412 0.513510
Si Si4 0.799936 0.326958 0.100426
Si Si5 0.500930 0.671300 0.254228
Si Si6 0.667430 0.324486 0.808198
Si Si7 0.625752 0.675688 0.033962
O O1 0.438057 0.227372 0.438354
O O2 0.286648 0.165972 0.435674
O O3 0.507815 0.277800 0.308962
O O4 0.488283 0.000000 0.353564
O O5 0.151879 0.783498 0.421164
O O6 0.393705 0.775670 0.280587
O O7 0.244039 0.743013 0.278338
O O8 0.245388 0.000000 0.324604
O O9 0.412499 0.500000 0.487554
O O10 0.835079 0.500000 0.086096
O O11 0.645107 0.317829 0.161733
O O12 0.811314 0.251205 0.148703
O O13 0.880039 0.244266 0.018879
O O14 0.456999 0.500000 0.272135
O O15 0.686711 0.500000 0.802352
O O16 0.512541 0.298029 0.871964
O O17 0.645481 0.500000 0.021445
O O18 0.750000 0.750000 0.000000
#
# Coordination Sequence:
#
# PCOD9193466 Si02
#       7
#     8   8   8   8   8   8   8
#     4   9  16  26  45  74 105 140 181 223 272 326
#     4  10  20  34  55  82 110 144 186 228 273 326
#     4   8  15  27  44  71 106 140 176 222 273 322
#     4  11  24  40  59  83 111 147 187 225 271 325
#     4  10  20  34  53  79 111 144 182 229 277 324
#     4  11  24  40  58  82 113 147 182 223 273 326
#     4  11  24  41  62  88 115 144 180 223 272 323
#
# _framework density 22.823201000000001
#
# number of rings (size 3 to 8) (size 9 to 14) (size 15 to 20)
#    0.000    2.000    0.000    4.714    0.000   13.714 
#    0.000    0.000    0.000    0.857    0.000    6.000 
#    0.000    0.000    0.000    0.000    0.000    0.000 
#
# Total GULP energy -156703.437401 kJ/mol
# GULP energy per Si atom -5596.551336 kJ/mol
# Density = 2.277125 g / cm^3
# Si number density = 22.823201 Si / 1000 Ang^3
#
#
#
# Elastic Constant Matrix: (Units=GPa)
#
#
# Indices 1 2 3 4 5 6 
#
# 1 92.5572 23.1235 34.8843 0.0000 14.8554 0.0000
# 2 23.1235 80.0670 52.4677 0.0000 7.8767 0.0001
# 3 34.8843 52.4677 127.0250 0.0000 17.3985 0.0000
# 4 0.0000 0.0000 0.0000 33.0080 0.0000 13.7489
# 5 14.8554 7.8767 17.3985 0.0000 49.8532 0.0000
# 6 0.0000 0.0001 0.0000 13.7489 0.0000 27.3913
#
#
#
# Elastic Compliance Matrix: (Units=1/GPa)
#
#
# Indices 1 2 3 4 5 6 
#
# 1 0.012566 -0.001844 -0.002328 0.000000 -0.002641 0.000000
# 2 -0.001844 0.017398 -0.006699 0.000000 0.000138 0.000000
# 3 -0.002328 -0.006699 0.011593 0.000000 -0.002294 0.000000
# 4 0.000000 0.000000 0.000000 0.038304 0.000000 -0.019227
# 5 -0.002641 0.000138 -0.002294 0.000000 0.021624 0.000000
# 6 0.000000 0.000000 0.000000 -0.019227 0.000000 0.046159
#
#
# Mechanical properties :
#
#
# Convention : Reuss Voigt Hill
#
# Bulk Modulus (GPa) = 50.46414 57.84445 54.15430
# Shear Modulus (GPa) = 28.41062 34.66208 31.53635
#
# Velocity S-wave (km/s) = 3.53202 3.90131 3.72125
# Velocity P-wave (km/s) = 6.22836 6.75967 6.49945
#
# Compressibility (1/GPa) = 0.01981605
#
# Stress axis : x y z
#
# Youngs Moduli (GPa) = 79.58046 57.47708 86.26016
#
# Poissons Ratio (x) = 0.10599 0.20077
# Poissons Ratio (y) = 0.14675 0.57785
# Poissons Ratio (z) = 0.18523 0.38503
#
# Static dielectric constant tensor:
#      x y z
#    x 1.960910 0.000000 -0.022600 
#    y 0.000000 1.756130 0.000000 
#    z -0.022600 0.000000 1.849040 
# 
# From -- ./inp_files/362888.got.cif
#   From: 2010.05.17/outbox.cif.g08.bks.cpg/sg12_182_cif.got.tgz:362888.got - 2010.06.03 13:09:07.
