data_PCOD9193567
_publ_section_title
;
Structure prediction by ZEFSAII (Michael W. Deem and Ramdas Pophale) SiO2 
 PCOD9193567
Probable space group: C 2/M
;
_chemical_formula_sum "Si O2"
_cell_formula_units_Z 56
_cell_length_a 25.116623
_cell_length_b 8.927046
_cell_length_c 15.110768
_cell_angle_alpha 90.000000
_cell_angle_beta 121.364173
_cell_angle_gamma 90.000000
_cell_volume 2893.014274
_symmetry_space_group_name_H-M "C 2/M"
_symmetry_group_IT_number 12
_symmetry_cell_setting 'monoclinic'
loop_
_space_group_symop_operation_xyz
x,y,z
-x,y,-z
-x,-y,-z
x,-y,z
1/2+x,1/2+y,z
1/2-x,1/2+y,-z
1/2-x,1/2-y,-z
1/2+x,1/2-y,z
loop_
_atom_site_type_symbol
_atom_site_label
_atom_site_fract_x
_atom_site_fract_y
_atom_site_fract_z
Si Si1 0.513916 0.821015 0.411374
Si Si2 0.736749 0.167817 0.397269
Si Si3 0.184781 0.181165 0.794583
Si Si4 0.373947 0.332710 0.435817
Si Si5 0.942303 0.821294 0.013402
Si Si6 0.693880 0.322410 0.186982
Si Si7 0.915390 0.680083 0.177557
O O1 0.500000 0.768350 0.500000
O O2 0.584239 0.764563 0.463001
O O3 0.466994 0.770118 0.294941
O O4 0.511589 0.000000 0.409825
O O5 0.750000 0.250000 0.500000
O O6 0.804889 0.155062 0.413261
O O7 0.698508 0.258512 0.290571
O O8 0.711267 0.000000 0.388216
O O9 0.139017 0.229833 0.673647
O O10 0.252913 0.243829 0.827809
O O11 0.150769 0.246328 0.851532
O O12 0.186777 0.000000 0.798001
O O13 0.401002 0.500000 0.452338
O O14 0.875494 0.796904 0.909043
O O15 0.948467 0.000000 0.036007
O O16 0.938744 0.734393 0.102693
O O17 0.000000 0.777322 0.000000
O O18 0.706744 0.500000 0.198669
O O19 0.909459 0.500000 0.175160
#
# Coordination Sequence:
#
# PCOD9193567 Si02
#       7
#     8   8   8   8   8   8   8
#     4  10  20  34  53  83 122 156 189 233 289 349
#     4  10  21  37  57  86 119 154 198 243 291 350
#     4  10  20  36  59  89 122 154 194 241 295 360
#     4   9  19  33  52  80 114 153 193 234 284 344
#     4  10  24  46  66  85 115 157 203 251 301 358
#     4  10  21  39  64  89 117 155 196 247 307 356
#     4  11  23  38  60  90 121 159 203 249 301 356
#
# _framework density 19.356973
#
# number of rings (size 3 to 8) (size 9 to 14) (size 15 to 20)
#    0.000    2.000    1.429    2.571    0.000    7.429 
#    0.000    4.286    0.000    0.000    0.000    0.000 
#    0.000    0.000    0.000    0.000    0.000    0.000 
#
# Total GULP energy -156148.326953 kJ/mol
# GULP energy per Si atom -5576.725963 kJ/mol
# Density = 1.931292 g / cm^3
# Si number density = 19.356973 Si / 1000 Ang^3
#
#
#
# Elastic Constant Matrix: (Units=GPa)
#
#
# Indices 1 2 3 4 5 6 
#
# 1 92.7843 46.8737 55.3550 0.0000 -7.1523 0.0000
# 2 46.8737 66.5052 58.6270 0.0000 -0.9948 0.0000
# 3 55.3550 58.6270 100.7412 0.0000 -4.1531 0.0000
# 4 0.0000 0.0000 0.0000 21.1000 0.0000 -4.4635
# 5 -7.1523 -0.9948 -4.1531 0.0000 30.7225 0.0000
# 6 0.0000 0.0000 0.0000 -4.4635 0.0000 32.2379
#
#
#
# Elastic Compliance Matrix: (Units=1/GPa)
#
#
# Indices 1 2 3 4 5 6 
#
# 1 0.018270 -0.008415 -0.005006 0.000000 0.003304 0.000000
# 2 -0.008415 0.034815 -0.015760 0.000000 -0.002962 0.000000
# 3 -0.005006 -0.015760 0.021901 0.000000 0.001285 0.000000
# 4 0.000000 0.000000 0.000000 0.048823 0.000000 0.006760
# 5 0.003304 -0.002962 0.001285 0.000000 0.033396 0.000000
# 6 0.000000 0.000000 0.000000 0.006760 0.000000 0.031955
#
#
# Mechanical properties :
#
#
# Convention : Reuss Voigt Hill
#
# Bulk Modulus (GPa) = 60.14376 64.63801 62.39089
# Shear Modulus (GPa) = 19.75789 23.42376 21.59082
#
# Velocity S-wave (km/s) = 3.19832 3.48241 3.34339
# Velocity P-wave (km/s) = 6.69159 7.04519 6.87066
#
# Compressibility (1/GPa) = 0.01662683
#
# Stress axis : x y z
#
# Youngs Moduli (GPa) = 54.73543 28.72285 45.65949
#
# Poissons Ratio (x) = 0.24169 0.22855
# Poissons Ratio (y) = 0.46058 0.71957
# Poissons Ratio (z) = 0.27399 0.45266
#
# Static dielectric constant tensor:
#      x y z
#    x 1.729860 0.000000 -0.000130 
#    y 0.000000 1.689150 0.000000 
#    z -0.000130 0.000000 1.700370 
# 
# From -- ./inp_files/239029.got.cif
#   From: 2010.05.17/outbox.cif.g08.bks.cpg/sg12_120_cif.got.tgz:239029.got - 2010.06.03 13:09:07.
