data_PCOD9193996
_publ_section_title
;
Structure prediction by ZEFSAII (Michael W. Deem and Ramdas Pophale) SiO2 
 PCOD9193996
Probable space group: C 2/M
;
_chemical_formula_sum "Si O2"
_cell_formula_units_Z 64
_cell_length_a 15.853657
_cell_length_b 8.805816
_cell_length_c 31.363547
_cell_angle_alpha 90.000000
_cell_angle_beta 128.917429
_cell_angle_gamma 90.000000
_cell_volume 3406.692314
_symmetry_space_group_name_H-M "C 2/M"
_symmetry_group_IT_number 12
_symmetry_cell_setting 'monoclinic'
loop_
_space_group_symop_operation_xyz
x,y,z
-x,y,-z
-x,-y,-z
x,-y,z
1/2+x,1/2+y,z
1/2-x,1/2+y,-z
1/2-x,1/2-y,-z
1/2+x,1/2-y,z
loop_
_atom_site_type_symbol
_atom_site_label
_atom_site_fract_x
_atom_site_fract_y
_atom_site_fract_z
Si Si1 0.549933 0.178680 0.560892
Si Si2 0.750446 0.181127 0.328126
Si Si3 0.654563 0.177961 0.441814
Si Si4 0.659778 0.183647 0.133313
Si Si5 0.672120 0.315018 0.740760
Si Si6 0.923503 0.181748 0.670149
Si Si7 0.718929 0.183123 0.055770
Si Si8 0.077040 0.818374 0.935339
O O1 0.500000 0.229508 0.500000
O O2 0.653948 0.269566 0.609466
O O3 0.456174 0.192488 0.566392
O O4 0.579099 0.000000 0.565774
O O5 0.784427 0.233238 0.291659
O O6 0.640212 0.254688 0.309647
O O7 0.740571 0.000000 0.324959
O O8 0.750000 0.250000 0.500000
O O9 0.637072 0.260015 0.391418
O O10 0.676344 0.000000 0.441789
O O11 0.748070 0.233450 0.196182
O O12 0.696112 0.228484 0.097099
O O13 0.541450 0.247642 0.106335
O O14 0.654597 0.000000 0.132472
O O15 0.670817 0.500000 0.740243
O O16 0.548229 0.265601 0.707923
O O17 0.921499 0.000000 0.669911
O O18 0.838496 0.222261 0.075747
O O19 0.707788 0.000000 0.049303
O O20 0.633123 0.257714 0.996362
O O21 0.069034 0.000000 0.934450
#
# Coordination Sequence:
#
# PCOD9193996 Si02
#       8
#     8   8   8   8   8   8   8   8
#     4  10  21  37  57  84 116 148 184 230 283 344
#     4  11  22  39  61  86 113 147 191 238 291 347
#     4  11  22  36  58  88 121 152 188 234 287 347
#     4  10  20  37  59  81 110 153 200 236 282 347
#     4   9  21  40  60  82 113 153 194 240 289 346
#     4  11  22  40  62  84 114 154 194 236 290 347
#     4   9  19  35  56  81 114 156 195 232 283 350
#     4  10  20  34  54  85 120 150 188 242 293 335
#
# _framework density 18.786550999999999
#
# number of rings (size 3 to 8) (size 9 to 14) (size 15 to 20)
#    0.000    1.875    1.250    2.625    0.000    5.250 
#    0.000    3.750    0.000    0.000    0.000    0.000 
#    0.000    0.000    0.000    0.000    0.000    0.000 
#
# Total GULP energy -178781.741754 kJ/mol
# GULP energy per Si atom -5586.929430 kJ/mol
# Density = 1.874379 g / cm^3
# Si number density = 18.786551 Si / 1000 Ang^3
#
#
#
# Elastic Constant Matrix: (Units=GPa)
#
#
# Indices 1 2 3 4 5 6 
#
# 1 137.3531 43.7846 79.2643 0.0000 17.9001 0.0000
# 2 43.7846 42.4062 28.3702 0.0000 6.1839 0.0000
# 3 79.2643 28.3702 118.1313 0.0000 20.3226 0.0000
# 4 0.0000 0.0000 0.0000 16.9045 0.0000 7.0398
# 5 17.9001 6.1839 20.3226 0.0000 19.0485 0.0000
# 6 0.0000 0.0000 0.0000 7.0398 0.0000 29.6954
#
#
#
# Elastic Compliance Matrix: (Units=1/GPa)
#
#
# Indices 1 2 3 4 5 6 
#
# 1 0.015098 -0.010379 -0.007076 0.000000 -0.003270 0.000000
# 2 -0.010379 0.035316 -0.001498 0.000000 -0.000114 0.000000
# 3 -0.007076 -0.001498 0.015120 0.000000 -0.008996 0.000000
# 4 0.000000 0.000000 0.000000 0.065636 0.000000 -0.015560
# 5 -0.003270 -0.000114 -0.008996 0.000000 0.065205 0.000000
# 6 0.000000 0.000000 0.000000 -0.015560 0.000000 0.037364
#
#
# Mechanical properties :
#
#
# Convention : Reuss Voigt Hill
#
# Bulk Modulus (GPa) = 36.19230 66.74762 51.46996
# Shear Modulus (GPa) = 17.80283 22.89445 20.34864
#
# Velocity S-wave (km/s) = 3.08171 3.49472 3.29469
# Velocity P-wave (km/s) = 5.65415 7.20352 6.47534
#
# Compressibility (1/GPa) = 0.02763018
#
# Stress axis : x y z
#
# Youngs Moduli (GPa) = 66.23256 28.31569 66.13632
#
# Poissons Ratio (x) = 0.29387 0.46796
# Poissons Ratio (y) = 0.68739 0.09907
# Poissons Ratio (z) = 0.46864 0.04242
#
# Static dielectric constant tensor:
#      x y z
#    x 1.660580 0.000000 -0.003790 
#    y 0.000000 1.636470 0.000000 
#    z -0.003790 0.000000 1.616430 
# 
# From -- ./inp_files/375631.got.cif
#   From: 2010.05.17/outbox.cif.g08.bks.cpg/sg12_188_cif.got.tgz:375631.got - 2010.06.03 13:09:07.
