data_PCOD9193264
_publ_section_title
;
Structure prediction by ZEFSAII (Michael W. Deem and Ramdas Pophale) SiO2 
 PCOD9193264
Probable space group: C 2/M
;
_chemical_formula_sum "Si O2"
_cell_formula_units_Z 56
_cell_length_a 20.207623
_cell_length_b 9.006990
_cell_length_c 30.830311
_cell_angle_alpha 90.000000
_cell_angle_beta 35.979249
_cell_angle_gamma 90.000000
_cell_volume 3296.665849
_symmetry_space_group_name_H-M "C 2/M"
_symmetry_group_IT_number 12
_symmetry_cell_setting 'monoclinic'
loop_
_space_group_symop_operation_xyz
x,y,z
-x,y,-z
-x,-y,-z
x,-y,z
1/2+x,1/2+y,z
1/2-x,1/2+y,-z
1/2-x,1/2-y,-z
1/2+x,1/2-y,z
loop_
_atom_site_type_symbol
_atom_site_label
_atom_site_fract_x
_atom_site_fract_y
_atom_site_fract_z
Si Si1 0.872671 0.822869 0.556296
Si Si2 0.930668 0.669705 0.991404
Si Si3 0.231997 0.820737 0.154835
Si Si4 0.371586 0.323362 0.158951
Si Si5 0.334238 0.176782 0.271499
Si Si6 0.973626 0.821748 0.273613
Si Si7 0.732709 0.323189 0.555573
O O1 0.786325 0.794367 0.641549
O O2 0.825213 0.736999 0.540104
O O3 0.000000 0.781519 0.500000
O O4 0.869329 0.000000 0.549262
O O5 0.927830 0.500000 0.976481
O O6 0.002608 0.771794 0.921589
O O7 0.806901 0.717569 0.072641
O O8 0.000000 0.667585 0.000000
O O9 0.287886 0.743369 0.166801
O O10 0.101711 0.783133 0.217229
O O11 0.242255 0.000000 0.154913
O O12 0.363945 0.500000 0.163301
O O13 0.343146 0.255780 0.220687
O O14 0.426516 0.239836 0.256178
O O15 0.347173 0.000000 0.259586
O O16 0.887759 0.786024 0.358380
O O17 0.968109 0.000000 0.269374
O O18 0.739803 0.500000 0.548082
O O19 0.750000 0.250000 0.500000
#
# Coordination Sequence:
#
# PCOD9193264 Si02
#       7
#     8   8   8   8   8   8   8
#     4   9  19  36  56  76  99 130 168 209 253 299
#     4   8  15  30  51  73  98 129 165 206 252 297
#     4   9  18  34  55  76 100 131 167 208 253 299
#     4  11  21  32  50  76 105 134 168 208 246 293
#     4  10  20  35  54  74 101 135 168 205 251 301
#     4   9  19  36  55  75 101 133 167 206 253 299
#     4  10  20  34  53  76 104 135 167 205 248 297
#
# _framework density 16.98686
#
# number of rings (size 3 to 8) (size 9 to 14) (size 15 to 20)
#    0.000    2.571    0.000    3.000    0.000    5.714 
#    0.000    6.429    0.000    0.000    0.000    0.000 
#    0.000    0.000    0.000    0.000    0.000    0.000 
#
# Total GULP energy -156152.192733 kJ/mol
# GULP energy per Si atom -5576.864026 kJ/mol
# Density = 1.694820 g / cm^3
# Si number density = 16.986860 Si / 1000 Ang^3
#
#
#
# Elastic Constant Matrix: (Units=GPa)
#
#
# Indices 1 2 3 4 5 6 
#
# 1 107.6179 65.9045 105.5417 -0.0001 -7.4872 0.0007
# 2 65.9045 74.3092 73.2863 -0.0002 5.7227 0.0010
# 3 105.5417 73.2863 133.3377 0.0000 -7.2456 0.0000
# 4 -0.0001 -0.0002 0.0000 21.5456 -0.0001 4.9009
# 5 -7.4872 5.7227 -7.2456 -0.0001 32.2338 -0.0001
# 6 0.0007 0.0010 0.0000 4.9009 -0.0001 30.5396
#
#
#
# Elastic Compliance Matrix: (Units=1/GPa)
#
#
# Indices 1 2 3 4 5 6 
#
# 1 0.046095 -0.012506 -0.029267 0.000000 0.006348 -0.000001
# 2 -0.012506 0.035578 -0.010282 0.000000 -0.011533 -0.000001
# 3 -0.029267 -0.010282 0.036493 0.000000 0.003230 0.000001
# 4 0.000000 0.000000 0.000000 0.048172 0.000000 -0.007730
# 5 0.006348 -0.011533 0.003230 0.000000 0.035272 0.000000
# 6 -0.000001 -0.000001 0.000001 -0.007730 0.000000 0.033985
#
#
# Mechanical properties :
#
#
# Convention : Reuss Voigt Hill
#
# Bulk Modulus (GPa) = 71.15159 89.41442 80.28300
# Shear Modulus (GPa) = 14.51843 21.56595 18.04219
#
# Velocity S-wave (km/s) = 2.92667 3.56696 3.26256
# Velocity P-wave (km/s) = 7.30738 8.34961 7.84582
#
# Compressibility (1/GPa) = 0.01405450
#
# Stress axis : x y z
#
# Youngs Moduli (GPa) = 21.69424 28.10756 27.40251
#
# Poissons Ratio (x) = 0.35151 0.80200
# Poissons Ratio (y) = 0.27131 0.28176
# Poissons Ratio (z) = 0.63494 0.28901
#
# Static dielectric constant tensor:
#      x y z
#    x 1.536820 0.000000 -0.015380 
#    y 0.000000 1.566000 0.000000 
#    z -0.015380 0.000000 1.586940 
# 
# From -- ./inp_files/363007.got.cif
#   From: 2010.05.17/outbox.cif.g08.bks.cpg/sg12_182_cif.got.tgz:363007.got - 2010.06.03 13:09:07.
