data_PCOD9193434
_publ_section_title
;
Structure prediction by ZEFSAII (Michael W. Deem and Ramdas Pophale) SiO2 
 PCOD9193434
Probable space group: C 2/M
;
_chemical_formula_sum "Si O2"
_cell_formula_units_Z 56
_cell_length_a 25.281302
_cell_length_b 12.996975
_cell_length_c 14.476705
_cell_angle_alpha 90.000000
_cell_angle_beta 142.191053
_cell_angle_gamma 90.000000
_cell_volume 2916.040016
_symmetry_space_group_name_H-M "C 2/M"
_symmetry_group_IT_number 12
_symmetry_cell_setting 'monoclinic'
loop_
_space_group_symop_operation_xyz
x,y,z
-x,y,-z
-x,-y,-z
x,-y,z
1/2+x,1/2+y,z
1/2-x,1/2+y,-z
1/2-x,1/2-y,-z
1/2+x,1/2-y,z
loop_
_atom_site_type_symbol
_atom_site_label
_atom_site_fract_x
_atom_site_fract_y
_atom_site_fract_z
Si Si1 0.397306 0.123595 0.961014
Si Si2 0.910279 0.624404 0.762988
Si Si3 0.384527 0.500000 0.442448
Si Si4 0.015709 0.614813 0.631597
Si Si5 0.827772 0.381030 0.466753
Si Si6 0.414810 0.500000 0.261506
Si Si7 0.783208 0.799411 0.278873
Si Si8 0.845067 0.220028 0.162893
O O1 0.390448 0.148007 0.841803
O O2 0.311694 0.169222 0.886612
O O3 0.394785 0.000000 0.967660
O O4 0.491764 0.160000 0.122474
O O5 0.913413 0.500000 0.761516
O O6 0.841919 0.655412 0.591550
O O7 0.397736 0.500000 0.349069
O O8 0.482303 0.500000 0.614577
O O9 0.329219 0.398209 0.389688
O O10 0.052164 0.500000 0.696333
O O11 0.081127 0.698891 0.759979
O O12 0.000000 0.627546 0.500000
O O13 0.923904 0.619344 0.555310
O O14 0.796737 0.500000 0.420579
O O15 0.776975 0.298630 0.336332
O O16 0.371743 0.605631 0.168366
O O17 0.840576 0.776631 0.268483
O O18 0.750000 0.250000 0.000000
#
# Coordination Sequence:
#
# PCOD9193434 Si02
#       8
#     8   8   4   8   8   4   8   8
#     4   9  17  33  54  80 107 130 163 219 270 307
#     4   8  17  33  54  78 105 132 167 213 269 313
#     4   9  18  34  54  73  98 132 173 211 258 308
#     4  10  20  36  55  73 104 142 176 211 253 309
#     4  10  20  34  53  79 102 139 176 209 253 312
#     4   9  20  36  52  68 101 139 170 217 257 301
#     4  11  20  33  54  77 106 134 173 216 256 307
#     4  11  24  35  50  77 106 138 178 217 260 304
#
# _framework density 19.204125000000001
#
# number of rings (size 3 to 8) (size 9 to 14) (size 15 to 20)
#    0.000    2.286    2.143    1.714    5.000    0.571 
#    0.000    0.000    0.000    0.000    0.000    1.000 
#    0.000    0.000    0.000    0.000    0.000    0.000 
#
# Total GULP energy -156168.638128 kJ/mol
# GULP energy per Si atom -5577.451362 kJ/mol
# Density = 1.916042 g / cm^3
# Si number density = 19.204125 Si / 1000 Ang^3
#
#
#
# Elastic Constant Matrix: (Units=GPa)
#
#
# Indices 1 2 3 4 5 6 
#
# 1 24.3280 -2.8276 -11.3881 0.0000 4.1682 0.0000
# 2 -2.8276 105.5852 42.2280 0.0000 13.6804 0.0000
# 3 -11.3881 42.2280 42.5482 0.0000 4.6228 0.0000
# 4 0.0000 0.0000 0.0000 14.6167 0.0000 7.2404
# 5 4.1682 13.6804 4.6228 0.0000 32.7086 0.0000
# 6 0.0000 0.0000 0.0000 7.2404 0.0000 14.8539
#
#
#
# Elastic Compliance Matrix: (Units=1/GPa)
#
#
# Indices 1 2 3 4 5 6 
#
# 1 0.051066 -0.005807 0.020184 0.000000 -0.006932 0.000000
# 2 -0.005807 0.017025 -0.018035 0.000000 -0.003832 0.000000
# 3 0.020184 -0.018035 0.046985 0.000000 -0.001670 0.000000
# 4 0.000000 0.000000 0.000000 0.090193 0.000000 -0.043964
# 5 -0.006932 -0.003832 -0.001670 0.000000 0.033295 0.000000
# 6 0.000000 0.000000 0.000000 -0.043964 0.000000 0.088752
#
#
# Mechanical properties :
#
#
# Convention : Reuss Voigt Hill
#
# Bulk Modulus (GPa) = 9.27975 25.38732 17.33353
# Shear Modulus (GPa) = 13.49342 22.06578 17.77960
#
# Velocity S-wave (km/s) = 2.65359 3.39339 3.04603
# Velocity P-wave (km/s) = 3.77245 5.34807 4.62781
#
# Compressibility (1/GPa) = 0.10776157
#
# Stress axis : x y z
#
# Youngs Moduli (GPa) = 19.58251 58.73794 21.28324
#
# Poissons Ratio (x) = 0.34108 -0.42958
# Poissons Ratio (y) = 0.11371 0.38383
# Poissons Ratio (z) = -0.39526 1.05931
#
# Static dielectric constant tensor:
#      x y z
#    x 1.698360 0.000000 -0.036550 
#    y 0.000000 1.670670 0.000000 
#    z -0.036550 0.000000 1.679840 
# 
# From -- ./inp_files/245725.got.cif
#   From: 2010.05.17/outbox.cif.g08.bks.cpg/sg12_123_cif.got.tgz:245725.got - 2010.06.03 13:09:07.
