data_PCOD9193640
_publ_section_title
;
Structure prediction by ZEFSAII (Michael W. Deem and Ramdas Pophale) SiO2 
 PCOD9193640
Probable space group: C 2/M
;
_chemical_formula_sum "Si O2"
_cell_formula_units_Z 64
_cell_length_a 14.954475
_cell_length_b 7.395184
_cell_length_c 25.703635
_cell_angle_alpha 90.000000
_cell_angle_beta 98.524147
_cell_angle_gamma 90.000000
_cell_volume 2811.192365
_symmetry_space_group_name_H-M "C 2/M"
_symmetry_group_IT_number 12
_symmetry_cell_setting 'monoclinic'
loop_
_space_group_symop_operation_xyz
x,y,z
-x,y,-z
-x,-y,-z
x,-y,z
1/2+x,1/2+y,z
1/2-x,1/2+y,-z
1/2-x,1/2-y,-z
1/2+x,1/2-y,z
loop_
_atom_site_type_symbol
_atom_site_label
_atom_site_fract_x
_atom_site_fract_y
_atom_site_fract_z
Si Si1 0.093196 0.708380 0.360114
Si Si2 0.148252 0.715020 0.933373
Si Si3 0.240255 0.216616 0.560645
Si Si4 0.365029 0.217283 0.956344
Si Si5 0.333018 0.781273 0.178655
Si Si6 0.620487 0.211401 0.156041
Si Si7 0.009417 0.721797 0.246207
Si Si8 0.459882 0.719136 0.440769
O O1 0.116126 0.500000 0.349885
O O2 0.179852 0.790694 0.396580
O O3 0.054710 0.786582 0.303367
O O4 0.016888 0.712088 0.397589
O O5 0.131459 0.500000 0.931975
O O6 0.256742 0.746936 0.945522
O O7 0.126333 0.781231 0.873726
O O8 0.106065 0.784930 0.983871
O O9 0.250000 0.250000 0.500000
O O10 0.142915 0.280823 0.570341
O O11 0.241740 0.000000 0.565633
O O12 0.399851 0.286781 0.903654
O O13 0.378424 0.000000 0.957603
O O14 0.228965 0.722605 0.174399
O O15 0.404857 0.725486 0.228422
O O16 0.329978 0.000000 0.176989
O O17 0.567182 0.282862 0.201135
O O18 0.596202 0.000000 0.150947
O O19 0.010027 0.500000 0.247072
O O20 0.500000 0.774973 0.500000
O O21 0.463122 0.500000 0.439713
#
# Coordination Sequence:
#
# PCOD9193640 Si02
#       8
#     8   8   8   8   8   8   8   8
#     4  10  21  36  54  76 101 134 172 203 235 290
#     4   8  13  22  39  64  91 120 155 197 246 296
#     4  10  20  34  54  78 104 132 160 193 238 289
#     4   8  13  22  39  65  92 118 155 200 245 293
#     4   9  17  31  50  69  95 131 166 204 251 296
#     4   9  17  31  51  71  95 130 167 206 250 295
#     4   9  19  35  51  70 100 133 167 206 247 288
#     4  10  20  35  55  80 109 133 156 197 249 289
#
# _framework density 22.766141999999999
#
# number of rings (size 3 to 8) (size 9 to 14) (size 15 to 20)
#    0.000    2.875    1.250    0.000    0.000    1.750 
#    0.000    3.750    0.000    3.750    0.000    0.000 
#    0.000   20.000    0.000    0.000    0.000    0.000 
#
# Total GULP energy -178569.188169 kJ/mol
# GULP energy per Si atom -5580.287130 kJ/mol
# Density = 2.271433 g / cm^3
# Si number density = 22.766142 Si / 1000 Ang^3
#
#
#
# Elastic Constant Matrix: (Units=GPa)
#
#
# Indices 1 2 3 4 5 6 
#
# 1 89.7756 -8.1560 36.2822 0.0000 13.4581 0.0000
# 2 -8.1560 81.0821 -2.2222 0.0000 3.3682 0.0000
# 3 36.2822 -2.2222 117.2134 0.0000 18.0187 0.0000
# 4 0.0000 0.0000 0.0000 -7.4406 0.0000 10.0635
# 5 13.4581 3.3682 18.0187 0.0000 37.2204 0.0000
# 6 0.0000 0.0000 0.0000 10.0635 0.0000 -5.7328
#
#
#
# Elastic Compliance Matrix: (Units=1/GPa)
#
#
# Indices 1 2 3 4 5 6 
#
# 1 0.013178 0.001359 -0.003567 0.000000 -0.003161 0.000000
# 2 0.001359 0.012541 0.000072 0.000000 -0.001661 0.000000
# 3 -0.003567 0.000072 0.010199 0.000000 -0.003654 0.000000
# 4 0.000000 0.000000 0.000000 0.097800 0.000000 0.171680
# 5 -0.003161 -0.001661 -0.003654 0.000000 0.029929 0.000000
# 6 0.000000 0.000000 0.000000 0.171680 0.000000 0.126934
#
#
# Mechanical properties :
#
#
# Convention : Reuss Voigt Hill
#
# Bulk Modulus (GPa) = 31.59970 37.76434 34.68202
# Shear Modulus (GPa) = 16.37190 22.28720 19.32955
#
# Velocity S-wave (km/s) = 2.68458 3.13223 2.91700
# Velocity P-wave (km/s) = 4.84969 5.45024 5.15871
#
# Compressibility (1/GPa) = 0.03164587
#
# Stress axis : x y z
#
# Youngs Moduli (GPa) = 75.88442 79.73914 98.05090
#
# Poissons Ratio (x) = -0.10837 0.34979
# Poissons Ratio (y) = -0.10313 -0.00710
# Poissons Ratio (z) = 0.27071 -0.00578
#
# Static dielectric constant tensor:
#      x y z
#    x 1.836430 0.000000 0.023020 
#    y 0.000000 1.763480 0.000000 
#    z 0.023020 0.000000 1.845440 
# 
# From -- ./inp_files/338881.got.cif
#   From: 2010.05.17/outbox.cif.g08.bks.cpg/sg12_170_cif.got.tgz:338881.got - 2010.06.03 13:09:07.
