data_PCOD9193344
_publ_section_title
;
Structure prediction by ZEFSAII (Michael W. Deem and Ramdas Pophale) SiO2 
 PCOD9193344
Probable space group: C 2/M
;
_chemical_formula_sum "Si O2"
_cell_formula_units_Z 56
_cell_length_a 18.804277
_cell_length_b 8.477086
_cell_length_c 29.110533
_cell_angle_alpha 90.000000
_cell_angle_beta 144.799330
_cell_angle_gamma 90.000000
_cell_volume 2674.908347
_symmetry_space_group_name_H-M "C 2/M"
_symmetry_group_IT_number 12
_symmetry_cell_setting 'monoclinic'
loop_
_space_group_symop_operation_xyz
x,y,z
-x,y,-z
-x,-y,-z
x,-y,z
1/2+x,1/2+y,z
1/2-x,1/2+y,-z
1/2-x,1/2-y,-z
1/2+x,1/2-y,z
loop_
_atom_site_type_symbol
_atom_site_label
_atom_site_fract_x
_atom_site_fract_y
_atom_site_fract_z
Si Si1 0.116625 0.326146 0.474576
Si Si2 0.359080 0.176039 0.622101
Si Si3 0.057937 0.309482 0.907427
Si Si4 0.084788 0.180466 0.584313
Si Si5 0.736816 0.811842 0.918325
Si Si6 0.128990 0.187459 0.769200
Si Si7 0.726524 0.806674 0.246089
O O1 0.069918 0.500000 0.462849
O O2 0.239302 0.282493 0.567952
O O3 0.142490 0.334266 0.434133
O O4 0.015089 0.191328 0.427408
O O5 0.493388 0.239797 0.705291
O O6 0.342114 0.000000 0.632301
O O7 0.062083 0.500000 0.913196
O O8 0.129935 0.265863 0.898587
O O9 0.915754 0.259455 0.831863
O O10 0.135838 0.238143 0.990402
O O11 0.207291 0.248144 0.671918
O O12 0.000000 0.256225 0.500000
O O13 0.109556 0.000000 0.583658
O O14 0.711838 0.730970 0.856683
O O15 0.732628 0.000000 0.910339
O O16 0.195611 0.244888 0.757535
O O17 0.115585 0.000000 0.758490
O O18 0.730437 0.000000 0.249029
#
# Coordination Sequence:
#
# PCOD9193344 Si02
#       7
#     8   8   8   8   8   8   8
#     4  10  20  34  53  77 107 144 186 232 282 333
#     4  10  20  34  54  78 107 144 185 230 280 332
#     4   9  19  39  62  81 110 152 195 233 279 340
#     4  10  20  35  56  81 111 149 194 239 285 340
#     4  10  21  37  59  87 117 146 186 237 287 343
#     4  11  21  35  58  85 117 149 188 237 287 344
#     4   9  19  36  58  83 110 147 193 238 282 337
#
# _framework density 20.935298
#
# number of rings (size 3 to 8) (size 9 to 14) (size 15 to 20)
#    0.000    2.143    1.429    1.714    0.000    3.714 
#    0.000    7.857    0.000    0.000    0.000    0.000 
#    0.000    0.000    0.000    0.000    0.000    0.000 
#
# Total GULP energy -156170.135907 kJ/mol
# GULP energy per Si atom -5577.504854 kJ/mol
# Density = 2.088765 g / cm^3
# Si number density = 20.935298 Si / 1000 Ang^3
#
#
#
# Elastic Constant Matrix: (Units=GPa)
#
#
# Indices 1 2 3 4 5 6 
#
# 1 34.8714 4.8681 45.0338 0.0000 5.0045 0.0000
# 2 4.8681 35.9567 12.5992 0.0000 -2.3794 0.0000
# 3 45.0338 12.5992 161.8331 0.0000 8.2631 0.0000
# 4 0.0000 0.0000 0.0000 23.1138 0.0000 1.9907
# 5 5.0045 -2.3794 8.2631 0.0000 36.2950 0.0000
# 6 0.0000 0.0000 0.0000 1.9907 0.0000 19.8535
#
#
#
# Elastic Compliance Matrix: (Units=1/GPa)
#
#
# Indices 1 2 3 4 5 6 
#
# 1 0.045325 -0.002076 -0.012268 0.000000 -0.003593 0.000000
# 2 -0.002076 0.028896 -0.001804 0.000000 0.002591 0.000000
# 3 -0.012268 -0.001804 0.009767 0.000000 -0.000650 0.000000
# 4 0.000000 0.000000 0.000000 0.043641 0.000000 -0.004376
# 5 -0.003593 0.002591 -0.000650 0.000000 0.028365 0.000000
# 6 0.000000 0.000000 0.000000 -0.004376 0.000000 0.050808
#
#
# Mechanical properties :
#
#
# Convention : Reuss Voigt Hill
#
# Bulk Modulus (GPa) = 19.34525 39.74036 29.54280
# Shear Modulus (GPa) = 19.50626 27.19646 23.35136
#
# Velocity S-wave (km/s) = 3.05575 3.60817 3.34339
# Velocity P-wave (km/s) = 4.65948 6.03177 5.38948
#
# Compressibility (1/GPa) = 0.05169229
#
# Stress axis : x y z
#
# Youngs Moduli (GPa) = 22.06288 34.60687 102.38926
#
# Poissons Ratio (x) = 0.07183 1.25608
# Poissons Ratio (y) = 0.04579 0.18475
# Poissons Ratio (z) = 0.27066 0.06244
#
# Static dielectric constant tensor:
#      x y z
#    x 1.817840 0.000000 -0.014530 
#    y 0.000000 1.756160 0.000000 
#    z -0.014530 0.000000 1.747580 
# 
# From -- ./inp_files/275592.got.cif
#   From: 2010.05.17/outbox.cif.g08.bks.cpg/sg12_138_cif.got.tgz:275592.got - 2010.06.03 13:09:07.
