data_PCOD9193235
_publ_section_title
;
Structure prediction by ZEFSAII (Michael W. Deem and Ramdas Pophale) SiO2 
 PCOD9193235
Probable space group: C 2/M
;
_chemical_formula_sum "Si O2"
_cell_formula_units_Z 48
_cell_length_a 18.794282
_cell_length_b 8.881075
_cell_length_c 19.355014
_cell_angle_alpha 90.000000
_cell_angle_beta 119.767995
_cell_angle_gamma 90.000000
_cell_volume 2804.309657
_symmetry_space_group_name_H-M "C 2/M"
_symmetry_group_IT_number 12
_symmetry_cell_setting 'monoclinic'
loop_
_space_group_symop_operation_xyz
x,y,z
-x,y,-z
-x,-y,-z
x,-y,z
1/2+x,1/2+y,z
1/2-x,1/2+y,-z
1/2-x,1/2-y,-z
1/2+x,1/2-y,z
loop_
_atom_site_type_symbol
_atom_site_label
_atom_site_fract_x
_atom_site_fract_y
_atom_site_fract_z
Si Si1 0.990362 0.672739 0.078815
Si Si2 0.828013 0.680757 0.837651
Si Si3 0.669743 0.679737 0.425403
Si Si4 0.247013 0.319506 0.670855
Si Si5 0.179506 0.820582 0.013581
Si Si6 0.084734 0.680791 0.505130
O O1 0.976184 0.500000 0.094257
O O2 0.080517 0.724852 0.145163
O O3 0.910841 0.770860 0.056567
O O4 0.000000 0.671008 0.000000
O O5 0.828101 0.500000 0.845884
O O6 0.763731 0.734780 0.749781
O O7 0.813544 0.755654 0.905153
O O8 0.672350 0.500000 0.433025
O O9 0.750000 0.750000 0.500000
O O10 0.681392 0.716657 0.350442
O O11 0.596657 0.745393 0.435832
O O12 0.246786 0.500000 0.681972
O O13 0.161431 0.279321 0.591863
O O14 0.185885 0.000000 0.017655
O O15 0.250000 0.750000 0.000000
O O16 0.087120 0.500000 0.497904
O O17 0.000000 0.723723 0.500000
#
# Coordination Sequence:
#
# PCOD9193235 Si02
#       6
#     8   8   8   8   8   8
#     4   8  16  32  51  72  98 127 163 202 240 290
#     4  10  20  34  53  76 102 133 168 207 252 300
#     4   9  17  30  49  72  97 127 165 205 245 293
#     4   9  18  32  50  73 100 131 169 213 255 296
#     4  11  21  34  54  77 103 134 168 206 249 299
#     4   9  18  33  52  74 102 136 171 207 252 304
#
# _framework density 17.116513000000001
#
# number of rings (size 3 to 8) (size 9 to 14) (size 15 to 20)
#    0.000    2.667    0.000    4.500    0.000    7.333 
#    0.000    1.667    0.000    6.000    0.000    0.000 
#    0.000    0.000    0.000    0.000    0.000    0.000 
#
# Total GULP energy -133692.188941 kJ/mol
# GULP energy per Si atom -5570.507873 kJ/mol
# Density = 1.707755 g / cm^3
# Si number density = 17.116513 Si / 1000 Ang^3
#
#
#
# Elastic Constant Matrix: (Units=GPa)
#
#
# Indices 1 2 3 4 5 6 
#
# 1 138.5794 59.4638 40.6064 0.0000 -4.4024 0.0000
# 2 59.4638 71.2308 33.6472 0.0000 -5.7089 0.0000
# 3 40.6064 33.6472 69.9747 0.0000 -3.5052 0.0000
# 4 0.0000 0.0000 0.0000 23.5908 0.0000 -2.6518
# 5 -4.4024 -5.7089 -3.5052 0.0000 17.0557 0.0000
# 6 0.0000 0.0000 0.0000 -2.6518 0.0000 29.1801
#
#
#
# Elastic Compliance Matrix: (Units=1/GPa)
#
#
# Indices 1 2 3 4 5 6 
#
# 1 0.011625 -0.008462 -0.002696 0.000000 -0.000386 0.000000
# 2 -0.008462 0.024646 -0.006706 0.000000 0.004687 0.000000
# 3 -0.002696 -0.006706 0.019130 0.000000 0.000991 0.000000
# 4 0.000000 0.000000 0.000000 0.042827 0.000000 0.003892
# 5 -0.000386 0.004687 0.000991 0.000000 0.060304 0.000000
# 6 0.000000 0.000000 0.000000 0.003892 0.000000 0.034624
#
#
# Mechanical properties :
#
#
# Convention : Reuss Voigt Hill
#
# Bulk Modulus (GPa) = 50.83206 60.80219 55.81713
# Shear Modulus (GPa) = 21.23674 23.70314 22.46994
#
# Velocity S-wave (km/s) = 3.52620 3.72534 3.62714
# Velocity P-wave (km/s) = 6.80742 7.35553 7.08678
#
# Compressibility (1/GPa) = 0.01967262
#
# Stress axis : x y z
#
# Youngs Moduli (GPa) = 86.02307 40.57444 52.27445
#
# Poissons Ratio (x) = 0.34333 0.14095
# Poissons Ratio (y) = 0.72790 0.35055
# Poissons Ratio (z) = 0.23196 0.27209
#
# Static dielectric constant tensor:
#      x y z
#    x 1.624030 0.000000 0.023540 
#    y 0.000000 1.574500 0.000000 
#    z 0.023540 0.000000 1.593330 
# 
# From -- ./inp_files/313377.got.cif
#   From: 2010.05.17/outbox.cif.g08.bks.cpg/sg12_157_cif.got.tgz:313377.got - 2010.06.03 13:09:07.
