data_PCOD9193923
_publ_section_title
;
Structure prediction by ZEFSAII (Michael W. Deem and Ramdas Pophale) SiO2 
 PCOD9193923
Probable space group: C 2/M
;
_chemical_formula_sum "Si O2"
_cell_formula_units_Z 64
_cell_length_a 17.301478
_cell_length_b 12.170835
_cell_length_c 27.362772
_cell_angle_alpha 90.000000
_cell_angle_beta 150.972218
_cell_angle_gamma 90.000000
_cell_volume 2795.854631
_symmetry_space_group_name_H-M "C 2/M"
_symmetry_group_IT_number 12
_symmetry_cell_setting 'monoclinic'
loop_
_space_group_symop_operation_xyz
x,y,z
-x,y,-z
-x,-y,-z
x,-y,z
1/2+x,1/2+y,z
1/2-x,1/2+y,-z
1/2-x,1/2-y,-z
1/2+x,1/2-y,z
loop_
_atom_site_type_symbol
_atom_site_label
_atom_site_fract_x
_atom_site_fract_y
_atom_site_fract_z
Si Si1 0.229810 0.881645 0.229220
Si Si2 0.658718 0.230965 0.558595
Si Si3 0.029095 0.874885 0.289975
Si Si4 0.969922 0.117476 0.592979
Si Si5 0.623508 0.116843 0.950201
Si Si6 0.107664 0.372191 0.782100
Si Si7 0.375872 0.342762 0.005942
Si Si8 0.208685 0.668388 0.279651
O O1 0.353689 0.858682 0.254144
O O2 0.215960 0.792655 0.263621
O O3 0.267290 0.000000 0.271079
O O4 0.055026 0.883040 0.108019
O O5 0.500000 0.199337 0.500000
O O6 0.788482 0.137051 0.625692
O O7 0.613345 0.283134 0.481480
O O8 0.736952 0.328656 0.634569
O O9 0.026883 0.873368 0.347377
O O10 0.958839 0.750733 0.237867
O O11 0.969627 0.000000 0.242075
O O12 0.151674 0.114367 0.674400
O O13 0.893194 0.000000 0.537605
O O14 0.777337 0.125844 0.000508
O O15 0.467674 0.127042 0.829376
O O16 0.620745 0.000000 0.973317
O O17 0.617035 0.211504 0.986120
O O18 0.038538 0.500000 0.749856
O O19 0.272301 0.378507 0.903225
#
# Coordination Sequence:
#
# PCOD9193923 Si02
#       8
#     8   8   8   8   8   8   8   8
#     4  10  20  36  59  84 119 159 204 259 309 360
#     4  10  23  40  64  93 123 160 209 257 308 374
#     4  11  24  43  65  94 132 166 201 255 321 377
#     4  10  21  40  64  90 125 165 208 257 313 374
#     4  10  20  34  54  82 122 164 201 251 313 372
#     4  11  22  39  64  91 120 162 215 260 304 366
#     4  10  21  35  55  87 120 159 211 259 305 358
#     4  10  20  37  59  90 122 159 209 258 313 367
#
# _framework density 22.891031999999999
#
# number of rings (size 3 to 8) (size 9 to 14) (size 15 to 20)
#    0.000    1.750    1.250    3.000    0.000    5.500 
#    0.000    2.500    0.000    2.250    0.000    0.000 
#    0.000    0.000    0.000    0.000    0.000    0.000 
#
# Total GULP energy -178408.754829 kJ/mol
# GULP energy per Si atom -5575.273588 kJ/mol
# Density = 2.283893 g / cm^3
# Si number density = 22.891032 Si / 1000 Ang^3
#
#
#
# Elastic Constant Matrix: (Units=GPa)
#
#
# Indices 1 2 3 4 5 6 
#
# 1 33.5678 0.9448 6.0330 0.0002 4.8624 0.0002
# 2 0.9448 175.6391 22.6141 0.0007 7.5898 0.0010
# 3 6.0330 22.6141 59.6329 0.0069 4.6032 0.0083
# 4 0.0002 0.0007 0.0069 636.3985 0.0012 953.1445
# 5 4.8624 7.5898 4.6032 0.0012 23.9976 0.0015
# 6 0.0002 0.0010 0.0083 953.1445 0.0015 1322.1010
#
#
#
# Elastic Compliance Matrix: (Units=1/GPa)
#
#
# Indices 1 2 3 4 5 6 
#
# 1 0.031149 0.000457 -0.002869 0.000000 -0.005906 0.000000
# 2 0.000457 0.006045 -0.002217 0.000000 -0.001579 0.000000
# 3 -0.002869 -0.002217 0.018069 0.000000 -0.002184 0.000000
# 4 0.000000 0.000000 0.000000 -0.019703 0.000000 0.014205
# 5 -0.005906 -0.001579 -0.002184 0.000000 0.043786 0.000000
# 6 0.000000 0.000000 0.000000 0.014205 0.000000 -0.009484
#
#
# Mechanical properties :
#
#
# Convention : Reuss Voigt Hill
#
# Bulk Modulus (GPa) = 21.73662 36.44707 29.09185
# Shear Modulus (GPa) = 52.93675 412.44927 232.69301
#
# Velocity S-wave (km/s) = 4.81412 13.43765 10.09322
# Velocity P-wave (km/s) = 6.35746 16.02240 12.18882
#
# Compressibility (1/GPa) = 0.04600531
#
# Stress axis : x y z
#
# Youngs Moduli (GPa) = 32.10411 165.43493 55.34450
#
# Poissons Ratio (x) = -0.07560 0.15877
# Poissons Ratio (y) = -0.01467 0.12268
# Poissons Ratio (z) = 0.09210 0.36670
#
# Static dielectric constant tensor:
#      x y z
#    x 1.830010 0.000000 0.027540 
#    y 0.000000 1.994280 0.000000 
#    z 0.027540 0.000000 1.865030 
# 
# From -- ./inp_files/379108.got.cif
#   From: 2010.05.17/outbox.cif.g08.bks.cpg/sg12_190_cif.got.tgz:379108.got - 2010.06.03 13:09:07.
