data_PCOD9193265
_publ_section_title
;
Structure prediction by ZEFSAII (Michael W. Deem and Ramdas Pophale) SiO2 
 PCOD9193265
Probable space group: C 2/M
;
_chemical_formula_sum "Si O2"
_cell_formula_units_Z 64
_cell_length_a 16.934789
_cell_length_b 29.161567
_cell_length_c 14.546103
_cell_angle_alpha 90.000000
_cell_angle_beta 30.801430
_cell_angle_gamma 90.000000
_cell_volume 3678.424163
_symmetry_space_group_name_H-M "C 2/M"
_symmetry_group_IT_number 12
_symmetry_cell_setting 'monoclinic'
loop_
_space_group_symop_operation_xyz
x,y,z
-x,y,-z
-x,-y,-z
x,-y,z
1/2+x,1/2+y,z
1/2-x,1/2+y,-z
1/2-x,1/2-y,-z
1/2+x,1/2-y,z
loop_
_atom_site_type_symbol
_atom_site_label
_atom_site_fract_x
_atom_site_fract_y
_atom_site_fract_z
Si Si1 0.684854 0.372410 0.960806
Si Si2 0.186038 0.625765 0.663785
Si Si3 0.686039 0.874235 0.964138
Si Si4 0.314328 0.799018 0.185672
Si Si5 0.316646 0.197345 0.683354
Si Si6 0.812087 0.552287 0.187913
Si Si7 0.184856 0.872410 0.669485
Si Si8 0.187436 0.052090 0.812564
O O1 0.751470 0.329672 0.837034
O O2 0.733134 0.417997 0.855742
O O3 0.742228 0.373438 0.007296
O O4 0.499999 0.369838 0.142926
O O5 0.226911 0.670251 0.684175
O O6 0.233926 0.581596 0.676516
O O7 0.257770 0.626561 0.491753
O O8 0.999999 0.624891 0.842261
O O9 0.726912 0.829749 0.862001
O O10 0.733926 0.918404 0.855633
O O11 0.237437 0.749706 0.262563
O O12 0.500000 0.793752 0.000000
O O13 0.500000 0.194594 0.500000
O O14 0.251472 0.170328 0.660023
O O15 0.757737 0.500000 0.242263
O O16 0.000000 0.551778 0.000000
O O17 0.233135 0.917997 0.677990
O O18 0.244629 0.000000 0.755372
O O19 0.000000 0.050457 0.000000
#
# Coordination Sequence:
#
# PCOD9193265 Si02
#       8
#     8   8   8   8   8   8   8   8
#     4  10  20  34  53  76 104 136 167 206 255 303
#     4   9  18  33  53  76 103 136 172 210 250 296
#     4   9  18  33  53  76 103 136 172 210 250 296
#     4   9  19  36  54  73 101 135 170 208 252 299
#     4  11  22  36  55  76  99 129 168 213 255 301
#     4   8  15  30  52  77 106 139 173 210 252 296
#     4  10  20  34  53  76 104 136 167 206 255 303
#     4   8  16  32  51  71  98 133 169 202 243 296
#
# _framework density 17.398754
#
# number of rings (size 3 to 8) (size 9 to 14) (size 15 to 20)
#    0.000    2.750    0.000    4.125    0.000    3.000 
#    0.000    1.875    0.000   13.500    0.000    0.000 
#    0.000    0.000    0.000    0.000    0.000    0.000 
#
# Total GULP energy -178460.718742 kJ/mol
# GULP energy per Si atom -5576.897461 kJ/mol
# Density = 1.735915 g / cm^3
# Si number density = 17.398754 Si / 1000 Ang^3
#
#
#
# Elastic Constant Matrix: (Units=GPa)
#
#
# Indices 1 2 3 4 5 6 
#
# 1 150.2677 92.6394 57.6268 0.0001 36.3315 -0.0004
# 2 92.6394 191.4477 67.9281 0.0000 25.0639 0.0000
# 3 57.6268 67.9281 82.3786 -0.0004 32.5267 0.0005
# 4 0.0001 0.0000 -0.0004 11.6059 0.0003 -3.8209
# 5 36.3315 25.0639 32.5267 0.0003 32.2688 0.0000
# 6 -0.0004 0.0000 0.0005 -3.8209 0.0000 7.8386
#
#
#
# Elastic Compliance Matrix: (Units=1/GPa)
#
#
# Indices 1 2 3 4 5 6 
#
# 1 0.011822 -0.004051 -0.001523 0.000000 -0.008630 0.000001
# 2 -0.004051 0.008780 -0.005838 0.000000 0.003625 0.000000
# 3 -0.001523 -0.005838 0.025832 0.000001 -0.019790 -0.000001
# 4 0.000000 0.000000 0.000001 0.102633 -0.000002 0.050027
# 5 -0.008630 0.003625 -0.019790 -0.000002 0.057838 0.000000
# 6 0.000001 0.000000 -0.000001 0.050027 0.000000 0.151959
#
#
# Mechanical properties :
#
#
# Convention : Reuss Voigt Hill
#
# Bulk Modulus (GPa) = 42.35127 95.60918 68.98022
# Shear Modulus (GPa) = 12.83510 24.06931 18.45220
#
# Velocity S-wave (km/s) = 2.71901 3.72343 3.26014
# Velocity P-wave (km/s) = 5.85250 8.57650 7.34194
#
# Compressibility (1/GPa) = 0.02361205
#
# Stress axis : x y z
#
# Youngs Moduli (GPa) = 84.58464 113.89305 38.71185
#
# Poissons Ratio (x) = 0.46135 0.05894
# Poissons Ratio (y) = 0.34263 0.22600
# Poissons Ratio (z) = 0.12879 0.66489
#
# Static dielectric constant tensor:
#      x y z
#    x 1.569240 0.000000 -0.009030 
#    y 0.000000 1.583900 0.000000 
#    z -0.009030 0.000000 1.578140 
# 
# From -- ./inp_files/228497.got.cif
#   From: 2010.05.17/outbox.cif.g08.bks.cpg/sg12_115_cif.got.tgz:228497.got - 2010.06.03 13:09:07.
