data_PCOD9193545
_publ_section_title
;
Structure prediction by ZEFSAII (Michael W. Deem and Ramdas Pophale) SiO2 
 PCOD9193545
Probable space group: C 2/M
;
_chemical_formula_sum "Si O2"
_cell_formula_units_Z 56
_cell_length_a 30.112560
_cell_length_b 9.014327
_cell_length_c 12.608283
_cell_angle_alpha 90.000000
_cell_angle_beta 58.911345
_cell_angle_gamma 90.000000
_cell_volume 2930.880070
_symmetry_space_group_name_H-M "C 2/M"
_symmetry_group_IT_number 12
_symmetry_cell_setting 'monoclinic'
loop_
_space_group_symop_operation_xyz
x,y,z
-x,y,-z
-x,-y,-z
x,-y,z
1/2+x,1/2+y,z
1/2-x,1/2+y,-z
1/2-x,1/2-y,-z
1/2+x,1/2-y,z
loop_
_atom_site_type_symbol
_atom_site_label
_atom_site_fract_x
_atom_site_fract_y
_atom_site_fract_z
Si Si1 0.106669 0.177179 0.863493
Si Si2 0.908046 0.822039 0.873128
Si Si3 0.908032 0.677211 0.331687
Si Si4 0.198591 0.666301 0.028250
Si Si5 0.285742 0.833460 0.240884
Si Si6 0.210272 0.677576 0.464514
Si Si7 0.999627 0.321344 0.624452
O O1 0.077807 0.244735 0.797128
O O2 0.165319 0.238654 0.780039
O O3 0.106240 0.000000 0.857864
O O4 0.088187 0.219804 0.005433
O O5 0.854262 0.757645 0.893198
O O6 0.954242 0.755429 0.747165
O O7 0.907511 0.000000 0.869268
O O8 0.909578 0.500000 0.312355
O O9 0.849146 0.715620 0.437724
O O10 0.947248 0.713494 0.378406
O O11 0.194731 0.500000 0.078899
O O12 0.250000 0.750000 0.000000
O O13 0.205292 0.653187 0.894054
O O14 0.232240 0.750805 0.330600
O O15 0.286656 0.000000 0.286854
O O16 0.215465 0.500000 0.455037
O O17 0.250000 0.750000 0.500000
O O18 0.992459 0.500000 0.636718
O O19 0.000000 0.277383 0.500000
#
# Coordination Sequence:
#
# PCOD9193545 Si02
#       7
#     8   8   8   8   8   8   8
#     4  10  20  35  58  87 118 151 191 239 296 360
#     4  10  22  40  62  89 120 155 195 246 305 358
#     4  10  22  38  58  85 118 156 200 248 297 356
#     4  10  21  37  59  87 119 156 199 246 295 352
#     4  10  20  34  53  81 118 156 192 237 292 350
#     4  11  21  33  53  83 119 157 194 237 291 352
#     4  10  23  44  65  86 115 156 204 250 299 357
#
# _framework density 19.106888000000001
#
# number of rings (size 3 to 8) (size 9 to 14) (size 15 to 20)
#    0.000    1.857    1.429    2.143    0.000    6.571 
#    0.000    4.286    0.000    0.000    0.000    0.000 
#    0.000    0.000    0.000    0.000    0.000    0.000 
#
# Total GULP energy -156223.161336 kJ/mol
# GULP energy per Si atom -5579.398619 kJ/mol
# Density = 1.906340 g / cm^3
# Si number density = 19.106888 Si / 1000 Ang^3
#
#
#
# Elastic Constant Matrix: (Units=GPa)
#
#
# Indices 1 2 3 4 5 6 
#
# 1 135.2952 54.2071 68.7867 0.0000 -1.8923 0.0000
# 2 54.2071 67.4857 54.8148 0.0000 -4.0557 0.0000
# 3 68.7867 54.8148 125.5126 0.0000 -15.2208 0.0000
# 4 0.0000 0.0000 0.0000 34.9486 0.0000 -0.4128
# 5 -1.8923 -4.0557 -15.2208 0.0000 27.5646 0.0000
# 6 0.0000 0.0000 0.0000 -0.4128 0.0000 25.5239
#
#
#
# Elastic Compliance Matrix: (Units=1/GPa)
#
#
# Indices 1 2 3 4 5 6 
#
# 1 0.012019 -0.006530 -0.004021 0.000000 -0.002356 0.000000
# 2 -0.006530 0.026650 -0.008187 0.000000 -0.001048 0.000000
# 3 -0.004021 -0.008187 0.014541 0.000000 0.006548 0.000000
# 4 0.000000 0.000000 0.000000 0.028619 0.000000 0.000463
# 5 -0.002356 -0.001048 0.006548 0.000000 0.039578 0.000000
# 6 0.000000 0.000000 0.000000 0.000463 0.000000 0.039186
#
#
# Mechanical properties :
#
#
# Convention : Reuss Voigt Hill
#
# Bulk Modulus (GPa) = 63.55752 75.99007 69.77379
# Shear Modulus (GPa) = 24.59261 27.63975 26.11618
#
# Velocity S-wave (km/s) = 3.59152 3.80753 3.70110
# Velocity P-wave (km/s) = 7.10880 7.69331 7.40683
#
# Compressibility (1/GPa) = 0.01573378
#
# Stress axis : x y z
#
# Youngs Moduli (GPa) = 83.20374 37.52367 68.77241
#
# Poissons Ratio (x) = 0.24501 0.27652
# Poissons Ratio (y) = 0.54328 0.56306
# Poissons Ratio (z) = 0.33455 0.30722
#
# Static dielectric constant tensor:
#      x y z
#    x 1.671200 0.000000 0.034980 
#    y 0.000000 1.673870 0.000000 
#    z 0.034980 0.000000 1.711900 
# 
# From -- ./inp_files/187160.got.cif
#   From: 2010.05.17/outbox.cif.g08.bks.cpg/sg12_94_cif.got.tgz:187160.got - 2010.06.03 13:09:07.
