data_PCOD9193959
_publ_section_title
;
Structure prediction by ZEFSAII (Michael W. Deem and Ramdas Pophale) SiO2 
 PCOD9193959
Probable space group: C 2/M
;
_chemical_formula_sum "Si O2"
_cell_formula_units_Z 44
_cell_length_a 17.376735
_cell_length_b 25.039061
_cell_length_c 13.930175
_cell_angle_alpha 90.000000
_cell_angle_beta 21.644709
_cell_angle_gamma 90.000000
_cell_volume 2235.591928
_symmetry_space_group_name_H-M "C 2/M"
_symmetry_group_IT_number 12
_symmetry_cell_setting 'monoclinic'
loop_
_space_group_symop_operation_xyz
x,y,z
-x,y,-z
-x,-y,-z
x,-y,z
1/2+x,1/2+y,z
1/2-x,1/2+y,-z
1/2-x,1/2-y,-z
1/2+x,1/2-y,z
loop_
_atom_site_type_symbol
_atom_site_label
_atom_site_fract_x
_atom_site_fract_y
_atom_site_fract_z
Si Si1 0.139943 0.059572 0.430574
Si Si2 0.555194 0.149344 0.331649
Si Si3 0.010242 0.104073 0.769205
Si Si4 0.133273 0.306315 0.644124
Si Si5 0.209570 0.940037 0.710187
Si Si6 0.000000 0.648193 0.000000
O O1 0.306431 0.106953 0.224841
O O2 0.000000 0.056533 0.500000
O O3 0.988126 0.077575 0.691989
O O4 0.230248 0.000000 0.344273
O O5 0.500000 0.175186 0.500000
O O6 0.503969 0.182674 0.293580
O O7 0.403956 0.097782 0.500620
O O8 0.790928 0.127777 0.057668
O O9 0.178173 0.151382 0.574141
O O10 0.131599 0.060348 0.691785
O O11 0.250000 0.250000 0.500000
O O12 0.015257 0.317098 0.883193
O O13 0.245335 0.000000 0.704625
O O14 0.000000 0.916288 0.000000
#
# Coordination Sequence:
#
# PCOD9193959 Si02
#       6
#     8   8   8   8   8   4
#     4  10  20  35  59  87 117 155 197 244 294 353
#     4  11  22  38  60  88 123 164 201 252 305 358
#     4  10  21  38  57  85 123 154 203 253 302 357
#     4  10  24  42  64  89 116 157 201 256 310 365
#     4  10  20  34  54  83 120 163 200 234 287 355
#     4  10  21  42  62  86 120 154 197 246 300 360
#
# _framework density 19.681588000000001
#
# number of rings (size 3 to 8) (size 9 to 14) (size 15 to 20)
#    0.000    1.818    1.818    1.909    0.000    4.000 
#    0.000    8.182    0.000    0.000    0.000    0.000 
#    0.000    0.000    0.000    0.000    0.000    0.000 
#
# Total GULP energy -122514.400580 kJ/mol
# GULP energy per Si atom -5568.836390 kJ/mol
# Density = 1.963679 g / cm^3
# Si number density = 19.681588 Si / 1000 Ang^3
#
#
#
# Elastic Constant Matrix: (Units=GPa)
#
#
# Indices 1 2 3 4 5 6 
#
# 1 133.5218 28.7447 21.4644 -0.0177 19.7686 0.0462
# 2 28.7447 77.0364 8.8910 0.0460 9.4252 0.0379
# 3 21.4644 8.8910 70.4993 0.3170 15.3508 -0.0129
# 4 -0.0177 0.0460 0.3170 13.9544 -0.0591 7.2451
# 5 19.7686 9.4252 15.3508 -0.0591 31.4724 -0.0406
# 6 0.0462 0.0379 -0.0129 7.2451 -0.0406 9.5240
#
#
#
# Elastic Compliance Matrix: (Units=1/GPa)
#
#
# Indices 1 2 3 4 5 6 
#
# 1 0.008903 -0.002652 -0.001490 0.000105 -0.004071 -0.000132
# 2 -0.002652 0.014318 -0.000478 -0.000035 -0.002389 -0.000028
# 3 -0.001490 -0.000478 0.016186 -0.000658 -0.006816 0.000502
# 4 0.000105 -0.000035 -0.000658 0.118469 0.000371 -0.090121
# 5 -0.004071 -0.002389 -0.006816 0.000371 0.038372 -0.000099
# 6 -0.000132 -0.000028 0.000502 -0.090121 -0.000099 0.173555
#
#
# Mechanical properties :
#
#
# Convention : Reuss Voigt Hill
#
# Bulk Modulus (GPa) = 33.14948 44.36198 38.75573
# Shear Modulus (GPa) = 12.85027 25.78734 19.31881
#
# Velocity S-wave (km/s) = 2.55798 3.62363 3.13640
# Velocity P-wave (km/s) = 5.06002 6.33217 5.73150
#
# Compressibility (1/GPa) = 0.03016638
#
# Stress axis : x y z
#
# Youngs Moduli (GPa) = 112.32633 69.84296 61.78291
#
# Poissons Ratio (x) = 0.18521 0.09207
# Poissons Ratio (y) = 0.29787 0.02953
# Poissons Ratio (z) = 0.16738 0.03338
#
# Static dielectric constant tensor:
#      x y z
#    x 2.177270 -0.000090 0.208200 
#    y -0.000090 1.767720 0.000320 
#    z 0.208200 0.000320 1.729370 
# 
# From -- ./inp_files/228064.got.cif
#   From: 2010.05.17/outbox.cif.g08.bks.cpg/sg12_115_cif.got.tgz:228064.got - 2010.06.03 13:09:07.
