data_PCOD9193577
_publ_section_title
;
Structure prediction by ZEFSAII (Michael W. Deem and Ramdas Pophale) SiO2 
 PCOD9193577
Probable space group: C 2/M
;
_chemical_formula_sum "Si O2"
_cell_formula_units_Z 32
_cell_length_a 28.010616
_cell_length_b 10.696489
_cell_length_c 5.235085
_cell_angle_alpha 90.000000
_cell_angle_beta 115.122478
_cell_angle_gamma 90.000000
_cell_volume 1420.133735
_symmetry_space_group_name_H-M "C 2/M"
_symmetry_group_IT_number 12
_symmetry_cell_setting 'monoclinic'
loop_
_space_group_symop_operation_xyz
x,y,z
-x,y,-z
-x,-y,-z
x,-y,z
1/2+x,1/2+y,z
1/2-x,1/2+y,-z
1/2-x,1/2-y,-z
1/2+x,1/2-y,z
loop_
_atom_site_type_symbol
_atom_site_label
_atom_site_fract_x
_atom_site_fract_y
_atom_site_fract_z
Si Si1 0.054558 0.279214 0.680918
Si Si2 0.763796 0.862589 0.719919
Si Si3 0.163456 0.723106 0.752172
Si Si4 0.583865 0.645211 0.258378
O O1 0.111194 0.342084 0.748172
O O2 0.054956 0.170201 0.463864
O O3 0.000000 0.349053 0.500000
O O4 0.058641 0.223642 0.972287
O O5 0.750000 0.750000 0.500000
O O6 0.713093 0.860437 0.794659
O O7 0.768476 0.000000 0.613658
O O8 0.814817 0.825884 0.000769
O O9 0.141014 0.796323 0.454204
O O10 0.585393 0.500000 0.200210
#
# Coordination Sequence:
#
# PCOD9193577 Si02
#       4
#     8   8   8   8
#     4  10  21  35  55  86 126 168 209 259 319 387
#     4  11  23  42  65  94 129 170 220 273 328 385
#     4   9  23  38  58  89 125 170 210 262 319 388
#     4  10  20  34  53  85 126 167 211 258 316 382
#
# _framework density 22.533086999999998
#
# number of rings (size 3 to 8) (size 9 to 14) (size 15 to 20)
#    1.500    0.500    0.000    3.750    0.000   10.000 
#    0.000    0.000    0.000    0.750    0.000    3.500 
#    0.000    0.000    0.000    0.000    0.000    0.000 
#
# Total GULP energy -89152.092163 kJ/mol
# GULP energy per Si atom -5572.005760 kJ/mol
# Density = 2.248180 g / cm^3
# Si number density = 22.533087 Si / 1000 Ang^3
#
#
#
# Elastic Constant Matrix: (Units=GPa)
#
#
# Indices 1 2 3 4 5 6 
#
# 1 118.1647 5.1652 27.3274 0.0000 28.7882 0.0000
# 2 5.1652 98.1289 32.2936 0.0000 3.3031 0.0000
# 3 27.3274 32.2936 160.4586 0.0000 12.8631 0.0000
# 4 0.0000 0.0000 0.0000 6.5092 0.0000 -7.2378
# 5 28.7882 3.3031 12.8631 0.0000 47.3065 0.0000
# 6 0.0000 0.0000 0.0000 -7.2378 0.0000 4.4988
#
#
#
# Elastic Compliance Matrix: (Units=1/GPa)
#
#
# Indices 1 2 3 4 5 6 
#
# 1 0.010182 0.000083 -0.001281 0.000000 -0.005853 0.000000
# 2 0.000083 0.010915 -0.002194 0.000000 -0.000216 0.000000
# 3 -0.001281 -0.002194 0.006969 0.000000 -0.000962 0.000000
# 4 0.000000 0.000000 0.000000 -0.194731 0.000000 -0.313289
# 5 -0.005853 -0.000216 -0.000962 0.000000 0.024977 0.000000
# 6 0.000000 0.000000 0.000000 -0.313289 0.000000 -0.281748
#
#
# Mechanical properties :
#
#
# Convention : Reuss Voigt Hill
#
# Bulk Modulus (GPa) = 46.98913 56.25830 51.62372
# Shear Modulus (GPa) = -12.20832 32.46062 10.12615
#
# Velocity S-wave (km/s) = -2.33017 3.79961 2.12218
# Velocity P-wave (km/s) = 3.69581 6.65361 5.38190
#
# Compressibility (1/GPa) = 0.02128152
#
# Stress axis : x y z
#
# Youngs Moduli (GPa) = 98.21715 91.61289 143.49313
#
# Poissons Ratio (x) = -0.00759 0.18388
# Poissons Ratio (y) = -0.00813 0.31477
# Poissons Ratio (z) = 0.12586 0.20096
#
# Static dielectric constant tensor:
#      x y z
#    x 2.015020 0.000000 -0.017350 
#    y 0.000000 1.777360 0.000000 
#    z -0.017350 0.000000 1.805880 
# 
# From -- ./inp_files/30490.got.cif
#   From: 2010.05.17/outbox.cif.g08.bks.cpg/sg12_16_cif.got.tgz:30490.got - 2010.06.03 13:09:07.
