data_PCOD9193519
_publ_section_title
;
Structure prediction by ZEFSAII (Michael W. Deem and Ramdas Pophale) SiO2 
 PCOD9193519
Probable space group: C 2/M
;
_chemical_formula_sum "Si O2"
_cell_formula_units_Z 64
_cell_length_a 32.144761
_cell_length_b 14.873920
_cell_length_c 22.482415
_cell_angle_alpha 90.000000
_cell_angle_beta 161.362449
_cell_angle_gamma 90.000000
_cell_volume 3435.253058
_symmetry_space_group_name_H-M "C 2/M"
_symmetry_group_IT_number 12
_symmetry_cell_setting 'monoclinic'
loop_
_space_group_symop_operation_xyz
x,y,z
-x,y,-z
-x,-y,-z
x,-y,z
1/2+x,1/2+y,z
1/2-x,1/2+y,-z
1/2-x,1/2-y,-z
1/2+x,1/2-y,z
loop_
_atom_site_type_symbol
_atom_site_label
_atom_site_fract_x
_atom_site_fract_y
_atom_site_fract_z
Si Si1 0.349315 0.753007 0.454424
Si Si2 0.628462 0.601907 0.140232
Si Si3 0.631177 0.243659 0.384647
Si Si4 0.823639 0.600196 0.230071
Si Si5 0.042518 0.094330 0.887460
Si Si6 0.356738 0.294759 0.331770
Si Si7 0.391991 0.105237 0.066674
Si Si8 0.362596 0.825435 0.154775
O O1 0.255188 0.838368 0.318530
O O2 0.319856 0.728194 0.483005
O O3 0.339398 0.696165 0.379766
O O4 0.500742 0.775210 0.662737
O O5 0.651332 0.500000 0.193318
O O6 0.500000 0.637458 0.000000
O O7 0.593664 0.597820 0.023913
O O8 0.750000 0.250000 0.500000
O O9 0.538487 0.320928 0.236627
O O10 0.533924 0.155788 0.252469
O O11 0.862563 0.500000 0.304455
O O12 0.854968 0.687346 0.312925
O O13 0.867751 0.620468 0.223246
O O14 0.668209 0.596990 0.016640
O O15 0.970450 0.000000 0.781818
O O16 0.500000 0.325590 0.500000
O O17 0.229154 0.342343 0.129764
O O18 0.355770 0.113415 0.087305
O O19 0.398857 0.000000 0.058438
O O20 0.250000 0.750000 0.000000
#
# Coordination Sequence:
#
# PCOD9193519 Si02
#       8
#     8   8   8   8   8   8   8   8
#     4  11  22  34  60  87 116 159 199 251 307 367
#     4  10  20  34  53  80 115 152 193 246 309 369
#     4  11  23  41  64  88 118 157 206 262 317 366
#     4  11  20  33  58  87 121 161 197 242 304 362
#     4  10  20  37  59  83 116 156 194 244 305 368
#     4  12  22  40  59  88 128 163 202 250 303 370
#     4  11  24  42  64  89 126 166 210 255 303 366
#     4  11  20  39  59  87 127 167 205 249 303 361
#
# _framework density 18.63036
#
# number of rings (size 3 to 8) (size 9 to 14) (size 15 to 20)
#    0.000    1.125    5.000    1.875    0.000    3.500 
#    0.000    0.625    0.000    0.750    0.000    0.000 
#    0.000    0.000    0.000    0.000    0.000    0.000 
#
# Total GULP energy -178195.876563 kJ/mol
# GULP energy per Si atom -5568.621143 kJ/mol
# Density = 1.858796 g / cm^3
# Si number density = 18.630360 Si / 1000 Ang^3
#
#
#
# Elastic Constant Matrix: (Units=GPa)
#
#
# Indices 1 2 3 4 5 6 
#
# 1 136.4787 16.5891 13.0914 0.0000 -10.6076 0.0000
# 2 16.5891 86.2818 18.7164 0.0000 -3.5744 0.0000
# 3 13.0914 18.7164 86.4708 0.0000 20.0051 0.0000
# 4 0.0000 0.0000 0.0000 7.5312 0.0000 2.0529
# 5 -10.6076 -3.5744 20.0051 0.0000 52.5592 0.0000
# 6 0.0000 0.0000 0.0000 2.0529 0.0000 20.3771
#
#
#
# Elastic Compliance Matrix: (Units=1/GPa)
#
#
# Indices 1 2 3 4 5 6 
#
# 1 0.007753 -0.001102 -0.001403 0.000000 0.002024 0.000000
# 2 -0.001102 0.012514 -0.002947 0.000000 0.001750 0.000000
# 3 -0.001403 -0.002947 0.013736 0.000000 -0.005712 0.000000
# 4 0.000000 0.000000 0.000000 0.136530 0.000000 -0.013755
# 5 0.002024 0.001750 -0.005712 0.000000 0.021728 0.000000
# 6 0.000000 0.000000 0.000000 -0.013755 0.000000 0.050460
#
#
# Mechanical properties :
#
#
# Convention : Reuss Voigt Hill
#
# Bulk Modulus (GPa) = 43.29321 45.11390 44.20355
# Shear Modulus (GPa) = 19.13327 33.48247 26.30787
#
# Velocity S-wave (km/s) = 3.20815 4.24394 3.76186
# Velocity P-wave (km/s) = 6.08370 6.94856 6.53046
#
# Compressibility (1/GPa) = 0.02309831
#
# Stress axis : x y z
#
# Youngs Moduli (GPa) = 128.98112 79.91341 72.79978
#
# Poissons Ratio (x) = 0.08809 0.10217
# Poissons Ratio (y) = 0.14219 0.21450
# Poissons Ratio (z) = 0.18102 0.23547
#
# Static dielectric constant tensor:
#      x y z
#    x 1.695490 0.000000 0.013230 
#    y 0.000000 1.660770 0.000000 
#    z 0.013230 0.000000 1.665760 
# 
# From -- ./inp_files/330405.got.cif
#   From: 2010.05.17/outbox.cif.g08.bks.cpg/sg12_166_cif.got.tgz:330405.got - 2010.06.03 13:09:07.
