data_PCOD9193192
_publ_section_title
;
Structure prediction by ZEFSAII (Michael W. Deem and Ramdas Pophale) SiO2 
 PCOD9193192
Probable space group: C 2/M
;
_chemical_formula_sum "Si O2"
_cell_formula_units_Z 64
_cell_length_a 29.052208
_cell_length_b 7.664920
_cell_length_c 14.507266
_cell_angle_alpha 90.000000
_cell_angle_beta 104.485274
_cell_angle_gamma 90.000000
_cell_volume 3127.827464
_symmetry_space_group_name_H-M "C 2/M"
_symmetry_group_IT_number 12
_symmetry_cell_setting 'monoclinic'
loop_
_space_group_symop_operation_xyz
x,y,z
-x,y,-z
-x,-y,-z
x,-y,z
1/2+x,1/2+y,z
1/2-x,1/2+y,-z
1/2-x,1/2-y,-z
1/2+x,1/2-y,z
loop_
_atom_site_type_symbol
_atom_site_label
_atom_site_fract_x
_atom_site_fract_y
_atom_site_fract_z
Si Si1 0.305969 0.210545 0.328161
Si Si2 0.538172 0.300999 0.231732
Si Si3 0.806177 0.708962 0.529268
Si Si4 0.560572 0.788220 0.912903
Si Si5 0.109423 0.287482 0.753123
Si Si6 0.109490 0.699167 0.119805
Si Si7 0.305261 0.789690 0.729633
Si Si8 0.987476 0.290339 0.391854
O O1 0.323199 0.274035 0.438217
O O2 0.341749 0.273848 0.267673
O O3 0.250627 0.254258 0.286625
O O4 0.308410 0.000000 0.331498
O O5 0.553549 0.500000 0.239079
O O6 0.489678 0.281171 0.148341
O O7 0.578066 0.197220 0.196592
O O8 0.525112 0.248666 0.329530
O O9 0.813079 0.500000 0.533379
O O10 0.750000 0.750000 0.500000
O O11 0.822024 0.776555 0.636903
O O12 0.598755 0.741058 0.853206
O O13 0.554717 0.000000 0.911693
O O14 0.578620 0.724250 0.020907
O O15 0.109453 0.500000 0.750327
O O16 0.063805 0.228217 0.670667
O O17 0.118783 0.500000 0.094590
O O18 0.159944 0.779147 0.173794
O O19 0.310299 0.000000 0.730656
O O20 0.984519 0.500000 0.396309
O O21 0.000000 0.223961 0.500000
#
# Coordination Sequence:
#
# PCOD9193192 Si02
#       8
#     8   8   8   8   8   8   8   8
#     4   9  16  28  47  68  93 127 161 194 239 296
#     4  11  22  34  51  76 105 132 160 201 253 305
#     4   8  14  25  42  63  88 118 151 189 232 280
#     4   9  18  35  55  72  94 127 169 210 248 299
#     4   8  15  29  50  74  96 124 165 205 241 287
#     4  10  20  34  53  73  95 128 168 211 255 298
#     4   9  18  31  46  68  96 123 159 207 250 290
#     4   9  18  34  56  79 104 136 172 205 237 285
#
# _framework density 20.461486000000001
#
# number of rings (size 3 to 8) (size 9 to 14) (size 15 to 20)
#    0.000    2.875    0.000    2.250    0.000    3.750 
#    0.000    6.875    0.000    4.500    0.000    0.000 
#    0.000    0.000    0.000    0.000    0.000    0.000 
#
# Total GULP energy -178339.441933 kJ/mol
# GULP energy per Si atom -5573.107560 kJ/mol
# Density = 2.041491 g / cm^3
# Si number density = 20.461486 Si / 1000 Ang^3
#
#
#
# Elastic Constant Matrix: (Units=GPa)
#
#
# Indices 1 2 3 4 5 6 
#
# 1 73.3296 -5.0289 28.0586 0.0000 -16.3453 0.0000
# 2 -5.0289 40.7009 2.6209 0.0000 1.5127 0.0000
# 3 28.0586 2.6209 112.5873 0.0000 -3.0002 0.0000
# 4 0.0000 0.0000 0.0000 4.5099 0.0000 3.0224
# 5 -16.3453 1.5127 -3.0002 0.0000 18.2432 0.0000
# 6 0.0000 0.0000 0.0000 3.0224 0.0000 12.2545
#
#
#
# Elastic Compliance Matrix: (Units=1/GPa)
#
#
# Indices 1 2 3 4 5 6 
#
# 1 0.019054 0.002034 -0.004365 0.000000 0.016186 0.000000
# 2 0.002034 0.024907 -0.001098 0.000000 -0.000424 0.000000
# 3 -0.004365 -0.001098 0.009937 0.000000 -0.002185 0.000000
# 4 0.000000 0.000000 0.000000 0.265641 0.000000 -0.065516
# 5 0.016186 -0.000424 -0.002185 0.000000 0.068993 0.000000
# 6 0.000000 0.000000 0.000000 -0.065516 0.000000 0.097761
#
#
# Mechanical properties :
#
#
# Convention : Reuss Voigt Hill
#
# Bulk Modulus (GPa) = 21.25805 30.87989 26.06897
# Shear Modulus (GPa) = 9.82644 20.39933 15.11288
#
# Velocity S-wave (km/s) = 2.19382 3.16090 2.72067
# Velocity P-wave (km/s) = 4.10231 5.33349 4.75790
#
# Compressibility (1/GPa) = 0.04704099
#
# Stress axis : x y z
#
# Youngs Moduli (GPa) = 52.48113 40.14903 100.63312
#
# Poissons Ratio (x) = -0.08166 0.43924
# Poissons Ratio (y) = -0.10674 0.11049
# Poissons Ratio (z) = 0.22907 0.04408
#
# Static dielectric constant tensor:
#      x y z
#    x 1.707840 0.000000 -0.005480 
#    y 0.000000 1.735890 0.000000 
#    z -0.005480 0.000000 1.765610 
# 
# From -- ./inp_files/244180.got.cif
#   From: 2010.05.17/outbox.cif.g08.bks.cpg/sg12_123_cif.got.tgz:244180.got - 2010.06.03 13:09:07.
