data_PCOD9193789
_publ_section_title
;
Structure prediction by ZEFSAII (Michael W. Deem and Ramdas Pophale) SiO2 
 PCOD9193789
Probable space group: C 2/M
;
_chemical_formula_sum "Si O2"
_cell_formula_units_Z 64
_cell_length_a 21.179505
_cell_length_b 19.832999
_cell_length_c 8.830516
_cell_angle_alpha 90.000000
_cell_angle_beta 90.000000
_cell_angle_gamma 90.000000
_cell_volume 3709.285634
_symmetry_space_group_name_H-M "C 2/M"
_symmetry_group_IT_number 12
_symmetry_cell_setting 'monoclinic'
loop_
_space_group_symop_operation_xyz
x,y,z
-x,y,-z
-x,-y,-z
x,-y,z
1/2+x,1/2+y,z
1/2-x,1/2+y,-z
1/2-x,1/2-y,-z
1/2+x,1/2-y,z
loop_
_atom_site_type_symbol
_atom_site_label
_atom_site_fract_x
_atom_site_fract_y
_atom_site_fract_z
Si Si1 0.191202 0.291380 0.068409
Si Si2 0.240620 0.422712 0.569766
Si Si3 0.565070 0.290580 0.069061
Si Si4 0.759380 0.577288 0.069766
Si Si5 0.880861 0.076585 0.431333
Si Si6 0.934930 0.790581 0.569062
Si Si7 0.191202 0.291380 0.431591
Si Si8 0.880861 0.923415 0.068667
O O1 0.125944 0.254394 0.027961
O O2 0.196891 0.292231 0.250000
O O3 0.250000 0.250000 0.000000
O O4 0.196283 0.366539 0.002978
O O5 0.220084 0.500000 0.544122
O O6 0.246275 0.411677 0.750000
O O7 0.309912 0.415301 0.495742
O O8 0.196283 0.366539 0.497022
O O9 0.560809 0.293382 0.250000
O O10 0.500000 0.264108 0.000000
O O11 0.577518 0.365298 0.004628
O O12 0.779916 0.500000 0.044123
O O13 0.690088 0.584699 0.995743
O O14 0.922482 0.134702 0.504629
O O15 0.879812 0.083947 0.250000
O O16 0.901386 0.000000 0.467890
O O17 0.874056 0.745606 0.527961
O O18 0.000000 0.764108 0.500000
O O19 0.250000 0.250000 0.500000
O O20 0.901387 0.000000 0.032110
#
# Coordination Sequence:
#
# PCOD9193789 Si02
#       8
#     8   8   8   8   8   8   8   8
#     4  11  22  36  58  85 112 146 187 231 280 331
#     4  10  20  34  55  84 115 146 183 229 279 330
#     4  11  24  39  56  80 111 149 189 231 280 333
#     4  10  20  34  55  84 115 146 183 229 279 330
#     4  10  20  34  54  80 111 149 189 228 273 327
#     4  11  24  39  56  80 111 149 189 231 280 333
#     4  11  22  36  58  85 112 146 187 231 280 331
#     4  10  20  34  54  80 111 149 189 228 273 327
#
# _framework density 17.253996999999998
#
# number of rings (size 3 to 8) (size 9 to 14) (size 15 to 20)
#    0.000    1.500    2.500    3.000    0.000    6.500 
#    0.000    0.000    0.000    0.750    0.000    0.000 
#    0.000    0.000    0.000    0.000    0.000    0.000 
#
# Total GULP energy -178791.936097 kJ/mol
# GULP energy per Si atom -5587.248003 kJ/mol
# Density = 1.721473 g / cm^3
# Si number density = 17.253997 Si / 1000 Ang^3
#
#
#
# Elastic Constant Matrix: (Units=GPa)
#
#
# Indices 1 2 3 4 5 6 
#
# 1 118.4686 61.7764 51.6937 0.0000 0.0000 0.0000
# 2 61.7764 96.6348 44.7303 0.0000 0.0000 0.0000
# 3 51.6937 44.7303 61.1502 0.0000 0.0000 0.0000
# 4 0.0000 0.0000 0.0000 32.4724 0.0000 0.0000
# 5 0.0000 0.0000 0.0000 0.0000 28.7186 0.0000
# 6 0.0000 0.0000 0.0000 0.0000 0.0000 22.8758
#
#
#
# Elastic Compliance Matrix: (Units=1/GPa)
#
#
# Indices 1 2 3 4 5 6 
#
# 1 0.015201 -0.005699 -0.008681 0.000000 0.000000 0.000000
# 2 -0.005699 0.017782 -0.008190 0.000000 0.000000 0.000000
# 3 -0.008681 -0.008190 0.029683 0.000000 0.000000 0.000000
# 4 0.000000 0.000000 0.000000 0.030795 0.000000 0.000000
# 5 0.000000 0.000000 0.000000 0.000000 0.034821 0.000000
# 6 0.000000 0.000000 0.000000 0.000000 0.000000 0.043714
#
#
# Mechanical properties :
#
#
# Convention : Reuss Voigt Hill
#
# Bulk Modulus (GPa) = 57.05960 65.85050 61.45505
# Shear Modulus (GPa) = 22.42359 24.68356 23.55358
#
# Velocity S-wave (km/s) = 3.60893 3.78643 3.69875
# Velocity P-wave (km/s) = 7.10690 7.57392 7.34412
#
# Compressibility (1/GPa) = 0.01752553
#
# Stress axis : x y z
#
# Youngs Moduli (GPa) = 65.78458 56.23511 33.68959
#
# Poissons Ratio (x) = 0.32050 0.29248
# Poissons Ratio (y) = 0.37492 0.27591
# Poissons Ratio (z) = 0.57111 0.46055
#
# Static dielectric constant tensor:
#      x y z
#    x 1.572460 0.000000 0.000000 
#    y 0.000000 1.598560 0.000000 
#    z 0.000000 0.000000 1.572700 
# 
# From -- ./inp_files/87940.got.cif
#   From: 2010.05.17/outbox.cif.g08.bks.cpg/sg12_44_cif.got.tgz:87940.got - 2010.06.03 13:09:07.
