data_PCOD9193033
_publ_section_title
;
Structure prediction by ZEFSAII (Michael W. Deem and Ramdas Pophale) SiO2 
 PCOD9193033
Probable space group: C 2/M
;
_chemical_formula_sum "Si O2"
_cell_formula_units_Z 56
_cell_length_a 29.464725
_cell_length_b 8.700663
_cell_length_c 19.407835
_cell_angle_alpha 90.000000
_cell_angle_beta 141.293694
_cell_angle_gamma 90.000000
_cell_volume 3111.287085
_symmetry_space_group_name_H-M "C 2/M"
_symmetry_group_IT_number 12
_symmetry_cell_setting 'monoclinic'
loop_
_space_group_symop_operation_xyz
x,y,z
-x,y,-z
-x,-y,-z
x,-y,z
1/2+x,1/2+y,z
1/2-x,1/2+y,-z
1/2-x,1/2-y,-z
1/2+x,1/2-y,z
loop_
_atom_site_type_symbol
_atom_site_label
_atom_site_fract_x
_atom_site_fract_y
_atom_site_fract_z
Si Si1 0.021217 0.176628 0.734665
Si Si2 0.532870 0.816468 0.464832
Si Si3 0.067602 0.317186 0.928801
Si Si4 0.914909 0.813345 0.798819
Si Si5 0.312557 0.314587 0.395235
Si Si6 0.353415 0.676424 0.588467
Si Si7 0.331819 0.684096 0.839353
O O1 0.018463 0.261371 0.658472
O O2 0.937266 0.175422 0.661741
O O3 0.065547 0.257080 0.847963
O O4 0.043493 0.000000 0.753009
O O5 0.500000 0.776200 0.500000
O O6 0.610798 0.738089 0.545277
O O7 0.541777 0.000000 0.471434
O O8 0.066059 0.500000 0.927827
O O9 0.994184 0.253177 0.877763
O O10 0.134661 0.253971 0.052004
O O11 0.860825 0.755949 0.673706
O O12 0.884464 0.774826 0.837480
O O13 0.919449 0.000000 0.798593
O O14 0.310497 0.500000 0.394817
O O15 0.310727 0.255071 0.472941
O O16 0.246435 0.248721 0.273572
O O17 0.328646 0.500000 0.566948
O O18 0.329524 0.500000 0.841642
#
# Coordination Sequence:
#
# PCOD9193033 Si02
#       7
#     8   8   8   8   8   8   8
#     4   9  17  32  54  78 104 134 170 210 254 304
#     4  10  20  35  58  87 113 134 162 203 250 305
#     4  11  21  33  51  74 102 137 180 224 262 304
#     4   9  18  33  51  71  98 137 182 223 263 305
#     4  10  20  34  52  75 105 139 175 213 258 313
#     4   7  13  28  48  69  95 128 166 209 253 297
#     4  11  22  34  49  70 102 143 182 221 264 308
#
# _framework density 17.998982999999999
#
# number of rings (size 3 to 8) (size 9 to 14) (size 15 to 20)
#    0.000    2.429    0.000    5.143    0.000    4.571 
#    0.000    0.714    0.000    0.857    0.000    0.000 
#    0.000    0.000    0.000    0.000    0.000    0.000 
#
# Total GULP energy -156179.822392 kJ/mol
# GULP energy per Si atom -5577.850800 kJ/mol
# Density = 1.795802 g / cm^3
# Si number density = 17.998983 Si / 1000 Ang^3
#
#
#
# Elastic Constant Matrix: (Units=GPa)
#
#
# Indices 1 2 3 4 5 6 
#
# 1 -5.4609 12.4698 41.8443 0.0000 -20.5536 0.0000
# 2 12.4698 55.0572 43.2176 0.0000 -11.6882 0.0000
# 3 41.8443 43.2176 175.7336 0.0000 -23.2630 0.0000
# 4 0.0000 0.0000 0.0000 29.2133 0.0000 -3.4614
# 5 -20.5536 -11.6882 -23.2630 0.0000 25.9697 0.0000
# 6 0.0000 0.0000 0.0000 -3.4614 0.0000 14.1801
#
#
#
# Elastic Compliance Matrix: (Units=1/GPa)
#
#
# Indices 1 2 3 4 5 6 
#
# 1 -0.039458 -0.001597 0.006307 0.000000 -0.026298 0.000000
# 2 -0.001597 0.023260 -0.004676 0.000000 0.005016 0.000000
# 3 0.006307 -0.004676 0.006490 0.000000 0.008701 0.000000
# 4 0.000000 0.000000 0.000000 0.035250 0.000000 0.008605
# 5 -0.026298 0.005016 0.008701 0.000000 0.027745 0.000000
# 6 0.000000 0.000000 0.000000 0.008605 0.000000 0.072622
#
#
# Mechanical properties :
#
#
# Convention : Reuss Voigt Hill
#
# Bulk Modulus (GPa) = -103.73854 46.71036 -28.51409
# Shear Modulus (GPa) = 40.77404 22.39252 31.58328
#
# Velocity S-wave (km/s) = 4.76474 3.53101 4.19349
# Velocity P-wave (km/s) = 5.24315 6.52932 2.75149
#
# Compressibility (1/GPa) = -0.00963962
#
# Stress axis : x y z
#
# Youngs Moduli (GPa) = -25.34316 42.99233 154.07265
#
# Poissons Ratio (x) = 0.06865 -0.97173
# Poissons Ratio (y) = -0.04047 0.72045
# Poissons Ratio (z) = 0.15984 0.20103
#
# Static dielectric constant tensor:
#      x y z
#    x 1.601930 0.000000 -0.020430 
#    y 0.000000 1.611870 0.000000 
#    z -0.020430 0.000000 1.639120 
# 
# From -- ./inp_files/295172.got.cif
#   From: 2010.05.17/outbox.cif.g08.bks.cpg/sg12_148_cif.got.tgz:295172.got - 2010.06.03 13:09:07.
