data_PCOD9193010
_publ_section_title
;
Structure prediction by ZEFSAII (Michael W. Deem and Ramdas Pophale) SiO2 
 PCOD9193010
Probable space group: C 2/M
;
_chemical_formula_sum "Si O2"
_cell_formula_units_Z 56
_cell_length_a 8.684066
_cell_length_b 11.187349
_cell_length_c 34.006259
_cell_angle_alpha 90.000000
_cell_angle_beta 58.459427
_cell_angle_gamma 90.000000
_cell_volume 2815.699719
_symmetry_space_group_name_H-M "C 2/M"
_symmetry_group_IT_number 12
_symmetry_cell_setting 'monoclinic'
loop_
_space_group_symop_operation_xyz
x,y,z
-x,y,-z
-x,-y,-z
x,-y,z
1/2+x,1/2+y,z
1/2-x,1/2+y,-z
1/2-x,1/2-y,-z
1/2+x,1/2-y,z
loop_
_atom_site_type_symbol
_atom_site_label
_atom_site_fract_x
_atom_site_fract_y
_atom_site_fract_z
Si Si1 0.537636 0.702736 0.111223
Si Si2 0.524571 0.866287 0.722704
Si Si3 0.915612 0.633017 0.576329
Si Si4 0.236821 0.630913 0.316938
Si Si5 0.193447 0.866503 0.452980
Si Si6 0.055348 0.635434 0.950046
Si Si7 0.868180 0.630687 0.830460
O O1 0.727193 0.635454 0.081934
O O2 0.521926 0.790214 0.075879
O O3 0.348680 0.633980 0.137306
O O4 0.551793 0.774134 0.150231
O O5 0.647048 0.750846 0.699546
O O6 0.383642 0.868238 0.705904
O O7 0.427166 0.850095 0.777727
O O8 0.612284 0.000000 0.711629
O O9 0.858907 0.500000 0.569353
O O10 0.882179 0.634581 0.627626
O O11 0.813616 0.746957 0.572271
O O12 0.131935 0.643648 0.542108
O O13 0.333743 0.500000 0.304964
O O14 0.000000 0.868052 0.500000
O O15 0.212632 0.000000 0.431176
O O16 0.986184 0.500000 0.957266
O O17 0.000000 0.686305 0.000000
O O18 0.934890 0.500000 0.833753
#
# Coordination Sequence:
#
# PCOD9193010 Si02
#       7
#     8   8   8   8   8   8   8
#     4  10  20  34  53  76 103 135 171 212 259 309
#     4  10  21  37  57  80 108 142 179 222 270 320
#     4  10  21  36  55  80 110 143 180 222 267 318
#     4  10  21  37  55  79 110 142 179 222 267 318
#     4  10  21  37  57  82 111 143 181 224 269 318
#     4  10  20  34  52  75 103 135 171 211 256 307
#     4  10  20  35  54  77 104 135 173 215 261 312
#
# _framework density 19.888483999999998
#
# number of rings (size 3 to 8) (size 9 to 14) (size 15 to 20)
#    0.000    2.000    0.000    3.429    0.000    3.143 
#    0.000    3.571    0.000    6.857    0.000    0.000 
#    0.000    0.000    0.000    0.000    0.000    0.000 
#
# Total GULP energy -156133.922362 kJ/mol
# GULP energy per Si atom -5576.211513 kJ/mol
# Density = 1.984322 g / cm^3
# Si number density = 19.888484 Si / 1000 Ang^3
#
#
#
# Elastic Constant Matrix: (Units=GPa)
#
#
# Indices 1 2 3 4 5 6 
#
# 1 37.1407 36.9400 -16.5143 0.0000 4.0936 0.0000
# 2 36.9400 155.7978 25.1132 0.0000 6.2346 0.0000
# 3 -16.5143 25.1132 37.2122 0.0000 1.9721 0.0000
# 4 0.0000 0.0000 0.0000 129.0026 0.0000 -62.2178
# 5 4.0936 6.2346 1.9721 0.0000 27.0256 0.0000
# 6 0.0000 0.0000 0.0000 -62.2178 0.0000 59.8751
#
#
#
# Elastic Compliance Matrix: (Units=1/GPa)
#
#
# Indices 1 2 3 4 5 6 
#
# 1 0.078372 -0.026803 0.053377 0.000000 -0.009583 0.000000
# 2 -0.026803 0.016415 -0.023076 0.000000 0.001957 0.000000
# 3 0.053377 -0.023076 0.066538 0.000000 -0.007617 0.000000
# 4 0.000000 0.000000 0.000000 0.015540 0.000000 0.016148
# 5 -0.009583 0.001957 -0.007617 0.000000 0.038558 0.000000
# 6 0.000000 0.000000 0.000000 0.016148 0.000000 0.033481
#
#
# Mechanical properties :
#
#
# Convention : Reuss Voigt Hill
#
# Bulk Modulus (GPa) = 5.94102 35.69204 20.81653
# Shear Modulus (GPa) = 16.77764 55.48810 36.13287
#
# Velocity S-wave (km/s) = 2.90761 5.28774 4.26699
# Velocity P-wave (km/s) = 3.77702 7.43406 5.89623
#
# Compressibility (1/GPa) = 0.16832126
#
# Stress axis : x y z
#
# Youngs Moduli (GPa) = 12.75959 60.92013 15.02898
#
# Poissons Ratio (x) = 1.63282 -0.80220
# Poissons Ratio (y) = 0.34199 0.34681
# Poissons Ratio (z) = -0.68107 1.40581
#
# Static dielectric constant tensor:
#      x y z
#    x 1.661640 0.000000 -0.012050 
#    y 0.000000 1.736670 0.000000 
#    z -0.012050 0.000000 1.698110 
# 
# From -- ./inp_files/355770.got.cif
#   From: 2010.05.17/outbox.cif.g08.bks.cpg/sg12_178_cif.got.tgz:355770.got - 2010.06.03 13:09:07.
