data_PCOD9193868
_publ_section_title
;
Structure prediction by ZEFSAII (Michael W. Deem and Ramdas Pophale) SiO2 
 PCOD9193868
Probable space group: C 2/M
;
_chemical_formula_sum "Si O2"
_cell_formula_units_Z 64
_cell_length_a 30.773990
_cell_length_b 8.769581
_cell_length_c 14.649555
_cell_angle_alpha 90.000000
_cell_angle_beta 130.106763
_cell_angle_gamma 90.000000
_cell_volume 3023.853344
_symmetry_space_group_name_H-M "C 2/M"
_symmetry_group_IT_number 12
_symmetry_cell_setting 'monoclinic'
loop_
_space_group_symop_operation_xyz
x,y,z
-x,y,-z
-x,-y,-z
x,-y,z
1/2+x,1/2+y,z
1/2-x,1/2+y,-z
1/2-x,1/2-y,-z
1/2+x,1/2-y,z
loop_
_atom_site_type_symbol
_atom_site_label
_atom_site_fract_x
_atom_site_fract_y
_atom_site_fract_z
Si Si1 0.789271 0.684038 0.426976
Si Si2 0.948519 0.182251 0.864677
Si Si3 0.301306 0.177856 0.938416
Si Si4 0.329081 0.821682 0.761285
Si Si5 0.313707 0.818365 0.252228
Si Si6 0.013002 0.818701 0.414042
Si Si7 0.912526 0.681874 0.633870
Si Si8 0.102230 0.315700 0.786070
O O1 0.782693 0.500000 0.420609
O O2 0.728494 0.759128 0.363689
O O3 0.805855 0.732831 0.345599
O O4 0.846254 0.725279 0.559085
O O5 0.887216 0.235591 0.818286
O O6 0.950644 0.249890 0.765832
O O7 0.950410 0.000000 0.862423
O O8 0.000000 0.234203 0.000000
O O9 0.318690 0.193861 0.856056
O O10 0.244489 0.273581 0.876891
O O11 0.287901 0.000000 0.936775
O O12 0.353453 0.218940 0.073740
O O13 0.335750 0.000000 0.747367
O O14 0.367117 0.763198 0.266239
O O15 0.318536 0.000000 0.261561
O O16 0.956797 0.769153 0.283344
O O17 0.000000 0.767096 0.500000
O O18 0.065108 0.740055 0.433155
O O19 0.020950 0.000000 0.424750
O O20 0.915495 0.500000 0.638894
O O21 0.093391 0.500000 0.771831
#
# Coordination Sequence:
#
# PCOD9193868 Si02
#       8
#     8   8   8   8   8   8   8   8
#     4   9  19  37  61  90 122 159 203 253 312 373
#     4  11  26  46  67  93 127 166 208 259 316 376
#     4   9  19  33  52  83 119 154 199 252 306 364
#     4  10  21  38  62  92 124 162 206 255 311 369
#     4   9  17  31  53  82 118 158 200 247 302 365
#     4  11  25  42  60  88 125 164 208 257 311 370
#     4  11  24  43  69  96 124 164 212 262 316 374
#     4  10  20  34  54  81 115 158 207 257 308 367
#
# _framework density 21.165047999999999
#
# number of rings (size 3 to 8) (size 9 to 14) (size 15 to 20)
#    0.000    2.000    0.000    2.625    1.750    6.000 
#    0.000    2.500    0.000    0.000    0.000    0.000 
#    0.000    0.000    0.000    0.000    0.000    0.000 
#
# Total GULP energy -178827.750474 kJ/mol
# GULP energy per Si atom -5588.367202 kJ/mol
# Density = 2.111688 g / cm^3
# Si number density = 21.165048 Si / 1000 Ang^3
#
#
#
# Elastic Constant Matrix: (Units=GPa)
#
#
# Indices 1 2 3 4 5 6 
#
# 1 105.6918 31.1633 40.3327 0.0000 16.6756 0.0000
# 2 31.1633 32.4157 30.0175 0.0000 2.1471 0.0000
# 3 40.3327 30.0175 123.4798 0.0000 11.7033 0.0000
# 4 0.0000 0.0000 0.0000 24.0645 0.0000 1.3335
# 5 16.6756 2.1471 11.7033 0.0000 30.1970 0.0000
# 6 0.0000 0.0000 0.0000 1.3335 0.0000 28.5118
#
#
#
# Elastic Compliance Matrix: (Units=1/GPa)
#
#
# Indices 1 2 3 4 5 6 
#
# 1 0.014676 -0.012668 -0.001071 0.000000 -0.006789 0.000000
# 2 -0.012668 0.050773 -0.008851 0.000000 0.006816 0.000000
# 3 -0.001071 -0.008851 0.010884 0.000000 -0.002998 0.000000
# 4 0.000000 0.000000 0.000000 0.041663 0.000000 -0.001949
# 5 -0.006789 0.006816 -0.002998 0.000000 0.037542 0.000000
# 6 0.000000 0.000000 0.000000 -0.001949 0.000000 0.035164
#
#
# Mechanical properties :
#
#
# Convention : Reuss Voigt Hill
#
# Bulk Modulus (GPa) = 32.09914 51.62381 41.86147
# Shear Modulus (GPa) = 20.30322 27.22624 23.76473
#
# Velocity S-wave (km/s) = 3.10059 3.59050 3.35450
# Velocity P-wave (km/s) = 5.29313 6.45236 5.90128
#
# Compressibility (1/GPa) = 0.03115348
#
# Stress axis : x y z
#
# Youngs Moduli (GPa) = 68.13630 19.69569 91.87858
#
# Poissons Ratio (x) = 0.24951 0.09838
# Poissons Ratio (y) = 0.86316 0.81319
# Poissons Ratio (z) = 0.07296 0.17432
#
# Static dielectric constant tensor:
#      x y z
#    x 1.776580 0.000000 -0.037170 
#    y 0.000000 1.707040 0.000000 
#    z -0.037170 0.000000 1.787910 
# 
# From -- ./inp_files/250031.got.cif
#   From: 2010.05.17/outbox.cif.g08.bks.cpg/sg12_126_cif.got.tgz:250031.got - 2010.06.03 13:09:07.
