data_PCOD9193609
_publ_section_title
;
Structure prediction by ZEFSAII (Michael W. Deem and Ramdas Pophale) SiO2 
 PCOD9193609
Probable space group: C 2/M
;
_chemical_formula_sum "Si O2"
_cell_formula_units_Z 64
_cell_length_a 15.072820
_cell_length_b 7.619729
_cell_length_c 28.014109
_cell_angle_alpha 90.000000
_cell_angle_beta 70.027716
_cell_angle_gamma 90.000000
_cell_volume 3023.939345
_symmetry_space_group_name_H-M "C 2/M"
_symmetry_group_IT_number 12
_symmetry_cell_setting 'monoclinic'
loop_
_space_group_symop_operation_xyz
x,y,z
-x,y,-z
-x,-y,-z
x,-y,z
1/2+x,1/2+y,z
1/2-x,1/2+y,-z
1/2-x,1/2-y,-z
1/2+x,1/2-y,z
loop_
_atom_site_type_symbol
_atom_site_label
_atom_site_fract_x
_atom_site_fract_y
_atom_site_fract_z
Si Si1 0.478893 0.704628 0.858813
Si Si2 0.390459 0.212364 0.510363
Si Si3 0.860809 0.793569 0.792399
Si Si4 0.916754 0.293240 0.402184
Si Si5 0.167639 0.796390 0.872644
Si Si6 0.740514 0.212023 0.379129
Si Si7 0.284331 0.790238 0.940769
Si Si8 0.391088 0.212807 0.678092
O O1 0.500935 0.500000 0.845208
O O2 0.437474 0.778134 0.816413
O O3 0.573522 0.781023 0.865576
O O4 0.388369 0.717062 0.910254
O O5 0.500000 0.251703 0.500000
O O6 0.372745 0.277789 0.459704
O O7 0.324952 0.278224 0.565056
O O8 0.380448 0.000000 0.513306
O O9 0.758087 0.711730 0.821084
O O10 0.890653 0.770975 0.732514
O O11 0.849846 0.000000 0.804664
O O12 0.930830 0.500000 0.408464
O O13 0.845128 0.268703 0.372331
O O14 0.017979 0.222708 0.368169
O O15 0.209912 0.722227 0.914525
O O16 0.144743 0.000000 0.887137
O O17 0.699139 0.269380 0.336187
O O18 0.737535 0.000000 0.380153
O O19 0.291258 0.000000 0.933400
O O20 0.250000 0.750000 0.000000
O O21 0.393608 0.000000 0.678088
#
# Coordination Sequence:
#
# PCOD9193609 Si02
#       8
#     8   8   8   8   8   8   8   8
#     4   9  19  37  58  79 105 140 182 223 265 313
#     4   9  15  30  55  76  98 133 174 207 247 312
#     4  10  21  36  56  80 105 133 171 226 275 307
#     4  10  20  34  54  78 103 133 170 214 259 309
#     4   9  19  37  59  80 106 145 186 218 259 320
#     4  10  20  34  54  77 101 134 172 210 255 312
#     4  10  20  34  54  82 116 150 183 221 262 307
#     4  10  21  37  54  73 102 140 175 207 256 323
#
# _framework density 21.164444
#
# number of rings (size 3 to 8) (size 9 to 14) (size 15 to 20)
#    0.000    2.375    1.250    1.125    0.000    4.000 
#    0.000    6.250    0.000    0.750    0.000    0.000 
#    0.000    0.000    0.000    0.000    0.000    0.000 
#
# Total GULP energy -178547.974975 kJ/mol
# GULP energy per Si atom -5579.624218 kJ/mol
# Density = 2.111627 g / cm^3
# Si number density = 21.164444 Si / 1000 Ang^3
#
#
#
# Elastic Constant Matrix: (Units=GPa)
#
#
# Indices 1 2 3 4 5 6 
#
# 1 136.8543 0.7188 28.1964 0.0000 21.3217 0.0000
# 2 0.7188 40.4100 -1.8742 0.0000 3.7056 -0.0001
# 3 28.1964 -1.8742 95.8326 0.0000 21.6505 0.0000
# 4 0.0000 0.0000 0.0000 16.7304 0.0000 1.4332
# 5 21.3217 3.7056 21.6505 0.0000 15.2496 0.0000
# 6 0.0000 -0.0001 0.0000 1.4332 0.0000 8.1821
#
#
#
# Elastic Compliance Matrix: (Units=1/GPa)
#
#
# Indices 1 2 3 4 5 6 
#
# 1 0.009398 0.001138 0.000424 0.000000 -0.014019 0.000000
# 2 0.001138 0.025959 0.002882 0.000000 -0.011991 0.000000
# 3 0.000424 0.002882 0.015692 0.000000 -0.023572 0.000000
# 4 0.000000 0.000000 0.000000 0.060682 0.000000 -0.010629
# 5 -0.014019 -0.011991 -0.023572 0.000000 0.121556 0.000000
# 6 0.000000 0.000000 0.000000 -0.010629 0.000000 0.124080
#
#
# Mechanical properties :
#
#
# Convention : Reuss Voigt Hill
#
# Bulk Modulus (GPa) = 16.68417 36.35321 26.51869
# Shear Modulus (GPa) = 13.57007 24.43613 19.00310
#
# Velocity S-wave (km/s) = 2.53489 3.40160 2.99971
# Velocity P-wave (km/s) = 4.05805 5.71329 4.95527
#
# Compressibility (1/GPa) = 0.05993707
#
# Stress axis : x y z
#
# Youngs Moduli (GPa) = 106.40856 38.52183 63.72780
#
# Poissons Ratio (x) = -0.04384 -0.02704
# Poissons Ratio (y) = -0.12110 -0.18365
# Poissons Ratio (z) = -0.04515 -0.11101
#
# Static dielectric constant tensor:
#      x y z
#    x 1.772310 0.000000 0.030030 
#    y 0.000000 1.826320 0.000000 
#    z 0.030030 0.000000 1.739280 
# 
# From -- ./inp_files/359737.got.cif
#   From: 2010.05.17/outbox.cif.g08.bks.cpg/sg12_180_cif.got.tgz:359737.got - 2010.06.03 13:09:07.
