data_PCOD9193369
_publ_section_title
;
Structure prediction by ZEFSAII (Michael W. Deem and Ramdas Pophale) SiO2 
 PCOD9193369
Probable space group: C 2/M
;
_chemical_formula_sum "Si O2"
_cell_formula_units_Z 64
_cell_length_a 20.698739
_cell_length_b 8.323731
_cell_length_c 20.093441
_cell_angle_alpha 90.000000
_cell_angle_beta 130.163037
_cell_angle_gamma 90.000000
_cell_volume 2645.636953
_symmetry_space_group_name_H-M "C 2/M"
_symmetry_group_IT_number 12
_symmetry_cell_setting 'monoclinic'
loop_
_space_group_symop_operation_xyz
x,y,z
-x,y,-z
-x,-y,-z
x,-y,z
1/2+x,1/2+y,z
1/2-x,1/2+y,-z
1/2-x,1/2-y,-z
1/2+x,1/2-y,z
loop_
_atom_site_type_symbol
_atom_site_label
_atom_site_fract_x
_atom_site_fract_y
_atom_site_fract_z
Si Si1 0.924062 0.307572 0.100903
Si Si2 0.886860 0.811438 0.408502
Si Si3 0.230966 0.816780 0.223072
Si Si4 0.848560 0.686514 0.184024
Si Si5 0.730443 0.808558 0.561323
Si Si6 0.099718 0.320326 0.058259
Si Si7 0.500447 0.686630 0.634258
Si Si8 0.085282 0.194436 0.291337
O O1 0.931618 0.500000 0.096411
O O2 0.853351 0.276276 0.109978
O O3 0.012382 0.252438 0.193078
O O4 0.896499 0.238294 0.011836
O O5 0.801211 0.777950 0.310068
O O6 0.855400 0.753659 0.460454
O O7 0.963864 0.744983 0.412866
O O8 0.901429 0.000000 0.421502
O O9 0.262520 0.805307 0.167119
O O10 0.136470 0.760787 0.149064
O O11 0.235802 0.000000 0.249531
O O12 0.878890 0.500000 0.212529
O O13 0.913748 0.801575 0.264811
O O14 0.750000 0.750000 0.500000
O O15 0.817268 0.760867 0.658436
O O16 0.725166 0.000000 0.557724
O O17 0.138534 0.500000 0.082129
O O18 0.000000 0.334995 0.000000
O O19 0.477963 0.500000 0.609075
O O20 0.436584 0.755859 0.647713
O O21 0.081757 0.000000 0.290843
#
# Coordination Sequence:
#
# PCOD9193369 Si02
#       8
#     8   8   8   8   8   8   8   8
#     4   9  18  33  53  76 104 142 182 223 273 325
#     4  10  20  36  61  86 112 147 184 224 275 332
#     4  10  20  34  53  78 106 140 180 226 276 324
#     4   8  15  29  49  74 103 133 174 224 272 322
#     4  11  24  41  60  86 117 148 182 225 272 326
#     4  10  22  36  47  68 105 145 187 232 272 320
#     4   8  15  31  55  83 109 139 180 224 269 322
#     4   9  19  36  59  84 111 142 183 229 274 325
#
# _framework density 24.190771000000002
#
# number of rings (size 3 to 8) (size 9 to 14) (size 15 to 20)
#    0.000    2.625    0.000    1.125    1.750    3.250 
#    0.000    0.625    0.000    3.750    0.000    0.000 
#    0.000    0.000    0.000    0.000    0.000    0.000 
#
# Total GULP energy -178450.688422 kJ/mol
# GULP energy per Si atom -5576.584013 kJ/mol
# Density = 2.413571 g / cm^3
# Si number density = 24.190771 Si / 1000 Ang^3
#
#
#
# Elastic Constant Matrix: (Units=GPa)
#
#
# Indices 1 2 3 4 5 6 
#
# 1 144.0216 6.2643 16.9403 0.0000 -13.9744 0.0000
# 2 6.2643 30.4688 8.1300 0.0000 1.3856 0.0000
# 3 16.9403 8.1300 98.9848 0.0000 -10.6041 0.0000
# 4 0.0000 0.0000 0.0000 17.2793 0.0000 -5.0106
# 5 -13.9744 1.3856 -10.6041 0.0000 47.4442 0.0000
# 6 0.0000 0.0000 0.0000 -5.0106 0.0000 18.3000
#
#
#
# Elastic Compliance Matrix: (Units=1/GPa)
#
#
# Indices 1 2 3 4 5 6 
#
# 1 0.007303 -0.001344 -0.000927 0.000000 0.001983 0.000000
# 2 -0.001344 0.033928 -0.002771 0.000000 -0.002006 0.000000
# 3 -0.000927 -0.002771 0.010725 0.000000 0.002205 0.000000
# 4 0.000000 0.000000 0.000000 0.062864 0.000000 0.017212
# 5 0.001983 -0.002006 0.002205 0.000000 0.022213 0.000000
# 6 0.000000 0.000000 0.000000 0.017212 0.000000 0.059358
#
#
# Mechanical properties :
#
#
# Convention : Reuss Voigt Hill
#
# Bulk Modulus (GPa) = 23.88327 37.34939 30.61633
# Shear Modulus (GPa) = 22.68264 32.74740 27.71502
#
# Velocity S-wave (km/s) = 3.06544 3.68328 3.38847
# Velocity P-wave (km/s) = 4.73535 5.79325 5.29081
#
# Compressibility (1/GPa) = 0.04187032
#
# Stress axis : x y z
#
# Youngs Moduli (GPa) = 136.92354 29.47449 93.23956
#
# Poissons Ratio (x) = 0.03963 0.08643
# Poissons Ratio (y) = 0.18408 0.25841
# Poissons Ratio (z) = 0.12693 0.08169
#
# Static dielectric constant tensor:
#      x y z
#    x 2.063530 0.000000 -0.015820 
#    y 0.000000 1.879150 0.000000 
#    z -0.015820 0.000000 2.005250 
# 
# From -- ./inp_files/324350.got.cif
#   From: 2010.05.17/outbox.cif.g08.bks.cpg/sg12_163_cif.got.tgz:324350.got - 2010.06.03 13:09:07.
