data_PCOD9193322
_publ_section_title
;
Structure prediction by ZEFSAII (Michael W. Deem and Ramdas Pophale) SiO2 
 PCOD9193322
Probable space group: C 2/M
;
_chemical_formula_sum "Si O2"
_cell_formula_units_Z 50
_cell_length_a 14.349427
_cell_length_b 7.715553
_cell_length_c 28.504162
_cell_angle_alpha 90.000000
_cell_angle_beta 44.725005
_cell_angle_gamma 90.000000
_cell_volume 2220.753910
_symmetry_space_group_name_H-M "C 2/M"
_symmetry_group_IT_number 12
_symmetry_cell_setting 'monoclinic'
loop_
_space_group_symop_operation_xyz
x,y,z
-x,y,-z
-x,-y,-z
x,-y,z
1/2+x,1/2+y,z
1/2-x,1/2+y,-z
1/2-x,1/2-y,-z
1/2+x,1/2-y,z
loop_
_atom_site_type_symbol
_atom_site_label
_atom_site_fract_x
_atom_site_fract_y
_atom_site_fract_z
Si Si1 0.466992 0.808409 0.443270
Si Si2 0.000000 0.000000 0.500000
Si Si3 0.802063 0.707408 0.414935
Si Si4 0.327672 0.294098 0.925230
Si Si5 0.613441 0.208690 0.716948
Si Si6 0.812909 0.705796 0.829368
Si Si7 0.871323 0.792403 0.186840
O O1 0.531979 0.653355 0.448725
O O2 0.317874 0.807247 0.518288
O O3 0.433075 0.778261 0.400421
O O4 0.525942 0.000000 0.428238
O O5 0.760024 0.500000 0.430032
O O6 0.827036 0.766819 0.353455
O O7 0.335570 0.500000 0.919186
O O8 0.261651 0.231752 0.900492
O O9 0.478465 0.223200 0.871701
O O10 0.250000 0.250000 0.000000
O O11 0.462335 0.276136 0.773896
O O12 0.679854 0.257352 0.742320
O O13 0.610806 0.000000 0.715617
O O14 0.823728 0.500000 0.817704
O O15 0.720898 0.777525 0.821379
O O16 0.878435 0.000000 0.178973
#
# Coordination Sequence:
#
# PCOD9193322 Si02
#       7
#     8   2   8   8   8   8   8
#     4  10  21  37  61  83 116 154 190 236 299 344
#     4  12  22  40  56  90 120 142 190 256 286 342
#     4   9  18  37  57  81 111 153 191 229 280 352
#     4  10  20  34  53  77 105 139 179 223 271 326
#     4   9  18  34  57  80 108 143 181 225 275 329
#     4   9  18  35  55  76 106 142 178 220 271 324
#     4   9  19  35  53  77 109 142 180 224 270 327
#
# _framework density 22.514873999999999
#
# number of rings (size 3 to 8) (size 9 to 14) (size 15 to 20)
#    0.000    2.560    0.800    0.720    1.120    2.560 
#    2.880    3.200    0.000    0.000    0.000    0.000 
#    0.000    0.000    0.000    0.000    0.000    0.000 
#
# Total GULP energy -139391.710182 kJ/mol
# GULP energy per Si atom -5575.668407 kJ/mol
# Density = 2.246363 g / cm^3
# Si number density = 22.514874 Si / 1000 Ang^3
#
#
#
# Elastic Constant Matrix: (Units=GPa)
#
#
# Indices 1 2 3 4 5 6 
#
# 1 111.9214 23.2354 54.0223 0.0003 46.7423 0.0005
# 2 23.2354 77.6709 -11.8190 0.0018 4.7611 0.0005
# 3 54.0223 -11.8190 115.5525 0.0002 38.6357 0.0002
# 4 0.0003 0.0018 0.0002 22.8916 0.0003 7.8337
# 5 46.7423 4.7611 38.6357 0.0003 32.8971 0.0002
# 6 0.0005 0.0005 0.0002 7.8337 0.0002 23.1330
#
#
#
# Elastic Compliance Matrix: (Units=1/GPa)
#
#
# Indices 1 2 3 4 5 6 
#
# 1 0.023889 -0.005344 -0.001028 0.000001 -0.031962 0.000000
# 2 -0.005344 0.014958 0.003644 -0.000001 0.001148 0.000000
# 3 -0.001028 0.003644 0.015141 0.000000 -0.016849 0.000000
# 4 0.000001 -0.000001 0.000000 0.049410 -0.000001 -0.016732
# 5 -0.031962 0.001148 -0.016849 -0.000001 0.095433 0.000000
# 6 0.000000 0.000000 0.000000 -0.016732 0.000000 0.048894
#
#
# Mechanical properties :
#
#
# Convention : Reuss Voigt Hill
#
# Bulk Modulus (GPa) = 20.60478 48.44691 34.52584
# Shear Modulus (GPa) = 18.56267 31.76475 25.16371
#
# Velocity S-wave (km/s) = 2.87446 3.76018 3.34675
# Velocity P-wave (km/s) = 4.49313 6.35739 5.50475
#
# Compressibility (1/GPa) = 0.04853243
#
# Stress axis : x y z
#
# Youngs Moduli (GPa) = 41.86022 66.85566 66.04587
#
# Poissons Ratio (x) = 0.35726 0.06791
# Poissons Ratio (y) = 0.22369 -0.24070
# Poissons Ratio (z) = 0.04304 -0.24365
#
# Static dielectric constant tensor:
#      x y z
#    x 2.549550 0.000000 -0.236330 
#    y 0.000000 1.825730 0.000000 
#    z -0.236330 0.000000 1.770850 
# 
# From -- ./inp_files/308544.got.cif
#   From: 2010.05.17/outbox.cif.g08.bks.cpg/sg12_155_cif.got.tgz:308544.got - 2010.06.03 13:09:07.
