data_PCOD9193773
_publ_section_title
;
Structure prediction by ZEFSAII (Michael W. Deem and Ramdas Pophale) SiO2 
 PCOD9193773
Probable space group: C 2/M
;
_chemical_formula_sum "Si O2"
_cell_formula_units_Z 64
_cell_length_a 19.664901
_cell_length_b 7.556310
_cell_length_c 20.245745
_cell_angle_alpha 90.000000
_cell_angle_beta 95.979701
_cell_angle_gamma 90.000000
_cell_volume 2992.028918
_symmetry_space_group_name_H-M "C 2/M"
_symmetry_group_IT_number 12
_symmetry_cell_setting 'monoclinic'
loop_
_space_group_symop_operation_xyz
x,y,z
-x,y,-z
-x,-y,-z
x,-y,z
1/2+x,1/2+y,z
1/2-x,1/2+y,-z
1/2-x,1/2-y,-z
1/2+x,1/2-y,z
loop_
_atom_site_type_symbol
_atom_site_label
_atom_site_fract_x
_atom_site_fract_y
_atom_site_fract_z
Si Si1 0.578306 0.715610 0.588030
Si Si2 0.782094 0.288925 0.073829
Si Si3 0.343932 0.284508 0.271120
Si Si4 0.057668 0.289324 0.211443
Si Si5 0.793603 0.293396 0.799966
Si Si6 0.670952 0.712277 0.476078
Si Si7 0.080550 0.295720 0.855983
Si Si8 0.062881 0.786139 0.365908
O O1 0.576281 0.500000 0.583915
O O2 0.621794 0.764891 0.657007
O O3 0.620234 0.777444 0.528799
O O4 0.500401 0.771908 0.593886
O O5 0.785065 0.500000 0.082960
O O6 0.735761 0.219019 0.129031
O O7 0.859662 0.218669 0.091730
O O8 0.750000 0.250000 0.000000
O O9 0.345755 0.500000 0.266302
O O10 0.266081 0.222503 0.253491
O O11 0.386070 0.211257 0.213607
O O12 0.057364 0.500000 0.198364
O O13 0.131553 0.214126 0.199874
O O14 0.049419 0.268062 0.289329
O O15 0.994089 0.214547 0.163164
O O16 0.800262 0.500000 0.783350
O O17 0.666511 0.500000 0.475082
O O18 0.750000 0.750000 0.500000
O O19 0.635329 0.773901 0.404167
O O20 0.071495 0.500000 0.875647
O O21 0.062115 0.000000 0.365473
#
# Coordination Sequence:
#
# PCOD9193773 Si02
#       8
#     8   8   8   8   8   8   8   8
#     4   9  17  32  54  74  98 134 178 219 261 314
#     4  10  20  36  58  81 108 142 177 213 253 302
#     4   9  16  29  51  76  97 130 175 214 252 303
#     4  10  20  34  54  80 110 140 170 214 268 316
#     4   9  19  33  52  79 108 137 174 213 256 309
#     4  10  22  37  53  74 103 137 177 224 273 323
#     4   9  18  33  52  78 108 136 168 209 257 304
#     4  10  20  35  54  76 100 137 182 221 263 315
#
# _framework density 21.390169
#
# number of rings (size 3 to 8) (size 9 to 14) (size 15 to 20)
#    0.000    2.500    1.250    0.750    1.750    3.000 
#    0.000    1.875    0.000    5.250    0.000    0.000 
#    0.000    0.000    0.000    0.000    0.000    0.000 
#
# Total GULP energy -178515.959717 kJ/mol
# GULP energy per Si atom -5578.623741 kJ/mol
# Density = 2.134148 g / cm^3
# Si number density = 21.390169 Si / 1000 Ang^3
#
#
#
# Elastic Constant Matrix: (Units=GPa)
#
#
# Indices 1 2 3 4 5 6 
#
# 1 189.4275 2.0905 41.2012 0.0000 30.8635 0.0000
# 2 2.0905 52.0075 -11.4942 0.0000 3.2874 0.0000
# 3 41.2012 -11.4942 59.8094 0.0000 33.0473 0.0000
# 4 0.0000 0.0000 0.0000 13.5110 0.0000 -0.6588
# 5 30.8635 3.2874 33.0473 0.0000 34.3898 0.0000
# 6 0.0000 0.0000 0.0000 -0.6588 0.0000 5.9730
#
#
#
# Elastic Compliance Matrix: (Units=1/GPa)
#
#
# Indices 1 2 3 4 5 6 
#
# 1 0.006395 -0.000751 -0.003023 0.000000 -0.002762 0.000000
# 2 -0.000751 0.022795 0.012216 0.000000 -0.013245 0.000000
# 3 -0.003023 0.012216 0.043273 0.000000 -0.040038 0.000000
# 4 0.000000 0.000000 0.000000 0.074414 0.000000 0.008208
# 5 -0.002762 -0.013245 -0.040038 0.000000 0.071298 0.000000
# 6 0.000000 0.000000 0.000000 0.008208 0.000000 0.168326
#
#
# Mechanical properties :
#
#
# Convention : Reuss Voigt Hill
#
# Bulk Modulus (GPa) = 11.19231 40.53771 25.86501
# Shear Modulus (GPa) = 12.51878 28.73789 20.62833
#
# Velocity S-wave (km/s) = 2.42184 3.66937 3.10882
# Velocity P-wave (km/s) = 3.61444 6.07824 5.00046
#
# Compressibility (1/GPa) = 0.08934708
#
# Stress axis : x y z
#
# Youngs Moduli (GPa) = 156.37248 43.86884 23.10912
#
# Poissons Ratio (x) = 0.03293 0.06987
# Poissons Ratio (y) = 0.11739 -0.28230
# Poissons Ratio (z) = 0.47278 -0.53591
#
# Static dielectric constant tensor:
#      x y z
#    x 1.828540 0.000000 0.034420 
#    y 0.000000 1.836180 0.000000 
#    z 0.034420 0.000000 1.728940 
# 
# From -- ./inp_files/314209.got.cif
#   From: 2010.05.17/outbox.cif.g08.bks.cpg/sg12_158_cif.got.tgz:314209.got - 2010.06.03 13:09:07.
