data_PCOD9193293
_publ_section_title
;
Structure prediction by ZEFSAII (Michael W. Deem and Ramdas Pophale) SiO2 
 PCOD9193293
Probable space group: C 2/M
;
_chemical_formula_sum "Si O2"
_cell_formula_units_Z 64
_cell_length_a 30.805839
_cell_length_b 7.434453
_cell_length_c 12.992562
_cell_angle_alpha 90.000000
_cell_angle_beta 100.404390
_cell_angle_gamma 90.000000
_cell_volume 2926.689667
_symmetry_space_group_name_H-M "C 2/M"
_symmetry_group_IT_number 12
_symmetry_cell_setting 'monoclinic'
loop_
_space_group_symop_operation_xyz
x,y,z
-x,y,-z
-x,-y,-z
x,-y,z
1/2+x,1/2+y,z
1/2-x,1/2+y,-z
1/2-x,1/2-y,-z
1/2+x,1/2-y,z
loop_
_atom_site_type_symbol
_atom_site_label
_atom_site_fract_x
_atom_site_fract_y
_atom_site_fract_z
Si Si1 0.216322 0.788672 0.691241
Si Si2 0.674686 0.784117 0.879944
Si Si3 0.048208 0.796047 0.526095
Si Si4 0.545252 0.218997 0.968414
Si Si5 0.686660 0.217851 0.313281
Si Si6 0.577436 0.217469 0.763521
Si Si7 0.642252 0.219691 0.082659
Si Si8 0.640988 0.711901 0.510003
O O1 0.210686 0.772988 0.811856
O O2 0.262981 0.715653 0.672691
O O3 0.174264 0.712458 0.611128
O O4 0.216894 0.000000 0.667039
O O5 0.627535 0.729324 0.811362
O O6 0.676043 0.000000 0.883043
O O7 0.672253 0.722923 0.997536
O O8 0.061234 0.798488 0.651180
O O9 0.091383 0.711758 0.491390
O O10 0.000000 0.709090 0.500000
O O11 0.043007 0.000000 0.482251
O O12 0.548615 0.268432 0.850076
O O13 0.545325 0.000000 0.972753
O O14 0.500000 0.281925 0.000000
O O15 0.591542 0.275356 0.040332
O O16 0.660790 0.278445 0.200101
O O17 0.663513 0.270516 0.409149
O O18 0.687385 0.000000 0.310843
O O19 0.576723 0.000000 0.753915
O O20 0.642391 0.000000 0.081727
O O21 0.635249 0.500000 0.531045
#
# Coordination Sequence:
#
# PCOD9193293 Si02
#       8
#     8   8   8   8   8   8   8   8
#     4  10  20  34  53  77 102 134 175 213 255 309
#     4   9  17  31  53  76 101 134 169 208 255 305
#     4  10  21  36  53  73 100 137 171 205 259 310
#     4   8  14  26  47  73 100 131 164 199 251 309
#     4  10  21  35  53  77 105 136 171 213 259 307
#     4   9  17  30  50  76 100 126 167 214 250 294
#     4   8  16  31  47  70 105 135 162 207 261 303
#     4  10  21  37  53  71 102 138 173 213 256 305
#
# _framework density 21.867709000000001
#
# number of rings (size 3 to 8) (size 9 to 14) (size 15 to 20)
#    0.000    2.750    1.250    1.875    0.000    3.250 
#    0.000    1.875    0.000    1.125    0.000    0.000 
#    0.000    0.000    0.000    0.000    0.000    0.000 
#
# Total GULP energy -178595.183457 kJ/mol
# GULP energy per Si atom -5581.099483 kJ/mol
# Density = 2.181794 g / cm^3
# Si number density = 21.867709 Si / 1000 Ang^3
#
#
#
# Elastic Constant Matrix: (Units=GPa)
#
#
# Indices 1 2 3 4 5 6 
#
# 1 152.2587 6.0920 53.2968 0.0000 -38.1357 0.0000
# 2 6.0920 66.9192 -5.8529 0.0000 4.2374 0.0000
# 3 53.2968 -5.8529 104.4056 0.0000 -24.2267 0.0000
# 4 0.0000 0.0000 0.0000 -215.9849 0.0000 518.4624
# 5 -38.1357 4.2374 -24.2267 0.0000 34.4887 0.0000
# 6 0.0000 0.0000 0.0000 518.4624 0.0000-1156.3444
#
#
#
# Elastic Compliance Matrix: (Units=1/GPa)
#
#
# Indices 1 2 3 4 5 6 
#
# 1 0.010000 -0.001757 -0.003091 0.000000 0.009102 0.000000
# 2 -0.001757 0.015391 0.001040 0.000000 -0.003104 0.000000
# 3 -0.003091 0.001040 0.012415 0.000000 0.005175 0.000000
# 4 0.000000 0.000000 0.000000 0.060699 0.000000 0.027215
# 5 0.009102 -0.003104 0.005175 0.000000 0.043076 0.000000
# 6 0.000000 0.000000 0.000000 0.027215 0.000000 0.011338
#
#
# Mechanical properties :
#
#
# Convention : Reuss Voigt Hill
#
# Bulk Modulus (GPa) = 33.12524 47.85060 40.48792
# Shear Modulus (GPa) = 29.30855 -249.56495 -110.12820
#
# Velocity S-wave (km/s) = 3.66494 -10.69451 -7.10425
# Velocity P-wave (km/s) = 5.75238 11.42661 6.98132
#
# Compressibility (1/GPa) = 0.03018846
#
# Stress axis : x y z
#
# Youngs Moduli (GPa) = 100.00220 64.97397 80.54645
#
# Poissons Ratio (x) = 0.11416 0.24898
# Poissons Ratio (y) = 0.17571 -0.08373
# Poissons Ratio (z) = 0.30913 -0.06754
#
# Static dielectric constant tensor:
#      x y z
#    x 1.815000 0.000000 -0.002070 
#    y 0.000000 1.823710 0.000000 
#    z -0.002070 0.000000 1.753270 
# 
# From -- ./inp_files/182036.got.cif
#   From: 2010.05.17/outbox.cif.g08.bks.cpg/sg12_92_cif.got.tgz:182036.got - 2010.06.03 13:09:07.
