data_PCOD9193649
_publ_section_title
;
Structure prediction by ZEFSAII (Michael W. Deem and Ramdas Pophale) SiO2 
 PCOD9193649
Probable space group: C 2/M
;
_chemical_formula_sum "Si O2"
_cell_formula_units_Z 40
_cell_length_a 15.928636
_cell_length_b 9.288275
_cell_length_c 13.456646
_cell_angle_alpha 90.000000
_cell_angle_beta 60.755755
_cell_angle_gamma 90.000000
_cell_volume 1737.154140
_symmetry_space_group_name_H-M "C 2/M"
_symmetry_group_IT_number 12
_symmetry_cell_setting 'monoclinic'
loop_
_space_group_symop_operation_xyz
x,y,z
-x,y,-z
-x,-y,-z
x,-y,z
1/2+x,1/2+y,z
1/2-x,1/2+y,-z
1/2-x,1/2-y,-z
1/2+x,1/2-y,z
loop_
_atom_site_type_symbol
_atom_site_label
_atom_site_fract_x
_atom_site_fract_y
_atom_site_fract_z
Si Si1 0.619497 0.834169 0.041479
Si Si2 0.126311 0.829945 0.229505
Si Si3 0.568013 0.662071 0.559863
Si Si4 0.222100 0.670495 0.360698
Si Si5 0.387704 0.165562 0.184148
O O1 0.655564 0.725379 0.104322
O O2 0.502851 0.827859 0.116760
O O3 0.647613 0.000000 0.046453
O O4 0.641702 0.802615 0.913653
O O5 0.174555 0.737241 0.288334
O O6 0.011374 0.807841 0.310797
O O7 0.145077 0.000000 0.232102
O O8 0.500000 0.661938 0.500000
O O9 0.606691 0.500000 0.549200
O O10 0.654777 0.769216 0.487404
O O11 0.220416 0.500000 0.360388
O O12 0.330101 0.731048 0.291026
O O13 0.360278 0.000000 0.221886
#
# Coordination Sequence:
#
# PCOD9193649 Si02
#       5
#     8   8   8   8   8
#     4   9  19  36  57  77  99 133 173 211 254 304
#     4  10  20  34  54  78 105 136 168 208 257 303
#     4   8  16  32  51  72 101 136 168 203 255 306
#     4  11  21  32  52  80 105 133 172 213 250 296
#     4   9  19  37  56  74 102 137 169 207 259 308
#
# _framework density 23.026164999999999
#
# number of rings (size 3 to 8) (size 9 to 14) (size 15 to 20)
#    0.000    2.600    0.000    4.800    0.000    6.800 
#    0.000    3.000    0.000    0.000    0.000    0.000 
#    0.000    0.000    0.000    0.000    0.000    0.000 
#
# Total GULP energy -111848.863601 kJ/mol
# GULP energy per Si atom -5592.443180 kJ/mol
# Density = 2.297376 g / cm^3
# Si number density = 23.026165 Si / 1000 Ang^3
#
#
#
# Elastic Constant Matrix: (Units=GPa)
#
#
# Indices 1 2 3 4 5 6 
#
# 1 67.8939 32.5630 11.7900 0.0000 -9.1679 0.0000
# 2 32.5630 126.8750 86.0111 0.0000 -18.4573 0.0000
# 3 11.7900 86.0111 129.6139 0.0000 -19.4113 0.0000
# 4 0.0000 0.0000 0.0000 36.7840 0.0000 -6.4357
# 5 -9.1679 -18.4573 -19.4113 0.0000 48.1171 0.0000
# 6 0.0000 0.0000 0.0000 -6.4357 0.0000 19.8135
#
#
#
# Elastic Compliance Matrix: (Units=1/GPa)
#
#
# Indices 1 2 3 4 5 6 
#
# 1 0.017423 -0.006007 0.002717 0.000000 0.002112 0.000000
# 2 -0.006007 0.016540 -0.010271 0.000000 0.001057 0.000000
# 3 0.002717 -0.010271 0.014657 0.000000 0.002491 0.000000
# 4 0.000000 0.000000 0.000000 0.028824 0.000000 0.009362
# 5 0.002112 0.001057 0.002491 0.000000 0.022595 0.000000
# 6 0.000000 0.000000 0.000000 0.009362 0.000000 0.053512
#
#
# Mechanical properties :
#
#
# Convention : Reuss Voigt Hill
#
# Bulk Modulus (GPa) = 46.51364 65.01236 55.76300
# Shear Modulus (GPa) = 26.61855 33.87749 30.24802
#
# Velocity S-wave (km/s) = 3.40371 3.83986 3.62834
# Velocity P-wave (km/s) = 5.97421 6.92494 6.46707
#
# Compressibility (1/GPa) = 0.02149907
#
# Stress axis : x y z
#
# Youngs Moduli (GPa) = 57.39532 60.45816 68.22605
#
# Poissons Ratio (x) = 0.36315 -0.18540
# Poissons Ratio (y) = 0.34475 0.70078
# Poissons Ratio (z) = -0.15597 0.62100
#
# Static dielectric constant tensor:
#      x y z
#    x 1.962880 0.000000 -0.010240 
#    y 0.000000 1.767330 0.000000 
#    z -0.010240 0.000000 1.861980 
# 
# From -- ./inp_files/220594.got.cif
#   From: 2010.05.17/outbox.cif.g08.bks.cpg/sg12_111_cif.got.tgz:220594.got - 2010.06.03 13:09:07.
