data_PCOD9193218
_publ_section_title
;
Structure prediction by ZEFSAII (Michael W. Deem and Ramdas Pophale) SiO2 
 PCOD9193218
Probable space group: C 2/M
;
_chemical_formula_sum "Si O2"
_cell_formula_units_Z 64
_cell_length_a 18.438350
_cell_length_b 7.658862
_cell_length_c 22.262343
_cell_angle_alpha 90.000000
_cell_angle_beta 101.307442
_cell_angle_gamma 90.000000
_cell_volume 3082.792360
_symmetry_space_group_name_H-M "C 2/M"
_symmetry_group_IT_number 12
_symmetry_cell_setting 'monoclinic'
loop_
_space_group_symop_operation_xyz
x,y,z
-x,y,-z
-x,-y,-z
x,-y,z
1/2+x,1/2+y,z
1/2-x,1/2+y,-z
1/2-x,1/2-y,-z
1/2+x,1/2-y,z
loop_
_atom_site_type_symbol
_atom_site_label
_atom_site_fract_x
_atom_site_fract_y
_atom_site_fract_z
Si Si1 0.721526 0.210191 0.199865
Si Si2 0.501491 0.210384 0.682093
Si Si3 0.664819 0.214066 0.319805
Si Si4 0.219332 0.792010 0.560806
Si Si5 0.885998 0.790397 0.194033
Si Si6 0.862754 0.800322 0.062993
Si Si7 0.051756 0.294182 0.561012
Si Si8 0.304753 0.708644 0.934028
O O1 0.687803 0.272087 0.256932
O O2 0.805994 0.274408 0.204404
O O3 0.677196 0.258482 0.132363
O O4 0.724040 0.000000 0.203083
O O5 0.417540 0.271574 0.676878
O O6 0.551964 0.255209 0.747079
O O7 0.535130 0.277580 0.624736
O O8 0.499696 0.000000 0.679349
O O9 0.724231 0.272257 0.378901
O O10 0.664969 0.000000 0.320162
O O11 0.250000 0.750000 0.500000
O O12 0.137108 0.722737 0.557602
O O13 0.215081 0.000000 0.565928
O O14 0.900026 0.720960 0.128555
O O15 0.879282 0.000000 0.186886
O O16 0.775289 0.795476 0.066891
O O17 0.888906 0.000000 0.061833
O O18 0.860570 0.726621 0.995014
O O19 0.033915 0.500000 0.561633
O O20 0.000000 0.218765 0.500000
O O21 0.295584 0.500000 0.940786
#
# Coordination Sequence:
#
# PCOD9193218 Si02
#       8
#     8   8   8   8   8   8   8   8
#     4   9  17  31  50  70  96 131 167 202 247 304
#     4  10  20  34  53  75  99 131 172 212 250 296
#     4   9  19  36  55  73  99 138 174 205 251 307
#     4  11  22  38  60  83 108 138 174 213 255 305
#     4   9  17  30  48  71  99 130 164 205 256 306
#     4   8  15  27  42  63  95 132 163 195 245 306
#     4  10  21  38  58  80 110 143 172 208 256 306
#     4   9  15  24  42  69  97 123 159 207 251 292
#
# _framework density 20.760399
#
# number of rings (size 3 to 8) (size 9 to 14) (size 15 to 20)
#    0.000    2.625    0.000    3.000    0.000    6.250 
#    0.000    4.375    0.000    0.750    0.000    5.250 
#    0.000    0.000    0.000    0.000    0.000    0.000 
#
# Total GULP energy -178473.599021 kJ/mol
# GULP energy per Si atom -5577.299969 kJ/mol
# Density = 2.071315 g / cm^3
# Si number density = 20.760399 Si / 1000 Ang^3
#
#
#
# Elastic Constant Matrix: (Units=GPa)
#
#
# Indices 1 2 3 4 5 6 
#
# 1 91.6213 -10.4968 87.8587 0.0000 10.3633 0.0000
# 2 -10.4968 40.9599 -4.0905 0.0000 1.9169 0.0000
# 3 87.8587 -4.0905 243.8036 0.0000 13.1445 0.0000
# 4 0.0000 0.0000 0.0000 21.7604 0.0000 3.2496
# 5 10.3633 1.9169 13.1445 0.0000 26.8645 0.0000
# 6 0.0000 0.0000 0.0000 3.2496 0.0000 14.8112
#
#
#
# Elastic Compliance Matrix: (Units=1/GPa)
#
#
# Indices 1 2 3 4 5 6 
#
# 1 0.017686 0.004119 -0.006081 0.000000 -0.004141 0.000000
# 2 0.004119 0.025519 -0.000896 0.000000 -0.002971 0.000000
# 3 -0.006081 -0.000896 0.006315 0.000000 -0.000680 0.000000
# 4 0.000000 0.000000 0.000000 0.047512 0.000000 -0.010424
# 5 -0.004141 -0.002971 -0.000680 0.000000 0.039366 0.000000
# 6 0.000000 0.000000 0.000000 -0.010424 0.000000 0.069804
#
#
# Mechanical properties :
#
#
# Convention : Reuss Voigt Hill
#
# Bulk Modulus (GPa) = 22.82903 58.10307 40.46605
# Shear Modulus (GPa) = 22.07319 32.89478 27.48398
#
# Velocity S-wave (km/s) = 3.26427 3.98489 3.64244
# Velocity P-wave (km/s) = 5.02270 7.01575 6.10116
#
# Compressibility (1/GPa) = 0.04380387
#
# Stress axis : x y z
#
# Youngs Moduli (GPa) = 56.54128 39.18608 158.35996
#
# Poissons Ratio (x) = -0.16141 0.96301
# Poissons Ratio (y) = -0.23289 0.14189
# Poissons Ratio (z) = 0.34384 0.03511
#
# Static dielectric constant tensor:
#      x y z
#    x 1.689900 0.000000 0.001320 
#    y 0.000000 1.684850 0.000000 
#    z 0.001320 0.000000 1.785910 
# 
# From -- ./inp_files/319217.got.cif
#   From: 2010.05.17/outbox.cif.g08.bks.cpg/sg12_160_cif.got.tgz:319217.got - 2010.06.03 13:09:07.
