data_PCOD9193467
_publ_section_title
;
Structure prediction by ZEFSAII (Michael W. Deem and Ramdas Pophale) SiO2 
 PCOD9193467
Probable space group: C 2/M
;
_chemical_formula_sum "Si O2"
_cell_formula_units_Z 56
_cell_length_a 18.467516
_cell_length_b 12.332441
_cell_length_c 15.793537
_cell_angle_alpha 90.000000
_cell_angle_beta 114.657857
_cell_angle_gamma 90.000000
_cell_volume 3268.982204
_symmetry_space_group_name_H-M "C 2/M"
_symmetry_group_IT_number 12
_symmetry_cell_setting 'monoclinic'
loop_
_space_group_symop_operation_xyz
x,y,z
-x,y,-z
-x,-y,-z
x,-y,z
1/2+x,1/2+y,z
1/2-x,1/2+y,-z
1/2-x,1/2-y,-z
1/2+x,1/2-y,z
loop_
_atom_site_type_symbol
_atom_site_label
_atom_site_fract_x
_atom_site_fract_y
_atom_site_fract_z
Si Si1 0.680175 0.737322 0.254482
Si Si2 0.292861 0.871299 0.028165
Si Si3 0.951744 0.774971 0.394731
Si Si4 0.827484 0.624040 0.239680
Si Si5 0.308387 0.374865 0.419922
Si Si6 0.899608 0.129378 0.628396
Si Si7 0.086754 0.625839 0.070704
O O1 0.741667 0.667358 0.228593
O O2 0.738010 0.810493 0.340909
O O3 0.626553 0.668910 0.292596
O O4 0.626006 0.807366 0.165497
O O5 0.330969 0.867455 0.140017
O O6 0.256730 0.000000 0.006480
O O7 0.250000 0.750000 0.000000
O O8 0.355024 0.870483 0.981671
O O9 0.896853 0.690206 0.319258
O O10 0.888901 0.860731 0.403291
O O11 0.000000 0.730656 0.500000
O O12 0.016412 0.824560 0.362954
O O13 0.834542 0.500000 0.268455
O O14 0.286246 0.500000 0.414061
O O15 0.334126 0.335883 0.525832
O O16 0.903214 0.000000 0.627318
O O17 0.077936 0.500000 0.092583
O O18 0.000000 0.666560 0.000000
#
# Coordination Sequence:
#
# PCOD9193467 Si02
#       7
#     8   8   8   8   8   8   8
#     4  11  20  34  56  79 111 140 183 221 275 329
#     4  10  20  39  62  85 112 148 190 234 283 337
#     4   9  19  35  55  80 109 142 182 223 267 326
#     4  10  21  36  57  80 109 146 181 223 277 331
#     4   9  18  34  55  79 107 142 184 224 265 323
#     4  10  20  34  53  79 111 145 178 223 278 326
#     4  10  22  38  58  81 110 144 183 231 280 330
#
# _framework density 17.130714000000001
#
# number of rings (size 3 to 8) (size 9 to 14) (size 15 to 20)
#    0.000    2.143    1.429    1.714    2.000    2.000 
#    0.000    1.429    0.000    3.000    0.000    0.000 
#    0.000    0.000    0.000    0.000    0.000    0.000 
#
# Total GULP energy -155892.797796 kJ/mol
# GULP energy per Si atom -5567.599921 kJ/mol
# Density = 1.709172 g / cm^3
# Si number density = 17.130714 Si / 1000 Ang^3
#
#
#
# Elastic Constant Matrix: (Units=GPa)
#
#
# Indices 1 2 3 4 5 6 
#
# 1 69.8292 36.9208 59.1462 0.0000 7.5047 0.0000
# 2 36.9208 80.8418 48.7780 0.0000 4.8149 0.0000
# 3 59.1462 48.7780 108.1587 0.0000 -4.2138 0.0000
# 4 0.0000 0.0000 0.0000 27.8482 0.0000 -4.7877
# 5 7.5047 4.8149 -4.2138 0.0000 22.2059 0.0000
# 6 0.0000 0.0000 0.0000 -4.7877 0.0000 14.6421
#
#
#
# Elastic Compliance Matrix: (Units=1/GPa)
#
#
# Indices 1 2 3 4 5 6 
#
# 1 0.031063 -0.003970 -0.015688 0.000000 -0.012614 0.000000
# 2 -0.003970 0.018114 -0.006144 0.000000 -0.003752 0.000000
# 3 -0.015688 -0.006144 0.021009 0.000000 0.010621 0.000000
# 4 0.000000 0.000000 0.000000 0.038048 0.000000 0.012441
# 5 -0.012614 -0.003752 0.010621 0.000000 0.052125 0.000000
# 6 0.000000 0.000000 0.000000 0.012441 0.000000 0.072364
#
#
# Mechanical properties :
#
#
# Convention : Reuss Voigt Hill
#
# Bulk Modulus (GPa) = 53.81497 60.94663 57.38080
# Shear Modulus (GPa) = 17.21046 20.53822 18.87434
#
# Velocity S-wave (km/s) = 3.17307 3.46629 3.32291
# Velocity P-wave (km/s) = 6.70127 7.18852 6.94917
#
# Compressibility (1/GPa) = 0.01858219
#
# Stress axis : x y z
#
# Youngs Moduli (GPa) = 32.19261 55.20708 47.59789
#
# Poissons Ratio (x) = 0.21915 0.74671
# Poissons Ratio (y) = 0.12779 0.29246
# Poissons Ratio (z) = 0.50503 0.33921
#
# Static dielectric constant tensor:
#      x y z
#    x 1.577880 0.000000 -0.003670 
#    y 0.000000 1.593170 0.000000 
#    z -0.003670 0.000000 1.564490 
# 
# From -- ./inp_files/223129.got.cif
#   From: 2010.05.17/outbox.cif.g08.bks.cpg/sg12_112_cif.got.tgz:223129.got - 2010.06.03 13:09:07.
