data_PCOD9193697
_publ_section_title
;
Structure prediction by ZEFSAII (Michael W. Deem and Ramdas Pophale) SiO2 
 PCOD9193697
Probable space group: C 2/M
;
_chemical_formula_sum "Si O2"
_cell_formula_units_Z 64
_cell_length_a 19.285987
_cell_length_b 9.030465
_cell_length_c 31.667840
_cell_angle_alpha 90.000000
_cell_angle_beta 139.393241
_cell_angle_gamma 90.000000
_cell_volume 3589.719635
_symmetry_space_group_name_H-M "C 2/M"
_symmetry_group_IT_number 12
_symmetry_cell_setting 'monoclinic'
loop_
_space_group_symop_operation_xyz
x,y,z
-x,y,-z
-x,-y,-z
x,-y,z
1/2+x,1/2+y,z
1/2-x,1/2+y,-z
1/2-x,1/2-y,-z
1/2+x,1/2-y,z
loop_
_atom_site_type_symbol
_atom_site_label
_atom_site_fract_x
_atom_site_fract_y
_atom_site_fract_z
Si Si1 0.196006 0.322276 0.820353
Si Si2 0.147600 0.822800 0.184733
Si Si3 0.718949 0.324701 0.441827
Si Si4 0.420635 0.175752 0.077500
Si Si5 0.707606 0.823201 0.300895
Si Si6 0.377372 0.823754 0.437366
Si Si7 0.229066 0.175592 0.924274
Si Si8 0.050512 0.677366 0.305190
O O1 0.199465 0.500000 0.828917
O O2 0.269618 0.287661 0.814342
O O3 0.234931 0.240553 0.880301
O O4 0.072971 0.281390 0.754998
O O5 0.186239 0.754797 0.246761
O O6 0.032401 0.754426 0.121573
O O7 0.139786 0.000000 0.184735
O O8 0.706420 0.500000 0.441575
O O9 0.750000 0.250000 0.500000
O O10 0.812125 0.299129 0.450415
O O11 0.613266 0.256214 0.371981
O O12 0.364273 0.242870 0.092920
O O13 0.435663 0.000000 0.089931
O O14 0.337558 0.200589 0.000875
O O15 0.815380 0.764443 0.372462
O O16 0.613149 0.786971 0.290698
O O17 0.710374 0.000000 0.297041
O O18 0.500000 0.781029 0.500000
O O19 0.373059 0.000000 0.425908
O O20 0.208715 0.000000 0.914183
O O21 0.057736 0.500000 0.314467
#
# Coordination Sequence:
#
# PCOD9193697 Si02
#       8
#     8   8   8   8   8   8   8   8
#     4  10  22  38  56  80 112 148 183 225 276 326
#     4  11  23  37  55  81 112 147 186 226 272 327
#     4  10  20  34  54  79 106 137 174 218 265 316
#     4  10  21  38  59  83 112 145 182 225 273 324
#     4  10  20  35  57  81 106 140 181 229 279 325
#     4   9  19  36  56  77 104 141 181 220 266 323
#     4  10  21  37  60  86 110 142 184 227 270 324
#     4   9  19  37  57  76 102 139 181 221 266 320
#
# _framework density 17.828690999999999
#
# number of rings (size 3 to 8) (size 9 to 14) (size 15 to 20)
#    0.000    2.125    0.000    2.625    0.000    6.750 
#    0.000    7.500    0.000    0.000    0.000    0.000 
#    0.000    0.000    0.000    0.000    0.000    0.000 
#
# Total GULP energy -178737.876762 kJ/mol
# GULP energy per Si atom -5585.558649 kJ/mol
# Density = 1.778811 g / cm^3
# Si number density = 17.828691 Si / 1000 Ang^3
#
#
#
# Elastic Constant Matrix: (Units=GPa)
#
#
# Indices 1 2 3 4 5 6 
#
# 1 117.8198 72.0801 99.6055 0.0000 -0.7524 0.0000
# 2 72.0801 69.3221 74.9331 0.0000 -6.4282 0.0000
# 3 99.6055 74.9331 123.3049 0.0000 -3.1378 0.0000
# 4 0.0000 0.0000 0.0000 37.5984 0.0000 -2.7024
# 5 -0.7524 -6.4282 -3.1378 0.0000 35.7415 0.0000
# 6 0.0000 0.0000 0.0000 -2.7024 0.0000 29.7558
#
#
#
# Elastic Compliance Matrix: (Units=1/GPa)
#
#
# Indices 1 2 3 4 5 6 
#
# 1 0.031953 -0.016210 -0.016054 0.000000 -0.003652 0.000000
# 2 -0.016210 0.051305 -0.017898 0.000000 0.007315 0.000000
# 3 -0.016054 -0.017898 0.031936 0.000000 -0.000753 0.000000
# 4 0.000000 0.000000 0.000000 0.026772 0.000000 0.002431
# 5 -0.003652 0.007315 -0.000753 0.000000 0.029151 0.000000
# 6 0.000000 0.000000 0.000000 0.002431 0.000000 0.033828
#
#
# Mechanical properties :
#
#
# Convention : Reuss Voigt Hill
#
# Bulk Modulus (GPa) = 67.24609 89.29825 78.27217
# Shear Modulus (GPa) = 16.11733 24.87433 20.49583
#
# Velocity S-wave (km/s) = 3.00994 3.73927 3.39425
# Velocity P-wave (km/s) = 7.06254 8.29689 7.70447
#
# Compressibility (1/GPa) = 0.01487075
#
# Stress axis : x y z
#
# Youngs Moduli (GPa) = 31.29594 19.49119 31.31272
#
# Poissons Ratio (x) = 0.31595 0.50269
# Poissons Ratio (y) = 0.50730 0.56044
# Poissons Ratio (z) = 0.50242 0.34886
#
# Static dielectric constant tensor:
#      x y z
#    x 1.585000 0.000000 0.008120 
#    y 0.000000 1.594620 0.000000 
#    z 0.008120 0.000000 1.584410 
# 
# From -- ./inp_files/378296.got.cif
#   From: 2010.05.17/outbox.cif.g08.bks.cpg/sg12_190_cif.got.tgz:378296.got - 2010.06.03 13:09:07.
