data_PCOD9193181
_publ_section_title
;
Structure prediction by ZEFSAII (Michael W. Deem and Ramdas Pophale) SiO2 
 PCOD9193181
Probable space group: C 2/M
;
_chemical_formula_sum "Si O2"
_cell_formula_units_Z 64
_cell_length_a 9.511257
_cell_length_b 28.848513
_cell_length_c 15.239610
_cell_angle_alpha 90.000000
_cell_angle_beta 131.886150
_cell_angle_gamma 90.000000
_cell_volume 3113.035903
_symmetry_space_group_name_H-M "C 2/M"
_symmetry_group_IT_number 12
_symmetry_cell_setting 'monoclinic'
loop_
_space_group_symop_operation_xyz
x,y,z
-x,y,-z
-x,-y,-z
x,-y,z
1/2+x,1/2+y,z
1/2-x,1/2+y,-z
1/2-x,1/2-y,-z
1/2+x,1/2-y,z
loop_
_atom_site_type_symbol
_atom_site_label
_atom_site_fract_x
_atom_site_fract_y
_atom_site_fract_z
Si Si1 0.600790 0.651255 0.647594
Si Si2 0.827808 0.112140 0.864514
Si Si3 0.538366 0.552540 0.828892
Si Si4 0.240513 0.698165 0.457386
Si Si5 0.116701 0.552351 0.900919
Si Si6 0.817828 0.948925 0.301009
Si Si7 0.112645 0.703132 0.137442
Si Si8 0.639257 0.793951 0.790359
O O1 0.382734 0.665389 0.572531
O O2 0.676141 0.687744 0.605504
O O3 0.636435 0.598839 0.630680
O O4 0.745612 0.660130 0.787062
O O5 0.650829 0.087810 0.836246
O O6 0.794997 0.166210 0.853442
O O7 0.887224 0.089517 0.798703
O O8 0.000000 0.099009 0.000000
O O9 0.487554 0.500000 0.836079
O O10 0.553296 0.552750 0.731287
O O11 0.742457 0.562692 0.959689
O O12 0.250000 0.750000 0.500000
O O13 0.018284 0.691262 0.347381
O O14 0.165754 0.500000 0.892545
O O15 0.895276 0.552891 0.825481
O O16 0.837329 0.000000 0.352221
O O17 0.255143 0.746637 0.189029
O O18 0.965997 0.708198 0.158315
O O19 0.000000 0.698637 0.000000
#
# Coordination Sequence:
#
# PCOD9193181 Si02
#       8
#     8   8   8   8   8   8   8   8
#     4  10  22  38  62  92 118 161 208 256 306 358
#     4  10  20  34  52  82 119 156 201 249 303 367
#     4   9  18  32  52  80 119 164 204 244 297 363
#     4  10  20  42  64  82 113 154 210 261 297 355
#     4   9  16  29  52  81 117 162 206 246 291 356
#     4  10  20  35  57  89 125 157 198 252 311 370
#     4  11  23  38  59  88 127 160 195 247 314 378
#     4  11  23  39  60  86 117 157 205 252 310 370
#
# _framework density 20.558707999999999
#
# number of rings (size 3 to 8) (size 9 to 14) (size 15 to 20)
#    0.000    2.000    1.250    3.000    0.000    7.000 
#    0.000    1.250    0.000    1.500    0.000    1.750 
#    0.000    0.000    0.000    0.000    0.000    0.000 
#
# Total GULP energy -178234.257780 kJ/mol
# GULP energy per Si atom -5569.820556 kJ/mol
# Density = 2.051192 g / cm^3
# Si number density = 20.558708 Si / 1000 Ang^3
#
#
#
# Elastic Constant Matrix: (Units=GPa)
#
#
# Indices 1 2 3 4 5 6 
#
# 1 61.7337 23.2939 15.5127 0.0000 2.6463 0.0000
# 2 23.2939 100.0480 21.9211 0.0000 -2.2125 0.0000
# 3 15.5127 21.9211 59.8658 0.0000 13.2596 0.0000
# 4 0.0000 0.0000 0.0000 -16.5868 0.0000 13.1529
# 5 2.6463 -2.2125 13.2596 0.0000 14.4136 0.0000
# 6 0.0000 0.0000 0.0000 13.1529 0.0000 25.8951
#
#
#
# Elastic Compliance Matrix: (Units=1/GPa)
#
#
# Indices 1 2 3 4 5 6 
#
# 1 0.018412 -0.003597 -0.003244 0.000000 -0.000949 0.000000
# 2 -0.003597 0.012109 -0.005099 0.000000 0.007210 0.000000
# 3 -0.003244 -0.005099 0.024431 0.000000 -0.022662 0.000000
# 4 0.000000 0.000000 0.000000 -0.042978 0.000000 0.021830
# 5 -0.000949 0.007210 -0.022662 0.000000 0.091507 0.000000
# 6 0.000000 0.000000 0.000000 0.021830 0.000000 0.027529
#
#
# Mechanical properties :
#
#
# Convention : Reuss Voigt Hill
#
# Bulk Modulus (GPa) = 32.18253 38.12256 35.15254
# Shear Modulus (GPa) = 30.25769 15.47237 22.86503
#
# Velocity S-wave (km/s) = 3.84053 2.74632 3.33856
# Velocity P-wave (km/s) = 5.94594 5.35163 5.65659
#
# Compressibility (1/GPa) = 0.03107276
#
# Stress axis : x y z
#
# Youngs Moduli (GPa) = 54.31356 82.58102 40.93150
#
# Poissons Ratio (x) = 0.29704 0.13277
# Poissons Ratio (y) = 0.19537 0.20871
# Poissons Ratio (z) = 0.17618 0.42107
#
# Static dielectric constant tensor:
#      x y z
#    x 1.748080 0.000000 -0.004700 
#    y 0.000000 1.763480 0.000000 
#    z -0.004700 0.000000 1.801820 
# 
# From -- ./inp_files/201313.got.cif
#   From: 2010.05.17/outbox.cif.g08.bks.cpg/sg12_101_cif.got.tgz:201313.got - 2010.06.03 13:09:07.
