data_PCOD9193002
_publ_section_title
;
Structure prediction by ZEFSAII (Michael W. Deem and Ramdas Pophale) SiO2 
 PCOD9193002
Probable space group: C 2/M
;
_chemical_formula_sum "Si O2"
_cell_formula_units_Z 64
_cell_length_a 16.589988
_cell_length_b 7.449474
_cell_length_c 19.470291
_cell_angle_alpha 90.000000
_cell_angle_beta 91.285234
_cell_angle_gamma 90.000000
_cell_volume 2405.663345
_symmetry_space_group_name_H-M "C 2/M"
_symmetry_group_IT_number 12
_symmetry_cell_setting 'monoclinic'
loop_
_space_group_symop_operation_xyz
x,y,z
-x,y,-z
-x,-y,-z
x,-y,z
1/2+x,1/2+y,z
1/2-x,1/2+y,-z
1/2-x,1/2-y,-z
1/2+x,1/2-y,z
loop_
_atom_site_type_symbol
_atom_site_label
_atom_site_fract_x
_atom_site_fract_y
_atom_site_fract_z
Si Si1 0.127415 0.794870 0.234492
Si Si2 0.875011 0.782780 0.023860
Si Si3 0.219708 0.291554 0.106981
Si Si4 0.973471 0.220454 0.148634
Si Si5 0.537581 0.216538 0.604325
Si Si6 0.769196 0.294244 0.640943
Si Si7 0.627466 0.218549 0.474869
Si Si8 0.368936 0.705627 0.268204
O O1 0.199336 0.791410 0.179669
O O2 0.155140 0.702902 0.304872
O O3 0.052942 0.716496 0.189700
O O4 0.109653 0.000000 0.251770
O O5 0.796316 0.721287 0.066003
O O6 0.951523 0.725715 0.070761
O O7 0.876174 0.000000 0.021912
O O8 0.856378 0.726459 0.946110
O O9 0.234974 0.500000 0.119510
O O10 0.899190 0.276156 0.196431
O O11 0.977454 0.000000 0.148387
O O12 0.608355 0.273158 0.552301
O O13 0.453433 0.269130 0.568555
O O14 0.554447 0.292119 0.679345
O O15 0.538071 0.000000 0.608349
O O16 0.745967 0.500000 0.627049
O O17 0.798099 0.213706 0.569282
O O18 0.699636 0.206456 0.685873
O O19 0.630813 0.000000 0.474835
O O20 0.343605 0.500000 0.255129
#
# Coordination Sequence:
#
# PCOD9193002 Si02
#       8
#     8   8   8   8   8   8   8   8
#     4  11  22  35  53  76 102 133 171 213 253 301
#     4   9  18  36  59  78 101 137 175 207 245 298
#     4  10  20  35  56  81 108 136 167 207 253 300
#     4   9  19  35  53  73 100 135 171 208 255 305
#     4   9  17  32  53  75 102 136 172 209 251 306
#     4  10  20  35  54  74 100 135 172 212 259 307
#     4   8  16  32  53  75 101 136 173 208 254 308
#     4  10  20  34  52  75 103 134 169 211 258 305
#
# _framework density 26.60389
#
# number of rings (size 3 to 8) (size 9 to 14) (size 15 to 20)
#    0.000    2.500    0.000    3.000    0.000    4.000 
#    0.000    6.875    0.000    0.000    0.000    0.000 
#    0.000    0.000    0.000    0.000    0.000    0.000 
#
# Total GULP energy -179013.994240 kJ/mol
# GULP energy per Si atom -5594.187320 kJ/mol
# Density = 2.654334 g / cm^3
# Si number density = 26.603890 Si / 1000 Ang^3
#
#
#
# Elastic Constant Matrix: (Units=GPa)
#
#
# Indices 1 2 3 4 5 6 
#
# 1 65.1217 1.1316 9.1997 0.0000 2.4028 0.0000
# 2 1.1316 92.6239 -1.0636 0.0000 2.2539 0.0000
# 3 9.1997 -1.0636 155.4023 0.0000 6.3001 0.0000
# 4 0.0000 0.0000 0.0000 15.0705 0.0000 10.3087
# 5 2.4028 2.2539 6.3001 0.0000 56.1794 0.0000
# 6 0.0000 0.0000 0.0000 10.3087 0.0000 7.2581
#
#
#
# Elastic Compliance Matrix: (Units=1/GPa)
#
#
# Indices 1 2 3 4 5 6 
#
# 1 0.015506 -0.000186 -0.000897 0.000000 -0.000555 0.000000
# 2 -0.000186 0.010810 0.000103 0.000000 -0.000437 0.000000
# 3 -0.000897 0.000103 0.006517 0.000000 -0.000697 0.000000
# 4 0.000000 0.000000 0.000000 2.330487 0.000000 -3.310003
# 5 -0.000555 -0.000437 -0.000697 0.000000 0.017920 0.000000
# 6 0.000000 0.000000 0.000000 -3.310003 0.000000 4.838993
#
#
# Mechanical properties :
#
#
# Convention : Reuss Voigt Hill
#
# Bulk Modulus (GPa) = 32.39052 36.85368 34.62210
# Shear Modulus (GPa) = 0.69133 35.96028 18.32580
#
# Velocity S-wave (km/s) = 0.51032 3.68053 2.62742
# Velocity P-wave (km/s) = 3.54242 5.65195 4.71663
#
# Compressibility (1/GPa) = 0.03087323
#
# Stress axis : x y z
#
# Youngs Moduli (GPa) = 64.49003 92.50312 153.44622
#
# Poissons Ratio (x) = 0.01723 0.13760
# Poissons Ratio (y) = 0.01201 -0.01577
# Poissons Ratio (z) = 0.05783 -0.00950
#
# Static dielectric constant tensor:
#      x y z
#    x 2.195900 0.000000 -0.009880 
#    y 0.000000 2.006880 0.000000 
#    z -0.009880 0.000000 1.997360 
# 
# From -- ./inp_files/314177.got.cif
#   From: 2010.05.17/outbox.cif.g08.bks.cpg/sg12_158_cif.got.tgz:314177.got - 2010.06.03 13:09:07.
