data_PCOD9193355
_publ_section_title
;
Structure prediction by ZEFSAII (Michael W. Deem and Ramdas Pophale) SiO2 
 PCOD9193355
Probable space group: C 2/M
;
_chemical_formula_sum "Si O2"
_cell_formula_units_Z 42
_cell_length_a 14.402276
_cell_length_b 7.679410
_cell_length_c 26.342516
_cell_angle_alpha 90.000000
_cell_angle_beta 137.835862
_cell_angle_gamma 90.000000
_cell_volume 1955.712099
_symmetry_space_group_name_H-M "C 2/M"
_symmetry_group_IT_number 12
_symmetry_cell_setting 'monoclinic'
loop_
_space_group_symop_operation_xyz
x,y,z
-x,y,-z
-x,-y,-z
x,-y,z
1/2+x,1/2+y,z
1/2-x,1/2+y,-z
1/2-x,1/2-y,-z
1/2+x,1/2-y,z
loop_
_atom_site_type_symbol
_atom_site_label
_atom_site_fract_x
_atom_site_fract_y
_atom_site_fract_z
Si Si1 0.350327 0.793563 0.586729
Si Si2 0.824269 0.207803 0.169309
Si Si3 0.646131 0.304276 0.003391
Si Si4 0.834944 0.288893 0.287060
Si Si5 0.642255 0.706246 0.298258
Si Si6 0.500000 0.000000 0.000000
O O1 0.250000 0.750000 0.500000
O O2 0.506808 0.724589 0.643080
O O3 0.300784 0.733441 0.622033
O O4 0.360666 0.000000 0.593542
O O5 0.737971 0.303645 0.091841
O O6 0.781796 0.236390 0.210154
O O7 0.984032 0.268253 0.231897
O O8 0.808767 0.000000 0.151584
O O9 0.591062 0.500000 0.971529
O O10 0.750000 0.250000 0.000000
O O11 0.535961 0.154431 0.971922
O O12 0.837489 0.500000 0.290043
O O13 0.739513 0.222495 0.293778
O O14 0.631638 0.500000 0.286017
#
# Coordination Sequence:
#
# PCOD9193355 Si02
#       6
#     8   8   8   8   8   2
#     4  10  20  34  53  77 113 152 198 249 309 374
#     4  10  20  38  61  91 127 159 207 265 320 389
#     4  12  25  47  73 101 143 184 229 288 344 418
#     4   9  19  36  56  83 114 155 207 255 310 384
#     4   9  19  36  59  82 113 154 199 253 312 370
#     4  12  26  48  72 104 136 180 238 272 356 402
#
# _framework density 21.475553000000001
#
# number of rings (size 3 to 8) (size 9 to 14) (size 15 to 20)
#    0.000    1.905    1.905    1.429    0.000    4.571 
#    0.000    7.619    0.000    0.000    0.000    0.000 
#    0.000    0.000    0.000    0.000    0.000    0.000 
#
# Total GULP energy -117050.247475 kJ/mol
# GULP energy per Si atom -5573.821308 kJ/mol
# Density = 2.142667 g / cm^3
# Si number density = 21.475553 Si / 1000 Ang^3
#
#
#
# Elastic Constant Matrix: (Units=GPa)
#
#
# Indices 1 2 3 4 5 6 
#
# 1 167.1541 28.4193 26.0103 0.0000 -26.0328 0.0000
# 2 28.4193 106.0149 -8.9334 0.0000 6.8965 0.0000
# 3 26.0103 -8.9334 83.8204 0.0000 -20.8562 0.0000
# 4 0.0000 0.0000 0.0000 25.8986 0.0000 -7.8954
# 5 -26.0328 6.8965 -20.8562 0.0000 15.9403 0.0000
# 6 0.0000 0.0000 0.0000 -7.8954 0.0000 25.0150
#
#
#
# Elastic Compliance Matrix: (Units=1/GPa)
#
#
# Indices 1 2 3 4 5 6 
#
# 1 0.009242 -0.003561 0.001322 0.000000 0.018364 0.000000
# 2 -0.003561 0.011078 -0.000525 0.000000 -0.011295 0.000000
# 3 0.001322 -0.000525 0.017878 0.000000 0.025777 0.000000
# 4 0.000000 0.000000 0.000000 0.042723 0.000000 0.013485
# 5 0.018364 -0.011295 0.025777 0.000000 0.131338 0.000000
# 6 0.000000 0.000000 0.000000 0.013485 0.000000 0.044232
#
#
# Mechanical properties :
#
#
# Convention : Reuss Voigt Hill
#
# Bulk Modulus (GPa) = 30.60844 49.77575 40.19209
# Shear Modulus (GPa) = 18.32111 34.13699 26.22905
#
# Velocity S-wave (km/s) = 2.92398 3.99127 3.49857
# Velocity P-wave (km/s) = 5.06786 6.66847 5.92249
#
# Compressibility (1/GPa) = 0.03267073
#
# Stress axis : x y z
#
# Youngs Moduli (GPa) = 108.19892 90.27150 55.93436
#
# Poissons Ratio (x) = 0.32144 -0.07394
# Poissons Ratio (y) = 0.38527 0.02935
# Poissons Ratio (z) = -0.14302 0.04737
#
# Static dielectric constant tensor:
#      x y z
#    x 1.808420 0.000000 0.063370 
#    y 0.000000 1.800840 0.000000 
#    z 0.063370 0.000000 1.791620 
# 
# From -- ./inp_files/360134.got.cif
#   From: 2010.05.17/outbox.cif.g08.bks.cpg/sg12_181_cif.got.tgz:360134.got - 2010.06.03 13:09:07.
