data_PCOD9193015
_publ_section_title
;
Structure prediction by ZEFSAII (Michael W. Deem and Ramdas Pophale) SiO2 
 PCOD9193015
Probable space group: C 2/M
;
_chemical_formula_sum "Si O2"
_cell_formula_units_Z 56
_cell_length_a 8.625207
_cell_length_b 11.530989
_cell_length_c 30.522576
_cell_angle_alpha 90.000000
_cell_angle_beta 70.467852
_cell_angle_gamma 90.000000
_cell_volume 2860.997328
_symmetry_space_group_name_H-M "C 2/M"
_symmetry_group_IT_number 12
_symmetry_cell_setting 'monoclinic'
loop_
_space_group_symop_operation_xyz
x,y,z
-x,y,-z
-x,-y,-z
x,-y,z
1/2+x,1/2+y,z
1/2-x,1/2+y,-z
1/2-x,1/2-y,-z
1/2+x,1/2-y,z
loop_
_atom_site_type_symbol
_atom_site_label
_atom_site_fract_x
_atom_site_fract_y
_atom_site_fract_z
Si Si1 0.377008 0.634198 0.730438
Si Si2 0.305876 0.259367 0.890009
Si Si3 0.414014 0.311608 0.466140
Si Si4 0.756934 0.367675 0.696154
Si Si5 0.185142 0.374621 0.412374
Si Si6 0.614624 0.870480 0.832956
Si Si7 0.998971 0.864741 0.950541
O O1 0.356036 0.500000 0.713875
O O2 0.566038 0.638420 0.728159
O O3 0.347517 0.751255 0.704594
O O4 0.245949 0.644969 0.781986
O O5 0.462535 0.216820 0.847640
O O6 0.208305 0.351681 0.870061
O O7 0.177337 0.157658 0.912512
O O8 0.370730 0.305611 0.930060
O O9 0.500000 0.372221 0.500000
O O10 0.250000 0.250000 0.500000
O O11 0.342122 0.371916 0.429779
O O12 0.551638 0.221022 0.437391
O O13 0.818358 0.500000 0.702446
O O14 0.761170 0.362479 0.642894
O O15 0.103037 0.500000 0.425725
O O16 0.548051 0.000000 0.836286
O O17 0.961211 0.000000 0.956196
O O18 0.000000 0.817541 0.000000
#
# Coordination Sequence:
#
# PCOD9193015 Si02
#       7
#     8   8   8   8   8   8   8
#     4  10  21  37  57  82 112 144 182 229 275 324
#     4  10  20  34  53  76 103 137 175 215 263 319
#     4   9  19  34  53  79 106 135 176 218 259 316
#     4  10  21  37  57  82 112 147 185 225 272 327
#     4  10  20  36  56  77 108 144 177 220 270 319
#     4  10  20  35  54  77 106 139 175 218 268 319
#     4  10  20  34  52  75 103 135 173 217 263 313
#
# _framework density 19.573594
#
# number of rings (size 3 to 8) (size 9 to 14) (size 15 to 20)
#    0.000    2.143    0.000    3.000    0.000    3.429 
#    0.000    6.429    0.000    6.857    0.000    0.000 
#    0.000    0.000    0.000    0.000    0.000    0.000 
#
# Total GULP energy -155930.304720 kJ/mol
# GULP energy per Si atom -5568.939454 kJ/mol
# Density = 1.952904 g / cm^3
# Si number density = 19.573594 Si / 1000 Ang^3
#
#
#
# Elastic Constant Matrix: (Units=GPa)
#
#
# Indices 1 2 3 4 5 6 
#
# 1 54.8605 15.6051 -8.2674 0.0000 -1.2182 0.0000
# 2 15.6051 95.6380 5.6988 0.0000 10.4700 0.0000
# 3 -8.2674 5.6988 37.5452 0.0000 -1.1047 0.0000
# 4 0.0000 0.0000 0.0000 45.8940 0.0000 11.3872
# 5 -1.2182 10.4700 -1.1047 0.0000 34.7151 0.0000
# 6 0.0000 0.0000 0.0000 11.3872 0.0000 21.0462
#
#
#
# Elastic Compliance Matrix: (Units=1/GPa)
#
#
# Indices 1 2 3 4 5 6 
#
# 1 0.020119 -0.003805 0.005067 0.000000 0.002015 0.000000
# 2 -0.003805 0.011647 -0.002716 0.000000 -0.003733 0.000000
# 3 0.005067 -0.002716 0.028218 0.000000 0.001895 0.000000
# 4 0.000000 0.000000 0.000000 0.025168 0.000000 -0.013617
# 5 0.002015 -0.003733 0.001895 0.000000 0.030063 0.000000
# 6 0.000000 0.000000 0.000000 -0.013617 0.000000 0.054882
#
#
# Mechanical properties :
#
#
# Convention : Reuss Voigt Hill
#
# Bulk Modulus (GPa) = 17.52029 23.79074 20.65552
# Shear Modulus (GPa) = 26.03746 31.99819 29.01783
#
# Velocity S-wave (km/s) = 3.65119 4.04761 3.85450
# Velocity P-wave (km/s) = 5.17159 5.83310 5.51228
#
# Compressibility (1/GPa) = 0.05707667
#
# Stress axis : x y z
#
# Youngs Moduli (GPa) = 49.70482 85.85565 35.43803
#
# Poissons Ratio (x) = 0.32670 -0.17956
# Poissons Ratio (y) = 0.18914 0.09624
# Poissons Ratio (z) = -0.25185 0.23315
#
# Static dielectric constant tensor:
#      x y z
#    x 1.666530 0.000000 0.022270 
#    y 0.000000 1.710500 0.000000 
#    z 0.022270 0.000000 1.689810 
# 
# From -- ./inp_files/355741.got.cif
#   From: 2010.05.17/outbox.cif.g08.bks.cpg/sg12_178_cif.got.tgz:355741.got - 2010.06.03 13:09:07.
