data_PCOD9193512
_publ_section_title
;
Structure prediction by ZEFSAII (Michael W. Deem and Ramdas Pophale) SiO2 
 PCOD9193512
Probable space group: C 2/M
;
_chemical_formula_sum "Si O2"
_cell_formula_units_Z 56
_cell_length_a 27.495709
_cell_length_b 8.867869
_cell_length_c 13.693462
_cell_angle_alpha 90.000000
_cell_angle_beta 64.354278
_cell_angle_gamma 90.000000
_cell_volume 3009.935094
_symmetry_space_group_name_H-M "C 2/M"
_symmetry_group_IT_number 12
_symmetry_cell_setting 'monoclinic'
loop_
_space_group_symop_operation_xyz
x,y,z
-x,y,-z
-x,-y,-z
x,-y,z
1/2+x,1/2+y,z
1/2-x,1/2+y,-z
1/2-x,1/2-y,-z
1/2+x,1/2-y,z
loop_
_atom_site_type_symbol
_atom_site_label
_atom_site_fract_x
_atom_site_fract_y
_atom_site_fract_z
Si Si1 0.941673 0.177003 0.664196
Si Si2 0.551994 0.180844 0.890231
Si Si3 0.276345 0.818883 0.756871
Si Si4 0.163963 0.822984 0.115649
Si Si5 0.841878 0.182621 0.104971
Si Si6 0.947477 0.180369 0.324839
Si Si7 0.378190 0.179909 0.544754
O O1 0.895947 0.192349 0.787114
O O2 0.921284 0.273232 0.590669
O O3 0.999064 0.219283 0.658905
O O4 0.943423 0.000000 0.633197
O O5 0.606136 0.242878 0.892947
O O6 0.547998 0.247815 0.785405
O O7 0.553645 0.000000 0.884077
O O8 0.500000 0.225425 0.000000
O O9 0.296724 0.762734 0.844695
O O10 0.214520 0.773613 0.794877
O O11 0.320415 0.768406 0.638748
O O12 0.277911 0.000000 0.756990
O O13 0.178282 0.000000 0.105340
O O14 0.163749 0.773130 0.004000
O O15 0.847483 0.000000 0.103799
O O16 0.896607 0.241811 0.429423
O O17 0.945137 0.000000 0.318671
O O18 0.377638 0.000000 0.533489
#
# Coordination Sequence:
#
# PCOD9193512 Si02
#       7
#     8   8   8   8   8   8   8
#     4   9  18  32  51  79 111 142 179 221 268 323
#     4  11  25  42  59  82 110 138 173 220 271 322
#     4   9  19  34  53  80 113 146 180 222 269 318
#     4   9  17  30  52  81 111 142 177 221 270 321
#     4  10  20  36  57  80 108 145 187 224 264 317
#     4  11  22  37  58  80 106 144 186 225 266 317
#     4  10  20  34  53  80 114 146 178 222 273 319
#
# _framework density 18.605053000000002
#
# number of rings (size 3 to 8) (size 9 to 14) (size 15 to 20)
#    0.000    2.143    0.000    3.000    0.000    6.857 
#    0.000    3.571    0.000    0.000    0.000    0.000 
#    0.000    0.000    0.000    0.000    0.000    0.000 
#
# Total GULP energy -156360.406778 kJ/mol
# GULP energy per Si atom -5584.300242 kJ/mol
# Density = 1.856271 g / cm^3
# Si number density = 18.605053 Si / 1000 Ang^3
#
#
#
# Elastic Constant Matrix: (Units=GPa)
#
#
# Indices 1 2 3 4 5 6 
#
# 1 123.2410 38.9967 67.5417 0.0000 -27.2778 0.0000
# 2 38.9967 29.7451 45.7886 0.0000 -9.2084 0.0000
# 3 67.5417 45.7886 143.5538 0.0000 -13.6364 0.0000
# 4 0.0000 0.0000 0.0000 30.1058 0.0000 5.3559
# 5 -27.2778 -9.2084 -13.6364 0.0000 12.5422 0.0000
# 6 0.0000 0.0000 0.0000 5.3559 0.0000 26.0457
#
#
#
# Elastic Compliance Matrix: (Units=1/GPa)
#
#
# Indices 1 2 3 4 5 6 
#
# 1 0.021140 -0.013683 -0.002419 0.000000 0.033302 0.000000
# 2 -0.013683 0.085537 -0.019746 0.000000 0.011574 0.000000
# 3 -0.002419 -0.019746 0.013968 0.000000 -0.004571 0.000000
# 4 0.000000 0.000000 0.000000 0.034477 0.000000 -0.007090
# 5 0.033302 0.011574 -0.004571 0.000000 0.155685 0.000000
# 6 0.000000 0.000000 0.000000 -0.007090 0.000000 0.039852
#
#
# Mechanical properties :
#
#
# Convention : Reuss Voigt Hill
#
# Bulk Modulus (GPa) = 20.42900 66.79931 43.61416
# Shear Modulus (GPa) = 11.39805 23.35294 17.37549
#
# Velocity S-wave (km/s) = 2.47783 3.54671 3.05931
# Velocity P-wave (km/s) = 4.38068 7.26320 5.99768
#
# Compressibility (1/GPa) = 0.04895002
#
# Stress axis : x y z
#
# Youngs Moduli (GPa) = 47.30308 11.69089 71.59145
#
# Poissons Ratio (x) = 0.15996 0.17316
# Poissons Ratio (y) = 0.64723 1.41366
# Poissons Ratio (z) = 0.11441 0.23085
#
# Static dielectric constant tensor:
#      x y z
#    x 1.625790 0.000000 -0.033680 
#    y 0.000000 1.626420 0.000000 
#    z -0.033680 0.000000 1.647100 
# 
# From -- ./inp_files/180720.got.cif
#   From: 2010.05.17/outbox.cif.g08.bks.cpg/sg12_91_cif.got.tgz:180720.got - 2010.06.03 13:09:07.
