data_PCOD9193353
_publ_section_title
;
Structure prediction by ZEFSAII (Michael W. Deem and Ramdas Pophale) SiO2 
 PCOD9193353
Probable space group: C 2/M
;
_chemical_formula_sum "Si O2"
_cell_formula_units_Z 50
_cell_length_a 14.643349
_cell_length_b 7.318919
_cell_length_c 18.178322
_cell_angle_alpha 90.000000
_cell_angle_beta 73.765897
_cell_angle_gamma 90.000000
_cell_volume 1870.553076
_symmetry_space_group_name_H-M "C 2/M"
_symmetry_group_IT_number 12
_symmetry_cell_setting 'monoclinic'
loop_
_space_group_symop_operation_xyz
x,y,z
-x,y,-z
-x,-y,-z
x,-y,z
1/2+x,1/2+y,z
1/2-x,1/2+y,-z
1/2-x,1/2-y,-z
1/2+x,1/2-y,z
loop_
_atom_site_type_symbol
_atom_site_label
_atom_site_fract_x
_atom_site_fract_y
_atom_site_fract_z
Si Si1 0.000000 0.500000 0.500000
Si Si2 0.492820 0.275927 0.185034
Si Si3 0.622921 0.707925 0.276760
Si Si4 0.403214 0.291324 0.442785
Si Si5 0.698012 0.277653 0.856746
Si Si6 0.600415 0.709665 0.021666
Si Si7 0.232016 0.779745 0.392979
O O1 0.010346 0.659441 0.562284
O O2 0.494363 0.500000 0.184448
O O3 0.530749 0.215361 0.255984
O O4 0.388764 0.224036 0.178651
O O5 0.569039 0.209968 0.106417
O O6 0.597539 0.500000 0.304766
O O7 0.704224 0.703975 0.196078
O O8 0.681419 0.789389 0.331480
O O9 0.426765 0.500000 0.451583
O O10 0.339310 0.281571 0.384378
O O11 0.331535 0.218207 0.523237
O O12 0.700513 0.500000 0.857013
O O13 0.673534 0.214712 0.945197
O O14 0.628290 0.500000 0.028570
O O15 0.500000 0.706392 0.000000
O O16 0.233963 0.000000 0.392546
#
# Coordination Sequence:
#
# PCOD9193353 Si02
#       7
#     2   8   8   8   8   8   8
#     4  12  22  40  64 106 124 142 194 262 276 346
#     4   8  15  30  50  72 100 142 187 229 281 343
#     4  10  20  34  53  77 111 146 182 226 289 345
#     4  10  21  39  66  90 123 157 196 238 297 344
#     4   9  17  31  50  75 103 138 188 238 277 336
#     4   7  11  23  46  70  96 133 182 234 280 327
#     4   9  19  39  58  80 113 162 197 237 290 358
#
# _framework density 26.730063000000001
#
# number of rings (size 3 to 8) (size 9 to 14) (size 15 to 20)
#    0.000    3.040    0.800    2.160    1.120    1.280 
#    2.880    0.800    0.000    4.320    0.000    0.000 
#    0.000    0.000    0.000    0.000    0.000    0.000 
#
# Total GULP energy -139553.252382 kJ/mol
# GULP energy per Si atom -5582.130095 kJ/mol
# Density = 2.666922 g / cm^3
# Si number density = 26.730063 Si / 1000 Ang^3
#
#
#
# Elastic Constant Matrix: (Units=GPa)
#
#
# Indices 1 2 3 4 5 6 
#
# 1 138.8428 7.9631 62.6581 0.0000 29.4208 0.0000
# 2 7.9631 142.2117 -3.5389 0.0000 16.8941 0.0000
# 3 62.6581 -3.5389 80.0425 0.0000 23.3228 0.0000
# 4 0.0000 0.0000 0.0000 5.3361 0.0000 0.3486
# 5 29.4208 16.8941 23.3228 0.0000 70.0841 0.0000
# 6 0.0000 0.0000 0.0000 0.3486 0.0000 -49.5437
#
#
#
# Elastic Compliance Matrix: (Units=1/GPa)
#
#
# Indices 1 2 3 4 5 6 
#
# 1 0.011441 -0.000632 -0.008448 0.000000 -0.001839 0.000000
# 2 -0.000632 0.007335 0.001392 0.000000 -0.001966 0.000000
# 3 -0.008448 0.001392 0.020190 0.000000 -0.003508 0.000000
# 4 0.000000 0.000000 0.000000 0.187317 0.000000 0.001318
# 5 -0.001839 -0.001966 -0.003508 0.000000 0.016682 0.000000
# 6 0.000000 0.000000 0.000000 0.001318 0.000000 -0.020175
#
#
# Mechanical properties :
#
#
# Convention : Reuss Voigt Hill
#
# Bulk Modulus (GPa) = 42.39074 55.02907 48.70991
# Shear Modulus (GPa) = 20.32268 24.77628 22.54948
#
# Velocity S-wave (km/s) = 2.76033 3.04782 2.90763
# Velocity P-wave (km/s) = 5.10416 5.74606 5.43460
#
# Compressibility (1/GPa) = 0.02359006
#
# Stress axis : x y z
#
# Youngs Moduli (GPa) = 87.40576 136.32550 49.52834
#
# Poissons Ratio (x) = 0.08621 0.41842
# Poissons Ratio (y) = 0.05528 -0.06896
# Poissons Ratio (z) = 0.73842 -0.18980
#
# Static dielectric constant tensor:
#      x y z
#    x 2.177600 0.000000 -0.026670 
#    y 0.000000 1.871230 0.000000 
#    z -0.026670 0.000000 2.169820 
# 
# From -- ./inp_files/308430.got.cif
#   From: 2010.05.17/outbox.cif.g08.bks.cpg/sg12_155_cif.got.tgz:308430.got - 2010.06.03 13:09:07.
