data_PCOD9193453
_publ_section_title
;
Structure prediction by ZEFSAII (Michael W. Deem and Ramdas Pophale) SiO2 
 PCOD9193453
Probable space group: C 2/M
;
_chemical_formula_sum "Si O2"
_cell_formula_units_Z 64
_cell_length_a 24.558844
_cell_length_b 10.753990
_cell_length_c 14.105226
_cell_angle_alpha 90.000000
_cell_angle_beta 71.990522
_cell_angle_gamma 90.000000
_cell_volume 3542.750548
_symmetry_space_group_name_H-M "C 2/M"
_symmetry_group_IT_number 12
_symmetry_cell_setting 'monoclinic'
loop_
_space_group_symop_operation_xyz
x,y,z
-x,y,-z
-x,-y,-z
x,-y,z
1/2+x,1/2+y,z
1/2-x,1/2+y,-z
1/2-x,1/2-y,-z
1/2+x,1/2-y,z
loop_
_atom_site_type_symbol
_atom_site_label
_atom_site_fract_x
_atom_site_fract_y
_atom_site_fract_z
Si Si1 0.964481 0.356204 0.422264
Si Si2 0.176889 0.362439 0.664664
Si Si3 0.331272 0.143529 0.541294
Si Si4 0.638224 0.644721 0.140531
Si Si5 0.396500 0.641865 0.207116
Si Si6 0.509405 0.647974 0.252678
Si Si7 0.315847 0.645176 0.078873
Si Si8 0.775259 0.211592 0.744345
O O1 0.970305 0.500000 0.382481
O O2 0.898216 0.334722 0.484333
O O3 0.000000 0.350332 0.500000
O O4 0.985711 0.246160 0.342288
O O5 0.148850 0.500000 0.678674
O O6 0.197275 0.337655 0.546414
O O7 0.135744 0.249746 0.717314
O O8 0.228456 0.366732 0.711567
O O9 0.307682 0.218918 0.641988
O O10 0.323506 0.000000 0.570940
O O11 0.630486 0.500000 0.120547
O O12 0.573700 0.689692 0.192615
O O13 0.677348 0.653528 0.212496
O O14 0.670314 0.700991 0.031735
O O15 0.380030 0.500000 0.246327
O O16 0.463938 0.653125 0.190619
O O17 0.372941 0.655046 0.113223
O O18 0.510626 0.500000 0.282269
O O19 0.301297 0.500000 0.077222
O O20 0.264449 0.706109 0.164940
#
# Coordination Sequence:
#
# PCOD9193453 Si02
#       8
#     8   8   8   8   8   8   8   8
#     4  10  20  35  55  79 110 148 184 219 266 326
#     4  10  20  35  55  80 111 148 181 221 273 323
#     4  10  20  34  53  79 109 143 182 222 269 321
#     4  10  21  36  53  78 110 143 181 227 280 327
#     4   9  18  34  57  84 107 140 186 228 271 322
#     4  10  20  35  56  81 111 143 180 227 272 321
#     4   9  19  35  56  79 106 141 182 232 278 320
#     4  11  20  34  54  79 109 144 184 224 267 327
#
# _framework density 18.065059000000002
#
# number of rings (size 3 to 8) (size 9 to 14) (size 15 to 20)
#    0.000    2.125    1.250    2.250    0.000    1.250 
#    0.000    5.625    0.000    4.500    0.000    4.375 
#    0.000    0.000    0.000    0.000    0.000    0.000 
#
# Total GULP energy -178160.447229 kJ/mol
# GULP energy per Si atom -5567.513976 kJ/mol
# Density = 1.802394 g / cm^3
# Si number density = 18.065059 Si / 1000 Ang^3
#
#
#
# Elastic Constant Matrix: (Units=GPa)
#
#
# Indices 1 2 3 4 5 6 
#
# 1 83.6083 30.6540 23.6390 0.0000 -1.4849 0.0000
# 2 30.6540 69.6298 42.3869 0.0000 -7.2877 0.0000
# 3 23.6390 42.3869 92.3720 0.0000 -3.6947 0.0000
# 4 0.0000 0.0000 0.0000 27.6905 0.0000 2.1829
# 5 -1.4849 -7.2877 -3.6947 0.0000 18.7222 0.0000
# 6 0.0000 0.0000 0.0000 2.1829 0.0000 14.8743
#
#
#
# Elastic Compliance Matrix: (Units=1/GPa)
#
#
# Indices 1 2 3 4 5 6 
#
# 1 0.014371 -0.005821 -0.001060 0.000000 -0.001335 0.000000
# 2 -0.005821 0.022978 -0.008784 0.000000 0.006749 0.000000
# 3 -0.001060 -0.008784 0.015107 0.000000 -0.000522 0.000000
# 4 0.000000 0.000000 0.000000 0.036536 0.000000 -0.005362
# 5 -0.001335 0.006749 -0.000522 0.000000 0.055831 0.000000
# 6 0.000000 0.000000 0.000000 -0.005362 0.000000 0.068017
#
#
# Mechanical properties :
#
#
# Convention : Reuss Voigt Hill
#
# Bulk Modulus (GPa) = 47.33694 48.77443 48.05569
# Shear Modulus (GPa) = 19.90345 22.18607 21.04476
#
# Velocity S-wave (km/s) = 3.32289 3.50826 3.41683
# Velocity P-wave (km/s) = 6.40176 6.59306 6.49811
#
# Compressibility (1/GPa) = 0.02112515
#
# Stress axis : x y z
#
# Youngs Moduli (GPa) = 69.58585 43.51938 66.19420
#
# Poissons Ratio (x) = 0.25333 0.07016
# Poissons Ratio (y) = 0.40507 0.58148
# Poissons Ratio (z) = 0.07375 0.38229
#
# Static dielectric constant tensor:
#      x y z
#    x 1.648180 0.000000 0.013900 
#    y 0.000000 1.624540 0.000000 
#    z 0.013900 0.000000 1.613790 
# 
# From -- ./inp_files/174579.got.cif
#   From: 2010.05.17/outbox.cif.g08.bks.cpg/sg12_88_cif.got.tgz:174579.got - 2010.06.03 13:09:07.
