data_PCOD9193586
_publ_section_title
;
Structure prediction by ZEFSAII (Michael W. Deem and Ramdas Pophale) SiO2 
 PCOD9193586
Probable space group: C 2/M
;
_chemical_formula_sum "Si O2"
_cell_formula_units_Z 64
_cell_length_a 21.929346
_cell_length_b 7.329429
_cell_length_c 20.928520
_cell_angle_alpha 90.000000
_cell_angle_beta 52.956055
_cell_angle_gamma 90.000000
_cell_volume 2684.922466
_symmetry_space_group_name_H-M "C 2/M"
_symmetry_group_IT_number 12
_symmetry_cell_setting 'monoclinic'
loop_
_space_group_symop_operation_xyz
x,y,z
-x,y,-z
-x,-y,-z
x,-y,z
1/2+x,1/2+y,z
1/2-x,1/2+y,-z
1/2-x,1/2-y,-z
1/2+x,1/2-y,z
loop_
_atom_site_type_symbol
_atom_site_label
_atom_site_fract_x
_atom_site_fract_y
_atom_site_fract_z
Si Si1 0.064181 0.777512 0.724741
Si Si2 0.275170 0.720513 0.884946
Si Si3 0.598463 0.290848 0.977701
Si Si4 0.911957 0.223092 0.545877
Si Si5 0.376819 0.286621 0.176460
Si Si6 0.839602 0.782105 0.457068
Si Si7 0.301665 0.719537 0.728418
Si Si8 0.411587 0.722519 0.879222
O O1 0.099206 0.713359 0.769999
O O2 0.110014 0.712778 0.634202
O O3 0.975347 0.729003 0.787132
O O4 0.068797 0.000000 0.720871
O O5 0.269678 0.500000 0.890563
O O6 0.189515 0.791659 0.934486
O O7 0.316231 0.772098 0.792445
O O8 0.328390 0.783516 0.908985
O O9 0.572942 0.500000 0.990312
O O10 0.591068 0.210269 0.911262
O O11 0.566050 0.212082 0.064044
O O12 0.872330 0.283437 0.504542
O O13 0.860608 0.284023 0.638104
O O14 0.000000 0.278353 0.500000
O O15 0.911671 0.000000 0.545685
O O16 0.398531 0.500000 0.162801
O O17 0.285188 0.275246 0.231052
O O18 0.750000 0.750000 0.500000
O O19 0.848953 0.000000 0.452800
O O20 0.303217 0.500000 0.725636
O O21 0.409869 0.500000 0.883209
#
# Coordination Sequence:
#
# PCOD9193586 Si02
#       8
#     8   8   8   8   8   8   8   8
#     4   9  18  30  47  71  94 119 154 194 233 272
#     4   9  17  28  46  68  91 120 152 188 227 273
#     4   9  17  29  46  67  91 121 153 188 228 271
#     4   9  18  30  48  75 100 122 157 205 248 284
#     4   9  17  30  47  67  91 120 154 188 225 273
#     4  10  20  34  54  75  98 130 164 202 244 292
#     4   9  17  29  47  69  91 118 150 188 232 275
#     4   9  17  28  44  68  94 118 151 193 231 268
#
# _framework density 23.836815000000001
#
# number of rings (size 3 to 8) (size 9 to 14) (size 15 to 20)
#    0.000    2.875    0.000    1.125    1.750    0.500 
#    0.000    2.500    0.000    4.500    0.000    3.500 
#    0.000    0.000    0.000    0.000    0.000    0.000 
#
# Total GULP energy -178755.752491 kJ/mol
# GULP energy per Si atom -5586.117265 kJ/mol
# Density = 2.378256 g / cm^3
# Si number density = 23.836815 Si / 1000 Ang^3
#
#
#
# Elastic Constant Matrix: (Units=GPa)
#
#
# Indices 1 2 3 4 5 6 
#
# 1 141.0822 1.2493 52.5041 0.0009 8.5398 0.0016
# 2 1.2493 95.2319 7.4780 0.0017 5.6977 -0.0008
# 3 52.5041 7.4780 180.1095 0.0022 7.2433 -0.0002
# 4 0.0009 0.0017 0.0022 -14.9309 -0.0003 -5.1695
# 5 8.5398 5.6977 7.2433 -0.0003 35.0423 0.0001
# 6 0.0016 -0.0008 -0.0002 -5.1695 0.0001 3.9785
#
#
#
# Elastic Compliance Matrix: (Units=1/GPa)
#
#
# Indices 1 2 3 4 5 6 
#
# 1 0.008029 0.000165 -0.002287 0.000001 -0.001511 -0.000002
# 2 0.000165 0.010632 -0.000422 0.000000 -0.001682 0.000003
# 3 -0.002287 -0.000422 0.006263 0.000000 -0.000669 0.000001
# 4 0.000001 0.000000 0.000000 -0.046194 -0.000001 -0.060022
# 5 -0.001511 -0.001682 -0.000669 -0.000001 0.029317 -0.000001
# 6 -0.000002 0.000003 0.000001 -0.060022 -0.000001 0.173359
#
#
# Mechanical properties :
#
#
# Convention : Reuss Voigt Hill
#
# Bulk Modulus (GPa) = 50.41131 59.87627 55.14379
# Shear Modulus (GPa) = 25.89252 28.49749 27.19501
#
# Velocity S-wave (km/s) = 3.29939 3.46139 3.38136
# Velocity P-wave (km/s) = 5.97571 6.41473 6.19910
#
# Compressibility (1/GPa) = 0.01983682
#
# Stress axis : x y z
#
# Youngs Moduli (GPa) = 124.54804 94.05340 159.66364
#
# Poissons Ratio (x) = -0.01548 0.36509
# Poissons Ratio (y) = -0.02050 0.06735
# Poissons Ratio (z) = 0.28480 0.03967
#
# Static dielectric constant tensor:
#      x y z
#    x 1.877650 0.000000 0.014940 
#    y 0.000000 1.912840 0.000000 
#    z 0.014940 0.000000 1.892010 
# 
# From -- ./inp_files/324158.got.cif
#   From: 2010.05.17/outbox.cif.g08.bks.cpg/sg12_163_cif.got.tgz:324158.got - 2010.06.03 13:09:07.
