data_PCOD9193892
_publ_section_title
;
Structure prediction by ZEFSAII (Michael W. Deem and Ramdas Pophale) SiO2 
 PCOD9193892
Probable space group: C 2/M
;
_chemical_formula_sum "Si O2"
_cell_formula_units_Z 56
_cell_length_a 14.636130
_cell_length_b 9.212995
_cell_length_c 30.677212
_cell_angle_alpha 90.000000
_cell_angle_beta 128.976720
_cell_angle_gamma 90.000000
_cell_volume 3215.795406
_symmetry_space_group_name_H-M "C 2/M"
_symmetry_group_IT_number 12
_symmetry_cell_setting 'monoclinic'
loop_
_space_group_symop_operation_xyz
x,y,z
-x,y,-z
-x,-y,-z
x,-y,z
1/2+x,1/2+y,z
1/2-x,1/2+y,-z
1/2-x,1/2-y,-z
1/2+x,1/2-y,z
loop_
_atom_site_type_symbol
_atom_site_label
_atom_site_fract_x
_atom_site_fract_y
_atom_site_fract_z
Si Si1 0.449062 0.327679 0.264948
Si Si2 0.541064 0.333108 0.062200
Si Si3 0.776400 0.173650 0.639116
Si Si4 0.852942 0.672527 0.057955
Si Si5 0.810885 0.327107 0.558947
Si Si6 0.320892 0.170483 0.147835
Si Si7 0.913623 0.327091 0.344446
O O1 0.432406 0.500000 0.261671
O O2 0.589627 0.299177 0.305170
O O3 0.385190 0.260580 0.204179
O O4 0.401005 0.255896 0.294988
O O5 0.509186 0.500000 0.064204
O O6 0.473069 0.221159 0.071777
O O7 0.680129 0.317151 0.108277
O O8 0.500000 0.312074 0.000000
O O9 0.763824 0.258985 0.589998
O O10 0.681009 0.214983 0.647128
O O11 0.764676 0.000000 0.627726
O O12 0.834401 0.500000 0.050787
O O13 0.852857 0.716979 0.108429
O O14 0.750000 0.750000 0.000000
O O15 0.791429 0.500000 0.552255
O O16 0.750000 0.250000 0.500000
O O17 0.951948 0.301581 0.600012
O O18 0.351096 0.000000 0.161916
O O19 0.900461 0.500000 0.332852
#
# Coordination Sequence:
#
# PCOD9193892 Si02
#       7
#     8   8   8   8   8   8   8
#     4  10  21  36  56  82 109 136 179 233 275 318
#     4  10  20  38  58  78 106 141 179 218 269 328
#     4   9  19  37  58  79 107 145 186 228 271 319
#     4  11  22  37  57  82 109 141 179 221 271 329
#     4  10  20  34  54  82 115 149 185 227 271 322
#     4  10  22  39  57  77 110 147 177 218 276 337
#     4   9  19  37  59  79 106 148 189 222 272 330
#
# _framework density 17.414042999999999
#
# number of rings (size 3 to 8) (size 9 to 14) (size 15 to 20)
#    0.000    2.143    1.429    1.286    0.000    5.429 
#    0.000    7.143    0.000    0.000    0.000    0.000 
#    0.000    0.000    0.000    0.000    0.000    0.000 
#
# Total GULP energy -156290.066953 kJ/mol
# GULP energy per Si atom -5581.788105 kJ/mol
# Density = 1.737441 g / cm^3
# Si number density = 17.414043 Si / 1000 Ang^3
#
#
#
# Elastic Constant Matrix: (Units=GPa)
#
#
# Indices 1 2 3 4 5 6 
#
# 1 130.2970 58.9425 67.1126 0.0000 -25.1692 0.0000
# 2 58.9425 65.3096 81.6424 0.0000 -16.3968 0.0000
# 3 67.1126 81.6424 156.0820 0.0000 -28.9445 0.0000
# 4 0.0000 0.0000 0.0000 35.3060 0.0000 -2.8506
# 5 -25.1692 -16.3968 -28.9445 0.0000 16.9174 0.0000
# 6 0.0000 0.0000 0.0000 -2.8506 0.0000 31.1639
#
#
#
# Elastic Compliance Matrix: (Units=1/GPa)
#
#
# Indices 1 2 3 4 5 6 
#
# 1 0.015388 -0.015378 0.004261 0.000000 0.015279 0.000000
# 2 -0.015378 0.059876 -0.026641 0.000000 -0.010426 0.000000
# 3 0.004261 -0.026641 0.021820 0.000000 0.017851 0.000000
# 4 0.000000 0.000000 0.000000 0.028535 0.000000 0.002610
# 5 0.015279 -0.010426 0.017851 0.000000 0.102278 0.000000
# 6 0.000000 0.000000 0.000000 0.002610 0.000000 0.032327
#
#
# Mechanical properties :
#
#
# Convention : Reuss Voigt Hill
#
# Bulk Modulus (GPa) = 46.36483 85.23151 65.79817
# Shear Modulus (GPa) = 14.58024 26.27688 20.42856
#
# Velocity S-wave (km/s) = 2.89670 3.88873 3.42878
# Velocity P-wave (km/s) = 6.15391 8.31946 7.31724
#
# Compressibility (1/GPa) = 0.02156807
#
# Stress axis : x y z
#
# Youngs Moduli (GPa) = 64.98467 16.70119 45.82906
#
# Poissons Ratio (x) = 0.25683 -0.19526
# Poissons Ratio (y) = 0.99934 1.22091
# Poissons Ratio (z) = -0.27687 0.44493
#
# Static dielectric constant tensor:
#      x y z
#    x 1.584550 0.000000 0.011290 
#    y 0.000000 1.581440 0.000000 
#    z 0.011290 0.000000 1.561610 
# 
# From -- ./inp_files/339012.got.cif
#   From: 2010.05.17/outbox.cif.g08.bks.cpg/sg12_170_cif.got.tgz:339012.got - 2010.06.03 13:09:07.
