data_PCOD9193316
_publ_section_title
;
Structure prediction by ZEFSAII (Michael W. Deem and Ramdas Pophale) SiO2 
 PCOD9193316
Probable space group: C 2/M
;
_chemical_formula_sum "Si O2"
_cell_formula_units_Z 56
_cell_length_a 17.029853
_cell_length_b 9.124151
_cell_length_c 25.036547
_cell_angle_alpha 90.000000
_cell_angle_beta 42.067555
_cell_angle_gamma 90.000000
_cell_volume 2606.493908
_symmetry_space_group_name_H-M "C 2/M"
_symmetry_group_IT_number 12
_symmetry_cell_setting 'monoclinic'
loop_
_space_group_symop_operation_xyz
x,y,z
-x,y,-z
-x,-y,-z
x,-y,z
1/2+x,1/2+y,z
1/2-x,1/2+y,-z
1/2-x,1/2-y,-z
1/2+x,1/2-y,z
loop_
_atom_site_type_symbol
_atom_site_label
_atom_site_fract_x
_atom_site_fract_y
_atom_site_fract_z
Si Si1 0.350757 0.827002 0.883663
Si Si2 0.141482 0.327198 0.836828
Si Si3 0.121800 0.326931 0.245918
Si Si4 0.738369 0.175054 0.676151
Si Si5 0.588353 0.328624 0.037468
Si Si6 0.214838 0.825896 0.462650
Si Si7 0.522965 0.173219 0.407502
O O1 0.414386 0.792331 0.796134
O O2 0.384335 0.728039 0.916469
O O3 0.368599 0.000000 0.888107
O O4 0.210775 0.805747 0.944952
O O5 0.138428 0.500000 0.846022
O O6 0.262628 0.262947 0.797335
O O7 0.145524 0.297584 0.770374
O O8 0.027937 0.255776 0.920457
O O9 0.152226 0.500000 0.230961
O O10 0.029077 0.305945 0.340037
O O11 0.710127 0.207320 0.628657
O O12 0.853376 0.267545 0.633697
O O13 0.765380 0.000000 0.665194
O O14 0.562947 0.500000 0.049825
O O15 0.250000 0.750000 0.500000
O O16 0.084325 0.766678 0.516396
O O17 0.215671 0.000000 0.469988
O O18 0.509075 0.000000 0.425510
#
# Coordination Sequence:
#
# PCOD9193316 Si02
#       7
#     8   8   8   8   8   8   8
#     4   9  19  36  55  74 102 141 177 210 255 311
#     4  10  20  35  55  78 105 136 173 215 258 305
#     4   9  19  36  56  78 105 137 173 212 256 308
#     4   9  20  38  57  76 102 140 177 209 253 310
#     4  10  20  34  53  77 105 137 175 216 258 306
#     4  11  23  38  55  77 107 139 174 214 256 305
#     4  10  20  35  57  82 106 134 171 214 259 308
#
# _framework density 21.484798000000001
#
# number of rings (size 3 to 8) (size 9 to 14) (size 15 to 20)
#    0.000    2.286    0.000    2.143    0.000    6.857 
#    0.000    8.571    0.000    0.000    0.000    0.000 
#    0.000    0.000    0.000    0.000    0.000    0.000 
#
# Total GULP energy -156404.796863 kJ/mol
# GULP energy per Si atom -5585.885602 kJ/mol
# Density = 2.143590 g / cm^3
# Si number density = 21.484798 Si / 1000 Ang^3
#
#
#
# Elastic Constant Matrix: (Units=GPa)
#
#
# Indices 1 2 3 4 5 6 
#
# 1 33.6707 10.4865 15.8313 0.0000 13.6135 0.0000
# 2 10.4865 39.1318 32.9335 0.0000 6.3829 0.0001
# 3 15.8313 32.9335 80.8594 0.0000 15.8734 0.0000
# 4 0.0000 0.0000 0.0000 24.2895 0.0000 -3.9227
# 5 13.6135 6.3829 15.8734 0.0000 42.3425 0.0000
# 6 0.0000 0.0001 0.0000 -3.9227 0.0000 28.8783
#
#
#
# Elastic Compliance Matrix: (Units=1/GPa)
#
#
# Indices 1 2 3 4 5 6 
#
# 1 0.036878 -0.005823 -0.002908 0.000000 -0.009889 0.000000
# 2 -0.005823 0.039802 -0.015394 0.000000 0.001643 0.000000
# 3 -0.002908 -0.015394 0.020042 0.000000 -0.004258 0.000000
# 4 0.000000 0.000000 0.000000 0.042093 0.000000 0.005718
# 5 -0.009889 0.001643 -0.004258 0.000000 0.028145 0.000000
# 6 0.000000 0.000000 0.000000 0.005718 0.000000 0.035405
#
#
# Mechanical properties :
#
#
# Convention : Reuss Voigt Hill
#
# Bulk Modulus (GPa) = 20.62919 30.24049 25.43484
# Shear Modulus (GPa) = 18.74261 25.39611 22.06936
#
# Velocity S-wave (km/s) = 2.95679 3.44183 3.20849
# Velocity P-wave (km/s) = 4.61296 5.46816 5.05866
#
# Compressibility (1/GPa) = 0.04847500
#
# Stress axis : x y z
#
# Youngs Moduli (GPa) = 27.11631 25.12408 49.89502
#
# Poissons Ratio (x) = 0.14629 0.14507
# Poissons Ratio (y) = 0.15788 0.76807
# Poissons Ratio (z) = 0.07884 0.38675
#
# Static dielectric constant tensor:
#      x y z
#    x 1.815710 0.000000 0.027250 
#    y 0.000000 1.706540 0.000000 
#    z 0.027250 0.000000 1.809430 
# 
# From -- ./inp_files/342318.got.cif
#   From: 2010.05.17/outbox.cif.g08.bks.cpg/sg12_172_cif.got.tgz:342318.got - 2010.06.03 13:09:07.
