data_PCOD9193748
_publ_section_title
;
Structure prediction by ZEFSAII (Michael W. Deem and Ramdas Pophale) SiO2 
 PCOD9193748
Probable space group: C 2/M
;
_chemical_formula_sum "Si O2"
_cell_formula_units_Z 56
_cell_length_a 25.273274
_cell_length_b 9.681998
_cell_length_c 15.926167
_cell_angle_alpha 90.000000
_cell_angle_beta 133.823419
_cell_angle_gamma 90.000000
_cell_volume 2811.644500
_symmetry_space_group_name_H-M "C 2/M"
_symmetry_group_IT_number 12
_symmetry_cell_setting 'monoclinic'
loop_
_space_group_symop_operation_xyz
x,y,z
-x,y,-z
-x,-y,-z
x,-y,z
1/2+x,1/2+y,z
1/2-x,1/2+y,-z
1/2-x,1/2-y,-z
1/2+x,1/2-y,z
loop_
_atom_site_type_symbol
_atom_site_label
_atom_site_fract_x
_atom_site_fract_y
_atom_site_fract_z
Si Si1 0.880523 0.850064 0.019199
Si Si2 0.775576 0.665276 0.111002
Si Si3 0.463517 0.839437 0.552363
Si Si4 0.589565 0.656045 0.749672
Si Si5 0.667243 0.162085 0.327600
Si Si6 0.507702 0.847315 0.107490
Si Si7 0.804107 0.339994 0.440590
O O1 0.888881 0.857666 0.129212
O O2 0.937173 0.735945 0.056350
O O3 0.900408 0.000000 0.005555
O O4 0.795097 0.822930 0.906747
O O5 0.787015 0.500000 0.107764
O O6 0.848953 0.741776 0.221512
O O7 0.750000 0.750000 0.000000
O O8 0.500000 0.831282 0.500000
O O9 0.511891 0.732310 0.658277
O O10 0.377278 0.805871 0.467691
O O11 0.471362 0.000000 0.589099
O O12 0.588762 0.500000 0.713055
O O13 0.586542 0.216384 0.215814
O O14 0.733003 0.243787 0.355237
O O15 0.675188 0.170459 0.437380
O O16 0.670763 0.000000 0.307850
O O17 0.506659 0.000000 0.146006
O O18 0.500000 0.859619 0.000000
O O19 0.785480 0.500000 0.402431
#
# Coordination Sequence:
#
# PCOD9193748 Si02
#       7
#     8   8   8   8   8   8   8
#     4   9  19  34  53  78 105 137 179 224 267 315
#     4   9  17  31  51  77 107 136 173 218 263 313
#     4  10  21  37  55  78 111 146 180 221 275 336
#     4  10  20  34  54  80 107 139 183 227 270 321
#     4   9  18  34  56  80 106 137 178 227 273 318
#     4  10  21  36  53  77 110 144 179 219 271 332
#     4   9  18  34  57  82 104 136 182 226 272 324
#
# _framework density 19.917171
#
# number of rings (size 3 to 8) (size 9 to 14) (size 15 to 20)
#    0.000    2.571    0.000    2.571    0.000    6.286 
#    2.571    2.857    0.000    0.000    0.000    0.000 
#    0.000    0.000    0.000    0.000    0.000    0.000 
#
# Total GULP energy -156023.723046 kJ/mol
# GULP energy per Si atom -5572.275823 kJ/mol
# Density = 1.987184 g / cm^3
# Si number density = 19.917171 Si / 1000 Ang^3
#
#
#
# Elastic Constant Matrix: (Units=GPa)
#
#
# Indices 1 2 3 4 5 6 
#
# 1 102.3510 61.1444 12.9951 0.0000 36.5271 0.0000
# 2 61.1444 105.2451 19.0955 0.0000 33.4745 0.0000
# 3 12.9951 19.0955 -13.7537 0.0000 9.1287 0.0000
# 4 0.0000 0.0000 0.0000 19.9153 0.0000 12.8995
# 5 36.5271 33.4745 9.1287 0.0000 29.4622 0.0000
# 6 0.0000 0.0000 0.0000 12.8995 0.0000 29.3142
#
#
#
# Elastic Compliance Matrix: (Units=1/GPa)
#
#
# Indices 1 2 3 4 5 6 
#
# 1 0.019468 -0.005565 -0.000959 0.000000 -0.017516 0.000000
# 2 -0.005565 0.015518 0.007601 0.000000 -0.013087 0.000000
# 3 -0.000959 0.007601 -0.056404 0.000000 0.010029 0.000000
# 4 0.000000 0.000000 0.000000 0.070230 0.000000 -0.030904
# 5 -0.017516 -0.013087 0.010029 0.000000 0.067420 0.000000
# 6 0.000000 0.000000 0.000000 -0.030904 0.000000 0.047712
#
#
# Mechanical properties :
#
#
# Convention : Reuss Voigt Hill
#
# Bulk Modulus (GPa) = -51.91219 42.25691 -4.82764
# Shear Modulus (GPa) = 32.18149 22.44549 27.31349
#
# Velocity S-wave (km/s) = 4.02402 3.36064 3.70720
# Velocity P-wave (km/s) = 2.12845 6.02668 3.98689
#
# Compressibility (1/GPa) = -0.01926330
#
# Stress axis : x y z
#
# Youngs Moduli (GPa) = 51.36705 64.44040 -17.72930
#
# Poissons Ratio (x) = 0.35862 -0.01699
# Poissons Ratio (y) = 0.28586 0.13476
# Poissons Ratio (z) = 0.04924 -0.48980
#
# Static dielectric constant tensor:
#      x y z
#    x 1.693960 0.000000 -0.012660 
#    y 0.000000 1.747370 0.000000 
#    z -0.012660 0.000000 1.722750 
# 
# From -- ./inp_files/288484.got.cif
#   From: 2010.05.17/outbox.cif.g08.bks.cpg/sg12_145_cif.got.tgz:288484.got - 2010.06.03 13:09:07.
