data_PCOD9193801
_publ_section_title
;
Structure prediction by ZEFSAII (Michael W. Deem and Ramdas Pophale) SiO2 
 PCOD9193801
Probable space group: C 2/M
;
_chemical_formula_sum "Si O2"
_cell_formula_units_Z 40
_cell_length_a 11.033051
_cell_length_b 13.437631
_cell_length_c 15.268607
_cell_angle_alpha 90.000000
_cell_angle_beta 79.495272
_cell_angle_gamma 90.000000
_cell_volume 2225.754360
_symmetry_space_group_name_H-M "C 2/M"
_symmetry_group_IT_number 12
_symmetry_cell_setting 'monoclinic'
loop_
_space_group_symop_operation_xyz
x,y,z
-x,y,-z
-x,-y,-z
x,-y,z
1/2+x,1/2+y,z
1/2-x,1/2+y,-z
1/2-x,1/2-y,-z
1/2+x,1/2-y,z
loop_
_atom_site_type_symbol
_atom_site_label
_atom_site_fract_x
_atom_site_fract_y
_atom_site_fract_z
Si Si1 0.862037 0.263542 0.054130
Si Si2 0.214758 0.753373 0.651830
Si Si3 0.791779 0.885188 0.794203
Si Si4 0.929686 0.115572 0.191686
Si Si5 0.642098 0.887535 0.506147
O O1 0.816246 0.348776 0.127161
O O2 0.876242 0.163788 0.110605
O O3 0.750000 0.250000 0.000000
O O4 0.000000 0.284505 0.000000
O O5 0.292293 0.689015 0.711530
O O6 0.121312 0.819474 0.721058
O O7 0.290587 0.827436 0.579847
O O8 0.154828 0.673910 0.593975
O O9 0.922289 0.877152 0.826538
O O10 0.775274 0.000000 0.769646
O O11 0.895446 0.000000 0.205297
O O12 0.500000 0.892937 0.500000
O O13 0.691593 0.000000 0.508429
#
# Coordination Sequence:
#
# PCOD9193801 Si02
#       5
#     8   8   8   8   8
#     4  11  22  39  61  86 116 149 189 236 282 340
#     4  10  20  35  56  81 111 148 191 235 278 336
#     4  10  21  37  58  83 114 149 189 238 287 336
#     4  10  21  37  59  83 112 151 191 232 285 345
#     4  10  20  34  54  80 113 149 186 231 284 337
#
# _framework density 17.971433999999999
#
# number of rings (size 3 to 8) (size 9 to 14) (size 15 to 20)
#    0.000    1.800    2.000    2.400    0.000    1.600 
#    0.000    0.000    0.000    9.600    0.000    0.000 
#    0.000    0.000    0.000    0.000    0.000    0.000 
#
# Total GULP energy -111539.647245 kJ/mol
# GULP energy per Si atom -5576.982362 kJ/mol
# Density = 1.793053 g / cm^3
# Si number density = 17.971434 Si / 1000 Ang^3
#
#
#
# Elastic Constant Matrix: (Units=GPa)
#
#
# Indices 1 2 3 4 5 6 
#
# 1 91.8649 51.7226 48.6455 0.0000 5.9107 0.0000
# 2 51.7226 155.0563 56.7747 0.0000 4.0047 0.0000
# 3 48.6455 56.7747 102.2369 0.0000 7.6052 0.0000
# 4 0.0000 0.0000 0.0000 21.4200 0.0000 2.1850
# 5 5.9107 4.0047 7.6052 0.0000 20.0964 0.0000
# 6 0.0000 0.0000 0.0000 2.1850 0.0000 29.4063
#
#
#
# Elastic Compliance Matrix: (Units=1/GPa)
#
#
# Indices 1 2 3 4 5 6 
#
# 1 0.015749 -0.003153 -0.005602 0.000000 -0.001883 0.000000
# 2 -0.003153 0.008727 -0.003381 0.000000 0.000468 0.000000
# 3 -0.005602 -0.003381 0.014561 0.000000 -0.003189 0.000000
# 4 0.000000 0.000000 0.000000 0.047042 0.000000 -0.003495
# 5 -0.001883 0.000468 -0.003189 0.000000 0.051428 0.000000
# 6 0.000000 0.000000 0.000000 -0.003495 0.000000 0.034266
#
#
# Mechanical properties :
#
#
# Convention : Reuss Voigt Hill
#
# Bulk Modulus (GPa) = 67.72965 73.71598 70.72281
# Shear Modulus (GPa) = 24.87975 26.98557 25.93266
#
# Velocity S-wave (km/s) = 3.72480 3.87923 3.80280
# Velocity P-wave (km/s) = 7.50120 7.82125 7.66290
#
# Compressibility (1/GPa) = 0.01476458
#
# Stress axis : x y z
#
# Youngs Moduli (GPa) = 63.49717 114.58773 68.67497
#
# Poissons Ratio (x) = 0.36135 0.38473
# Poissons Ratio (y) = 0.20024 0.23216
# Poissons Ratio (z) = 0.35572 0.38738
#
# Static dielectric constant tensor:
#      x y z
#    x 1.598140 0.000000 0.003980 
#    y 0.000000 1.608620 0.000000 
#    z 0.003980 0.000000 1.614990 
# 
# From -- ./inp_files/194427.got.cif
#   From: 2010.05.17/outbox.cif.g08.bks.cpg/sg12_98_cif.got.tgz:194427.got - 2010.06.03 13:09:07.
