data_PCOD9193813
_publ_section_title
;
Structure prediction by ZEFSAII (Michael W. Deem and Ramdas Pophale) SiO2 
 PCOD9193813
Probable space group: C 2/M
;
_chemical_formula_sum "Si O2"
_cell_formula_units_Z 64
_cell_length_a 34.321991
_cell_length_b 9.284526
_cell_length_c 11.625929
_cell_angle_alpha 90.000000
_cell_angle_beta 83.769749
_cell_angle_gamma 90.000000
_cell_volume 3682.877242
_symmetry_space_group_name_H-M "C 2/M"
_symmetry_group_IT_number 12
_symmetry_cell_setting 'monoclinic'
loop_
_space_group_symop_operation_xyz
x,y,z
-x,y,-z
-x,-y,-z
x,-y,z
1/2+x,1/2+y,z
1/2-x,1/2+y,-z
1/2-x,1/2-y,-z
1/2+x,1/2-y,z
loop_
_atom_site_type_symbol
_atom_site_label
_atom_site_fract_x
_atom_site_fract_y
_atom_site_fract_z
Si Si1 0.283915 0.673010 0.059953
Si Si2 0.969159 0.173030 0.606389
Si Si3 0.435162 0.833734 0.033982
Si Si4 0.810227 0.671710 0.535686
Si Si5 0.998735 0.333320 0.185122
Si Si6 0.224663 0.828381 0.669926
Si Si7 0.879192 0.825626 0.653188
Si Si8 0.867699 0.172209 0.925036
O O1 0.278736 0.500000 0.055940
O O2 0.283061 0.712451 0.195334
O O3 0.250000 0.750000 0.000000
O O4 0.324968 0.709603 0.986525
O O5 0.923682 0.214617 0.603668
O O6 0.000000 0.220215 0.500000
O O7 0.985214 0.236300 0.719304
O O8 0.969506 0.000000 0.611392
O O9 0.468464 0.832026 0.924824
O O10 0.399680 0.741832 0.997953
O O11 0.423264 0.000000 0.054258
O O12 0.457818 0.783949 0.141372
O O13 0.816285 0.500000 0.524949
O O14 0.800971 0.740923 0.414203
O O15 0.770345 0.695980 0.622573
O O16 0.846583 0.748170 0.586526
O O17 0.994175 0.500000 0.223043
O O18 0.217111 0.000000 0.659165
O O19 0.873530 0.784910 0.789723
O O20 0.874948 0.000000 0.645688
O O21 0.872095 0.000000 0.927200
#
# Coordination Sequence:
#
# PCOD9193813 Si02
#       8
#     8   8   8   8   8   8   8   8
#     4  10  21  36  55  81 112 143 175 214 265 318
#     4  10  21  37  55  77 105 140 181 221 265 316
#     4   9  18  33  54  79 106 137 172 215 267 317
#     4  10  20  34  57  83 103 137 185 220 254 309
#     4   9  18  34  55  78 105 137 173 215 267 319
#     4   9  19  37  56  77 110 144 174 214 264 311
#     4  10  20  35  54  77 107 138 173 220 268 311
#     4  10  20  34  54  81 107 137 179 220 261 315
#
# _framework density 17.377717000000001
#
# number of rings (size 3 to 8) (size 9 to 14) (size 15 to 20)
#    0.000    2.375    1.250    1.875    0.000    3.250 
#    2.250    1.250    0.000    0.000    0.000    0.000 
#    0.000    0.000    0.000    0.000    0.000    0.000 
#
# Total GULP energy -178454.665566 kJ/mol
# GULP energy per Si atom -5576.708299 kJ/mol
# Density = 1.733816 g / cm^3
# Si number density = 17.377717 Si / 1000 Ang^3
#
#
#
# Elastic Constant Matrix: (Units=GPa)
#
#
# Indices 1 2 3 4 5 6 
#
# 1 161.6732 59.2852 74.8524 0.0000 23.8031 0.0000
# 2 59.2852 25.2085 33.7289 0.0000 7.9873 0.0000
# 3 74.8524 33.7289 82.4201 0.0000 5.7559 0.0000
# 4 0.0000 0.0000 0.0000 24.8904 0.0000 8.3850
# 5 23.8031 7.9873 5.7559 0.0000 30.2187 0.0000
# 6 0.0000 0.0000 0.0000 8.3850 0.0000 27.4768
#
#
#
# Elastic Compliance Matrix: (Units=1/GPa)
#
#
# Indices 1 2 3 4 5 6 
#
# 1 0.047651 -0.115857 0.004681 0.000000 -0.007803 0.000000
# 2 -0.115857 0.378384 -0.049677 0.000000 0.000709 0.000000
# 3 0.004681 -0.049677 0.027923 0.000000 0.004124 0.000000
# 4 0.000000 0.000000 0.000000 0.044780 0.000000 -0.013665
# 5 -0.007803 0.000709 0.004124 0.000000 0.038266 0.000000
# 6 0.000000 0.000000 0.000000 -0.013665 0.000000 0.040564
#
#
# Mechanical properties :
#
#
# Convention : Reuss Voigt Hill
#
# Bulk Modulus (GPa) = 7.56129 67.22610 37.39369
# Shear Modulus (GPa) = 5.30021 23.27953 14.28987
#
# Velocity S-wave (km/s) = 1.74832 3.66405 2.87071
# Velocity P-wave (km/s) = 2.90449 7.52792 5.70551
#
# Compressibility (1/GPa) = 0.13225263
#
# Stress axis : x y z
#
# Youngs Moduli (GPa) = 20.98571 2.64282 35.81301
#
# Poissons Ratio (x) = 0.30619 -0.16765
# Poissons Ratio (y) = 2.43135 1.77908
# Poissons Ratio (z) = -0.09824 0.13129
#
# Static dielectric constant tensor:
#      x y z
#    x 1.583020 0.000000 -0.016640 
#    y 0.000000 1.576590 0.000000 
#    z -0.016640 0.000000 1.589890 
# 
# From -- ./inp_files/187455.got.cif
#   From: 2010.05.17/outbox.cif.g08.bks.cpg/sg12_94_cif.got.tgz:187455.got - 2010.06.03 13:09:07.
