data_PCOD9193268
_publ_section_title
;
Structure prediction by ZEFSAII (Michael W. Deem and Ramdas Pophale) SiO2 
 PCOD9193268
Probable space group: C 2/M
;
_chemical_formula_sum "Si O2"
_cell_formula_units_Z 48
_cell_length_a 31.975696
_cell_length_b 7.666015
_cell_length_c 18.552710
_cell_angle_alpha 90.000000
_cell_angle_beta 150.268330
_cell_angle_gamma 90.000000
_cell_volume 2255.407646
_symmetry_space_group_name_H-M "C 2/M"
_symmetry_group_IT_number 12
_symmetry_cell_setting 'monoclinic'
loop_
_space_group_symop_operation_xyz
x,y,z
-x,y,-z
-x,-y,-z
x,-y,z
1/2+x,1/2+y,z
1/2-x,1/2+y,-z
1/2-x,1/2-y,-z
1/2+x,1/2-y,z
loop_
_atom_site_type_symbol
_atom_site_label
_atom_site_fract_x
_atom_site_fract_y
_atom_site_fract_z
Si Si1 0.668341 0.714275 0.585401
Si Si2 0.663176 0.792000 0.910654
Si Si3 0.002371 0.790215 0.085684
Si Si4 0.334853 0.709553 0.584118
Si Si5 0.995043 0.793809 0.573261
Si Si6 0.167201 0.709651 0.081090
O O1 0.668936 0.500000 0.585320
O O2 0.669896 0.773711 0.505038
O O3 0.583301 0.774719 0.497633
O O4 0.750539 0.771930 0.752607
O O5 0.582794 0.725860 0.746162
O O6 0.655262 0.000000 0.902024
O O7 0.750000 0.750000 0.000000
O O8 0.663886 0.724049 0.993943
O O9 0.083469 0.723266 0.250799
O O10 0.010241 0.000000 0.093446
O O11 0.917147 0.751239 0.001244
O O12 0.000000 0.723711 0.000000
O O13 0.342889 0.500000 0.592307
O O14 0.250000 0.750000 0.500000
O O15 0.000000 0.719191 0.500000
O O16 0.978077 0.000000 0.540092
O O17 0.174215 0.500000 0.087499
#
# Coordination Sequence:
#
# PCOD9193268 Si02
#       6
#     8   8   8   8   8   8
#     4   9  18  34  55  78 105 139 179 221 268 324
#     4  11  23  38  57  83 114 147 187 234 283 336
#     4  10  21  36  54  80 113 145 179 225 281 334
#     4  10  20  34  53  76 104 139 178 219 265 320
#     4  10  20  37  61  84 110 146 183 223 277 338
#     4  10  21  37  57  81 108 142 186 230 271 325
#
# _framework density 21.282183
#
# number of rings (size 3 to 8) (size 9 to 14) (size 15 to 20)
#    0.000    2.000    0.000    3.500    0.000    6.667 
#    0.000    1.667    0.000    0.000    0.000    0.000 
#    0.000    0.000    0.000    0.000    0.000    0.000 
#
# Total GULP energy -134165.653447 kJ/mol
# GULP energy per Si atom -5590.235560 kJ/mol
# Density = 2.123374 g / cm^3
# Si number density = 21.282183 Si / 1000 Ang^3
#
#
#
# Elastic Constant Matrix: (Units=GPa)
#
#
# Indices 1 2 3 4 5 6 
#
# 1 254.5361 -5.2055 144.6150 0.0000 -9.4962 0.0000
# 2 -5.2055 32.8899 -13.6536 0.0000 -8.3176 0.0000
# 3 144.6150 -13.6536 220.2813 0.0000 -5.8020 0.0000
# 4 0.0000 0.0000 0.0000 12.9542 0.0000 13.8240
# 5 -9.4962 -8.3176 -5.8020 0.0000 49.2638 0.0000
# 6 0.0000 0.0000 0.0000 13.8240 0.0000 16.1293
#
#
#
# Elastic Compliance Matrix: (Units=1/GPa)
#
#
# Indices 1 2 3 4 5 6 
#
# 1 0.006302 -0.000569 -0.004156 0.000000 0.000629 0.000000
# 2 -0.000569 0.032827 0.002559 0.000000 0.005734 0.000000
# 3 -0.004156 0.002559 0.007440 0.000000 0.000507 0.000000
# 4 0.000000 0.000000 0.000000 0.904194 0.000000 -0.774963
# 5 0.000629 0.005734 0.000507 0.000000 0.021448 0.000000
# 6 0.000000 0.000000 0.000000 -0.774963 0.000000 0.726202
#
#
# Mechanical properties :
#
#
# Convention : Reuss Voigt Hill
#
# Bulk Modulus (GPa) = 23.67547 84.35768 54.01658
# Shear Modulus (GPa) = 2.91236 41.13288 22.02262
#
# Velocity S-wave (km/s) = 1.17108 4.40106 3.22031
# Velocity P-wave (km/s) = 3.60240 8.09627 6.26605
#
# Compressibility (1/GPa) = 0.04223780
#
# Stress axis : x y z
#
# Youngs Moduli (GPa) = 158.68916 30.46279 134.41135
#
# Poissons Ratio (x) = 0.01732 0.55857
# Poissons Ratio (y) = 0.09024 -0.34397
# Poissons Ratio (z) = 0.65946 -0.07796
#
# Static dielectric constant tensor:
#      x y z
#    x 1.725870 0.000000 -0.032080 
#    y 0.000000 1.795100 0.000000 
#    z -0.032080 0.000000 1.709530 
# 
# From -- ./inp_files/274114.got.cif
#   From: 2010.05.17/outbox.cif.g08.bks.cpg/sg12_138_cif.got.tgz:274114.got - 2010.06.03 13:09:07.
