data_PCOD9193559
_publ_section_title
;
Structure prediction by ZEFSAII (Michael W. Deem and Ramdas Pophale) SiO2 
 PCOD9193559
Probable space group: C 2/M
;
_chemical_formula_sum "Si O2"
_cell_formula_units_Z 52
_cell_length_a 12.213114
_cell_length_b 27.974374
_cell_length_c 8.444026
_cell_angle_alpha 90.000000
_cell_angle_beta 98.441228
_cell_angle_gamma 90.000000
_cell_volume 2853.684469
_symmetry_space_group_name_H-M "C 2/M"
_symmetry_group_IT_number 12
_symmetry_cell_setting 'monoclinic'
loop_
_space_group_symop_operation_xyz
x,y,z
-x,y,-z
-x,-y,-z
x,-y,z
1/2+x,1/2+y,z
1/2-x,1/2+y,-z
1/2-x,1/2-y,-z
1/2+x,1/2-y,z
loop_
_atom_site_type_symbol
_atom_site_label
_atom_site_fract_x
_atom_site_fract_y
_atom_site_fract_z
Si Si1 0.411334 0.238836 0.096369
Si Si2 0.288119 0.571187 0.126923
Si Si3 0.244521 0.184660 0.823949
Si Si4 0.560988 0.824253 0.349581
Si Si5 0.421291 0.000000 0.327119
Si Si6 0.313760 0.500000 0.842238
Si Si7 0.960224 0.000000 0.310430
Si Si8 0.453912 0.920063 0.824019
O O1 0.357248 0.279183 0.193293
O O2 0.482566 0.201681 0.208692
O O3 0.500000 0.263690 0.000000
O O4 0.323241 0.207703 0.977285
O O5 0.285598 0.629458 0.139893
O O6 0.383220 0.545920 0.251852
O O7 0.165647 0.557619 0.164184
O O8 0.303076 0.546242 0.957461
O O9 0.313637 0.189053 0.674645
O O10 0.500000 0.814594 0.500000
O O11 0.560270 0.880005 0.310254
O O12 0.500000 0.000000 0.500000
O O13 0.288067 0.000000 0.305184
O O14 0.457831 0.955876 0.227076
O O15 0.431644 0.500000 0.779717
O O16 0.000000 0.000000 0.500000
O O17 0.500000 0.899950 0.000000
#
# Coordination Sequence:
#
# PCOD9193559 Si02
#       8
#     8   8   8   8   4   4   4   8
#     4   9  18  34  57  83 113 142 188 241 283 336
#     4  10  20  39  62  80 109 153 198 236 277 343
#     4   9  19  36  59  84 105 148 195 233 280 339
#     4  10  20  34  53  82 120 149 175 230 297 344
#     4  12  24  33  56  94 120 138 182 236 291 350
#     4  11  23  39  60  82 112 154 191 235 283 341
#     4  11  26  43  55  77 117 156 194 241 289 332
#     4  11  20  37  59  87 115 147 190 236 286 340
#
# _framework density 18.222057
#
# number of rings (size 3 to 8) (size 9 to 14) (size 15 to 20)
#    0.000    1.846    1.538    4.846    2.154    1.846 
#    0.000    0.769    0.000    0.000    0.000    0.000 
#    0.000    0.000    0.000    0.000    0.000    0.000 
#
# Total GULP energy -144738.980008 kJ/mol
# GULP energy per Si atom -5566.883846 kJ/mol
# Density = 1.818058 g / cm^3
# Si number density = 18.222057 Si / 1000 Ang^3
#
#
#
# Elastic Constant Matrix: (Units=GPa)
#
#
# Indices 1 2 3 4 5 6 
#
# 1 133.3093 43.2180 31.0837 0.0000 -10.7143 0.0000
# 2 43.2180 85.7297 4.2930 0.0000 -10.6526 0.0000
# 3 31.0837 4.2930 67.9912 0.0000 -6.2047 0.0000
# 4 0.0000 0.0000 0.0000 42.5309 0.0000 -23.3088
# 5 -10.7143 -10.6526 -6.2047 0.0000 34.7363 0.0000
# 6 0.0000 0.0000 0.0000 -23.3088 0.0000 21.7464
#
#
#
# Elastic Compliance Matrix: (Units=1/GPa)
#
#
# Indices 1 2 3 4 5 6 
#
# 1 0.010109 -0.004772 -0.004238 0.000000 0.000897 0.000000
# 2 -0.004772 0.014392 0.001567 0.000000 0.003222 0.000000
# 3 -0.004238 0.001567 0.016744 0.000000 0.002164 0.000000
# 4 0.000000 0.000000 0.000000 0.056988 0.000000 0.061083
# 5 0.000897 0.003222 0.002164 0.000000 0.030440 0.000000
# 6 0.000000 0.000000 0.000000 0.061083 0.000000 0.111456
#
#
# Mechanical properties :
#
#
# Convention : Reuss Voigt Hill
#
# Bulk Modulus (GPa) = 37.93922 49.35771 43.64847
# Shear Modulus (GPa) = 18.95357 33.69841 26.32599
#
# Velocity S-wave (km/s) = 3.22863 4.30504 3.80509
# Velocity P-wave (km/s) = 5.89613 7.20116 6.58108
#
# Compressibility (1/GPa) = 0.02635795
#
# Stress axis : x y z
#
# Youngs Moduli (GPa) = 98.92288 69.48196 59.72299
#
# Poissons Ratio (x) = 0.33159 0.25312
# Poissons Ratio (y) = 0.47209 -0.09359
# Poissons Ratio (z) = 0.41926 -0.10888
#
# Static dielectric constant tensor:
#      x y z
#    x 1.675130 0.000000 -0.016200 
#    y 0.000000 1.618540 0.000000 
#    z -0.016200 0.000000 1.653240 
# 
# From -- ./inp_files/53818.got.cif
#   From: 2010.05.17/outbox.cif.g08.bks.cpg/sg12_27_cif.got.tgz:53818.got - 2010.06.03 13:09:07.
