data_PCOD9193943
_publ_section_title
;
Structure prediction by ZEFSAII (Michael W. Deem and Ramdas Pophale) SiO2 
 PCOD9193943
Probable space group: C 2/M
;
_chemical_formula_sum "Si O2"
_cell_formula_units_Z 52
_cell_length_a 22.033341
_cell_length_b 21.089288
_cell_length_c 6.189301
_cell_angle_alpha 90.000000
_cell_angle_beta 119.298729
_cell_angle_gamma 90.000000
_cell_volume 2508.073549
_symmetry_space_group_name_H-M "C 2/M"
_symmetry_group_IT_number 12
_symmetry_cell_setting 'monoclinic'
loop_
_space_group_symop_operation_xyz
x,y,z
-x,y,-z
-x,-y,-z
x,-y,z
1/2+x,1/2+y,z
1/2-x,1/2+y,-z
1/2-x,1/2-y,-z
1/2+x,1/2-y,z
loop_
_atom_site_type_symbol
_atom_site_label
_atom_site_fract_x
_atom_site_fract_y
_atom_site_fract_z
Si Si1 0.305209 0.568019 0.342368
Si Si2 0.434274 0.118383 0.506106
Si Si3 0.000000 0.296246 0.000000
Si Si4 0.419465 0.574234 0.899376
Si Si5 0.310686 0.340081 0.967985
Si Si6 0.627210 0.208186 0.975650
Si Si7 0.307605 0.885155 0.552653
O O1 0.305985 0.500000 0.227934
O O2 0.376227 0.576019 0.599957
O O3 0.242338 0.568343 0.403691
O O4 0.294545 0.625657 0.163477
O O5 0.500000 0.085165 0.500000
O O6 0.399948 0.164996 0.268331
O O7 0.369961 0.085257 0.517404
O O8 0.468522 0.159836 0.756632
O O9 0.061777 0.260414 0.989213
O O10 0.417685 0.500000 0.969897
O O11 0.375788 0.620119 0.980869
O O12 0.500000 0.591419 0.000000
O O13 0.244848 0.348443 0.696996
O O14 0.327363 0.266504 0.022670
O O15 0.661590 0.162898 0.214924
#
# Coordination Sequence:
#
# PCOD9193943 Si02
#       7
#     8   8   4   8   8   8   8
#     4  10  22  39  57  81 110 148 197 242 285 330
#     4   9  18  35  56  81 110 146 182 220 272 341
#     4   8  18  34  50  74 114 152 176 220 264 328
#     4   9  20  39  57  76 108 153 202 247 283 318
#     4  11  22  34  55  83 113 149 188 235 282 335
#     4  10  20  34  54  83 117 147 187 223 282 342
#     4  10  21  37  57  80 111 151 184 229 284 340
#
# _framework density 20.733042999999999
#
# number of rings (size 3 to 8) (size 9 to 14) (size 15 to 20)
#    0.000    2.308    0.000    1.846    1.077    8.615 
#    5.538    2.308    0.000    0.462    0.000   25.846 
#    0.000    0.000    0.000    0.000    0.000    0.000 
#
# Total GULP energy -144964.405152 kJ/mol
# GULP energy per Si atom -5575.554044 kJ/mol
# Density = 2.068585 g / cm^3
# Si number density = 20.733043 Si / 1000 Ang^3
#
#
#
# Elastic Constant Matrix: (Units=GPa)
#
#
# Indices 1 2 3 4 5 6 
#
# 1 135.9441 17.7513 58.8670 0.0000 7.4944 0.0000
# 2 17.7513 43.8623 31.2060 0.0000 3.9813 0.0000
# 3 58.8670 31.2060 95.2282 0.0000 4.0998 0.0000
# 4 0.0000 0.0000 0.0000 6.3963 0.0000 -15.9279
# 5 7.4944 3.9813 4.0998 0.0000 28.3057 0.0000
# 6 0.0000 0.0000 0.0000 -15.9279 0.0000 -21.9228
#
#
#
# Elastic Compliance Matrix: (Units=1/GPa)
#
#
# Indices 1 2 3 4 5 6 
#
# 1 0.010146 0.000609 -0.006392 0.000000 -0.001846 0.000000
# 2 0.000609 0.029987 -0.010077 0.000000 -0.002919 0.000000
# 3 -0.006392 -0.010077 0.017732 0.000000 0.000542 0.000000
# 4 0.000000 0.000000 0.000000 0.055652 0.000000 -0.040434
# 5 -0.001846 -0.002919 0.000542 0.000000 0.036150 0.000000
# 6 0.000000 0.000000 0.000000 -0.040434 0.000000 -0.016237
#
#
# Mechanical properties :
#
#
# Convention : Reuss Voigt Hill
#
# Bulk Modulus (GPa) = 38.25045 54.52038 46.38541
# Shear Modulus (GPa) = 28.75805 13.70320 21.23062
#
# Velocity S-wave (km/s) = 3.72837 2.57365 3.20347
# Velocity P-wave (km/s) = 6.08469 5.93170 6.00868
#
# Compressibility (1/GPa) = 0.02614349
#
# Stress axis : x y z
#
# Youngs Moduli (GPa) = 98.55948 33.34814 56.39674
#
# Poissons Ratio (x) = -0.02031 0.36050
# Poissons Ratio (y) = -0.06003 0.56833
# Poissons Ratio (z) = 0.63001 0.33606
#
# Static dielectric constant tensor:
#      x y z
#    x 1.823290 0.000000 0.004730 
#    y 0.000000 1.702980 0.000000 
#    z 0.004730 0.000000 1.701490 
# 
# From -- ./inp_files/17443.got.cif
#   From: 2010.05.17/outbox.cif.g08.bks.cpg/sg12_9_cif.got.tgz:17443.got - 2010.06.03 13:09:07.
