data_PCOD9193914
_publ_section_title
;
Structure prediction by ZEFSAII (Michael W. Deem and Ramdas Pophale) SiO2 
 PCOD9193914
Probable space group: C 2/M
;
_chemical_formula_sum "Si O2"
_cell_formula_units_Z 56
_cell_length_a 14.771942
_cell_length_b 8.584897
_cell_length_c 26.211742
_cell_angle_alpha 90.000000
_cell_angle_beta 113.705539
_cell_angle_gamma 90.000000
_cell_volume 3043.586209
_symmetry_space_group_name_H-M "C 2/M"
_symmetry_group_IT_number 12
_symmetry_cell_setting 'monoclinic'
loop_
_space_group_symop_operation_xyz
x,y,z
-x,y,-z
-x,-y,-z
x,-y,z
1/2+x,1/2+y,z
1/2-x,1/2+y,-z
1/2-x,1/2-y,-z
1/2+x,1/2-y,z
loop_
_atom_site_type_symbol
_atom_site_label
_atom_site_fract_x
_atom_site_fract_y
_atom_site_fract_z
Si Si1 0.070093 0.313402 0.760970
Si Si2 0.742573 0.816218 0.441001
Si Si3 0.009061 0.687702 0.145352
Si Si4 0.536918 0.681791 0.362208
Si Si5 0.432997 0.183316 0.434969
Si Si6 0.274983 0.811440 0.845123
Si Si7 0.804491 0.813903 0.061911
O O1 0.066357 0.500000 0.754700
O O2 0.183567 0.259392 0.793010
O O3 0.013746 0.269992 0.800915
O O4 0.018505 0.233660 0.701376
O O5 0.750000 0.750000 0.500000
O O6 0.634967 0.782039 0.394263
O O7 0.822817 0.727238 0.425532
O O8 0.762950 0.000000 0.446591
O O9 0.005931 0.500000 0.141293
O O10 0.116962 0.738258 0.150144
O O11 0.916710 0.753388 0.092595
O O12 0.562715 0.500000 0.366101
O O13 0.468599 0.716564 0.395484
O O14 0.500000 0.215433 0.500000
O O15 0.442883 0.000000 0.425244
O O16 0.253366 0.767594 0.899176
O O17 0.269964 0.000000 0.840355
O O18 0.805967 0.000000 0.060409
O O19 0.750000 0.750000 0.000000
#
# Coordination Sequence:
#
# PCOD9193914 Si02
#       7
#     8   8   8   8   8   8   8
#     4  10  21  38  59  84 114 146 188 243 294 344
#     4  12  24  40  62  88 118 152 191 234 288 351
#     4   9  19  37  60  82 110 150 193 237 287 340
#     4  12  25  41  62  87 119 157 196 240 291 352
#     4  11  23  40  63  88 116 149 189 238 289 347
#     4   9  19  37  59  82 111 151 195 238 289 346
#     4  10  20  34  54  82 118 154 192 238 285 340
#
# _framework density 18.399346999999999
#
# number of rings (size 3 to 8) (size 9 to 14) (size 15 to 20)
#    0.000    1.571    1.429    3.857    0.000    4.000 
#    0.000    7.143    0.000    0.000    0.000    0.000 
#    0.000    0.000    0.000    0.000    0.000    0.000 
#
# Total GULP energy -156455.089263 kJ/mol
# GULP energy per Si atom -5587.681759 kJ/mol
# Density = 1.835747 g / cm^3
# Si number density = 18.399347 Si / 1000 Ang^3
#
#
#
# Elastic Constant Matrix: (Units=GPa)
#
#
# Indices 1 2 3 4 5 6 
#
# 1 126.8491 3.1549 36.3013 0.0000 13.0735 0.0000
# 2 3.1549 35.7322 25.3856 0.0000 -0.3185 0.0000
# 3 36.3013 25.3856 115.2978 0.0000 12.3101 0.0000
# 4 0.0000 0.0000 0.0000 28.6065 0.0000 5.2030
# 5 13.0735 -0.3185 12.3101 0.0000 13.7375 0.0000
# 6 0.0000 0.0000 0.0000 5.2030 0.0000 30.0290
#
#
#
# Elastic Compliance Matrix: (Units=1/GPa)
#
#
# Indices 1 2 3 4 5 6 
#
# 1 0.009227 0.000814 -0.002376 0.000000 -0.006633 0.000000
# 2 0.000814 0.034080 -0.008583 0.000000 0.007706 0.000000
# 3 -0.002376 -0.008583 0.012264 0.000000 -0.008928 0.000000
# 4 0.000000 0.000000 0.000000 0.036095 0.000000 -0.006254
# 5 -0.006633 0.007706 -0.008928 0.000000 0.087284 0.000000
# 6 0.000000 0.000000 0.000000 -0.006254 0.000000 0.034385
#
#
# Mechanical properties :
#
#
# Convention : Reuss Voigt Hill
#
# Bulk Modulus (GPa) = 28.34305 45.28475 36.81390
# Shear Modulus (GPa) = 20.37617 28.67708 24.52663
#
# Velocity S-wave (km/s) = 3.33143 3.95218 3.65501
# Velocity P-wave (km/s) = 5.49870 6.74477 6.15336
#
# Compressibility (1/GPa) = 0.03528202
#
# Stress axis : x y z
#
# Youngs Moduli (GPa) = 108.38105 29.34246 81.53805
#
# Poissons Ratio (x) = -0.02389 0.19375
# Poissons Ratio (y) = -0.08826 0.69982
# Poissons Ratio (z) = 0.25753 0.25184
#
# Static dielectric constant tensor:
#      x y z
#    x 1.627610 0.000000 -0.003850 
#    y 0.000000 1.620310 0.000000 
#    z -0.003850 0.000000 1.600620 
# 
# From -- ./inp_files/339013.got.cif
#   From: 2010.05.17/outbox.cif.g08.bks.cpg/sg12_170_cif.got.tgz:339013.got - 2010.06.03 13:09:07.
