data_PCOD9193667
_publ_section_title
;
Structure prediction by ZEFSAII (Michael W. Deem and Ramdas Pophale) SiO2 
 PCOD9193667
Probable space group: C 2/M
;
_chemical_formula_sum "Si O2"
_cell_formula_units_Z 56
_cell_length_a 32.189726
_cell_length_b 9.368022
_cell_length_c 18.683881
_cell_angle_alpha 90.000000
_cell_angle_beta 34.609247
_cell_angle_gamma 90.000000
_cell_volume 3200.093782
_symmetry_space_group_name_H-M "C 2/M"
_symmetry_group_IT_number 12
_symmetry_cell_setting 'monoclinic'
loop_
_space_group_symop_operation_xyz
x,y,z
-x,y,-z
-x,-y,-z
x,-y,z
1/2+x,1/2+y,z
1/2-x,1/2+y,-z
1/2-x,1/2-y,-z
1/2+x,1/2-y,z
loop_
_atom_site_type_symbol
_atom_site_label
_atom_site_fract_x
_atom_site_fract_y
_atom_site_fract_z
Si Si1 0.337882 0.162803 0.443720
Si Si2 0.525192 0.832933 0.382596
Si Si3 0.446965 0.330444 0.371357
Si Si4 0.930451 0.330265 0.890100
Si Si5 0.921492 0.666306 0.072207
Si Si6 0.337582 0.337425 0.304551
Si Si7 0.825399 0.330724 0.908540
O O1 0.370004 0.260359 0.460385
O O2 0.361059 0.234832 0.336112
O O3 0.250305 0.161355 0.570631
O O4 0.364458 0.000000 0.410773
O O5 0.500000 0.819667 0.500000
O O6 0.475658 0.729794 0.405490
O O7 0.609593 0.799940 0.241400
O O8 0.514388 0.000000 0.376853
O O9 0.445259 0.500000 0.371155
O O10 0.503786 0.264263 0.233570
O O11 0.945862 0.500000 0.858786
O O12 0.861491 0.298505 0.935445
O O13 0.922255 0.305594 0.986227
O O14 0.899989 0.500000 0.112828
O O15 0.867327 0.771783 0.189575
O O16 0.000000 0.683688 0.000000
O O17 0.363068 0.500000 0.279891
O O18 0.811417 0.500000 0.925773
O O19 0.750000 0.250000 0.000000
#
# Coordination Sequence:
#
# PCOD9193667 Si02
#       7
#     8   8   8   8   8   8   8
#     4  10  20  36  55  74 104 145 181 215 266 327
#     4   9  19  38  60  80 108 145 186 227 273 335
#     4  11  21  33  55  84 109 136 176 226 272 315
#     4   9  19  36  55  77 108 145 184 218 264 330
#     4  10  20  34  54  78 106 143 180 216 268 327
#     4  10  21  35  53  78 106 137 179 228 267 308
#     4   9  18  34  56  80 107 144 183 226 277 329
#
# _framework density 17.499486999999998
#
# number of rings (size 3 to 8) (size 9 to 14) (size 15 to 20)
#    0.000    2.286    0.000    3.857    0.000    6.286 
#    2.571    0.000    0.000    0.000    0.000    0.000 
#    0.000    0.000    0.000    0.000    0.000    0.000 
#
# Total GULP energy -156163.390872 kJ/mol
# GULP energy per Si atom -5577.263960 kJ/mol
# Density = 1.745966 g / cm^3
# Si number density = 17.499487 Si / 1000 Ang^3
#
#
#
# Elastic Constant Matrix: (Units=GPa)
#
#
# Indices 1 2 3 4 5 6 
#
# 1 98.4441 51.3712 45.7435 -0.0002 4.2254 -0.0007
# 2 51.3712 109.5262 41.2486 0.0038 11.0169 -0.0048
# 3 45.7435 41.2486 59.3397 0.0004 22.5263 -0.0015
# 4 -0.0002 0.0038 0.0004 28.1837 -0.0011 -2.6470
# 5 4.2254 11.0169 22.5263 -0.0011 27.3708 0.0008
# 6 -0.0007 -0.0048 -0.0015 -2.6470 0.0008 17.8562
#
#
#
# Elastic Compliance Matrix: (Units=1/GPa)
#
#
# Indices 1 2 3 4 5 6 
#
# 1 0.019739 -0.004045 -0.017258 0.000001 0.012784 -0.000002
# 2 -0.004045 0.013375 -0.006359 -0.000001 0.000475 0.000003
# 3 -0.017258 -0.006359 0.047403 -0.000001 -0.033789 0.000003
# 4 0.000001 -0.000001 -0.000001 0.035982 0.000003 0.005334
# 5 0.012784 0.000475 -0.033789 0.000003 0.062179 -0.000005
# 6 -0.000002 0.000003 0.000003 0.005334 -0.000005 0.056794
#
#
# Mechanical properties :
#
#
# Convention : Reuss Voigt Hill
#
# Bulk Modulus (GPa) = 39.69325 60.44851 50.07088
# Shear Modulus (GPa) = 16.71158 23.27857 19.99508
#
# Velocity S-wave (km/s) = 3.09362 3.65121 3.38392
# Velocity P-wave (km/s) = 5.95755 7.23831 6.62893
#
# Compressibility (1/GPa) = 0.02519320
#
# Stress axis : x y z
#
# Youngs Moduli (GPa) = 50.66088 74.76902 21.09563
#
# Poissons Ratio (x) = 0.30242 0.36406
# Poissons Ratio (y) = 0.20491 0.13415
# Poissons Ratio (z) = 0.87430 0.47548
#
# Static dielectric constant tensor:
#      x y z
#    x 1.615850 0.000000 -0.004090 
#    y 0.000000 1.581840 0.000000 
#    z -0.004090 0.000000 1.596320 
# 
# From -- ./inp_files/295097.got.cif
#   From: 2010.05.17/outbox.cif.g08.bks.cpg/sg12_148_cif.got.tgz:295097.got - 2010.06.03 13:09:07.
