data_PCOD9193188
_publ_section_title
;
Structure prediction by ZEFSAII (Michael W. Deem and Ramdas Pophale) SiO2 
 PCOD9193188
Probable space group: C 2/M
;
_chemical_formula_sum "Si O2"
_cell_formula_units_Z 56
_cell_length_a 18.768463
_cell_length_b 22.592473
_cell_length_c 6.673975
_cell_angle_alpha 90.000000
_cell_angle_beta 83.217502
_cell_angle_gamma 90.000000
_cell_volume 2810.133922
_symmetry_space_group_name_H-M "C 2/M"
_symmetry_group_IT_number 12
_symmetry_cell_setting 'monoclinic'
loop_
_space_group_symop_operation_xyz
x,y,z
-x,y,-z
-x,-y,-z
x,-y,z
1/2+x,1/2+y,z
1/2-x,1/2+y,-z
1/2-x,1/2-y,-z
1/2+x,1/2-y,z
loop_
_atom_site_type_symbol
_atom_site_label
_atom_site_fract_x
_atom_site_fract_y
_atom_site_fract_z
Si Si1 0.296502 0.350438 0.398748
Si Si2 0.815937 0.710247 0.805213
Si Si3 0.192233 0.369808 0.806824
Si Si4 0.942980 0.798783 0.296776
Si Si5 0.302508 0.431930 0.017857
Si Si6 0.924770 0.663328 0.445196
Si Si7 0.400624 0.673437 0.853154
O O1 0.259549 0.297404 0.283534
O O2 0.248193 0.359583 0.608088
O O3 0.378166 0.334768 0.420736
O O4 0.294241 0.405299 0.244536
O O5 0.871586 0.672523 0.651434
O O6 0.845739 0.775933 0.802965
O O7 0.811278 0.682438 0.027183
O O8 0.227487 0.422408 0.924808
O O9 0.116374 0.372181 0.716176
O O10 0.939621 0.729884 0.357240
O O11 0.976115 0.822686 0.712218
O O12 0.922258 0.806538 0.070872
O O13 0.323499 0.500000 0.012542
O O14 0.361305 0.389412 0.891468
O O15 0.000000 0.638737 0.500000
#
# Coordination Sequence:
#
# PCOD9193188 Si02
#       7
#     8   8   8   8   8   8   8
#     4   9  22  37  58  84 119 157 199 246 296 360
#     4  10  20  35  56  90 122 157 190 238 299 370
#     4  10  22  38  60  88 118 155 196 246 305 355
#     4  10  20  34  52  85 123 164 189 227 299 358
#     4  10  23  42  61  83 113 160 217 259 288 329
#     4  11  21  32  55  91 132 160 180 229 299 384
#     4  10  20  36  57  83 122 162 196 243 293 353
#
# _framework density 19.927876000000001
#
# number of rings (size 3 to 8) (size 9 to 14) (size 15 to 20)
#    0.000    2.000    2.857    0.000    4.000    4.000 
#    0.000    5.714    0.000    1.286    0.000    9.000 
#    0.000    0.000    0.000    0.000    0.000    0.000 
#
# Total GULP energy -156398.443697 kJ/mol
# GULP energy per Si atom -5585.658703 kJ/mol
# Density = 1.988252 g / cm^3
# Si number density = 19.927876 Si / 1000 Ang^3
#
#
#
# Elastic Constant Matrix: (Units=GPa)
#
#
# Indices 1 2 3 4 5 6 
#
# 1 145.6330 36.2337 46.1176 0.0000 13.6505 0.0000
# 2 36.2337 89.6153 27.2032 0.0000 -3.6781 0.0000
# 3 46.1176 27.2032 102.6326 0.0000 -3.7868 0.0000
# 4 0.0000 0.0000 0.0000 8.7701 0.0000 0.0592
# 5 13.6505 -3.6781 -3.7868 0.0000 43.3945 0.0000
# 6 0.0000 0.0000 0.0000 0.0592 0.0000 15.4283
#
#
#
# Elastic Compliance Matrix: (Units=1/GPa)
#
#
# Indices 1 2 3 4 5 6 
#
# 1 0.008938 -0.002713 -0.003420 0.000000 -0.003340 0.000000
# 2 -0.002713 0.012983 -0.002157 0.000000 0.001765 0.000000
# 3 -0.003420 -0.002157 0.011924 0.000000 0.001934 0.000000
# 4 0.000000 0.000000 0.000000 0.114027 0.000000 -0.000438
# 5 -0.003340 0.001765 0.001934 0.000000 0.024413 0.000000
# 6 0.000000 0.000000 0.000000 -0.000438 0.000000 0.064818
#
#
# Mechanical properties :
#
#
# Convention : Reuss Voigt Hill
#
# Bulk Modulus (GPa) = 57.92429 61.88778 59.90603
# Shear Modulus (GPa) = 19.27255 28.74033 24.00644
#
# Velocity S-wave (km/s) = 3.11322 3.80177 3.47460
# Velocity P-wave (km/s) = 6.48482 7.09892 6.79881
#
# Compressibility (1/GPa) = 0.01726391
#
# Stress axis : x y z
#
# Youngs Moduli (GPa) = 111.88644 77.02486 83.86779
#
# Poissons Ratio (x) = 0.20893 0.28686
# Poissons Ratio (y) = 0.30349 0.18092
# Poissons Ratio (z) = 0.38269 0.16615
#
# Static dielectric constant tensor:
#      x y z
#    x 1.765900 0.000000 0.003010 
#    y 0.000000 1.640980 0.000000 
#    z 0.003010 0.000000 1.814390 
# 
# From -- ./inp_files/21651.got.cif
#   From: 2010.05.17/outbox.cif.g08.bks.cpg/sg12_11_cif.got.tgz:21651.got - 2010.06.03 13:09:07.
