data_PCOD9193333
_publ_section_title
;
Structure prediction by ZEFSAII (Michael W. Deem and Ramdas Pophale) SiO2 
 PCOD9193333
Probable space group: C 2/M
;
_chemical_formula_sum "Si O2"
_cell_formula_units_Z 56
_cell_length_a 18.310698
_cell_length_b 7.533658
_cell_length_c 19.312656
_cell_angle_alpha 90.000000
_cell_angle_beta 104.360862
_cell_angle_gamma 90.000000
_cell_volume 2580.867934
_symmetry_space_group_name_H-M "C 2/M"
_symmetry_group_IT_number 12
_symmetry_cell_setting 'monoclinic'
loop_
_space_group_symop_operation_xyz
x,y,z
-x,y,-z
-x,-y,-z
x,-y,z
1/2+x,1/2+y,z
1/2-x,1/2+y,-z
1/2-x,1/2-y,-z
1/2+x,1/2-y,z
loop_
_atom_site_type_symbol
_atom_site_label
_atom_site_fract_x
_atom_site_fract_y
_atom_site_fract_z
Si Si1 0.741987 0.789891 0.293246
Si Si2 0.378146 0.714469 0.854039
Si Si3 0.665169 0.712690 0.003475
Si Si4 0.594278 0.282213 0.716927
Si Si5 0.813738 0.711501 0.571630
Si Si6 0.452263 0.717284 0.140316
Si Si7 0.017186 0.206990 0.428462
O O1 0.680329 0.765239 0.219241
O O2 0.823009 0.721436 0.287321
O O3 0.712641 0.717931 0.359694
O O4 0.752878 0.000000 0.306536
O O5 0.379579 0.500000 0.856443
O O6 0.352061 0.779662 0.923362
O O7 0.462653 0.774037 0.856134
O O8 0.656389 0.500000 0.003912
O O9 0.750000 0.750000 0.000000
O O10 0.605629 0.777776 0.932437
O O11 0.594053 0.500000 0.718725
O O12 0.573697 0.225328 0.789625
O O13 0.532733 0.220942 0.646372
O O14 0.822851 0.500000 0.578882
O O15 0.750000 0.750000 0.500000
O O16 0.894754 0.783206 0.567957
O O17 0.451846 0.500000 0.139872
O O18 0.000000 0.286037 0.500000
O O19 0.994911 0.000000 0.427428
#
# Coordination Sequence:
#
# PCOD9193333 Si02
#       7
#     8   8   8   8   8   8   8
#     4  10  21  37  56  80 110 143 178 218 269 325
#     4  10  20  34  54  80 106 136 179 227 272 319
#     4  10  20  34  53  77 106 140 178 223 272 322
#     4   9  17  31  53  77 102 139 182 219 264 323
#     4  11  23  38  57  82 113 148 185 225 271 325
#     4   9  17  31  52  76 103 137 177 219 263 315
#     4  10  20  36  58  82 110 144 183 229 277 326
#
# _framework density 21.698126999999999
#
# number of rings (size 3 to 8) (size 9 to 14) (size 15 to 20)
#    0.000    2.143    0.000    3.429    0.000    8.286 
#    0.000    1.429    0.000    6.857    0.000    0.000 
#    0.000    0.000    0.000    0.000    0.000    0.000 
#
# Total GULP energy -156528.021701 kJ/mol
# GULP energy per Si atom -5590.286489 kJ/mol
# Density = 2.164874 g / cm^3
# Si number density = 21.698127 Si / 1000 Ang^3
#
#
#
# Elastic Constant Matrix: (Units=GPa)
#
#
# Indices 1 2 3 4 5 6 
#
# 1 198.7130 -21.3863 124.4669 0.0000 -10.2031 0.0000
# 2 -21.3863 49.2179 -12.4463 0.0000 -7.9839 0.0000
# 3 124.4669 -12.4463 236.1107 0.0000 -12.7363 0.0000
# 4 0.0000 0.0000 0.0000 7.9401 0.0000 7.8716
# 5 -10.2031 -7.9839 -12.7363 0.0000 50.3483 0.0000
# 6 0.0000 0.0000 0.0000 7.8716 0.0000 17.7547
#
#
#
# Elastic Compliance Matrix: (Units=1/GPa)
#
#
# Indices 1 2 3 4 5 6 
#
# 1 0.007825 0.002567 -0.003936 0.000000 0.000997 0.000000
# 2 0.002567 0.022094 0.000029 0.000000 0.004031 0.000000
# 3 -0.003936 0.000029 0.006356 0.000000 0.000815 0.000000
# 4 0.000000 0.000000 0.000000 0.224713 0.000000 -0.099628
# 5 0.000997 0.004031 0.000815 0.000000 0.020909 0.000000
# 6 0.000000 0.000000 0.000000 -0.099628 0.000000 0.100494
#
#
# Mechanical properties :
#
#
# Convention : Reuss Voigt Hill
#
# Bulk Modulus (GPa) = 29.76667 73.92336 51.84501
# Shear Modulus (GPa) = 12.61765 41.43575 27.02670
#
# Velocity S-wave (km/s) = 2.41407 4.37469 3.53310
# Velocity P-wave (km/s) = 4.63882 7.72400 6.37098
#
# Compressibility (1/GPa) = 0.03359462
#
# Stress axis : x y z
#
# Youngs Moduli (GPa) = 127.79259 45.26052 157.33995
#
# Poissons Ratio (x) = -0.11617 0.61929
# Poissons Ratio (y) = -0.32799 -0.00458
# Poissons Ratio (z) = 0.50299 -0.00132
#
# Static dielectric constant tensor:
#      x y z
#    x 1.710940 0.000000 -0.020440 
#    y 0.000000 1.842680 0.000000 
#    z -0.020440 0.000000 1.753500 
# 
# From -- ./inp_files/275485.got.cif
#   From: 2010.05.17/outbox.cif.g08.bks.cpg/sg12_138_cif.got.tgz:275485.got - 2010.06.03 13:09:07.
