data_PCOD9193778
_publ_section_title
;
Structure prediction by ZEFSAII (Michael W. Deem and Ramdas Pophale) SiO2 
 PCOD9193778
Probable space group: C 2/M
;
_chemical_formula_sum "Si O2"
_cell_formula_units_Z 56
_cell_length_a 18.866501
_cell_length_b 8.437580
_cell_length_c 19.295586
_cell_angle_alpha 90.000000
_cell_angle_beta 104.461134
_cell_angle_gamma 90.000000
_cell_volume 2974.300967
_symmetry_space_group_name_H-M "C 2/M"
_symmetry_group_IT_number 12
_symmetry_cell_setting 'monoclinic'
loop_
_space_group_symop_operation_xyz
x,y,z
-x,y,-z
-x,-y,-z
x,-y,z
1/2+x,1/2+y,z
1/2-x,1/2+y,-z
1/2-x,1/2-y,-z
1/2+x,1/2-y,z
loop_
_atom_site_type_symbol
_atom_site_label
_atom_site_fract_x
_atom_site_fract_y
_atom_site_fract_z
Si Si1 0.351101 0.810095 0.223326
Si Si2 0.013078 0.189992 0.226881
Si Si3 0.794707 0.691481 0.359547
Si Si4 0.526510 0.692774 0.932187
Si Si5 0.309044 0.689672 0.068758
Si Si6 0.082030 0.306379 0.500676
Si Si7 0.865209 0.689432 0.638182
O O1 0.432732 0.740455 0.234204
O O2 0.315257 0.756985 0.286730
O O3 0.304336 0.759050 0.144952
O O4 0.357324 0.000000 0.225871
O O5 0.076541 0.258760 0.289868
O O6 0.017310 0.243031 0.147313
O O7 0.017144 0.000000 0.229360
O O8 0.794186 0.500000 0.359737
O O9 0.858165 0.744051 0.428061
O O10 0.715385 0.748455 0.364057
O O11 0.523006 0.500000 0.932894
O O12 0.610595 0.736179 0.939324
O O13 0.500000 0.752213 0.000000
O O14 0.306213 0.500000 0.072577
O O15 0.250000 0.750000 0.000000
O O16 0.081141 0.500000 0.500505
O O17 0.106812 0.254094 0.430354
O O18 0.000000 0.254362 0.500000
O O19 0.862636 0.500000 0.635366
#
# Coordination Sequence:
#
# PCOD9193778 Si02
#       7
#     8   8   8   8   8   8   8
#     4  10  20  36  58  80 105 143 187 229 277 329
#     4  10  20  35  56  80 108 142 180 225 274 327
#     4  10  21  37  57  80 109 145 183 225 275 330
#     4   8  16  32  53  75  99 132 175 218 260 311
#     4  10  20  34  54  80 110 144 182 227 275 325
#     4   9  18  35  58  81 106 141 184 225 269 326
#     4  11  22  35  55  82 112 144 179 225 276 325
#
# _framework density 18.827952
#
# number of rings (size 3 to 8) (size 9 to 14) (size 15 to 20)
#    0.000    2.286    0.000    3.857    0.000    4.571 
#    0.000    3.571    0.000   17.571    0.000    0.000 
#    0.000    0.000    0.000    0.000    0.000    0.000 
#
# Total GULP energy -156301.596834 kJ/mol
# GULP energy per Si atom -5582.199887 kJ/mol
# Density = 1.878510 g / cm^3
# Si number density = 18.827952 Si / 1000 Ang^3
#
#
#
# Elastic Constant Matrix: (Units=GPa)
#
#
# Indices 1 2 3 4 5 6 
#
# 1 132.5958 15.6904 119.7360 0.0000 -7.0846 0.0000
# 2 15.6904 20.7103 23.8610 0.0000 -3.1126 0.0000
# 3 119.7360 23.8610 219.8438 0.0000 -6.0555 0.0000
# 4 0.0000 0.0000 0.0000 23.5263 0.0000 1.6303
# 5 -7.0846 -3.1126 -6.0555 0.0000 40.9191 0.0000
# 6 0.0000 0.0000 0.0000 1.6303 0.0000 27.2142
#
#
#
# Elastic Compliance Matrix: (Units=1/GPa)
#
#
# Indices 1 2 3 4 5 6 
#
# 1 0.014994 -0.002058 -0.007908 0.000000 0.001269 0.000000
# 2 -0.002058 0.055923 -0.004861 0.000000 0.003178 0.000000
# 3 -0.007908 -0.004861 0.009374 0.000000 -0.000352 0.000000
# 4 0.000000 0.000000 0.000000 0.042683 0.000000 -0.002557
# 5 0.001269 0.003178 -0.000352 0.000000 0.024848 0.000000
# 6 0.000000 0.000000 0.000000 -0.002557 0.000000 0.036899
#
#
# Mechanical properties :
#
#
# Convention : Reuss Voigt Hill
#
# Bulk Modulus (GPa) = 19.74872 76.85829 48.30351
# Shear Modulus (GPa) = 21.62129 32.58943 27.10536
#
# Velocity S-wave (km/s) = 3.39242 4.16493 3.79837
# Velocity P-wave (km/s) = 5.08493 8.00243 6.70430
#
# Compressibility (1/GPa) = 0.05063620
#
# Stress axis : x y z
#
# Youngs Moduli (GPa) = 66.69235 17.88177 106.68105
#
# Poissons Ratio (x) = 0.03680 0.84365
# Poissons Ratio (y) = 0.13724 0.51861
# Poissons Ratio (z) = 0.52741 0.08693
#
# Static dielectric constant tensor:
#      x y z
#    x 1.618870 0.000000 -0.014390 
#    y 0.000000 1.653140 0.000000 
#    z -0.014390 0.000000 1.654590 
# 
# From -- ./inp_files/275536.got.cif
#   From: 2010.05.17/outbox.cif.g08.bks.cpg/sg12_138_cif.got.tgz:275536.got - 2010.06.03 13:09:07.
