data_PCOD9193671
_publ_section_title
;
Structure prediction by ZEFSAII (Michael W. Deem and Ramdas Pophale) SiO2 
 PCOD9193671
Probable space group: C 2/M
;
_chemical_formula_sum "Si O2"
_cell_formula_units_Z 64
_cell_length_a 19.876939
_cell_length_b 25.108372
_cell_length_c 11.969965
_cell_angle_alpha 90.000000
_cell_angle_beta 36.165254
_cell_angle_gamma 90.000000
_cell_volume 3525.319404
_symmetry_space_group_name_H-M "C 2/M"
_symmetry_group_IT_number 12
_symmetry_cell_setting 'monoclinic'
loop_
_space_group_symop_operation_xyz
x,y,z
-x,y,-z
-x,-y,-z
x,-y,z
1/2+x,1/2+y,z
1/2-x,1/2+y,-z
1/2-x,1/2-y,-z
1/2+x,1/2-y,z
loop_
_atom_site_type_symbol
_atom_site_label
_atom_site_fract_x
_atom_site_fract_y
_atom_site_fract_z
Si Si1 0.132112 0.438797 0.790465
Si Si2 0.695834 0.705282 0.206707
Si Si3 0.255096 0.340475 0.511478
Si Si4 0.513896 0.360693 0.110138
Si Si5 0.943720 0.059581 0.760072
Si Si6 0.175005 0.738258 0.451152
Si Si7 0.579723 0.259809 0.136206
Si Si8 0.831317 0.086156 0.685733
O O1 0.144866 0.500000 0.729819
O O2 0.177761 0.390188 0.651933
O O3 0.214970 0.433475 0.786725
O O4 0.000000 0.431157 0.000000
O O5 0.665716 0.752781 0.331980
O O6 0.626783 0.710965 0.184569
O O7 0.667851 0.649929 0.302876
O O8 0.830376 0.712998 0.005493
O O9 0.386513 0.357188 0.331439
O O10 0.226117 0.315997 0.429608
O O11 0.251684 0.288630 0.598449
O O12 0.575650 0.400980 0.111285
O O13 0.572101 0.302915 0.047206
O O14 0.500000 0.375943 0.000000
O O15 0.853679 0.065231 0.780237
O O16 0.063891 0.069957 0.534813
O O17 0.945610 0.000000 0.801172
O O18 0.048206 0.741539 0.670940
#
# Coordination Sequence:
#
# PCOD9193671 Si02
#       8
#     8   8   8   8   8   8   8   8
#     4  11  23  38  59  87 120 156 196 246 301 353
#     4  11  20  34  56  82 112 147 188 237 292 347
#     4  10  21  35  53  79 113 151 192 236 285 351
#     4  11  21  37  55  80 122 154 192 237 289 353
#     4  11  22  36  61  89 114 151 196 249 305 347
#     4  10  20  34  54  78 110 151 189 234 291 343
#     4  10  22  35  52  81 112 149 190 235 286 347
#     4  11  20  37  61  86 117 147 190 252 299 350
#
# _framework density 18.154384
#
# number of rings (size 3 to 8) (size 9 to 14) (size 15 to 20)
#    0.000    1.375    3.750    3.375    3.500    0.250 
#    0.000    0.000    0.000    0.000    0.000    0.000 
#    0.000    4.000    0.000    0.000    0.000    0.000 
#
# Total GULP energy -178539.669158 kJ/mol
# GULP energy per Si atom -5579.364661 kJ/mol
# Density = 1.811306 g / cm^3
# Si number density = 18.154384 Si / 1000 Ang^3
#
#
#
# Elastic Constant Matrix: (Units=GPa)
#
#
# Indices 1 2 3 4 5 6 
#
# 1 80.7989 16.6244 15.3126 -0.0017 5.1152 -0.0018
# 2 16.6244 81.1652 12.1038 -0.0013 -4.1250 -0.0013
# 3 15.3126 12.1038 24.9736 -0.0025 -6.5444 -0.0026
# 4 -0.0017 -0.0013 -0.0025 -6.4279 0.0019 -29.0077
# 5 5.1152 -4.1250 -6.5444 0.0019 32.0119 0.0021
# 6 -0.0018 -0.0013 -0.0026 -29.0077 0.0021 -14.2706
#
#
#
# Elastic Compliance Matrix: (Units=1/GPa)
#
#
# Indices 1 2 3 4 5 6 
#
# 1 0.014823 -0.001869 -0.009369 0.000000 -0.004525 0.000000
# 2 -0.001869 0.013521 -0.005148 0.000000 0.000988 0.000000
# 3 -0.009369 -0.005148 0.051246 -0.000002 0.011310 -0.000002
# 4 0.000000 0.000000 -0.000002 0.019035 0.000001 -0.038692
# 5 -0.004525 0.000988 0.011310 0.000001 0.034401 0.000001
# 6 0.000000 0.000000 -0.000002 -0.038692 0.000001 0.008574
#
#
# Mechanical properties :
#
#
# Convention : Reuss Voigt Hill
#
# Bulk Modulus (GPa) = 21.35920 30.55772 25.95846
# Shear Modulus (GPa) = 26.31892 11.78912 19.05402
#
# Velocity S-wave (km/s) = 3.81166 2.55106 3.24320
# Velocity P-wave (km/s) = 5.58234 5.05429 5.32487
#
# Compressibility (1/GPa) = 0.04681824
#
# Stress axis : x y z
#
# Youngs Moduli (GPa) = 67.46334 73.95715 19.51379
#
# Poissons Ratio (x) = 0.13822 0.18282
# Poissons Ratio (y) = 0.12608 0.10046
# Poissons Ratio (z) = 0.63204 0.38076
#
# Static dielectric constant tensor:
#      x y z
#    x 1.654610 0.000000 0.007550 
#    y 0.000000 1.648830 0.000000 
#    z 0.007550 0.000000 1.621810 
# 
# From -- ./inp_files/170585.got.cif
#   From: 2010.05.17/outbox.cif.g08.bks.cpg/sg12_86_cif.got.tgz:170585.got - 2010.06.03 13:09:07.
