data_PCOD9193573
_publ_section_title
;
Structure prediction by ZEFSAII (Michael W. Deem and Ramdas Pophale) SiO2 
 PCOD9193573
Probable space group: C 2/M
;
_chemical_formula_sum "Si O2"
_cell_formula_units_Z 58
_cell_length_a 25.622508
_cell_length_b 7.513429
_cell_length_c 12.602173
_cell_angle_alpha 90.000000
_cell_angle_beta 96.478969
_cell_angle_gamma 90.000000
_cell_volume 2410.586253
_symmetry_space_group_name_H-M "C 2/M"
_symmetry_group_IT_number 12
_symmetry_cell_setting 'monoclinic'
loop_
_space_group_symop_operation_xyz
x,y,z
-x,y,-z
-x,-y,-z
x,-y,z
1/2+x,1/2+y,z
1/2-x,1/2+y,-z
1/2-x,1/2-y,-z
1/2+x,1/2-y,z
loop_
_atom_site_type_symbol
_atom_site_label
_atom_site_fract_x
_atom_site_fract_y
_atom_site_fract_z
Si Si1 0.456149 0.716360 0.574309
Si Si2 0.632094 0.705350 0.602565
Si Si3 0.252339 0.808929 0.381410
Si Si4 0.133203 0.290372 0.826192
Si Si5 0.041787 0.217147 0.177389
Si Si6 0.138189 0.211004 0.056316
Si Si7 0.000000 0.500000 0.000000
Si Si8 0.753361 0.780374 0.842800
O O1 0.500000 0.776612 0.500000
O O2 0.456760 0.500000 0.572850
O O3 0.402294 0.769713 0.503258
O O4 0.462148 0.765152 0.698601
O O5 0.646478 0.500000 0.586679
O O6 0.685448 0.813047 0.626013
O O7 0.606332 0.712743 0.714362
O O8 0.250000 0.750000 0.500000
O O9 0.231321 0.715630 0.272212
O O10 0.225961 0.000000 0.373177
O O11 0.134034 0.500000 0.810447
O O12 0.193701 0.219172 0.847661
O O13 0.111615 0.259583 0.938689
O O14 0.100579 0.257790 0.145176
O O15 0.033033 0.000000 0.164444
O O16 0.007123 0.342430 0.094425
O O17 0.197986 0.282479 0.075443
O O18 0.143133 0.000000 0.059571
O O19 0.751275 0.000000 0.844374
#
# Coordination Sequence:
#
# PCOD9193573 Si02
#       8
#     8   8   8   8   8   8   2   8
#     4   9  20  42  69  96 125 165 216 268 330 390
#     4  10  20  36  61  88 121 163 214 263 313 384
#     4  10  20  34  53  84 121 163 206 254 316 376
#     4  10  20  35  55  87 129 169 209 259 315 374
#     4  10  24  45  71 100 131 168 215 271 335 396
#     4  10  20  36  60  88 120 166 215 261 315 384
#     4  12  26  48  70  98 136 168 214 278 328 418
#     4   8  17  33  53  79 119 166 210 256 308 369
#
# _framework density 24.060538000000001
#
# number of rings (size 3 to 8) (size 9 to 14) (size 15 to 20)
#    0.000    2.345    0.000    2.690    2.897    1.103 
#    2.483    6.552    0.000    0.000    0.000    0.000 
#    0.000    0.000    0.000    0.000    0.000    0.000 
#
# Total GULP energy -161457.524097 kJ/mol
# GULP energy per Si atom -5567.500831 kJ/mol
# Density = 2.400578 g / cm^3
# Si number density = 24.060538 Si / 1000 Ang^3
#
#
#
# Elastic Constant Matrix: (Units=GPa)
#
#
# Indices 1 2 3 4 5 6 
#
# 1 47.9452 14.1423 33.4614 0.0000 7.3037 0.0000
# 2 14.1423 70.8848 13.9317 0.0000 -0.5252 0.0000
# 3 33.4614 13.9317 234.2362 0.0000 -3.8232 0.0000
# 4 0.0000 0.0000 0.0000 20.5885 0.0000 6.9627
# 5 7.3037 -0.5252 -3.8232 0.0000 31.4022 0.0000
# 6 0.0000 0.0000 0.0000 6.9627 0.0000 -13.9450
#
#
#
# Elastic Compliance Matrix: (Units=1/GPa)
#
#
# Indices 1 2 3 4 5 6 
#
# 1 0.025598 -0.004468 -0.003496 0.000000 -0.006454 0.000000
# 2 -0.004468 0.015055 -0.000237 0.000000 0.001262 0.000000
# 3 -0.003496 -0.000237 0.004806 0.000000 0.001394 0.000000
# 4 0.000000 0.000000 0.000000 0.041554 0.000000 0.020748
# 5 -0.006454 0.001262 0.001394 0.000000 0.033537 0.000000
# 6 0.000000 0.000000 0.000000 0.020748 0.000000 -0.061351
#
#
# Mechanical properties :
#
#
# Convention : Reuss Voigt Hill
#
# Bulk Modulus (GPa) = 34.41518 52.90412 43.65965
# Shear Modulus (GPa) = 58.62623 27.04452 42.83537
#
# Velocity S-wave (km/s) = 4.94156 3.35628 4.22396
# Velocity P-wave (km/s) = 6.84787 6.08729 6.47875
#
# Compressibility (1/GPa) = 0.02905694
#
# Stress axis : x y z
#
# Youngs Moduli (GPa) = 39.06495 66.42480 208.09486
#
# Poissons Ratio (x) = 0.29677 0.72759
# Poissons Ratio (y) = 0.17453 0.04923
# Poissons Ratio (z) = 0.13659 0.01571
#
# Static dielectric constant tensor:
#      x y z
#    x 1.996290 0.000000 -0.045020 
#    y 0.000000 1.928310 0.000000 
#    z -0.045020 0.000000 2.020600 
# 
# From -- ./inp_files/186780.got.cif
#   From: 2010.05.17/outbox.cif.g08.bks.cpg/sg12_94_cif.got.tgz:186780.got - 2010.06.03 13:09:07.
