data_PCOD9193613
_publ_section_title
;
Structure prediction by ZEFSAII (Michael W. Deem and Ramdas Pophale) SiO2 
 PCOD9193613
Probable space group: C 2/M
;
_chemical_formula_sum "Si O2"
_cell_formula_units_Z 64
_cell_length_a 16.839204
_cell_length_b 7.649264
_cell_length_c 22.321027
_cell_angle_alpha 90.000000
_cell_angle_beta 89.564132
_cell_angle_gamma 90.000000
_cell_volume 2875.032870
_symmetry_space_group_name_H-M "C 2/M"
_symmetry_group_IT_number 12
_symmetry_cell_setting 'monoclinic'
loop_
_space_group_symop_operation_xyz
x,y,z
-x,y,-z
-x,-y,-z
x,-y,z
1/2+x,1/2+y,z
1/2-x,1/2+y,-z
1/2-x,1/2-y,-z
1/2+x,1/2-y,z
loop_
_atom_site_type_symbol
_atom_site_label
_atom_site_fract_x
_atom_site_fract_y
_atom_site_fract_z
Si Si1 0.662445 0.712208 0.130967
Si Si2 0.907891 0.295983 0.742176
Si Si3 0.342671 0.789374 0.121583
Si Si4 0.336177 0.214467 0.363015
Si Si5 0.162082 0.198003 0.375180
Si Si6 0.506410 0.792712 0.567008
Si Si7 0.915497 0.713535 0.243250
Si Si8 0.911996 0.791715 0.992639
O O1 0.660226 0.500000 0.131945
O O2 0.615363 0.776810 0.188704
O O3 0.753439 0.767705 0.135305
O O4 0.628681 0.775322 0.067498
O O5 0.906339 0.500000 0.725552
O O6 0.849602 0.201806 0.696671
O O7 0.997784 0.229231 0.735795
O O8 0.397210 0.726185 0.176030
O O9 0.344759 0.000000 0.122538
O O10 0.366556 0.736313 0.054829
O O11 0.249786 0.276018 0.386538
O O12 0.414986 0.273102 0.398630
O O13 0.351548 0.264677 0.293594
O O14 0.333953 0.000000 0.364308
O O15 0.079437 0.273218 0.400918
O O16 0.164128 0.000000 0.397386
O O17 0.500000 0.719472 0.500000
O O18 0.520426 0.000000 0.562391
O O19 0.917354 0.500000 0.241934
O O20 0.918459 0.000000 0.983964
O O21 0.000000 0.717772 0.000000
#
# Coordination Sequence:
#
# PCOD9193613 Si02
#       8
#     8   8   8   8   8   8   8   8
#     4  10  21  36  53  76 108 144 184 231 289 350
#     4  11  21  35  58  84 112 147 191 241 288 342
#     4  10  20  34  54  77 101 139 188 232 278 346
#     4   9  18  36  60  85 119 161 196 234 293 354
#     4  11  22  37  61  89 121 160 197 240 296 351
#     4  10  21  40  65  90 120 160 202 242 285 340
#     4   9  17  32  55  79 106 143 188 234 282 342
#     4  10  21  36  52  73 106 143 177 228 291 343
#
# _framework density 22.260615999999999
#
# number of rings (size 3 to 8) (size 9 to 14) (size 15 to 20)
#    0.000    2.000    1.250    2.625    0.000    4.000 
#    0.000    1.875    0.000    0.000    0.000    0.000 
#    0.000    0.000    0.000    0.000    0.000    0.000 
#
# Total GULP energy -178696.050622 kJ/mol
# GULP energy per Si atom -5584.251582 kJ/mol
# Density = 2.220995 g / cm^3
# Si number density = 22.260616 Si / 1000 Ang^3
#
#
#
# Elastic Constant Matrix: (Units=GPa)
#
#
# Indices 1 2 3 4 5 6 
#
# 1 142.3882 -0.3868 43.3956 0.0000 -2.5207 0.0000
# 2 -0.3868 37.0488 -6.1993 0.0000 1.1769 0.0000
# 3 43.3956 -6.1993 117.0579 0.0000 0.7029 0.0000
# 4 0.0000 0.0000 0.0000 11.3567 0.0000 -4.0695
# 5 -2.5207 1.1769 0.7029 0.0000 18.2281 0.0000
# 6 0.0000 0.0000 0.0000 -4.0695 0.0000 5.9103
#
#
#
# Elastic Compliance Matrix: (Units=1/GPa)
#
#
# Indices 1 2 3 4 5 6 
#
# 1 0.007952 -0.000455 -0.002979 0.000000 0.001244 0.000000
# 2 -0.000455 0.027319 0.001627 0.000000 -0.001890 0.000000
# 3 -0.002979 0.001627 0.009739 0.000000 -0.000893 0.000000
# 4 0.000000 0.000000 0.000000 0.116894 0.000000 0.080486
# 5 0.001244 -0.001890 -0.000893 0.000000 0.055189 0.000000
# 6 0.000000 0.000000 0.000000 0.080486 0.000000 0.224612
#
#
# Mechanical properties :
#
#
# Convention : Reuss Voigt Hill
#
# Bulk Modulus (GPa) = 24.15792 41.12375 32.64084
# Shear Modulus (GPa) = 10.89044 24.41138 17.65091
#
# Velocity S-wave (km/s) = 2.21424 3.31511 2.81894
# Velocity P-wave (km/s) = 4.17289 5.75910 5.02893
#
# Compressibility (1/GPa) = 0.04139429
#
# Stress axis : x y z
#
# Youngs Moduli (GPa) = 125.75615 36.60464 102.68149
#
# Poissons Ratio (x) = 0.01666 0.30594
# Poissons Ratio (y) = 0.05722 -0.16705
# Poissons Ratio (z) = 0.37469 -0.05955
#
# Static dielectric constant tensor:
#      x y z
#    x 1.819810 0.000000 0.009940 
#    y 0.000000 1.866480 0.000000 
#    z 0.009940 0.000000 1.823390 
# 
# From -- ./inp_files/314086.got.cif
#   From: 2010.05.17/outbox.cif.g08.bks.cpg/sg12_158_cif.got.tgz:314086.got - 2010.06.03 13:09:07.
