data_PCOD9193670
_publ_section_title
;
Structure prediction by ZEFSAII (Michael W. Deem and Ramdas Pophale) SiO2 
 PCOD9193670
Probable space group: C 2/M
;
_chemical_formula_sum "Si O2"
_cell_formula_units_Z 52
_cell_length_a 21.349178
_cell_length_b 24.629547
_cell_length_c 5.071790
_cell_angle_alpha 90.000000
_cell_angle_beta 55.298025
_cell_angle_gamma 90.000000
_cell_volume 2192.483797
_symmetry_space_group_name_H-M "C 2/M"
_symmetry_group_IT_number 12
_symmetry_cell_setting 'monoclinic'
loop_
_space_group_symop_operation_xyz
x,y,z
-x,y,-z
-x,-y,-z
x,-y,z
1/2+x,1/2+y,z
1/2-x,1/2+y,-z
1/2-x,1/2-y,-z
1/2+x,1/2-y,z
loop_
_atom_site_type_symbol
_atom_site_label
_atom_site_fract_x
_atom_site_fract_y
_atom_site_fract_z
Si Si1 0.798405 0.615202 0.182834
Si Si2 0.913876 0.882334 0.823542
Si Si3 0.099185 0.614539 0.562098
Si Si4 0.951402 0.734429 0.369258
Si Si5 0.404218 0.000000 0.550037
Si Si6 0.153525 0.825633 0.511066
Si Si7 0.944507 0.000000 0.881233
Si Si8 0.299620 0.000000 0.301616
O O1 0.868553 0.617582 0.219514
O O2 0.741391 0.664506 0.367997
O O3 0.759620 0.556880 0.337015
O O4 0.830293 0.614202 0.811656
O O5 0.862805 0.864911 0.698655
O O6 0.900217 0.943594 0.958766
O O7 0.000000 0.878939 0.500000
O O8 0.895626 0.844533 0.118297
O O9 0.056627 0.669816 0.602397
O O10 0.056935 0.557430 0.608698
O O11 0.872448 0.766402 0.523993
O O12 0.000000 0.753662 0.500000
O O13 0.000000 0.748037 0.000000
O O14 0.332347 0.000000 0.518560
O O15 0.371714 0.000000 0.924067
O O16 0.000000 0.000000 0.500000
O O17 0.000000 0.000000 0.000000
#
# Coordination Sequence:
#
# PCOD9193670 Si02
#       8
#     8   8   8   8   4   8   4   4
#     4  10  21  37  61  92 120 157 193 241 304 356
#     4  11  22  38  56  79 114 159 205 253 303 349
#     4  10  21  41  64  89 124 154 194 244 302 368
#     4  12  26  43  63  88 118 160 207 252 297 350
#     4   8  16  34  61  87 116 154 180 234 305 354
#     4  12  24  38  60  87 120 158 202 246 293 356
#     4  10  20  34  54  78 108 152 208 262 306 342
#     4   8  16  32  55  85 121 150 189 230 287 364
#
# _framework density 23.717390999999999
#
# number of rings (size 3 to 8) (size 9 to 14) (size 15 to 20)
#    0.000    1.538    0.000    6.462    0.000    2.462 
#    0.000    2.308    0.000    0.000    0.000    0.000 
#    0.000    0.000    0.000    0.000    0.000    0.000 
#
# Total GULP energy -145393.474353 kJ/mol
# GULP energy per Si atom -5592.056706 kJ/mol
# Density = 2.366341 g / cm^3
# Si number density = 23.717391 Si / 1000 Ang^3
#
#
#
# Elastic Constant Matrix: (Units=GPa)
#
#
# Indices 1 2 3 4 5 6 
#
# 1 67.2091 29.6221 25.1991 0.0000 23.3682 0.0000
# 2 29.6221 116.2050 12.0828 0.0000 5.2807 0.0000
# 3 25.1991 12.0828 103.3355 0.0000 26.0164 0.0000
# 4 0.0000 0.0000 0.0000 20.8648 0.0000 11.3597
# 5 23.3682 5.2807 26.0164 0.0000 37.0914 0.0000
# 6 0.0000 0.0000 0.0000 11.3597 0.0000 27.4739
#
#
#
# Elastic Compliance Matrix: (Units=1/GPa)
#
#
# Indices 1 2 3 4 5 6 
#
# 1 0.021770 -0.004829 -0.001778 0.000000 -0.011781 0.000000
# 2 -0.004829 0.009795 -0.000465 0.000000 0.001974 0.000000
# 3 -0.001778 -0.000465 0.011982 0.000000 -0.007218 0.000000
# 4 0.000000 0.000000 0.000000 0.061851 0.000000 -0.025574
# 5 -0.011781 0.001974 -0.007218 0.000000 0.039164 0.000000
# 6 0.000000 0.000000 0.000000 -0.025574 0.000000 0.046972
#
#
# Mechanical properties :
#
#
# Convention : Reuss Voigt Hill
#
# Bulk Modulus (GPa) = 34.00922 46.72863 40.36892
# Shear Modulus (GPa) = 23.20390 31.74240 27.47315
#
# Velocity S-wave (km/s) = 3.13125 3.66233 3.40715
# Velocity P-wave (km/s) = 5.23865 6.13421 5.70404
#
# Compressibility (1/GPa) = 0.02940379
#
# Stress axis : x y z
#
# Youngs Moduli (GPa) = 45.93430 102.09161 83.45530
#
# Poissons Ratio (x) = 0.49303 0.14839
# Poissons Ratio (y) = 0.22183 0.03878
# Poissons Ratio (z) = 0.08168 0.04743
#
# Static dielectric constant tensor:
#      x y z
#    x 1.870470 0.000000 -0.030280 
#    y 0.000000 1.984760 0.000000 
#    z -0.030280 0.000000 1.851780 
# 
# From -- ./inp_files/21835.got.cif
#   From: 2010.05.17/outbox.cif.g08.bks.cpg/sg12_11_cif.got.tgz:21835.got - 2010.06.03 13:09:07.
