data_PCOD9193048
_publ_section_title
;
Structure prediction by ZEFSAII (Michael W. Deem and Ramdas Pophale) SiO2 
 PCOD9193048
Probable space group: C 2/M
;
_chemical_formula_sum "Si O2"
_cell_formula_units_Z 56
_cell_length_a 24.981178
_cell_length_b 7.539410
_cell_length_c 12.590106
_cell_angle_alpha 90.000000
_cell_angle_beta 111.369595
_cell_angle_gamma 90.000000
_cell_volume 2208.236719
_symmetry_space_group_name_H-M "C 2/M"
_symmetry_group_IT_number 12
_symmetry_cell_setting 'monoclinic'
loop_
_space_group_symop_operation_xyz
x,y,z
-x,y,-z
-x,-y,-z
x,-y,z
1/2+x,1/2+y,z
1/2-x,1/2+y,-z
1/2-x,1/2-y,-z
1/2+x,1/2-y,z
loop_
_atom_site_type_symbol
_atom_site_label
_atom_site_fract_x
_atom_site_fract_y
_atom_site_fract_z
Si Si1 0.903851 0.210358 0.089848
Si Si2 0.337418 0.197486 0.469717
Si Si3 0.974860 0.297165 0.590040
Si Si4 0.791338 0.783926 0.887882
Si Si5 0.331935 0.785016 0.230174
Si Si6 0.973553 0.799180 0.824720
Si Si7 0.345422 0.710161 0.712515
O O1 0.887147 0.233180 0.201501
O O2 0.965522 0.282810 0.095105
O O3 0.906804 0.000000 0.071358
O O4 0.847421 0.282578 0.990011
O O5 0.406610 0.190620 0.526052
O O6 0.328208 0.283695 0.348223
O O7 0.322597 0.261451 0.577088
O O8 0.312227 0.000000 0.443807
O O9 0.997382 0.500000 0.618918
O O10 0.984256 0.194722 0.705262
O O11 0.000000 0.221505 0.500000
O O12 0.727057 0.725049 0.869846
O O13 0.802655 0.733344 0.773479
O O14 0.791322 0.000000 0.895433
O O15 0.333025 0.000000 0.235890
O O16 0.909879 0.715258 0.783478
O O17 0.969666 0.000000 0.864430
O O18 0.352782 0.500000 0.727590
#
# Coordination Sequence:
#
# PCOD9193048 Si02
#       7
#     8   8   8   8   8   8   8
#     4  10  20  34  52  76 103 130 165 208 250 292
#     4   9  18  31  48  72 101 130 163 205 247 291
#     4   9  16  27  44  66  94 129 164 197 239 291
#     4   9  19  35  54  74  99 132 169 209 247 289
#     4  10  20  35  54  75 100 132 168 205 249 297
#     4   9  18  30  47  72  99 127 160 200 244 291
#     4   9  18  34  53  74 101 133 167 201 245 298
#
# _framework density 25.3596
#
# number of rings (size 3 to 8) (size 9 to 14) (size 15 to 20)
#    0.000    2.714    0.000    1.286    0.000    3.714 
#    0.000    7.143    0.000    0.000    0.000    5.000 
#    0.000    0.000    0.000    0.000    0.000    0.000 
#
# Total GULP energy -156265.071534 kJ/mol
# GULP energy per Si atom -5580.895412 kJ/mol
# Density = 2.530188 g / cm^3
# Si number density = 25.359600 Si / 1000 Ang^3
#
#
#
# Elastic Constant Matrix: (Units=GPa)
#
#
# Indices 1 2 3 4 5 6 
#
# 1 120.9416 0.5067 13.7105 0.0000 10.4061 0.0000
# 2 0.5067 64.7617 -2.8172 0.0000 2.5421 0.0000
# 3 13.7105 -2.8172 76.2609 0.0000 1.8031 0.0000
# 4 0.0000 0.0000 0.0000 31.4681 0.0000 -15.6037
# 5 10.4061 2.5421 1.8031 0.0000 43.2955 0.0000
# 6 0.0000 0.0000 0.0000 -15.6037 0.0000 16.9548
#
#
#
# Elastic Compliance Matrix: (Units=1/GPa)
#
#
# Indices 1 2 3 4 5 6 
#
# 1 0.008611 -0.000054 -0.001503 0.000000 -0.002004 0.000000
# 2 -0.000054 0.015504 0.000604 0.000000 -0.000922 0.000000
# 3 -0.001503 0.000604 0.013411 0.000000 -0.000233 0.000000
# 4 0.000000 0.000000 0.000000 0.058452 0.000000 0.053794
# 5 -0.002004 -0.000922 -0.000233 0.000000 0.023643 0.000000
# 6 0.000000 0.000000 0.000000 0.053794 0.000000 0.108488
#
#
# Mechanical properties :
#
#
# Convention : Reuss Voigt Hill
#
# Bulk Modulus (GPa) = 28.07312 31.64047 29.85679
# Shear Modulus (GPa) = 20.67067 35.04796 27.85932
#
# Velocity S-wave (km/s) = 2.85810 3.72161 3.31807
# Velocity P-wave (km/s) = 4.68889 5.56516 5.14571
#
# Compressibility (1/GPa) = 0.03562126
#
# Stress axis : x y z
#
# Youngs Moduli (GPa) = 116.12403 64.49890 74.56624
#
# Poissons Ratio (x) = 0.00349 0.11206
# Poissons Ratio (y) = 0.00628 -0.04506
# Poissons Ratio (z) = 0.17451 -0.03898
#
# Static dielectric constant tensor:
#      x y z
#    x 1.985020 0.000000 0.024160 
#    y 0.000000 1.987550 0.000000 
#    z 0.024160 0.000000 2.073240 
# 
# From -- ./inp_files/181078.got.cif
#   From: 2010.05.17/outbox.cif.g08.bks.cpg/sg12_91_cif.got.tgz:181078.got - 2010.06.03 13:09:07.
