data_PCOD9193395
_publ_section_title
;
Structure prediction by ZEFSAII (Michael W. Deem and Ramdas Pophale) SiO2 
 PCOD9193395
Probable space group: C 2/M
;
_chemical_formula_sum "Si O2"
_cell_formula_units_Z 48
_cell_length_a 31.605588
_cell_length_b 8.628118
_cell_length_c 9.660909
_cell_angle_alpha 90.000000
_cell_angle_beta 90.127680
_cell_angle_gamma 90.000000
_cell_volume 2634.491875
_symmetry_space_group_name_H-M "C 2/M"
_symmetry_group_IT_number 12
_symmetry_cell_setting 'monoclinic'
loop_
_space_group_symop_operation_xyz
x,y,z
-x,y,-z
-x,-y,-z
x,-y,z
1/2+x,1/2+y,z
1/2-x,1/2+y,-z
1/2-x,1/2-y,-z
1/2+x,1/2-y,z
loop_
_atom_site_type_symbol
_atom_site_label
_atom_site_fract_x
_atom_site_fract_y
_atom_site_fract_z
Si Si1 0.117091 0.814305 0.591997
Si Si2 0.040825 0.312467 0.411042
Si Si3 0.117773 0.312746 0.901475
Si Si4 0.713559 0.814614 0.902848
Si Si5 0.959798 0.689057 0.908409
Si Si6 0.786777 0.185498 0.404401
O O1 0.082742 0.746375 0.487528
O O2 0.109416 0.754121 0.748403
O O3 0.165298 0.768544 0.553128
O O4 0.114593 0.000000 0.592217
O O5 0.041421 0.500000 0.411059
O O6 0.038163 0.260132 0.251187
O O7 0.000000 0.262738 0.500000
O O8 0.115863 0.500000 0.890481
O O9 0.165586 0.269594 0.944799
O O10 0.082751 0.262822 0.011950
O O11 0.719628 0.749630 0.749390
O O12 0.715598 0.000000 0.900888
O O13 0.750000 0.750000 0.000000
O O14 0.960249 0.500000 0.906278
O O15 0.000000 0.738782 0.000000
O O16 0.750000 0.250000 0.500000
O O17 0.785023 0.000000 0.402861
#
# Coordination Sequence:
#
# PCOD9193395 Si02
#       6
#     8   8   8   8   8   8
#     4  10  21  36  54  78 108 140 174 217 269 319
#     4  10  20  34  55  81 107 140 180 219 262 314
#     4   9  18  34  55  77 102 136 177 218 262 313
#     4  10  20  34  53  78 108 142 180 223 271 323
#     4   9  17  31  53  79 103 129 169 218 259 301
#     4  10  21  37  56  79 107 141 181 224 273 328
#
# _framework density 18.219832
#
# number of rings (size 3 to 8) (size 9 to 14) (size 15 to 20)
#    0.000    2.333    0.000    2.500    0.000    7.000 
#    0.000    2.500    0.000    2.000    0.000    0.000 
#    0.000    0.000    0.000    0.000    0.000    0.000 
#
# Total GULP energy -133946.729908 kJ/mol
# GULP energy per Si atom -5581.113746 kJ/mol
# Density = 1.817836 g / cm^3
# Si number density = 18.219832 Si / 1000 Ang^3
#
#
#
# Elastic Constant Matrix: (Units=GPa)
#
#
# Indices 1 2 3 4 5 6 
#
# 1 198.2696 40.8157 143.1016 0.0000 -1.0138 0.0000
# 2 40.8157 21.7033 32.4098 0.0000 -0.5402 0.0000
# 3 143.1016 32.4098 156.0109 0.0000 -0.5083 0.0000
# 4 0.0000 0.0000 0.0000 24.2620 0.0000 6.0969
# 5 -1.0138 -0.5402 -0.5083 0.0000 42.5415 0.0000
# 6 0.0000 0.0000 0.0000 6.0969 0.0000 27.2827
#
#
#
# Elastic Compliance Matrix: (Units=1/GPa)
#
#
# Indices 1 2 3 4 5 6 
#
# 1 0.017008 -0.012594 -0.012984 0.000000 0.000090 0.000000
# 2 -0.012594 0.076144 -0.004264 0.000000 0.000616 0.000000
# 3 -0.012984 -0.004264 0.019205 0.000000 -0.000134 0.000000
# 4 0.000000 0.000000 0.000000 0.043669 0.000000 -0.009759
# 5 0.000090 0.000616 -0.000134 0.000000 0.023515 0.000000
# 6 0.000000 0.000000 0.000000 -0.009759 0.000000 0.038834
#
#
# Mechanical properties :
#
#
# Convention : Reuss Voigt Hill
#
# Bulk Modulus (GPa) = 18.98537 89.84869 54.41703
# Shear Modulus (GPa) = 16.91378 29.46101 23.18739
#
# Velocity S-wave (km/s) = 3.05013 4.02552 3.57129
# Velocity P-wave (km/s) = 4.77988 8.42776 6.85107
#
# Compressibility (1/GPa) = 0.05267212
#
# Stress axis : x y z
#
# Youngs Moduli (GPa) = 58.79586 13.13301 52.07009
#
# Poissons Ratio (x) = 0.16540 0.67608
# Poissons Ratio (y) = 0.74048 0.22204
# Poissons Ratio (z) = 0.76341 0.05600
#
# Static dielectric constant tensor:
#      x y z
#    x 1.629420 0.000000 -0.010570 
#    y 0.000000 1.622080 0.000000 
#    z -0.010570 0.000000 1.584350 
# 
# From -- ./inp_files/108599.got.cif
#   From: 2010.05.17/outbox.cif.g08.bks.cpg/sg12_55_cif.got.tgz:108599.got - 2010.06.03 13:09:07.
