data_PCOD9193491
_publ_section_title
;
Structure prediction by ZEFSAII (Michael W. Deem and Ramdas Pophale) SiO2 
 PCOD9193491
Probable space group: C 2/M
;
_chemical_formula_sum "Si O2"
_cell_formula_units_Z 56
_cell_length_a 34.176756
_cell_length_b 8.948337
_cell_length_c 12.761033
_cell_angle_alpha 90.000000
_cell_angle_beta 59.648757
_cell_angle_gamma 90.000000
_cell_volume 3367.763632
_symmetry_space_group_name_H-M "C 2/M"
_symmetry_group_IT_number 12
_symmetry_cell_setting 'monoclinic'
loop_
_space_group_symop_operation_xyz
x,y,z
-x,y,-z
-x,-y,-z
x,-y,z
1/2+x,1/2+y,z
1/2-x,1/2+y,-z
1/2-x,1/2-y,-z
1/2+x,1/2-y,z
loop_
_atom_site_type_symbol
_atom_site_label
_atom_site_fract_x
_atom_site_fract_y
_atom_site_fract_z
Si Si1 0.109686 0.321532 0.380792
Si Si2 0.549534 0.820647 0.887147
Si Si3 0.886469 0.821870 0.030177
Si Si4 0.056622 0.821577 0.257731
Si Si5 0.039816 0.320842 0.657379
Si Si6 0.697122 0.322082 0.185027
Si Si7 0.801543 0.321960 0.046443
O O1 0.113167 0.500000 0.365984
O O2 0.082256 0.256464 0.318903
O O3 0.081005 0.286662 0.523583
O O4 0.159366 0.249617 0.309874
O O5 0.587570 0.740819 0.904338
O O6 0.550524 0.782026 0.763140
O O7 0.554686 0.000000 0.890520
O O8 0.500000 0.780768 0.000000
O O9 0.838027 0.746251 0.075694
O O10 0.881661 0.000000 0.042660
O O11 0.917218 0.786755 0.886069
O O12 0.005585 0.762007 0.317583
O O13 0.057244 0.000000 0.271591
O O14 0.031441 0.500000 0.664284
O O15 0.690528 0.500000 0.186984
O O16 0.749131 0.292516 0.146785
O O17 0.690960 0.252354 0.077564
O O18 0.807618 0.500000 0.029159
#
# Coordination Sequence:
#
# PCOD9193491 Si02
#       7
#     8   8   8   8   8   8   8
#     4  11  22  35  54  78 109 146 180 218 266 321
#     4  10  20  36  58  77 101 140 183 225 266 312
#     4  11  22  34  53  81 113 140 173 222 267 313
#     4  11  22  34  51  78 111 145 178 218 266 317
#     4  10  22  38  54  77 106 142 187 225 262 316
#     4  10  20  34  53  80 110 138 175 219 264 319
#     4  10  20  34  55  80 107 141 176 215 267 319
#
# _framework density 16.628245
#
# number of rings (size 3 to 8) (size 9 to 14) (size 15 to 20)
#    0.000    1.571    2.857    2.571    0.000    6.571 
#    0.000    0.000    0.000    0.857    0.000    0.000 
#    0.000    0.000    0.000    0.000    0.000    0.000 
#
# Total GULP energy -156419.340349 kJ/mol
# GULP energy per Si atom -5586.405012 kJ/mol
# Density = 1.659040 g / cm^3
# Si number density = 16.628245 Si / 1000 Ang^3
#
#
#
# Elastic Constant Matrix: (Units=GPa)
#
#
# Indices 1 2 3 4 5 6 
#
# 1 128.3285 56.3171 57.3893 0.0000 -17.1906 0.0000
# 2 56.3171 54.2216 49.7246 0.0000 -12.3255 0.0000
# 3 57.3893 49.7246 104.6731 0.0000 -14.3303 0.0000
# 4 0.0000 0.0000 0.0000 22.2236 0.0000 -3.4747
# 5 -17.1906 -12.3255 -14.3303 0.0000 21.2194 0.0000
# 6 0.0000 0.0000 0.0000 -3.4747 0.0000 31.2749
#
#
#
# Elastic Compliance Matrix: (Units=1/GPa)
#
#
# Indices 1 2 3 4 5 6 
#
# 1 0.014629 -0.013298 -0.001254 0.000000 0.003280 0.000000
# 2 -0.013298 0.046549 -0.013878 0.000000 0.006892 0.000000
# 3 -0.001254 -0.013878 0.017180 0.000000 0.002525 0.000000
# 4 0.000000 0.000000 0.000000 0.045793 0.000000 0.005088
# 5 0.003280 0.006892 0.002525 0.000000 0.055492 0.000000
# 6 0.000000 0.000000 0.000000 0.005088 0.000000 0.032540
#
#
# Mechanical properties :
#
#
# Convention : Reuss Voigt Hill
#
# Bulk Modulus (GPa) = 46.52044 68.23171 57.37607
# Shear Modulus (GPa) = 18.10222 23.19641 20.64931
#
# Velocity S-wave (km/s) = 3.30304 3.73902 3.52777
# Velocity P-wave (km/s) = 6.52566 7.73066 7.15358
#
# Compressibility (1/GPa) = 0.02149593
#
# Stress axis : x y z
#
# Youngs Moduli (GPa) = 68.35859 21.48264 58.20851
#
# Poissons Ratio (x) = 0.28569 0.07300
# Poissons Ratio (y) = 0.90906 0.80783
# Poissons Ratio (z) = 0.08573 0.29814
#
# Static dielectric constant tensor:
#      x y z
#    x 1.542510 0.000000 -0.015990 
#    y 0.000000 1.554020 0.000000 
#    z -0.015990 0.000000 1.545740 
# 
# From -- ./inp_files/186397.got.cif
#   From: 2010.05.17/outbox.cif.g08.bks.cpg/sg12_94_cif.got.tgz:186397.got - 2010.06.03 13:09:07.
