data_PCOD9193967
_publ_section_title
;
Structure prediction by ZEFSAII (Michael W. Deem and Ramdas Pophale) SiO2 
 PCOD9193967
Probable space group: C 2/M
;
_chemical_formula_sum "Si O2"
_cell_formula_units_Z 36
_cell_length_a 14.369094
_cell_length_b 12.321791
_cell_length_c 14.886265
_cell_angle_alpha 90.000000
_cell_angle_beta 140.603849
_cell_angle_gamma 90.000000
_cell_volume 1672.795401
_symmetry_space_group_name_H-M "C 2/M"
_symmetry_group_IT_number 12
_symmetry_cell_setting 'monoclinic'
loop_
_space_group_symop_operation_xyz
x,y,z
-x,y,-z
-x,-y,-z
x,-y,z
1/2+x,1/2+y,z
1/2-x,1/2+y,-z
1/2-x,1/2-y,-z
1/2+x,1/2-y,z
loop_
_atom_site_type_symbol
_atom_site_label
_atom_site_fract_x
_atom_site_fract_y
_atom_site_fract_z
Si Si1 0.123651 0.842856 0.797171
Si Si2 0.500000 0.298606 0.000000
Si Si3 0.791506 0.123464 0.504289
Si Si4 0.835706 0.618142 0.786799
Si Si5 0.270498 0.115061 0.097916
O O1 0.229195 0.872720 0.793262
O O2 0.120503 0.712808 0.803866
O O3 0.961745 0.882688 0.658206
O O4 0.199539 0.879615 0.946106
O O5 0.551588 0.217030 0.117545
O O6 0.635456 0.367346 0.065657
O O7 0.750000 0.250000 0.500000
O O8 0.758258 0.125160 0.373273
O O9 0.732099 0.000000 0.489756
O O10 0.910378 0.500000 0.843009
O O11 0.342940 0.000000 0.165564
#
# Coordination Sequence:
#
# PCOD9193967 Si02
#       5
#     8   4   8   8   8
#     4  10  21  36  56  82 109 145 190 232 276 327
#     4  10  20  34  54  84 114 142 182 224 280 336
#     4  11  23  39  59  84 114 148 186 231 282 334
#     4  10  20  35  57  82 110 144 185 232 275 324
#     4  10  20  35  56  80 111 148 184 228 279 332
#
# _framework density 21.520862000000001
#
# number of rings (size 3 to 8) (size 9 to 14) (size 15 to 20)
#    0.000    1.778    0.000    4.667    0.000    2.667 
#    0.000   10.000    0.000    6.667    0.000    0.000 
#    0.000    0.000    0.000    0.000    0.000    0.000 
#
# Total GULP energy -100399.403717 kJ/mol
# GULP energy per Si atom -5577.744651 kJ/mol
# Density = 2.147188 g / cm^3
# Si number density = 21.520862 Si / 1000 Ang^3
#
#
#
# Elastic Constant Matrix: (Units=GPa)
#
#
# Indices 1 2 3 4 5 6 
#
# 1 45.5653 17.9275 6.6609 0.0000 -10.5313 0.0000
# 2 17.9275 207.4183 25.2698 0.0000 -4.4779 0.0000
# 3 6.6609 25.2698 93.7605 0.0000 -8.4547 0.0000
# 4 0.0000 0.0000 0.0000 -352.5904 0.0000 -63.6059
# 5 -10.5313 -4.4779 -8.4547 0.0000 31.1381 0.0000
# 6 0.0000 0.0000 0.0000 -63.6059 0.0000 -11.4813
#
#
#
# Elastic Compliance Matrix: (Units=1/GPa)
#
#
# Indices 1 2 3 4 5 6 
#
# 1 0.024594 -0.001891 -0.000525 0.000000 0.007904 0.000002
# 2 -0.001891 0.005134 -0.001272 0.000000 -0.000247 0.000000
# 3 -0.000525 -0.001272 0.011289 0.000000 0.002705 0.000000
# 4 0.000000 0.000000 0.000000 -4.635167 0.000000 25.678680
# 5 0.007904 -0.000247 0.002705 0.000000 0.035487 0.000003
# 6 0.000002 0.000000 0.000000 25.678680 0.000003**********
#
#
# Mechanical properties :
#
#
# Convention : Reuss Voigt Hill
#
# Bulk Modulus (GPa) = 29.72433 49.60673 39.66553
# Shear Modulus (GPa) = -0.03404 -46.79433 -23.41419
#
# Velocity S-wave (km/s) = -0.12590 -4.66807 -3.30203
# Velocity P-wave (km/s) = 3.71762 2.44008 1.98327
#
# Compressibility (1/GPa) = 0.03364248
#
# Stress axis : x y z
#
# Youngs Moduli (GPa) = 40.66028 194.77117 88.57867
#
# Poissons Ratio (x) = 0.36834 0.04649
# Poissons Ratio (y) = 0.07689 0.11264
# Poissons Ratio (z) = 0.02134 0.24768
#
# Static dielectric constant tensor:
#      x y z
#    x 1.761120 0.000000 0.001060 
#    y 0.000000 1.892430 0.000000 
#    z 0.001060 0.000000 1.706110 
# 
# From -- ./inp_files/71490.got.cif
#   From: 2010.05.17/outbox.cif.g08.bks.cpg/sg12_36_cif.got.tgz:71490.got - 2010.06.03 13:09:07.
