data_PCOD9193542
_publ_section_title
;
Structure prediction by ZEFSAII (Michael W. Deem and Ramdas Pophale) SiO2 
 PCOD9193542
Probable space group: C 2/M
;
_chemical_formula_sum "Si O2"
_cell_formula_units_Z 48
_cell_length_a 35.301015
_cell_length_b 7.465676
_cell_length_c 19.822116
_cell_angle_alpha 90.000000
_cell_angle_beta 27.367806
_cell_angle_gamma 90.000000
_cell_volume 2401.494836
_symmetry_space_group_name_H-M "C 2/M"
_symmetry_group_IT_number 12
_symmetry_cell_setting 'monoclinic'
loop_
_space_group_symop_operation_xyz
x,y,z
-x,y,-z
-x,-y,-z
x,-y,z
1/2+x,1/2+y,z
1/2-x,1/2+y,-z
1/2-x,1/2-y,-z
1/2+x,1/2-y,z
loop_
_atom_site_type_symbol
_atom_site_label
_atom_site_fract_x
_atom_site_fract_y
_atom_site_fract_z
Si Si1 0.427621 0.787585 0.334157
Si Si2 0.243359 0.781827 0.160268
Si Si3 0.049230 0.000000 0.816107
Si Si4 0.241885 0.212197 0.319452
Si Si5 0.915528 0.715388 0.825364
Si Si6 0.870695 0.000000 0.164483
Si Si7 0.083146 0.787749 0.335066
O O1 0.431345 0.672334 0.260452
O O2 0.342639 0.751900 0.507705
O O3 0.503838 0.727352 0.260975
O O4 0.435161 0.000000 0.309207
O O5 0.232620 0.735272 0.255530
O O6 0.166774 0.716859 0.236561
O O7 0.244696 0.000000 0.154852
O O8 0.330941 0.719032 0.992939
O O9 0.101946 0.000000 0.801043
O O10 0.953563 0.000000 0.988991
O O11 0.315169 0.328036 0.234958
O O12 0.258992 0.000000 0.295561
O O13 0.914756 0.500000 0.829707
O O14 0.918484 0.764761 0.742393
O O15 0.000000 0.713207 0.500000
O O16 0.083703 0.000000 0.348441
#
# Coordination Sequence:
#
# PCOD9193542 Si02
#       7
#     8   8   4   8   8   4   8
#     4  11  23  42  66  98 130 172 220 268 324 395
#     4   9  19  36  57  83 122 165 210 259 322 385
#     4  11  26  46  70  98 136 171 209 273 328 386
#     4  11  22  43  69  96 131 174 212 271 330 384
#     4  10  21  36  56  84 121 160 211 266 316 379
#     4  11  26  46  68 104 132 163 225 265 318 408
#     4  10  20  34  53  81 116 161 210 262 315 379
#
# _framework density 19.987551
#
# number of rings (size 3 to 8) (size 9 to 14) (size 15 to 20)
#    0.000    1.667    1.667    2.500    1.167    5.000 
#    3.000    1.667    0.000    0.000    0.000    0.000 
#    0.000    0.000    0.000    0.000    0.000    0.000 
#
# Total GULP energy -134193.899952 kJ/mol
# GULP energy per Si atom -5591.412498 kJ/mol
# Density = 1.994206 g / cm^3
# Si number density = 19.987551 Si / 1000 Ang^3
#
#
#
# Elastic Constant Matrix: (Units=GPa)
#
#
# Indices 1 2 3 4 5 6 
#
# 1 334.3962 88.4204 346.5839 -0.0020 -115.7998 -0.0091
# 2 88.4204 110.9033 98.6991 -0.0016 -33.5312 -0.0051
# 3 346.5839 98.6991 511.7728 -0.0021 -155.2405 -0.0118
# 4 -0.0020 -0.0016 -0.0021 -2.6264 0.0013 15.5160
# 5 -115.7998 -33.5312 -155.2405 0.0013 116.9762 0.0055
# 6 -0.0091 -0.0051 -0.0118 15.5160 0.0055 28.2347
#
#
#
# Elastic Compliance Matrix: (Units=1/GPa)
#
#
# Indices 1 2 3 4 5 6 
#
# 1 0.010726 -0.002460 -0.006331 0.000000 0.001511 0.000000
# 2 -0.002460 0.011471 -0.000481 0.000000 0.000214 0.000001
# 3 -0.006331 -0.000481 0.007350 0.000001 0.003349 0.000000
# 4 0.000000 0.000000 0.000001 -0.089662 0.000000 0.049272
# 5 0.001511 0.000214 0.003349 0.000000 0.014551 -0.000001
# 6 0.000000 0.000001 0.000000 0.049272 -0.000001 0.008340
#
#
# Mechanical properties :
#
#
# Convention : Reuss Voigt Hill
#
# Bulk Modulus (GPa) = 90.88907 224.94213 157.91560
# Shear Modulus (GPa) = -333.12478 56.74148 -138.19165
#
# Velocity S-wave (km/s) = -12.92393 5.33386 -8.32400
# Velocity P-wave (km/s) = 13.30911 12.27676 3.63411
#
# Compressibility (1/GPa) = 0.01100242
#
# Stress axis : x y z
#
# Youngs Moduli (GPa) = 93.22941 87.17305 136.04639
#
# Poissons Ratio (x) = 0.21448 0.86134
# Poissons Ratio (y) = 0.22938 0.06546
# Poissons Ratio (z) = 0.59026 0.04194
#
# Static dielectric constant tensor:
#      x y z
#    x 1.656700 0.000000 -0.013710 
#    y 0.000000 1.731450 0.000000 
#    z -0.013710 0.000000 1.680250 
# 
# From -- ./inp_files/295411.got.cif
#   From: 2010.05.17/outbox.cif.g08.bks.cpg/sg12_148_cif.got.tgz:295411.got - 2010.06.03 13:09:07.
