data_PCOD9193157
_publ_section_title
;
Structure prediction by ZEFSAII (Michael W. Deem and Ramdas Pophale) SiO2 
 PCOD9193157
Probable space group: C 2/M
;
_chemical_formula_sum "Si O2"
_cell_formula_units_Z 64
_cell_length_a 28.195032
_cell_length_b 20.185426
_cell_length_c 9.520509
_cell_angle_alpha 90.000000
_cell_angle_beta 33.710578
_cell_angle_gamma 90.000000
_cell_volume 3007.198584
_symmetry_space_group_name_H-M "C 2/M"
_symmetry_group_IT_number 12
_symmetry_cell_setting 'monoclinic'
loop_
_space_group_symop_operation_xyz
x,y,z
-x,y,-z
-x,-y,-z
x,-y,z
1/2+x,1/2+y,z
1/2-x,1/2+y,-z
1/2-x,1/2-y,-z
1/2+x,1/2-y,z
loop_
_atom_site_type_symbol
_atom_site_label
_atom_site_fract_x
_atom_site_fract_y
_atom_site_fract_z
Si Si1 0.348493 0.187208 0.477142
Si Si2 0.405379 0.577656 0.715500
Si Si3 0.209681 0.077173 0.261827
Si Si4 0.797013 0.707922 0.067508
Si Si5 0.094274 0.742609 0.951528
Si Si6 0.406931 0.574597 0.211657
Si Si7 0.186382 0.124503 0.799466
Si Si8 0.942398 0.290539 0.509841
O O1 0.282402 0.244504 0.696550
O O2 0.403986 0.215777 0.210907
O O3 0.287822 0.131061 0.557934
O O4 0.402053 0.165648 0.482487
O O5 0.500000 0.604731 0.500000
O O6 0.405971 0.500000 0.755116
O O7 0.370217 0.579875 0.646098
O O8 0.342546 0.616847 0.970211
O O9 0.273613 0.135755 0.064678
O O10 0.170569 0.101442 0.505402
O O11 0.240288 0.000000 0.189910
O O12 0.850508 0.696698 0.079098
O O13 0.861963 0.739967 0.792957
O O14 0.148243 0.809702 0.822970
O O15 0.005778 0.753277 0.255285
O O16 0.417966 0.500000 0.242084
O O17 0.368351 0.571672 0.152119
O O18 0.500000 0.607393 0.000000
O O19 0.000000 0.316806 0.500000
#
# Coordination Sequence:
#
# PCOD9193157 Si02
#       8
#     8   8   8   8   8   8   8   8
#     4  11  21  36  56  81 113 144 181 229 275 325
#     4  10  21  35  50  74 110 145 180 222 262 312
#     4  10  20  34  54  77 102 140 182 220 271 327
#     4  10  20  37  55  78 111 140 177 231 275 324
#     4  10  22  37  55  80 110 144 183 225 279 332
#     4  10  20  34  52  79 116 152 185 221 262 314
#     4  11  21  34  55  81 107 146 187 221 266 323
#     4  10  22  37  55  78 107 144 182 222 278 335
#
# _framework density 21.282264999999999
#
# number of rings (size 3 to 8) (size 9 to 14) (size 15 to 20)
#    0.000    1.750    0.000    5.625    0.000    9.500 
#    0.000    0.000    0.000    3.375    0.000    0.000 
#    0.000   19.000    0.000    0.000    0.000    0.000 
#
# Total GULP energy -178162.331352 kJ/mol
# GULP energy per Si atom -5567.572855 kJ/mol
# Density = 2.123383 g / cm^3
# Si number density = 21.282265 Si / 1000 Ang^3
#
#
#
# Elastic Constant Matrix: (Units=GPa)
#
#
# Indices 1 2 3 4 5 6 
#
# 1 114.0635 21.2684 26.3514 0.0000 8.3450 0.0000
# 2 21.2684 43.8422 12.2053 0.0000 -3.9349 0.0000
# 3 26.3514 12.2053 94.7721 0.0000 4.5003 0.0000
# 4 0.0000 0.0000 0.0000 -32.2721 0.0000 -52.2599
# 5 8.3450 -3.9349 4.5003 0.0000 22.9894 0.0000
# 6 0.0000 0.0000 0.0000 -52.2599 0.0000 -59.0048
#
#
#
# Elastic Compliance Matrix: (Units=1/GPa)
#
#
# Indices 1 2 3 4 5 6 
#
# 1 0.010467 -0.004877 -0.002081 0.000000 -0.004227 0.000000
# 2 -0.004877 0.026442 -0.002370 0.000000 0.006760 0.000000
# 3 -0.002081 -0.002370 0.011526 0.000000 -0.001906 0.000000
# 4 0.000000 0.000000 0.000000 0.071358 0.000000 -0.063201
# 5 -0.004227 0.006760 -0.001906 0.000000 0.046563 0.000000
# 6 0.000000 0.000000 0.000000 -0.063201 0.000000 0.039028
#
#
# Mechanical properties :
#
#
# Convention : Reuss Voigt Hill
#
# Bulk Modulus (GPa) = 33.58348 41.36978 37.47663
# Shear Modulus (GPa) = 21.37055 -0.80066 10.28495
#
# Velocity S-wave (km/s) = 3.17227 -0.61402 2.20071
# Velocity P-wave (km/s) = 5.40666 4.35639 4.90969
#
# Compressibility (1/GPa) = 0.02977655
#
# Stress axis : x y z
#
# Youngs Moduli (GPa) = 95.54226 37.81902 86.75939
#
# Poissons Ratio (x) = 0.18446 0.18058
# Poissons Ratio (y) = 0.46600 0.20563
# Poissons Ratio (z) = 0.19886 0.08964
#
# Static dielectric constant tensor:
#      x y z
#    x 1.824360 0.000000 -0.034070 
#    y 0.000000 1.790970 0.000000 
#    z -0.034070 0.000000 1.841130 
# 
# From -- ./inp_files/113600.got.cif
#   From: 2010.05.17/outbox.cif.g08.bks.cpg/sg12_57_cif.got.tgz:113600.got - 2010.06.03 13:09:07.
