data_PCOD9193287
_publ_section_title
;
Structure prediction by ZEFSAII (Michael W. Deem and Ramdas Pophale) SiO2 
 PCOD9193287
Probable space group: C 2/M
;
_chemical_formula_sum "Si O2"
_cell_formula_units_Z 56
_cell_length_a 17.057946
_cell_length_b 21.554960
_cell_length_c 7.045589
_cell_angle_alpha 90.000000
_cell_angle_beta 55.646564
_cell_angle_gamma 90.000000
_cell_volume 2138.682976
_symmetry_space_group_name_H-M "C 2/M"
_symmetry_group_IT_number 12
_symmetry_cell_setting 'monoclinic'
loop_
_space_group_symop_operation_xyz
x,y,z
-x,y,-z
-x,-y,-z
x,-y,z
1/2+x,1/2+y,z
1/2-x,1/2+y,-z
1/2-x,1/2-y,-z
1/2+x,1/2-y,z
loop_
_atom_site_type_symbol
_atom_site_label
_atom_site_fract_x
_atom_site_fract_y
_atom_site_fract_z
Si Si1 0.525060 0.432485 0.743526
Si Si2 0.186590 0.433272 0.483196
Si Si3 0.228717 0.569160 0.995833
Si Si4 0.182793 0.167589 0.601245
Si Si5 0.485582 0.103343 0.795090
Si Si6 0.023671 0.254958 0.741356
Si Si7 0.366749 0.660065 0.887884
O O1 0.546853 0.500000 0.639409
O O2 0.610543 0.384886 0.625462
O O3 0.433009 0.400976 0.782352
O O4 0.500000 0.437165 0.000000
O O5 0.208106 0.500000 0.547740
O O6 0.240053 0.433508 0.209388
O O7 0.217626 0.370143 0.548961
O O8 0.075752 0.431566 0.587801
O O9 0.258931 0.500000 0.887932
O O10 0.117982 0.578120 0.105387
O O11 0.279060 0.635821 0.882173
O O12 0.133217 0.229187 0.577793
O O13 0.168003 0.175218 0.849791
O O14 0.503316 0.174724 0.716600
O O15 0.500000 0.097910 0.000000
O O16 0.942443 0.214327 0.747353
O O17 0.000000 0.248282 0.000000
#
# Coordination Sequence:
#
# PCOD9193287 Si02
#       7
#     8   8   8   8   8   8   8
#     4   8  11  17  35  66  99 124 147 183 238 299
#     4  10  20  34  53  77 101 126 162 208 253 292
#     4  10  20  34  53  77 101 126 162 208 253 292
#     4   8  14  26  46  71  99 127 154 194 247 295
#     4  11  23  36  50  69  98 138 176 205 236 284
#     4   8  16  31  49  73 103 131 161 197 242 297
#     4   8  14  26  46  71  99 127 154 194 247 295
#
# _framework density 26.184339000000001
#
# number of rings (size 3 to 8) (size 9 to 14) (size 15 to 20)
#    0.000    3.000    0.000    3.429    0.000    6.857 
#    0.000    0.000    0.000    1.714    0.000    3.000 
#    0.000   10.286    0.000    0.000    0.000    0.000 
#
# Total GULP energy -156265.781992 kJ/mol
# GULP energy per Si atom -5580.920785 kJ/mol
# Density = 2.612474 g / cm^3
# Si number density = 26.184339 Si / 1000 Ang^3
#
#
#
# Elastic Constant Matrix: (Units=GPa)
#
#
# Indices 1 2 3 4 5 6 
#
# 1 101.9095 12.3757 15.5363 0.0000 -6.6205 0.0000
# 2 12.3757 143.9056 -0.2312 0.0000 -8.1707 0.0000
# 3 15.5363 -0.2312 67.6168 0.0000 2.8076 0.0000
# 4 0.0000 0.0000 0.0000 26.5779 0.0000 -2.9906
# 5 -6.6205 -8.1707 2.8076 0.0000 46.0355 0.0000
# 6 0.0000 0.0000 0.0000 -2.9906 0.0000 15.7177
#
#
#
# Elastic Compliance Matrix: (Units=1/GPa)
#
#
# Indices 1 2 3 4 5 6 
#
# 1 0.010382 -0.000812 -0.002450 0.000000 0.001498 0.000000
# 2 -0.000812 0.007083 0.000164 0.000000 0.001130 0.000000
# 3 -0.002450 0.000164 0.015405 0.000000 -0.001263 0.000000
# 4 0.000000 0.000000 0.000000 0.038448 0.000000 0.007316
# 5 0.001498 0.001130 -0.001263 0.000000 0.022216 0.000000
# 6 0.000000 0.000000 0.000000 0.007316 0.000000 0.065014
#
#
# Mechanical properties :
#
#
# Convention : Reuss Voigt Hill
#
# Bulk Modulus (GPa) = 37.48994 40.97706 39.23350
# Shear Modulus (GPa) = 28.79569 36.71630 32.75600
#
# Velocity S-wave (km/s) = 3.31981 3.74869 3.54075
# Velocity P-wave (km/s) = 5.38922 5.86688 5.63312
#
# Compressibility (1/GPa) = 0.02667383
#
# Stress axis : x y z
#
# Youngs Moduli (GPa) = 96.31937 141.17806 64.91284
#
# Poissons Ratio (x) = 0.11460 0.15907
# Poissons Ratio (y) = 0.07818 -0.01063
# Poissons Ratio (z) = 0.23603 -0.02312
#
# Static dielectric constant tensor:
#      x y z
#    x 2.077240 0.000000 0.041550 
#    y 0.000000 2.061540 0.000000 
#    z 0.041550 0.000000 2.154730 
# 
# From -- ./inp_files/79077.got.cif
#   From: 2010.05.17/outbox.cif.g08.bks.cpg/sg12_40_cif.got.tgz:79077.got - 2010.06.03 13:09:07.
