data_PCOD9193437
_publ_section_title
;
Structure prediction by ZEFSAII (Michael W. Deem and Ramdas Pophale) SiO2 
 PCOD9193437
Probable space group: C 2/M
;
_chemical_formula_sum "Si O2"
_cell_formula_units_Z 56
_cell_length_a 31.505940
_cell_length_b 8.756384
_cell_length_c 18.144254
_cell_angle_alpha 90.000000
_cell_angle_beta 38.420237
_cell_angle_gamma 90.000000
_cell_volume 3110.604239
_symmetry_space_group_name_H-M "C 2/M"
_symmetry_group_IT_number 12
_symmetry_cell_setting 'monoclinic'
loop_
_space_group_symop_operation_xyz
x,y,z
-x,y,-z
-x,-y,-z
x,-y,z
1/2+x,1/2+y,z
1/2-x,1/2+y,-z
1/2-x,1/2-y,-z
1/2+x,1/2-y,z
loop_
_atom_site_type_symbol
_atom_site_label
_atom_site_fract_x
_atom_site_fract_y
_atom_site_fract_z
Si Si1 0.919333 0.815209 0.611950
Si Si2 0.713675 0.673268 0.837505
Si Si3 0.583588 0.184071 0.968622
Si Si4 0.427487 0.185050 0.182549
Si Si5 0.670542 0.679780 0.407412
Si Si6 0.816772 0.683282 0.448858
Si Si7 0.299259 0.824766 0.871062
O O1 0.883199 0.769783 0.583194
O O2 0.870561 0.751629 0.744608
O O3 0.000000 0.770646 0.500000
O O4 0.916660 0.000000 0.620286
O O5 0.715964 0.500000 0.805552
O O6 0.637117 0.732682 0.947155
O O7 0.755363 0.785224 0.727699
O O8 0.752113 0.675664 0.862539
O O9 0.598040 0.229219 0.863928
O O10 0.589007 0.000000 0.967944
O O11 0.505619 0.230645 0.087717
O O12 0.379205 0.236643 0.312922
O O13 0.427950 0.000000 0.180875
O O14 0.661277 0.500000 0.431379
O O15 0.669477 0.762955 0.486912
O O16 0.812481 0.500000 0.453298
O O17 0.750000 0.750000 0.500000
O O18 0.313969 0.000000 0.872501
O O19 0.250000 0.750000 0.000000
#
# Coordination Sequence:
#
# PCOD9193437 Si02
#       7
#     8   8   8   8   8   8   8
#     4   9  19  38  62  84 111 149 189 232 287 342
#     4  10  20  34  53  79 106 134 171 219 268 313
#     4   9  16  32  55  74  97 135 178 213 256 314
#     4   8  17  32  50  72 101 137 174 214 256 305
#     4  10  20  35  55  79 106 142 184 220 265 328
#     4  11  21  34  52  77 110 143 180 224 269 315
#     4  10  21  37  57  82 113 144 182 230 279 335
#
# _framework density 18.002934
#
# number of rings (size 3 to 8) (size 9 to 14) (size 15 to 20)
#    0.000    2.429    0.000    3.429    0.000    3.714 
#    2.571    3.571    0.000    0.000    0.000    0.000 
#    0.000    0.000    0.000    0.000    0.000    0.000 
#
# Total GULP energy -156006.382563 kJ/mol
# GULP energy per Si atom -5571.656520 kJ/mol
# Density = 1.796196 g / cm^3
# Si number density = 18.002934 Si / 1000 Ang^3
#
#
#
# Elastic Constant Matrix: (Units=GPa)
#
#
# Indices 1 2 3 4 5 6 
#
# 1 66.1846 28.0593 50.3105 0.0011 -14.6426 -0.0002
# 2 28.0593 47.4660 36.7723 -0.0016 0.6820 -0.0002
# 3 50.3105 36.7723 122.6933 -0.0038 8.1619 0.0009
# 4 0.0011 -0.0016 -0.0038 26.1878 0.0008 2.5185
# 5 -14.6426 0.6820 8.1619 0.0008 27.9148 0.0004
# 6 -0.0002 -0.0002 0.0009 2.5185 0.0004 27.3607
#
#
#
# Elastic Compliance Matrix: (Units=1/GPa)
#
#
# Indices 1 2 3 4 5 6 
#
# 1 0.033461 -0.010887 -0.011874 -0.000005 0.021290 0.000001
# 2 -0.010887 0.031067 -0.004504 0.000002 -0.005153 0.000000
# 3 -0.011874 -0.004504 0.015069 0.000003 -0.010525 -0.000001
# 4 -0.000005 0.000002 0.000003 0.038527 -0.000004 -0.003546
# 5 0.021290 -0.005153 -0.010525 -0.000004 0.050194 0.000000
# 6 0.000001 0.000000 -0.000001 -0.003546 0.000000 0.036875
#
#
# Mechanical properties :
#
#
# Convention : Reuss Voigt Hill
#
# Bulk Modulus (GPa) = 39.89316 51.84756 45.87036
# Shear Modulus (GPa) = 18.65117 24.37278 21.51198
#
# Velocity S-wave (km/s) = 3.22220 3.68342 3.46050
# Velocity P-wave (km/s) = 6.00423 6.85217 6.44216
#
# Compressibility (1/GPa) = 0.02506696
#
# Stress axis : x y z
#
# Youngs Moduli (GPa) = 29.88533 32.18849 66.35990
#
# Poissons Ratio (x) = 0.35045 0.78796
# Poissons Ratio (y) = 0.32537 0.29888
# Poissons Ratio (z) = 0.35486 0.14497
#
# Static dielectric constant tensor:
#      x y z
#    x 1.608390 0.000000 0.007020 
#    y 0.000000 1.623850 0.000000 
#    z 0.007020 0.000000 1.637920 
# 
# From -- ./inp_files/295099.got.cif
#   From: 2010.05.17/outbox.cif.g08.bks.cpg/sg12_148_cif.got.tgz:295099.got - 2010.06.03 13:09:07.
