data_PCOD9193724
_publ_section_title
;
Structure prediction by ZEFSAII (Michael W. Deem and Ramdas Pophale) SiO2 
 PCOD9193724
Probable space group: C 2/M
;
_chemical_formula_sum "Si O2"
_cell_formula_units_Z 64
_cell_length_a 15.766794
_cell_length_b 7.828464
_cell_length_c 24.471413
_cell_angle_alpha 90.000000
_cell_angle_beta 89.322858
_cell_angle_gamma 90.000000
_cell_volume 3020.290164
_symmetry_space_group_name_H-M "C 2/M"
_symmetry_group_IT_number 12
_symmetry_cell_setting 'monoclinic'
loop_
_space_group_symop_operation_xyz
x,y,z
-x,y,-z
-x,-y,-z
x,-y,z
1/2+x,1/2+y,z
1/2-x,1/2+y,-z
1/2-x,1/2-y,-z
1/2+x,1/2-y,z
loop_
_atom_site_type_symbol
_atom_site_label
_atom_site_fract_x
_atom_site_fract_y
_atom_site_fract_z
Si Si1 0.081503 0.292372 0.668220
Si Si2 0.230990 0.699106 0.744107
Si Si3 0.919748 0.705413 0.930455
Si Si4 0.150456 0.802441 0.434703
Si Si5 0.603294 0.195881 0.317487
Si Si6 0.758299 0.794628 0.865285
Si Si7 0.609887 0.208825 0.946017
Si Si8 0.156307 0.202879 0.554486
O O1 0.081427 0.500000 0.667427
O O2 0.158554 0.227705 0.705135
O O3 0.096079 0.235534 0.605926
O O4 0.990815 0.235373 0.691567
O O5 0.208497 0.500000 0.750893
O O6 0.320401 0.709740 0.712622
O O7 0.239661 0.773076 0.804713
O O8 0.921781 0.500000 0.932017
O O9 0.852653 0.756849 0.885458
O O10 0.017552 0.761463 0.923592
O O11 0.887717 0.764132 0.990664
O O12 0.117797 0.703446 0.382537
O O13 0.123619 0.740602 0.495167
O O14 0.253106 0.790082 0.434509
O O15 0.124977 0.000000 0.428251
O O16 0.607393 0.000000 0.298999
O O17 0.688580 0.730706 0.909317
O O18 0.750579 0.000000 0.863689
O O19 0.611519 0.000000 0.946098
O O20 0.172476 0.000000 0.549703
#
# Coordination Sequence:
#
# PCOD9193724 Si02
#       8
#     8   8   8   8   8   8   8   8
#     4  10  22  39  58  80 109 145 183 228 281 333
#     4  10  22  40  57  75 106 148 186 226 280 331
#     4   9  17  32  55  82 111 144 182 222 267 320
#     4  10  20  35  56  83 116 147 175 218 280 335
#     4  11  23  38  59  85 108 139 188 235 276 329
#     4  10  20  34  54  79 108 144 185 225 273 327
#     4   8  16  32  54  80 112 148 181 216 266 331
#     4  10  20  34  57  86 112 143 182 222 268 331
#
# _framework density 21.190017000000001
#
# number of rings (size 3 to 8) (size 9 to 14) (size 15 to 20)
#    0.000    2.250    1.250    2.250    0.000    4.500 
#    0.000    6.875    0.000    0.000    0.000    0.000 
#    0.000    0.000    0.000    0.000    0.000    0.000 
#
# Total GULP energy -178689.346681 kJ/mol
# GULP energy per Si atom -5584.042084 kJ/mol
# Density = 2.114179 g / cm^3
# Si number density = 21.190017 Si / 1000 Ang^3
#
#
#
# Elastic Constant Matrix: (Units=GPa)
#
#
# Indices 1 2 3 4 5 6 
#
# 1 63.2913 -5.9562 12.3089 0.0000 -1.9801 0.0000
# 2 -5.9562 27.7027 -2.4679 0.0000 1.0908 0.0000
# 3 12.3089 -2.4679 55.0267 0.0000 6.5282 0.0000
# 4 0.0000 0.0000 0.0000 -7.6124 0.0000 22.2030
# 5 -1.9801 1.0908 6.5282 0.0000 -2.9817 0.0000
# 6 0.0000 0.0000 0.0000 22.2030 0.0000 4.8186
#
#
#
# Elastic Compliance Matrix: (Units=1/GPa)
#
#
# Indices 1 2 3 4 5 6 
#
# 1 0.016102 0.003823 -0.001848 0.000000 -0.013340 0.000000
# 2 0.003823 0.036492 -0.000398 0.000000 0.009941 0.000000
# 3 -0.001848 -0.000398 0.014638 0.000000 0.033130 0.000000
# 4 0.000000 0.000000 0.000000 -0.009098 0.000000 0.041920
# 5 -0.013340 0.009941 0.033130 0.000000 -0.250347 0.000000
# 6 0.000000 0.000000 0.000000 0.041920 0.000000 0.014372
#
#
# Mechanical properties :
#
#
# Convention : Reuss Voigt Hill
#
# Bulk Modulus (GPa) = 14.20728 17.08778 15.64753
# Shear Modulus (GPa) = -31.73950 8.32062 -11.70944
#
# Velocity S-wave (km/s) = -3.87441 1.98373 -2.35328
# Velocity P-wave (km/s) = 3.64629 3.65082 0.12856
#
# Compressibility (1/GPa) = 0.07038646
#
# Stress axis : x y z
#
# Youngs Moduli (GPa) = 62.10523 27.40289 68.31531
#
# Poissons Ratio (x) = -0.10475 0.12623
# Poissons Ratio (y) = -0.23740 0.02717
# Poissons Ratio (z) = 0.11475 0.01090
#
# Static dielectric constant tensor:
#      x y z
#    x 1.758540 0.000000 0.008690 
#    y 0.000000 1.791240 0.000000 
#    z 0.008690 0.000000 1.753880 
# 
# From -- ./inp_files/338914.got.cif
#   From: 2010.05.17/outbox.cif.g08.bks.cpg/sg12_170_cif.got.tgz:338914.got - 2010.06.03 13:09:07.
