data_PCOD9193182
_publ_section_title
;
Structure prediction by ZEFSAII (Michael W. Deem and Ramdas Pophale) SiO2 
 PCOD9193182
Probable space group: C 2/M
;
_chemical_formula_sum "Si O2"
_cell_formula_units_Z 48
_cell_length_a 20.257458
_cell_length_b 13.824500
_cell_length_c 20.937360
_cell_angle_alpha 90.000000
_cell_angle_beta 158.008992
_cell_angle_gamma 90.000000
_cell_volume 2195.649342
_symmetry_space_group_name_H-M "C 2/M"
_symmetry_group_IT_number 12
_symmetry_cell_setting 'monoclinic'
loop_
_space_group_symop_operation_xyz
x,y,z
-x,y,-z
-x,-y,-z
x,-y,z
1/2+x,1/2+y,z
1/2-x,1/2+y,-z
1/2-x,1/2-y,-z
1/2+x,1/2-y,z
loop_
_atom_site_type_symbol
_atom_site_label
_atom_site_fract_x
_atom_site_fract_y
_atom_site_fract_z
Si Si1 0.175514 0.887743 0.122435
Si Si2 0.411653 0.111526 0.990400
Si Si3 0.513699 0.798014 0.264529
Si Si4 0.860350 0.111181 0.063631
Si Si5 0.934539 0.238342 0.334077
Si Si6 0.258709 0.114910 0.628498
O O1 0.344242 0.824265 0.292152
O O2 0.201362 0.000000 0.161647
O O3 0.143799 0.881090 0.017430
O O4 0.000000 0.852136 0.000000
O O5 0.567835 0.144343 0.176649
O O6 0.369578 0.000000 0.967422
O O7 0.500000 0.114954 0.000000
O O8 0.233920 0.172124 0.834847
O O9 0.483736 0.693230 0.204927
O O10 0.511071 0.784284 0.337931
O O11 0.684274 0.852853 0.391288
O O12 0.338027 0.861472 0.092048
O O13 0.902976 0.000000 0.118730
O O14 0.088163 0.172008 0.499451
O O15 0.232755 0.000000 0.610316
#
# Coordination Sequence:
#
# PCOD9193182 Si02
#       6
#     8   8   8   8   8   8
#     4   9  18  34  57  84 114 150 192 238 286 335
#     4  10  22  40  61  87 118 151 190 238 291 347
#     4  10  20  34  52  82 120 151 189 238 286 340
#     4   9  17  31  55  82 110 150 193 234 286 343
#     4  11  22  37  59  87 116 151 194 237 283 341
#     4  11  23  39  60  86 118 154 191 235 289 346
#
# _framework density 21.861415999999998
#
# number of rings (size 3 to 8) (size 9 to 14) (size 15 to 20)
#    0.000    2.000    0.000    5.000    0.000    4.000 
#    0.000    3.333    0.000    1.000    0.000   11.667 
#    0.000    0.000    0.000    0.000    0.000    0.000 
#
# Total GULP energy -134175.353887 kJ/mol
# GULP energy per Si atom -5590.639745 kJ/mol
# Density = 2.181166 g / cm^3
# Si number density = 21.861416 Si / 1000 Ang^3
#
#
#
# Elastic Constant Matrix: (Units=GPa)
#
#
# Indices 1 2 3 4 5 6 
#
# 1 56.6640 6.8315 22.2522 -0.0001 22.9333 0.0007
# 2 6.8315 97.5866 23.8278 0.0094 12.4086 0.0053
# 3 22.2522 23.8278 82.1842 0.0206 22.6995 0.0014
# 4 -0.0001 0.0094 0.0206 2.5553 0.0026 26.0826
# 5 22.9333 12.4086 22.6995 0.0026 22.5148 0.0004
# 6 0.0007 0.0053 0.0014 26.0826 0.0004 16.8749
#
#
#
# Elastic Compliance Matrix: (Units=1/GPa)
#
#
# Indices 1 2 3 4 5 6 
#
# 1 0.030365 0.001934 0.000076 -0.000002 -0.032072 0.000003
# 2 0.001934 0.011411 -0.002150 -0.000001 -0.006092 -0.000002
# 3 0.000076 -0.002150 0.017275 0.000008 -0.016310 -0.000012
# 4 -0.000002 -0.000001 0.000008 -0.026484 -0.000002 0.040934
# 5 -0.032072 -0.006092 -0.016310 -0.000002 0.096885 0.000006
# 6 0.000003 -0.000002 -0.000012 0.040934 0.000006 -0.004010
#
#
# Mechanical properties :
#
#
# Convention : Reuss Voigt Hill
#
# Bulk Modulus (GPa) = 17.01469 38.02866 27.52167
# Shear Modulus (GPa) = 34.40843 20.62386 27.51615
#
# Velocity S-wave (km/s) = 3.97159 3.07480 3.55161
# Velocity P-wave (km/s) = 5.36947 5.48078 5.42541
#
# Compressibility (1/GPa) = 0.05877275
#
# Stress axis : x y z
#
# Youngs Moduli (GPa) = 32.93223 87.63165 57.88634
#
# Poissons Ratio (x) = -0.16947 -0.00440
# Poissons Ratio (y) = -0.06369 0.12443
# Poissons Ratio (z) = -0.00250 0.18837
#
# Static dielectric constant tensor:
#      x y z
#    x 1.875160 0.000000 -0.036260 
#    y 0.000000 1.809550 0.000000 
#    z -0.036260 0.000000 1.793640 
# 
# From -- ./inp_files/347526.got.cif
#   From: 2010.05.17/outbox.cif.g08.bks.cpg/sg12_174_cif.got.tgz:347526.got - 2010.06.03 13:09:07.
