data_PCOD9193698
_publ_section_title
;
Structure prediction by ZEFSAII (Michael W. Deem and Ramdas Pophale) SiO2 
 PCOD9193698
Probable space group: C 2/M
;
_chemical_formula_sum "Si O2"
_cell_formula_units_Z 56
_cell_length_a 16.879572
_cell_length_b 7.499679
_cell_length_c 20.302787
_cell_angle_alpha 90.000000
_cell_angle_beta 60.833743
_cell_angle_gamma 90.000000
_cell_volume 2244.285411
_symmetry_space_group_name_H-M "C 2/M"
_symmetry_group_IT_number 12
_symmetry_cell_setting 'monoclinic'
loop_
_space_group_symop_operation_xyz
x,y,z
-x,y,-z
-x,-y,-z
x,-y,z
1/2+x,1/2+y,z
1/2-x,1/2+y,-z
1/2-x,1/2-y,-z
1/2+x,1/2-y,z
loop_
_atom_site_type_symbol
_atom_site_label
_atom_site_fract_x
_atom_site_fract_y
_atom_site_fract_z
Si Si1 0.274088 0.792764 0.243752
Si Si2 0.901345 0.217337 0.459277
Si Si3 0.886225 0.797245 0.323793
Si Si4 0.560301 0.218265 0.038038
Si Si5 0.555037 0.208968 0.184992
Si Si6 0.732359 0.214595 0.896423
Si Si7 0.111071 0.217766 0.391579
O O1 0.342673 0.786107 0.276682
O O2 0.303954 0.723922 0.160716
O O3 0.180522 0.713746 0.309232
O O4 0.255536 0.000000 0.238356
O O5 0.864812 0.283129 0.404006
O O6 0.860041 0.272602 0.546020
O O7 0.007479 0.268606 0.421038
O O8 0.898364 0.000000 0.458097
O O9 0.994569 0.795416 0.266368
O O10 0.854577 0.000000 0.336790
O O11 0.529202 0.278620 0.122549
O O12 0.557803 0.000000 0.041740
O O13 0.500000 0.270487 0.000000
O O14 0.663102 0.278205 0.980402
O O15 0.663005 0.231716 0.144661
O O16 0.534524 0.000000 0.197130
O O17 0.729013 0.000000 0.902705
O O18 0.112897 0.000000 0.390632
#
# Coordination Sequence:
#
# PCOD9193698 Si02
#       7
#     8   8   8   8   8   8   8
#     4  10  20  34  54  79 106 139 176 214 261 313
#     4   8  15  29  50  75 101 133 173 215 259 307
#     4  11  22  35  52  76 107 141 177 218 264 310
#     4   9  18  34  56  80 107 139 173 210 255 308
#     4  11  22  36  56  80 106 138 177 218 260 308
#     4  10  20  36  58  81 107 139 175 214 258 311
#     4   8  14  28  51  76 101 131 172 216 256 308
#
# _framework density 24.952262999999999
#
# number of rings (size 3 to 8) (size 9 to 14) (size 15 to 20)
#    0.000    2.429    0.000    3.857    0.000    5.714 
#    0.000    0.714    0.000    3.857    0.000    6.000 
#    0.000    0.000    0.000    0.000    0.000    0.000 
#
# Total GULP energy -156480.809286 kJ/mol
# GULP energy per Si atom -5588.600332 kJ/mol
# Density = 2.489547 g / cm^3
# Si number density = 24.952263 Si / 1000 Ang^3
#
#
#
# Elastic Constant Matrix: (Units=GPa)
#
#
# Indices 1 2 3 4 5 6 
#
# 1 46.5678 -9.8443 -20.5705 -0.0001 11.4420 -0.0001
# 2 -9.8443 72.2232 6.0345 -0.0002 -0.4662 -0.0003
# 3 -20.5705 6.0345 83.5448 -0.0001 20.9394 -0.0001
# 4 -0.0001 -0.0002 -0.0001 0.3119 0.0000 -0.6858
# 5 11.4420 -0.4662 20.9394 0.0000 40.8904 -0.0001
# 6 -0.0001 -0.0003 -0.0001 -0.6858 -0.0001 15.8407
#
#
#
# Elastic Compliance Matrix: (Units=1/GPa)
#
#
# Indices 1 2 3 4 5 6 
#
# 1 0.030301 0.003144 0.010727 0.000017 -0.013936 0.000001
# 2 0.003144 0.014278 -0.000089 0.000012 -0.000671 0.000001
# 3 0.010727 -0.000089 0.017633 0.000010 -0.012032 0.000001
# 4 0.000017 0.000012 0.000010 3.543914 -0.000008 0.153438
# 5 -0.013936 -0.000671 -0.012032 -0.000008 0.034509 0.000000
# 6 0.000001 0.000001 0.000001 0.153438 0.000000 0.069772
#
#
# Mechanical properties :
#
#
# Convention : Reuss Voigt Hill
#
# Bulk Modulus (GPa) = 11.13900 17.06393 14.10147
# Shear Modulus (GPa) = 1.34670 26.52300 13.93485
#
# Velocity S-wave (km/s) = 0.73545 3.26383 2.36574
# Velocity P-wave (km/s) = 2.27925 4.58878 3.62298
#
# Compressibility (1/GPa) = 0.08977466
#
# Stress axis : x y z
#
# Youngs Moduli (GPa) = 33.00209 70.03988 56.71245
#
# Poissons Ratio (x) = -0.22020 -0.60833
# Poissons Ratio (y) = -0.10376 0.00504
# Poissons Ratio (z) = -0.35400 0.00623
#
# Static dielectric constant tensor:
#      x y z
#    x 2.007850 0.000000 0.016060 
#    y 0.000000 1.959250 0.000000 
#    z 0.016060 0.000000 1.969430 
# 
# From -- ./inp_files/275332.got.cif
#   From: 2010.05.17/outbox.cif.g08.bks.cpg/sg12_138_cif.got.tgz:275332.got - 2010.06.03 13:09:07.
