data_PCOD9193077
_publ_section_title
;
Structure prediction by ZEFSAII (Michael W. Deem and Ramdas Pophale) SiO2 
 PCOD9193077
Probable space group: C 2/M
;
_chemical_formula_sum "Si O2"
_cell_formula_units_Z 64
_cell_length_a 20.388913
_cell_length_b 12.683202
_cell_length_c 26.799825
_cell_angle_alpha 90.000000
_cell_angle_beta 148.478839
_cell_angle_gamma 90.000000
_cell_volume 3623.278180
_symmetry_space_group_name_H-M "C 2/M"
_symmetry_group_IT_number 12
_symmetry_cell_setting 'monoclinic'
loop_
_space_group_symop_operation_xyz
x,y,z
-x,y,-z
-x,-y,-z
x,-y,z
1/2+x,1/2+y,z
1/2-x,1/2+y,-z
1/2-x,1/2-y,-z
1/2+x,1/2-y,z
loop_
_atom_site_type_symbol
_atom_site_label
_atom_site_fract_x
_atom_site_fract_y
_atom_site_fract_z
Si Si1 0.769365 0.881996 0.158877
Si Si2 0.494713 0.746284 0.709924
Si Si3 0.788545 0.377240 0.300303
Si Si4 0.323779 0.876709 0.101028
Si Si5 0.593941 0.281365 0.103394
Si Si6 0.623812 0.196446 0.973059
Si Si7 0.042316 0.375550 0.411408
Si Si8 0.287838 0.624932 0.639492
O O1 0.688643 0.798571 0.137711
O O2 0.912440 0.845051 0.249433
O O3 0.755227 0.000000 0.168771
O O4 0.711830 0.873473 0.065887
O O5 0.585863 0.826480 0.798822
O O6 0.439305 0.808470 0.626809
O O7 0.393778 0.694156 0.681232
O O8 0.813809 0.500000 0.326024
O O9 0.677862 0.362158 0.188628
O O10 0.744006 0.335657 0.325200
O O11 0.917571 0.335986 0.359691
O O12 0.384450 0.854074 0.086443
O O13 0.303047 0.000000 0.095730
O O14 0.195186 0.809333 0.016723
O O15 0.507450 0.216266 0.085419
O O16 0.500000 0.325492 0.000000
O O17 0.023735 0.500000 0.386841
O O18 0.161516 0.368585 0.524846
O O19 0.325059 0.500000 0.665809
#
# Coordination Sequence:
#
# PCOD9193077 Si02
#       8
#     8   8   8   8   8   8   8   8
#     4  10  20  34  53  74 104 143 182 225 267 315
#     4  11  20  35  54  82 111 140 178 227 280 329
#     4  10  20  36  56  81 112 143 179 223 274 330
#     4  10  20  34  52  76 109 146 179 221 275 324
#     4  10  20  35  51  79 108 139 181 220 266 320
#     4   9  20  34  51  75 106 143 189 224 258 320
#     4  10  20  36  58  83 110 143 181 226 280 331
#     4  10  21  36  58  84 109 142 186 230 273 327
#
# _framework density 17.663563
#
# number of rings (size 3 to 8) (size 9 to 14) (size 15 to 20)
#    0.000    2.000    1.250    2.625    0.000    5.000 
#    0.000    3.125    0.000    0.000    0.000    0.875 
#    0.000    0.000    0.000    0.000    0.000    0.000 
#
# Total GULP energy -178504.948169 kJ/mol
# GULP energy per Si atom -5578.279630 kJ/mol
# Density = 1.762336 g / cm^3
# Si number density = 17.663563 Si / 1000 Ang^3
#
#
#
# Elastic Constant Matrix: (Units=GPa)
#
#
# Indices 1 2 3 4 5 6 
#
# 1 92.3428 20.2478 11.5507 0.0001 -1.6700 0.0000
# 2 20.2478 53.2815 9.1095 0.0001 1.0616 0.0000
# 3 11.5507 9.1095 40.6482 0.0002 0.7007 0.0001
# 4 0.0001 0.0001 0.0002 12.8747 0.0000 -1.9734
# 5 -1.6700 1.0616 0.7007 0.0000 28.8475 0.0000
# 6 0.0000 0.0000 0.0001 -1.9734 0.0000 19.8938
#
#
#
# Elastic Compliance Matrix: (Units=1/GPa)
#
#
# Indices 1 2 3 4 5 6 
#
# 1 0.012076 -0.004178 -0.002511 0.000000 0.000914 0.000000
# 2 -0.004178 0.020972 -0.003497 0.000000 -0.000929 0.000000
# 3 -0.002511 -0.003497 0.026110 0.000000 -0.000651 0.000000
# 4 0.000000 0.000000 0.000000 0.078871 0.000000 0.007824
# 5 0.000914 -0.000929 -0.000651 0.000000 0.034768 0.000000
# 6 0.000000 0.000000 0.000000 0.007824 0.000000 0.051043
#
#
# Mechanical properties :
#
#
# Convention : Reuss Voigt Hill
#
# Bulk Modulus (GPa) = 25.78214 29.78759 27.78487
# Shear Modulus (GPa) = 19.44468 22.01418 20.72943
#
# Velocity S-wave (km/s) = 3.32148 3.53413 3.42946
# Velocity P-wave (km/s) = 5.41642 5.79258 5.60765
#
# Compressibility (1/GPa) = 0.03878654
#
# Stress axis : x y z
#
# Youngs Moduli (GPa) = 82.80950 47.68205 38.29986
#
# Poissons Ratio (x) = 0.19921 0.09617
# Poissons Ratio (y) = 0.34597 0.13393
# Poissons Ratio (z) = 0.20793 0.16673
#
# Static dielectric constant tensor:
#      x y z
#    x 1.614730 0.000000 -0.003570 
#    y 0.000000 1.587570 0.000000 
#    z -0.003570 0.000000 1.592040 
# 
# From -- ./inp_files/250877.got.cif
#   From: 2010.05.17/outbox.cif.g08.bks.cpg/sg12_126_cif.got.tgz:250877.got - 2010.06.03 13:09:07.
