data_PCOD9193473
_publ_section_title
;
Structure prediction by ZEFSAII (Michael W. Deem and Ramdas Pophale) SiO2 
 PCOD9193473
Probable space group: C 2/M
;
_chemical_formula_sum "Si O2"
_cell_formula_units_Z 56
_cell_length_a 19.142340
_cell_length_b 8.552208
_cell_length_c 18.952962
_cell_angle_alpha 90.000000
_cell_angle_beta 75.453903
_cell_angle_gamma 90.000000
_cell_volume 3003.318909
_symmetry_space_group_name_H-M "C 2/M"
_symmetry_group_IT_number 12
_symmetry_cell_setting 'monoclinic'
loop_
_space_group_symop_operation_xyz
x,y,z
-x,y,-z
-x,-y,-z
x,-y,z
1/2+x,1/2+y,z
1/2-x,1/2+y,-z
1/2-x,1/2-y,-z
1/2+x,1/2-y,z
loop_
_atom_site_type_symbol
_atom_site_label
_atom_site_fract_x
_atom_site_fract_y
_atom_site_fract_z
Si Si1 0.746623 0.686310 0.200798
Si Si2 0.297603 0.812519 0.638997
Si Si3 0.638649 0.310378 0.632821
Si Si4 0.902742 0.812099 0.202081
Si Si5 0.081778 0.189405 0.496001
Si Si6 0.527099 0.189041 0.070498
Si Si7 0.689232 0.812352 0.068376
O O1 0.748789 0.500000 0.196636
O O2 0.706152 0.740752 0.282031
O O3 0.828575 0.749782 0.186429
O O4 0.708382 0.753194 0.141413
O O5 0.222451 0.765307 0.620016
O O6 0.363903 0.754879 0.575946
O O7 0.297968 0.000000 0.645002
O O8 0.636195 0.500000 0.632367
O O9 0.599293 0.261188 0.715121
O O10 0.605152 0.255370 0.568073
O O11 0.971645 0.751381 0.142731
O O12 0.900832 0.000000 0.200673
O O13 0.000000 0.234772 0.500000
O O14 0.086008 0.000000 0.493584
O O15 0.609173 0.239153 0.064871
O O16 0.525337 0.000000 0.072510
O O17 0.500000 0.239639 0.000000
O O18 0.690638 0.000000 0.066961
O O19 0.750000 0.750000 0.000000
#
# Coordination Sequence:
#
# PCOD9193473 Si02
#       7
#     8   8   8   8   8   8   8
#     4  11  22  38  60  84 113 149 190 235 286 340
#     4  10  20  36  57  80 108 143 187 235 280 331
#     4   8  17  34  54  78 108 142 180 224 273 328
#     4  10  20  36  59  85 113 146 189 238 284 334
#     4  10  20  34  53  79 112 147 182 224 278 340
#     4  10  22  39  58  83 116 151 186 227 276 332
#     4  11  23  39  60  87 119 152 188 231 279 334
#
# _framework density 18.646038999999998
#
# number of rings (size 3 to 8) (size 9 to 14) (size 15 to 20)
#    0.000    2.000    0.000    4.714    0.000    4.000 
#    0.000    5.000    0.000    0.000    0.000    0.000 
#    0.000    0.000    0.000    0.000    0.000    0.000 
#
# Total GULP energy -156411.986409 kJ/mol
# GULP energy per Si atom -5586.142372 kJ/mol
# Density = 1.860360 g / cm^3
# Si number density = 18.646039 Si / 1000 Ang^3
#
#
#
# Elastic Constant Matrix: (Units=GPa)
#
#
# Indices 1 2 3 4 5 6 
#
# 1 164.1216 43.9911 138.3099 0.0000 -1.1109 0.0000
# 2 43.9911 43.1249 39.8579 0.0000 -0.7831 0.0000
# 3 138.3099 39.8579 171.0270 0.0000 -5.3473 0.0000
# 4 0.0000 0.0000 0.0000 29.3345 0.0000 -9.2747
# 5 -1.1109 -0.7831 -5.3473 0.0000 39.5321 0.0000
# 6 0.0000 0.0000 0.0000 -9.2747 0.0000 18.5107
#
#
#
# Elastic Compliance Matrix: (Units=1/GPa)
#
#
# Indices 1 2 3 4 5 6 
#
# 1 0.020856 -0.007225 -0.015233 0.000000 -0.001618 0.000000
# 2 -0.007225 0.032062 -0.001622 0.000000 0.000213 0.000000
# 3 -0.015233 -0.001622 0.018608 0.000000 0.002057 0.000000
# 4 0.000000 0.000000 0.000000 0.040506 0.000000 0.020296
# 5 -0.001618 0.000213 0.002057 0.000000 0.025533 0.000000
# 6 0.000000 0.000000 0.000000 0.020296 0.000000 0.064192
#
#
# Mechanical properties :
#
#
# Convention : Reuss Voigt Hill
#
# Bulk Modulus (GPa) = 42.79852 91.39901 67.09876
# Shear Modulus (GPa) = 19.40182 27.88310 23.64246
#
# Velocity S-wave (km/s) = 3.22923 3.87122 3.56471
# Velocity P-wave (km/s) = 6.07510 8.31301 7.28056
#
# Compressibility (1/GPa) = 0.02336530
#
# Stress axis : x y z
#
# Youngs Moduli (GPa) = 47.94752 31.18938 53.73897
#
# Poissons Ratio (x) = 0.22535 0.81861
# Poissons Ratio (y) = 0.34644 0.08718
# Poissons Ratio (z) = 0.73039 0.05060
#
# Static dielectric constant tensor:
#      x y z
#    x 1.622990 0.000000 0.013910 
#    y 0.000000 1.631850 0.000000 
#    z 0.013910 0.000000 1.622890 
# 
# From -- ./inp_files/275315.got.cif
#   From: 2010.05.17/outbox.cif.g08.bks.cpg/sg12_138_cif.got.tgz:275315.got - 2010.06.03 13:09:07.
