data_PCOD9193249
_publ_section_title
;
Structure prediction by ZEFSAII (Michael W. Deem and Ramdas Pophale) SiO2 
 PCOD9193249
Probable space group: C 2/M
;
_chemical_formula_sum "Si O2"
_cell_formula_units_Z 64
_cell_length_a 16.954144
_cell_length_b 28.936733
_cell_length_c 14.362610
_cell_angle_alpha 90.000000
_cell_angle_beta 32.097639
_cell_angle_gamma 90.000000
_cell_volume 3744.127173
_symmetry_space_group_name_H-M "C 2/M"
_symmetry_group_IT_number 12
_symmetry_cell_setting 'monoclinic'
loop_
_space_group_symop_operation_xyz
x,y,z
-x,y,-z
-x,-y,-z
x,-y,z
1/2+x,1/2+y,z
1/2-x,1/2+y,-z
1/2-x,1/2-y,-z
1/2+x,1/2-y,z
loop_
_atom_site_type_symbol
_atom_site_label
_atom_site_fract_x
_atom_site_fract_y
_atom_site_fract_z
Si Si1 0.572154 0.803360 0.689183
Si Si2 0.071857 0.553668 0.189090
Si Si3 0.427303 0.126029 0.972050
Si Si4 0.072158 0.196639 0.666502
Si Si5 0.926875 0.876086 0.173473
Si Si6 0.571861 0.553668 0.167189
Si Si7 0.073127 0.623912 0.527221
Si Si8 0.427305 0.373973 0.673342
O O1 0.489839 0.829336 0.855211
O O2 0.749998 0.805666 0.527417
O O3 0.529854 0.750000 0.720143
O O4 0.540115 0.832536 0.627659
O O5 0.031079 0.500000 0.222793
O O6 0.035982 0.582447 0.131472
O O7 0.991726 0.579583 0.353855
O O8 0.249997 0.556778 0.024339
O O9 0.500000 0.121550 0.000000
O O10 0.249999 0.128998 0.157627
O O11 0.040116 0.167464 0.792109
O O12 0.989847 0.170663 0.665099
O O13 0.750001 0.880084 0.341416
O O14 0.991734 0.920416 0.162682
O O15 0.000000 0.870895 0.000000
O O16 0.531083 0.500000 0.215038
O O17 0.535983 0.582445 0.296560
O O18 0.000000 0.629101 0.500000
O O19 0.500000 0.378454 0.500000
#
# Coordination Sequence:
#
# PCOD9193249 Si02
#       8
#     8   8   8   8   8   8   8   8
#     4   9  19  36  55  76 103 134 170 212 255 300
#     4   9  19  36  55  75 101 133 170 211 253 299
#     4  10  20  34  53  77 105 136 170 209 253 301
#     4   9  19  36  55  76 103 134 170 212 255 300
#     4  10  20  34  53  76 103 134 168 208 253 301
#     4   9  19  36  55  75 101 133 170 211 253 299
#     4  10  20  34  53  76 103 134 168 208 253 301
#     4  10  20  34  53  77 105 136 170 209 253 301
#
# _framework density 17.093437000000002
#
# number of rings (size 3 to 8) (size 9 to 14) (size 15 to 20)
#    0.000    2.500    0.000    1.500    0.000    5.000 
#    0.000    2.500    0.000    0.000    0.000    0.000 
#    0.000    0.000    0.000    0.000    0.000    0.000 
#
# Total GULP energy -178560.628279 kJ/mol
# GULP energy per Si atom -5580.019634 kJ/mol
# Density = 1.705453 g / cm^3
# Si number density = 17.093437 Si / 1000 Ang^3
#
#
#
# Elastic Constant Matrix: (Units=GPa)
#
#
# Indices 1 2 3 4 5 6 
#
# 1 41.2018 57.2534 126.4044 -0.0003 39.9481 -0.0001
# 2 57.2534 151.5857 54.3627 0.0000 6.3442 0.0000
# 3 126.4044 54.3627 18.0852 0.0011 9.0066 -0.0002
# 4 -0.0003 0.0000 0.0011 18.1168 -0.0001 -9.5262
# 5 39.9481 6.3442 9.0066 -0.0001 12.9491 0.0001
# 6 -0.0001 0.0000 -0.0002 -9.5262 0.0001 13.5798
#
#
#
# Elastic Compliance Matrix: (Units=1/GPa)
#
#
# Indices 1 2 3 4 5 6 
#
# 1 0.000719 -0.004355 0.012402 -0.000001 -0.008711 0.000000
# 2 -0.004355 0.010395 -0.007595 0.000001 0.013624 0.000000
# 3 0.012402 -0.007595 0.013219 -0.000001 -0.043734 0.000000
# 4 -0.000001 0.000001 -0.000001 0.087457 0.000004 0.061351
# 5 -0.008711 0.013624 -0.043734 0.000004 0.127844 0.000001
# 6 0.000000 0.000000 0.000000 0.061351 0.000001 0.116676
#
#
# Mechanical properties :
#
#
# Convention : Reuss Voigt Hill
#
# Bulk Modulus (GPa) = 39.62139 76.32376 57.97257
# Shear Modulus (GPa) = 13.74316 7.11927 10.43122
#
# Velocity S-wave (km/s) = 2.83857 2.04303 2.47300
# Velocity P-wave (km/s) = 5.82863 7.09317 6.49177
#
# Compressibility (1/GPa) = 0.02523890
#
# Stress axis : x y z
#
# Youngs Moduli (GPa) = 1390.59323 96.19889 75.64925
#
# Poissons Ratio (x) = 0.41893 -0.93822
# Poissons Ratio (y) = 6.05574 0.57452
# Poissons Ratio (z) = -17.24642 0.73059
#
# Static dielectric constant tensor:
#      x y z
#    x 1.553970 0.000000 -0.010080 
#    y 0.000000 1.562880 0.000000 
#    z -0.010080 0.000000 1.558780 
# 
# From -- ./inp_files/149752.got.cif
#   From: 2010.05.17/outbox.cif.g08.bks.cpg/sg12_75_cif.got.tgz:149752.got - 2010.06.03 13:09:07.
