data_PCOD9193668
_publ_section_title
;
Structure prediction by ZEFSAII (Michael W. Deem and Ramdas Pophale) SiO2 
 PCOD9193668
Probable space group: C 2/M
;
_chemical_formula_sum "Si O2"
_cell_formula_units_Z 48
_cell_length_a 14.431003
_cell_length_b 8.758858
_cell_length_c 28.837023
_cell_angle_alpha 90.000000
_cell_angle_beta 137.072950
_cell_angle_gamma 90.000000
_cell_volume 2482.470129
_symmetry_space_group_name_H-M "C 2/M"
_symmetry_group_IT_number 12
_symmetry_cell_setting 'monoclinic'
loop_
_space_group_symop_operation_xyz
x,y,z
-x,y,-z
-x,-y,-z
x,-y,z
1/2+x,1/2+y,z
1/2-x,1/2+y,-z
1/2-x,1/2-y,-z
1/2+x,1/2-y,z
loop_
_atom_site_type_symbol
_atom_site_label
_atom_site_fract_x
_atom_site_fract_y
_atom_site_fract_z
Si Si1 0.574621 0.816478 0.243519
Si Si2 0.702219 0.318468 0.844602
Si Si3 0.651147 0.684643 0.602716
Si Si4 0.133515 0.174921 0.015284
Si Si5 0.042633 0.316209 0.125799
Si Si6 0.139971 0.683792 0.495315
O O1 0.443033 0.751054 0.220984
O O2 0.717581 0.773954 0.318721
O O3 0.559839 0.764789 0.184815
O O4 0.567245 0.000000 0.241204
O O5 0.693928 0.500000 0.842414
O O6 0.820182 0.273647 0.851782
O O7 0.752185 0.259728 0.913133
O O8 0.639440 0.500000 0.596115
O O9 0.511597 0.754686 0.571381
O O10 0.668415 0.751714 0.557360
O O11 0.083333 0.249179 0.949231
O O12 0.173912 0.000000 0.023007
O O13 0.000000 0.178605 0.000000
O O14 0.031372 0.500000 0.120763
O O15 0.141739 0.500000 0.496171
O O16 0.250000 0.750000 0.500000
#
# Coordination Sequence:
#
# PCOD9193668 Si02
#       6
#     8   8   8   8   8   8
#     4  10  22  38  56  80 113 148 180 221 274 329
#     4  10  20  34  54  78 106 143 187 232 277 328
#     4  10  21  39  60  87 121 152 186 231 279 332
#     4   9  17  31  52  76 102 136 182 235 283 326
#     4   9  19  36  54  75 105 142 183 227 277 330
#     4  11  22  39  64  91 117 150 189 229 275 329
#
# _framework density 19.33558
#
# number of rings (size 3 to 8) (size 9 to 14) (size 15 to 20)
#    0.000    2.167    0.000    4.000    0.000    6.667 
#    0.000    1.667    0.000    0.000    0.000    0.000 
#    0.000    0.000    0.000    0.000    0.000    0.000 
#
# Total GULP energy -134075.203264 kJ/mol
# GULP energy per Si atom -5586.466803 kJ/mol
# Density = 1.929157 g / cm^3
# Si number density = 19.335580 Si / 1000 Ang^3
#
#
#
# Elastic Constant Matrix: (Units=GPa)
#
#
# Indices 1 2 3 4 5 6 
#
# 1 104.2943 31.3617 47.5249 0.0000 22.1197 0.0000
# 2 31.3617 59.0181 35.3050 0.0000 9.9599 0.0000
# 3 47.5249 35.3050 121.4798 0.0000 28.5844 0.0000
# 4 0.0000 0.0000 0.0000 32.2848 0.0000 5.1776
# 5 22.1197 9.9599 28.5844 0.0000 23.0385 0.0000
# 6 0.0000 0.0000 0.0000 5.1776 0.0000 25.3002
#
#
#
# Elastic Compliance Matrix: (Units=1/GPa)
#
#
# Indices 1 2 3 4 5 6 
#
# 1 0.013735 -0.004648 -0.001967 0.000000 -0.008738 0.000000
# 2 -0.004648 0.022153 -0.004825 0.000000 0.000872 0.000000
# 3 -0.001967 -0.004825 0.013372 0.000000 -0.012617 0.000000
# 4 0.000000 0.000000 0.000000 0.032025 0.000000 -0.006554
# 5 -0.008738 0.000872 -0.012617 0.000000 0.067073 0.000000
# 6 0.000000 0.000000 0.000000 -0.006554 0.000000 0.040867
#
#
# Mechanical properties :
#
#
# Convention : Reuss Voigt Hill
#
# Bulk Modulus (GPa) = 37.90502 57.01951 47.46226
# Shear Modulus (GPa) = 22.63488 27.49809 25.06648
#
# Velocity S-wave (km/s) = 3.42516 3.77523 3.60445
# Velocity P-wave (km/s) = 5.94043 6.96826 6.47477
#
# Compressibility (1/GPa) = 0.02638173
#
# Stress axis : x y z
#
# Youngs Moduli (GPa) = 72.80531 45.14068 74.78129
#
# Poissons Ratio (x) = 0.20980 0.14707
# Poissons Ratio (y) = 0.33838 0.36083
# Poissons Ratio (z) = 0.14318 0.21781
#
# Static dielectric constant tensor:
#      x y z
#    x 1.706600 0.000000 0.008630 
#    y 0.000000 1.648870 0.000000 
#    z 0.008630 0.000000 1.652030 
# 
# From -- ./inp_files/375160.got.cif
#   From: 2010.05.17/outbox.cif.g08.bks.cpg/sg12_188_cif.got.tgz:375160.got - 2010.06.03 13:09:07.
