data_PCOD9193442
_publ_section_title
;
Structure prediction by ZEFSAII (Michael W. Deem and Ramdas Pophale) SiO2 
 PCOD9193442
Probable space group: C 2/M
;
_chemical_formula_sum "Si O2"
_cell_formula_units_Z 64
_cell_length_a 31.921196
_cell_length_b 8.665107
_cell_length_c 25.697154
_cell_angle_alpha 90.000000
_cell_angle_beta 30.818848
_cell_angle_gamma 90.000000
_cell_volume 3641.530904
_symmetry_space_group_name_H-M "C 2/M"
_symmetry_group_IT_number 12
_symmetry_cell_setting 'monoclinic'
loop_
_space_group_symop_operation_xyz
x,y,z
-x,y,-z
-x,-y,-z
x,-y,z
1/2+x,1/2+y,z
1/2-x,1/2+y,-z
1/2-x,1/2-y,-z
1/2+x,1/2-y,z
loop_
_atom_site_type_symbol
_atom_site_label
_atom_site_fract_x
_atom_site_fract_y
_atom_site_fract_z
Si Si1 0.004846 0.186367 0.734384
Si Si2 0.199816 0.685601 0.701497
Si Si3 0.365822 0.185035 0.022824
Si Si4 0.619563 0.687232 0.518436
Si Si5 0.241961 0.816117 0.769021
Si Si6 0.416548 0.313340 0.560545
Si Si7 0.830195 0.315462 0.941761
Si Si8 0.040844 0.814996 0.814603
O O1 0.913519 0.251899 0.827523
O O2 0.064790 0.241954 0.624788
O O3 0.038026 0.228105 0.756350
O O4 0.000224 0.000000 0.737020
O O5 0.196521 0.500000 0.705459
O O6 0.285294 0.734163 0.582914
O O7 0.206129 0.744893 0.753909
O O8 0.121496 0.752176 0.756055
O O9 0.309677 0.257110 0.127059
O O10 0.364904 0.000000 0.028014
O O11 0.334478 0.228268 0.998365
O O12 0.458689 0.245274 0.927184
O O13 0.618926 0.500000 0.520958
O O14 0.584017 0.731084 0.499853
O O15 0.335692 0.759049 0.671903
O O16 0.239228 0.000000 0.768881
O O17 0.500000 0.268717 0.500000
O O18 0.408907 0.500000 0.571260
O O19 0.829952 0.500000 0.938940
O O20 0.750000 0.250000 0.000000
O O21 0.038112 0.000000 0.821293
#
# Coordination Sequence:
#
# PCOD9193442 Si02
#       8
#     8   8   8   8   8   8   8   8
#     4   9  18  34  54  76 106 141 176 217 263 310
#     4  10  20  36  56  77 105 141 179 214 255 316
#     4  10  21  38  57  77 104 141 181 216 258 316
#     4   8  16  32  53  76 103 139 179 214 252 303
#     4  11  22  36  55  80 109 137 172 221 270 311
#     4   9  18  34  55  78 107 143 181 216 254 309
#     4  10  21  36  55  79 107 139 176 217 260 310
#     4  10  20  34  53  79 108 136 172 221 271 311
#
# _framework density 17.575025
#
# number of rings (size 3 to 8) (size 9 to 14) (size 15 to 20)
#    0.000    2.375    0.000    3.375    0.000    4.250 
#    0.000    8.125    0.000    0.000    0.000    0.000 
#    0.000    0.000    0.000    0.000    0.000    0.000 
#
# Total GULP energy -178586.250776 kJ/mol
# GULP energy per Si atom -5580.820337 kJ/mol
# Density = 1.753502 g / cm^3
# Si number density = 17.575025 Si / 1000 Ang^3
#
#
#
# Elastic Constant Matrix: (Units=GPa)
#
#
# Indices 1 2 3 4 5 6 
#
# 1 116.9987 34.1277 103.2072 0.0045 -31.2042 -0.0009
# 2 34.1277 42.9226 40.6480 0.0102 -5.3199 -0.0064
# 3 103.2072 40.6480 180.8890 -0.0037 2.5020 -0.0042
# 4 0.0045 0.0102 -0.0037 27.8740 0.0000 -4.2488
# 5 -31.2042 -5.3199 2.5020 0.0000 31.6162 0.0010
# 6 -0.0009 -0.0064 -0.0042 -4.2488 0.0010 24.9661
#
#
#
# Elastic Compliance Matrix: (Units=1/GPa)
#
#
# Indices 1 2 3 4 5 6 
#
# 1 0.042239 -0.006277 -0.023277 -0.000009 0.042475 -0.000007
# 2 -0.006277 0.031520 -0.003493 -0.000010 -0.000615 0.000006
# 3 -0.023277 -0.003493 0.019942 0.000008 -0.025139 0.000004
# 4 -0.000009 -0.000010 0.000008 0.036831 -0.000011 0.006268
# 5 0.042475 -0.000615 -0.025139 -0.000011 0.075437 -0.000008
# 6 -0.000007 0.000006 0.000004 0.006268 -0.000008 0.041121
#
#
# Mechanical properties :
#
#
# Convention : Reuss Voigt Hill
#
# Bulk Modulus (GPa) = 36.22196 77.41957 56.82076
# Shear Modulus (GPa) = 15.50936 27.74643 21.62789
#
# Velocity S-wave (km/s) = 2.97386 3.97765 3.51180
# Velocity P-wave (km/s) = 5.69617 8.07726 6.98887
#
# Compressibility (1/GPa) = 0.02760756
#
# Stress axis : x y z
#
# Youngs Moduli (GPa) = 23.67471 31.72556 50.14622
#
# Poissons Ratio (x) = 0.19913 1.16725
# Poissons Ratio (y) = 0.14860 0.17518
# Poissons Ratio (z) = 0.55107 0.11083
#
# Static dielectric constant tensor:
#      x y z
#    x 1.579710 0.000000 0.009160 
#    y 0.000000 1.590340 0.000010 
#    z 0.009160 0.000010 1.576810 
# 
# From -- ./inp_files/353402.got.cif
#   From: 2010.05.17/outbox.cif.g08.bks.cpg/sg12_177_cif.got.tgz:353402.got - 2010.06.03 13:09:07.
