data_PCOD9193055
_publ_section_title
;
Structure prediction by ZEFSAII (Michael W. Deem and Ramdas Pophale) SiO2 
 PCOD9193055
Probable space group: C 2/M
;
_chemical_formula_sum "Si O2"
_cell_formula_units_Z 40
_cell_length_a 19.625636
_cell_length_b 8.442345
_cell_length_c 27.871022
_cell_angle_alpha 90.000000
_cell_angle_beta 151.700556
_cell_angle_gamma 90.000000
_cell_volume 2189.228316
_symmetry_space_group_name_H-M "C 2/M"
_symmetry_group_IT_number 12
_symmetry_cell_setting 'monoclinic'
loop_
_space_group_symop_operation_xyz
x,y,z
-x,y,-z
-x,-y,-z
x,-y,z
1/2+x,1/2+y,z
1/2-x,1/2+y,-z
1/2-x,1/2-y,-z
1/2+x,1/2-y,z
loop_
_atom_site_type_symbol
_atom_site_label
_atom_site_fract_x
_atom_site_fract_y
_atom_site_fract_z
Si Si1 0.435600 0.689871 0.909502
Si Si2 0.345186 0.691370 0.312919
Si Si3 0.591390 0.810454 0.911758
Si Si4 0.672114 0.308095 0.499534
Si Si5 0.307892 0.192846 0.683864
O O1 0.435050 0.500000 0.908672
O O2 0.275229 0.749263 0.798613
O O3 0.534238 0.751257 0.927428
O O4 0.500000 0.744694 0.000000
O O5 0.342835 0.500000 0.311285
O O6 0.505744 0.743639 0.399866
O O7 0.293913 0.741586 0.334619
O O8 0.469806 0.757866 0.797994
O O9 0.591903 0.000000 0.912055
O O10 0.750000 0.750000 0.000000
O O11 0.673278 0.500000 0.500178
O O12 0.750000 0.250000 0.500000
O O13 0.752405 0.253420 0.597870
O O14 0.305040 0.000000 0.681488
#
# Coordination Sequence:
#
# PCOD9193055 Si02
#       5
#     8   8   8   8   8
#     4  10  21  36  54  77 106 140 176 214 259 311
#     4   9  18  34  56  77  97 131 177 217 254 300
#     4  10  20  35  56  80 106 138 176 216 260 308
#     4  10  20  34  52  76 105 133 166 209 258 310
#     4   8  16  33  55  74  96 133 175 209 246 301
#
# _framework density 18.271279
#
# number of rings (size 3 to 8) (size 9 to 14) (size 15 to 20)
#    0.000    2.600    0.000    3.000    0.000    6.400 
#    0.000   11.000    0.000    6.000    0.000    0.000 
#    0.000    0.000    0.000    0.000    0.000    0.000 
#
# Total GULP energy -111571.462301 kJ/mol
# GULP energy per Si atom -5578.573115 kJ/mol
# Density = 1.822969 g / cm^3
# Si number density = 18.271279 Si / 1000 Ang^3
#
#
#
# Elastic Constant Matrix: (Units=GPa)
#
#
# Indices 1 2 3 4 5 6 
#
# 1 133.8923 24.3930 145.7139 0.0001 -1.9902 0.0000
# 2 24.3930 15.0668 29.8045 0.0001 -0.5682 -0.0001
# 3 145.7139 29.8045 211.2979 0.0001 -0.0994 -0.0001
# 4 0.0001 0.0001 0.0001 23.3919 -0.0002 1.7730
# 5 -1.9902 -0.5682 -0.0994 -0.0002 39.4533 0.0000
# 6 0.0000 -0.0001 -0.0001 1.7730 0.0000 31.2924
#
#
#
# Elastic Compliance Matrix: (Units=1/GPa)
#
#
# Indices 1 2 3 4 5 6 
#
# 1 0.031276 -0.010985 -0.020018 0.000000 0.001369 0.000000
# 2 -0.010985 0.095982 -0.005963 0.000000 0.000813 0.000000
# 3 -0.020018 -0.005963 0.019378 0.000000 -0.001047 0.000000
# 4 0.000000 0.000000 0.000000 0.042934 0.000000 -0.002433
# 5 0.001369 0.000813 -0.001047 0.000000 0.025425 0.000000
# 6 0.000000 0.000000 0.000000 -0.002433 0.000000 0.032094
#
#
# Mechanical properties :
#
#
# Convention : Reuss Voigt Hill
#
# Bulk Modulus (GPa) = 13.75439 84.45330 49.10384
# Shear Modulus (GPa) = 14.48201 29.51724 21.99962
#
# Velocity S-wave (km/s) = 2.81839 4.02369 3.47371
# Velocity P-wave (km/s) = 4.25856 8.24069 6.55913
#
# Compressibility (1/GPa) = 0.07270405
#
# Stress axis : x y z
#
# Youngs Moduli (GPa) = 31.97349 10.41862 51.60458
#
# Poissons Ratio (x) = 0.11444 1.03303
# Poissons Ratio (y) = 0.35122 0.30772
# Poissons Ratio (z) = 0.64005 0.06213
#
# Static dielectric constant tensor:
#      x y z
#    x 1.595200 0.000000 -0.007810 
#    y 0.000000 1.634140 0.000000 
#    z -0.007810 0.000000 1.628400 
# 
# From -- ./inp_files/162397.got.cif
#   From: 2010.05.17/outbox.cif.g08.bks.cpg/sg12_82_cif.got.tgz:162397.got - 2010.06.03 13:09:07.
