data_PCOD9193528
_publ_section_title
;
Structure prediction by ZEFSAII (Michael W. Deem and Ramdas Pophale) SiO2 
 PCOD9193528
Probable space group: C 2/M
;
_chemical_formula_sum "Si O2"
_cell_formula_units_Z 56
_cell_length_a 9.141683
_cell_length_b 18.592992
_cell_length_c 18.106085
_cell_angle_alpha 90.000000
_cell_angle_beta 105.457186
_cell_angle_gamma 90.000000
_cell_volume 2966.199649
_symmetry_space_group_name_H-M "C 2/M"
_symmetry_group_IT_number 12
_symmetry_cell_setting 'monoclinic'
loop_
_space_group_symop_operation_xyz
x,y,z
-x,y,-z
-x,-y,-z
x,-y,z
1/2+x,1/2+y,z
1/2-x,1/2+y,-z
1/2-x,1/2-y,-z
1/2+x,1/2-y,z
loop_
_atom_site_type_symbol
_atom_site_label
_atom_site_fract_x
_atom_site_fract_y
_atom_site_fract_z
Si Si1 0.677502 0.917376 0.548145
Si Si2 0.004031 0.202064 0.919056
Si Si3 0.246472 0.415123 0.045970
Si Si4 0.991847 0.584155 0.120099
Si Si5 0.835882 0.697761 0.180010
Si Si6 0.905514 0.709501 0.355874
Si Si7 0.751323 0.187792 0.438973
O O1 0.500000 0.917850 0.500000
O O2 0.679590 0.857485 0.614046
O O3 0.766161 0.885025 0.488760
O O4 0.719750 0.000000 0.572284
O O5 0.103666 0.130688 0.942195
O O6 0.088619 0.249439 0.869541
O O7 0.836321 0.186704 0.868077
O O8 0.000000 0.237732 0.000000
O O9 0.276522 0.500000 0.057550
O O10 0.148208 0.390173 0.103730
O O11 0.136997 0.406535 0.960428
O O12 0.007408 0.500000 0.135995
O O13 0.935376 0.625954 0.183315
O O14 0.846180 0.721177 0.265608
O O15 0.874485 0.782761 0.397844
O O16 0.083918 0.690494 0.380111
O O17 0.750000 0.250000 0.500000
#
# Coordination Sequence:
#
# PCOD9193528 Si02
#       7
#     8   8   8   8   8   8   8
#     4   8  15  30  55  83 106 133 172 213 252 306
#     4  12  24  37  54  76 106 147 195 242 279 331
#     4   9  19  37  58  77  99 132 183 242 286 330
#     4   9  19  36  57  78 102 136 180 231 287 340
#     4  12  24  35  53  80 113 148 184 234 292 331
#     4  10  20  34  53  81 112 143 175 220 270 324
#     4   9  17  33  57  80 106 141 177 212 256 318
#
# _framework density 18.879376000000001
#
# number of rings (size 3 to 8) (size 9 to 14) (size 15 to 20)
#    0.000    2.143    1.429    4.286    2.000    1.429 
#    0.000    0.000    0.000    7.714    0.000    0.000 
#    0.000    0.000    0.000    0.000    0.000    0.000 
#
# Total GULP energy -156170.314895 kJ/mol
# GULP energy per Si atom -5577.511246 kJ/mol
# Density = 1.883641 g / cm^3
# Si number density = 18.879376 Si / 1000 Ang^3
#
#
#
# Elastic Constant Matrix: (Units=GPa)
#
#
# Indices 1 2 3 4 5 6 
#
# 1 73.7497 28.6092 18.1885 0.0000 -8.3700 0.0000
# 2 28.6092 75.0541 14.6200 0.0000 -11.4987 0.0000
# 3 18.1885 14.6200 85.7989 0.0000 -13.1355 0.0000
# 4 0.0000 0.0000 0.0000 14.7063 0.0000 -8.1121
# 5 -8.3700 -11.4987 -13.1355 0.0000 23.0992 0.0000
# 6 0.0000 0.0000 0.0000 -8.1121 0.0000 27.3690
#
#
#
# Elastic Compliance Matrix: (Units=1/GPa)
#
#
# Indices 1 2 3 4 5 6 
#
# 1 0.016487 -0.005550 -0.002254 0.000000 0.001930 0.000000
# 2 -0.005550 0.016468 -0.000747 0.000000 0.005761 0.000000
# 3 -0.002254 -0.000747 0.013230 0.000000 0.006335 0.000000
# 4 0.000000 0.000000 0.000000 0.081288 0.000000 0.024094
# 5 0.001930 0.005761 0.006335 0.000000 0.050461 0.000000
# 6 0.000000 0.000000 0.000000 0.024094 0.000000 0.043679
#
#
# Mechanical properties :
#
#
# Convention : Reuss Voigt Hill
#
# Bulk Modulus (GPa) = 34.38540 39.71534 37.05037
# Shear Modulus (GPa) = 20.12804 24.58056 22.35430
#
# Velocity S-wave (km/s) = 3.26872 3.61221 3.44475
# Velocity P-wave (km/s) = 5.70077 6.20318 5.95727
#
# Compressibility (1/GPa) = 0.02908211
#
# Stress axis : x y z
#
# Youngs Moduli (GPa) = 60.65312 60.72557 75.58491
#
# Poissons Ratio (x) = 0.33702 0.17037
# Poissons Ratio (y) = 0.33662 0.05650
# Poissons Ratio (z) = 0.13671 0.04539
#
# Static dielectric constant tensor:
#      x y z
#    x 1.689460 0.000000 -0.030850 
#    y 0.000000 1.690430 0.000000 
#    z -0.030850 0.000000 1.653450 
# 
# From -- ./inp_files/257163.got.cif
#   From: 2010.05.17/outbox.cif.g08.bks.cpg/sg12_129_cif.got.tgz:257163.got - 2010.06.03 13:09:07.
