data_PCOD9193782
_publ_section_title
;
Structure prediction by ZEFSAII (Michael W. Deem and Ramdas Pophale) SiO2 
 PCOD9193782
Probable space group: C 2/M
;
_chemical_formula_sum "Si O2"
_cell_formula_units_Z 56
_cell_length_a 23.135148
_cell_length_b 9.044665
_cell_length_c 15.374501
_cell_angle_alpha 90.000000
_cell_angle_beta 94.298172
_cell_angle_gamma 90.000000
_cell_volume 3208.061120
_symmetry_space_group_name_H-M "C 2/M"
_symmetry_group_IT_number 12
_symmetry_cell_setting 'monoclinic'
loop_
_space_group_symop_operation_xyz
x,y,z
-x,y,-z
-x,-y,-z
x,-y,z
1/2+x,1/2+y,z
1/2-x,1/2+y,-z
1/2-x,1/2-y,-z
1/2+x,1/2-y,z
loop_
_atom_site_type_symbol
_atom_site_label
_atom_site_fract_x
_atom_site_fract_y
_atom_site_fract_z
Si Si1 0.508597 0.177315 0.602873
Si Si2 0.371136 0.326873 0.356955
Si Si3 0.702685 0.823288 0.798334
Si Si4 0.312061 0.322787 0.028328
Si Si5 0.690338 0.326786 0.466545
Si Si6 0.888577 0.676396 0.684432
Si Si7 0.339216 0.675930 0.841644
O O1 0.500000 0.215054 0.500000
O O2 0.565105 0.259155 0.644497
O O3 0.450798 0.214867 0.649917
O O4 0.517445 0.000000 0.608689
O O5 0.370225 0.500000 0.334295
O O6 0.325832 0.240680 0.291424
O O7 0.351780 0.312337 0.455068
O O8 0.671400 0.748962 0.878155
O O9 0.771523 0.788501 0.812330
O O10 0.697103 0.000000 0.801903
O O11 0.306367 0.500000 0.035851
O O12 0.250000 0.250000 0.000000
O O13 0.348728 0.292608 0.945142
O O14 0.699842 0.500000 0.449581
O O15 0.750000 0.250000 0.500000
O O16 0.660531 0.249789 0.381301
O O17 0.882371 0.500000 0.680988
O O18 0.879419 0.736020 0.780324
O O19 0.346103 0.500000 0.829212
#
# Coordination Sequence:
#
# PCOD9193782 Si02
#       7
#     8   8   8   8   8   8   8
#     4  10  21  39  58  75 101 139 182 224 268 316
#     4  11  23  36  54  79 105 138 180 224 265 313
#     4  10  20  34  54  80 111 145 177 215 267 320
#     4   9  17  31  52  78 109 143 178 215 261 316
#     4  11  23  36  52  76 107 140 174 214 263 316
#     4  11  22  35  55  79 104 139 179 220 264 313
#     4   9  19  34  53  80 112 145 175 213 265 317
#
# _framework density 17.456026000000001
#
# number of rings (size 3 to 8) (size 9 to 14) (size 15 to 20)
#    0.000    1.857    1.429    3.857    0.000    8.857 
#    0.000    0.000    0.000    0.857    0.000    6.000 
#    0.000    0.000    0.000    0.000    0.000    0.000 
#
# Total GULP energy -156301.868660 kJ/mol
# GULP energy per Si atom -5582.209595 kJ/mol
# Density = 1.741629 g / cm^3
# Si number density = 17.456026 Si / 1000 Ang^3
#
#
#
# Elastic Constant Matrix: (Units=GPa)
#
#
# Indices 1 2 3 4 5 6 
#
# 1 52.7803 26.2651 -0.4599 0.0000 -21.0436 0.0000
# 2 26.2651 53.5896 29.2439 0.0000 -19.1765 0.0000
# 3 -0.4599 29.2439 63.8656 0.0000 -25.1136 0.0000
# 4 0.0000 0.0000 0.0000 35.1179 0.0000 -0.4227
# 5 -21.0436 -19.1765 -25.1136 0.0000 25.6884 0.0000
# 6 0.0000 0.0000 0.0000 -0.4227 0.0000 26.7889
#
#
#
# Elastic Compliance Matrix: (Units=1/GPa)
#
#
# Indices 1 2 3 4 5 6 
#
# 1 0.058415 -0.025901 0.038167 0.000000 0.065830 0.000000
# 2 -0.025901 0.038903 -0.024244 0.000000 -0.015878 0.000000
# 3 0.038167 -0.024244 0.052328 0.000000 0.064325 0.000000
# 4 0.000000 0.000000 0.000000 0.028481 0.000000 0.000449
# 5 0.065830 -0.015878 0.064325 0.000000 0.143888 0.000000
# 6 0.000000 0.000000 0.000000 0.000449 0.000000 0.037336
#
#
# Mechanical properties :
#
#
# Convention : Reuss Voigt Hill
#
# Bulk Modulus (GPa) = 7.95608 31.14819 19.55214
# Shear Modulus (GPa) = 11.75909 25.19815 18.47862
#
# Velocity S-wave (km/s) = 2.59827 3.80349 3.25711
# Velocity P-wave (km/s) = 3.68362 6.09683 5.03688
#
# Compressibility (1/GPa) = 0.12569006
#
# Stress axis : x y z
#
# Youngs Moduli (GPa) = 17.11896 25.70501 19.11020
#
# Poissons Ratio (x) = 0.66579 -0.72938
# Poissons Ratio (y) = 0.44340 0.46330
# Poissons Ratio (z) = -0.65338 0.62318
#
# Static dielectric constant tensor:
#      x y z
#    x 1.570190 0.000000 -0.021010 
#    y 0.000000 1.579850 0.000000 
#    z -0.021010 0.000000 1.612790 
# 
# From -- ./inp_files/231009.got.cif
#   From: 2010.05.17/outbox.cif.g08.bks.cpg/sg12_116_cif.got.tgz:231009.got - 2010.06.03 13:09:07.
