data_PCOD9193503
_publ_section_title
;
Structure prediction by ZEFSAII (Michael W. Deem and Ramdas Pophale) SiO2 
 PCOD9193503
Probable space group: C 2/M
;
_chemical_formula_sum "Si O2"
_cell_formula_units_Z 64
_cell_length_a 20.045691
_cell_length_b 18.101876
_cell_length_c 25.155662
_cell_angle_alpha 90.000000
_cell_angle_beta 157.437311
_cell_angle_gamma 90.000000
_cell_volume 3502.397458
_symmetry_space_group_name_H-M "C 2/M"
_symmetry_group_IT_number 12
_symmetry_cell_setting 'monoclinic'
loop_
_space_group_symop_operation_xyz
x,y,z
-x,y,-z
-x,-y,-z
x,-y,z
1/2+x,1/2+y,z
1/2-x,1/2+y,-z
1/2-x,1/2-y,-z
1/2+x,1/2-y,z
loop_
_atom_site_type_symbol
_atom_site_label
_atom_site_fract_x
_atom_site_fract_y
_atom_site_fract_z
Si Si1 0.452097 0.583323 0.408293
Si Si2 0.697996 0.915978 0.400968
Si Si3 0.897584 0.737567 0.715279
Si Si4 0.185833 0.256495 0.850303
Si Si5 0.176551 0.668754 0.139550
Si Si6 0.391933 0.833910 0.561394
Si Si7 0.621471 0.086616 0.641284
Si Si8 0.074561 0.203365 0.145921
O O1 0.500000 0.618435 0.500000
O O2 0.392473 0.500000 0.375716
O O3 0.614861 0.581085 0.488822
O O4 0.306064 0.627588 0.272069
O O5 0.606656 0.850330 0.300124
O O6 0.703131 0.886270 0.465346
O O7 0.625245 0.000000 0.345622
O O8 0.742967 0.778691 0.567849
O O9 0.883481 0.757783 0.766656
O O10 0.083752 0.762713 0.828784
O O11 0.245886 0.186424 0.860674
O O12 0.037451 0.292021 0.703506
O O13 0.363415 0.303961 0.988156
O O14 0.127826 0.743511 0.136086
O O15 0.000000 0.625443 0.000000
O O16 0.502914 0.880230 0.600911
O O17 0.500000 0.094895 0.500000
O O18 0.801425 0.131988 0.767519
O O19 0.656428 0.000000 0.675413
#
# Coordination Sequence:
#
# PCOD9193503 Si02
#       8
#     8   8   8   8   8   8   8   8
#     4  10  20  34  53  80 112 145 187 239 289 340
#     4  10  21  35  54  85 117 144 186 242 288 334
#     4  11  21  36  61  86 111 155 200 236 290 352
#     4  10  21  36  57  85 117 143 198 240 288 345
#     4  10  20  34  55  78 109 145 186 232 282 340
#     4  11  20  37  62  88 114 155 195 242 291 352
#     4  11  23  39  60  90 121 154 198 246 298 361
#     4  11  22  38  58  83 115 155 187 245 292 341
#
# _framework density 18.273197
#
# number of rings (size 3 to 8) (size 9 to 14) (size 15 to 20)
#    0.000    1.500    2.500    4.500    0.000    0.750 
#    0.000    3.750    0.000    0.750    0.000    0.000 
#    0.000    0.000    0.000    0.000    0.000    0.000 
#
# Total GULP energy -178350.188018 kJ/mol
# GULP energy per Si atom -5573.443376 kJ/mol
# Density = 1.823161 g / cm^3
# Si number density = 18.273197 Si / 1000 Ang^3
#
#
#
# Elastic Constant Matrix: (Units=GPa)
#
#
# Indices 1 2 3 4 5 6 
#
# 1 97.4106 31.9308 23.6052 -0.0053 1.3127 0.0122
# 2 31.9308 62.3097 29.4686 0.0036 3.0304 0.0088
# 3 23.6052 29.4686 96.5088 0.0015 9.3164 0.0211
# 4 -0.0053 0.0036 0.0015 29.2662 0.0001 4.7691
# 5 1.3127 3.0304 9.3164 0.0001 24.6155 0.0112
# 6 0.0122 0.0088 0.0211 4.7691 0.0112 18.2144
#
#
#
# Elastic Compliance Matrix: (Units=1/GPa)
#
#
# Indices 1 2 3 4 5 6 
#
# 1 0.012480 -0.005790 -0.001338 0.000004 0.000554 -0.000005
# 2 -0.005790 0.021444 -0.005093 -0.000003 -0.000404 0.000001
# 3 -0.001338 -0.005093 0.012638 0.000001 -0.004085 -0.000009
# 4 0.000004 -0.000003 0.000001 0.035692 0.000004 -0.009345
# 5 0.000554 -0.000404 -0.004085 0.000004 0.042191 -0.000022
# 6 -0.000005 0.000001 -0.000009 -0.009345 -0.000022 0.057348
#
#
# Mechanical properties :
#
#
# Convention : Reuss Voigt Hill
#
# Bulk Modulus (GPa) = 45.20467 47.35984 46.28226
# Shear Modulus (GPa) = 23.40717 25.83418 24.62067
#
# Velocity S-wave (km/s) = 3.58293 3.76410 3.67463
# Velocity P-wave (km/s) = 6.47367 6.69815 6.58687
#
# Compressibility (1/GPa) = 0.02212161
#
# Stress axis : x y z
#
# Youngs Moduli (GPa) = 80.12507 46.63298 79.12350
#
# Poissons Ratio (x) = 0.26999 0.10588
# Poissons Ratio (y) = 0.46390 0.40296
# Poissons Ratio (z) = 0.10722 0.23749
#
# Static dielectric constant tensor:
#      x y z
#    x 1.644690 -0.000010 0.016270 
#    y -0.000010 1.646420 -0.000010 
#    z 0.016270 -0.000010 1.644100 
# 
# From -- ./inp_files/112918.got.cif
#   From: 2010.05.17/outbox.cif.g08.bks.cpg/sg12_57_cif.got.tgz:112918.got - 2010.06.03 13:09:07.
