data_PCOD9193561
_publ_section_title
;
Structure prediction by ZEFSAII (Michael W. Deem and Ramdas Pophale) SiO2 
 PCOD9193561
Probable space group: C 2/M
;
_chemical_formula_sum "Si O2"
_cell_formula_units_Z 60
_cell_length_a 12.748039
_cell_length_b 16.050489
_cell_length_c 15.565154
_cell_angle_alpha 90.000000
_cell_angle_beta 105.909772
_cell_angle_gamma 90.000000
_cell_volume 3062.825385
_symmetry_space_group_name_H-M "C 2/M"
_symmetry_group_IT_number 12
_symmetry_cell_setting 'monoclinic'
loop_
_space_group_symop_operation_xyz
x,y,z
-x,y,-z
-x,-y,-z
x,-y,z
1/2+x,1/2+y,z
1/2-x,1/2+y,-z
1/2-x,1/2-y,-z
1/2+x,1/2-y,z
loop_
_atom_site_type_symbol
_atom_site_label
_atom_site_fract_x
_atom_site_fract_y
_atom_site_fract_z
Si Si1 0.904952 0.594453 0.120779
Si Si2 0.113406 0.592602 0.491175
Si Si3 0.179056 0.099835 0.356424
Si Si4 0.517868 0.691001 0.606536
Si Si5 0.778140 0.793670 0.917048
Si Si6 0.558327 0.147904 0.302811
Si Si7 0.000000 0.278832 0.000000
Si Si8 0.246963 0.239079 0.730491
O O1 0.925388 0.500000 0.099060
O O2 0.776653 0.616014 0.095571
O O3 0.955266 0.660173 0.064551
O O4 0.960398 0.610157 0.225990
O O5 0.110839 0.500000 0.528318
O O6 0.229080 0.624653 0.550887
O O7 0.107041 0.590286 0.387764
O O8 0.000000 0.631785 0.500000
O O9 0.214245 0.167936 0.291728
O O10 0.058845 0.120130 0.367131
O O11 0.185092 0.000000 0.336958
O O12 0.500000 0.687579 0.500000
O O13 0.474636 0.772360 0.647608
O O14 0.646504 0.699387 0.655682
O O15 0.720733 0.746636 0.824903
O O16 0.750000 0.750000 0.000000
O O17 0.906676 0.779788 0.938835
O O18 0.651138 0.178434 0.259621
#
# Coordination Sequence:
#
# PCOD9193561 Si02
#       8
#     8   8   8   8   8   8   4   8
#     4  11  22  37  62  94 119 149 196 252 304 357
#     4  10  20  34  53  82 122 161 197 245 300 345
#     4  10  23  39  58  87 123 160 202 252 301 347
#     4  11  22  37  60  87 122 165 207 247 292 356
#     4  10  22  39  65  90 118 158 197 244 299 365
#     4  11  20  34  57  86 121 155 203 246 295 352
#     4  10  21  44  65  86 120 158 192 242 309 368
#     4  11  21  38  61  87 118 157 204 243 293 361
#
# _framework density 19.589755
#
# number of rings (size 3 to 8) (size 9 to 14) (size 15 to 20)
#    0.000    1.467    2.667    3.400    0.000    2.933 
#    0.000    1.667    0.000    3.200    0.000    0.000 
#    0.000    0.000    0.000    0.000    0.000    0.000 
#
# Total GULP energy -167023.968939 kJ/mol
# GULP energy per Si atom -5567.465631 kJ/mol
# Density = 1.954517 g / cm^3
# Si number density = 19.589755 Si / 1000 Ang^3
#
#
#
# Elastic Constant Matrix: (Units=GPa)
#
#
# Indices 1 2 3 4 5 6 
#
# 1 78.7738 36.4033 18.9356 0.0000 12.5138 0.0000
# 2 36.4033 71.2826 18.9062 0.0000 11.0902 0.0000
# 3 18.9356 18.9062 104.8312 0.0000 2.1821 0.0000
# 4 0.0000 0.0000 0.0000 8.2584 0.0000 0.3820
# 5 12.5138 11.0902 2.1821 0.0000 35.1605 0.0000
# 6 0.0000 0.0000 0.0000 0.3820 0.0000 15.9797
#
#
#
# Elastic Compliance Matrix: (Units=1/GPa)
#
#
# Indices 1 2 3 4 5 6 
#
# 1 0.017275 -0.007832 -0.001633 0.000000 -0.003576 0.000000
# 2 -0.007832 0.019028 -0.001952 0.000000 -0.003093 0.000000
# 3 -0.001633 -0.001952 0.010175 0.000000 0.000566 0.000000
# 4 0.000000 0.000000 0.000000 0.121224 0.000000 -0.002898
# 5 -0.003576 -0.003093 0.000566 0.000000 0.030654 0.000000
# 6 0.000000 0.000000 0.000000 -0.002898 0.000000 0.062649
#
#
# Mechanical properties :
#
#
# Convention : Reuss Voigt Hill
#
# Bulk Modulus (GPa) = 42.30023 44.81974 43.55999
# Shear Modulus (GPa) = 17.13970 23.92255 20.53113
#
# Velocity S-wave (km/s) = 2.96113 3.49833 3.24088
# Velocity P-wave (km/s) = 5.77330 6.26471 6.02402
#
# Compressibility (1/GPa) = 0.02364053
#
# Stress axis : x y z
#
# Youngs Moduli (GPa) = 57.88743 52.55503 98.28472
#
# Poissons Ratio (x) = 0.41164 0.16053
# Poissons Ratio (y) = 0.45340 0.19190
# Poissons Ratio (z) = 0.09455 0.10261
#
# Static dielectric constant tensor:
#      x y z
#    x 1.784000 0.000000 -0.000580 
#    y 0.000000 1.710440 0.000000 
#    z -0.000580 0.000000 1.720080 
# 
# From -- ./inp_files/206730.got.cif
#   From: 2010.05.17/outbox.cif.g08.bks.cpg/sg12_104_cif.got.tgz:206730.got - 2010.06.03 13:09:07.
