data_PCOD9193017
_publ_section_title
;
Structure prediction by ZEFSAII (Michael W. Deem and Ramdas Pophale) SiO2 
 PCOD9193017
Probable space group: C 2/M
;
_chemical_formula_sum "Si O2"
_cell_formula_units_Z 48
_cell_length_a 13.085683
_cell_length_b 13.150310
_cell_length_c 22.194476
_cell_angle_alpha 90.000000
_cell_angle_beta 138.258173
_cell_angle_gamma 90.000000
_cell_volume 2542.757361
_symmetry_space_group_name_H-M "C 2/M"
_symmetry_group_IT_number 12
_symmetry_cell_setting 'monoclinic'
loop_
_space_group_symop_operation_xyz
x,y,z
-x,y,-z
-x,-y,-z
x,-y,z
1/2+x,1/2+y,z
1/2-x,1/2+y,-z
1/2-x,1/2-y,-z
1/2+x,1/2-y,z
loop_
_atom_site_type_symbol
_atom_site_label
_atom_site_fract_x
_atom_site_fract_y
_atom_site_fract_z
Si Si1 0.036904 0.377038 0.112374
Si Si2 0.739403 0.876860 0.086420
Si Si3 0.705835 0.180799 0.307303
Si Si4 0.359726 0.112575 0.590377
Si Si5 0.432633 0.616761 0.726269
Si Si6 0.028502 0.829920 0.394330
O O1 0.039142 0.500000 0.115117
O O2 0.151572 0.344469 0.108847
O O3 0.100102 0.338847 0.203086
O O4 0.866694 0.344548 0.016173
O O5 0.917458 0.850552 0.169407
O O6 0.736170 0.000000 0.085507
O O7 0.642178 0.125275 0.338323
O O8 0.698510 0.300785 0.319775
O O9 0.876931 0.147069 0.365401
O O10 0.183641 0.127961 0.491951
O O11 0.451842 0.207762 0.603711
O O12 0.412885 0.000000 0.596359
O O13 0.392566 0.500000 0.721697
O O14 0.480964 0.625975 0.677412
#
# Coordination Sequence:
#
# PCOD9193017 Si02
#       6
#     8   8   8   8   8   8
#     4   9  16  28  50  77 102 130 165 209 253 292
#     4   8  15  29  49  73 101 133 167 203 248 297
#     4  11  21  32  53  81 102 129 170 211 252 296
#     4  10  22  37  54  76 102 133 167 207 254 300
#     4  10  20  34  52  75 103 137 172 204 245 299
#     4  10  21  37  53  74 104 134 167 206 251 302
#
# _framework density 18.877146
#
# number of rings (size 3 to 8) (size 9 to 14) (size 15 to 20)
#    0.000    2.333    1.667    2.500    0.000    4.000 
#    0.000    0.000    0.000    6.000    0.000    2.333 
#    0.000    0.000    0.000    0.000    0.000    0.000 
#
# Total GULP energy -133859.943705 kJ/mol
# GULP energy per Si atom -5577.497654 kJ/mol
# Density = 1.883418 g / cm^3
# Si number density = 18.877146 Si / 1000 Ang^3
#
#
#
# Elastic Constant Matrix: (Units=GPa)
#
#
# Indices 1 2 3 4 5 6 
#
# 1 18.2270 -9.9107 -10.8169 0.0000 1.0952 0.0000
# 2 -9.9107 72.2016 -5.8374 0.0000 -3.4063 0.0000
# 3 -10.8169 -5.8374 51.5125 0.0000 -1.1447 0.0000
# 4 0.0000 0.0000 0.0000 30.0948 0.0000 8.4410
# 5 1.0952 -3.4063 -1.1447 0.0000 14.3036 0.0000
# 6 0.0000 0.0000 0.0000 8.4410 0.0000 14.4699
#
#
#
# Elastic Compliance Matrix: (Units=1/GPa)
#
#
# Indices 1 2 3 4 5 6 
#
# 1 0.070346 0.010876 0.015970 0.000000 -0.001518 0.000000
# 2 0.010876 0.015833 0.004151 0.000000 0.003270 0.000000
# 3 0.015970 0.004151 0.023273 0.000000 0.001628 0.000000
# 4 0.000000 0.000000 0.000000 0.039729 0.000000 -0.023176
# 5 -0.001518 0.003270 0.001628 0.000000 0.070938 0.000000
# 6 0.000000 0.000000 0.000000 -0.023176 0.000000 0.082628
#
#
# Mechanical properties :
#
#
# Convention : Reuss Voigt Hill
#
# Bulk Modulus (GPa) = 5.83279 9.86790 7.85034
# Shear Modulus (GPa) = 16.78407 23.00741 19.89574
#
# Velocity S-wave (km/s) = 2.98505 3.49491 3.25000
# Velocity P-wave (km/s) = 3.87005 4.63947 4.27212
#
# Compressibility (1/GPa) = 0.17144451
#
# Stress axis : x y z
#
# Youngs Moduli (GPa) = 14.21546 63.16015 42.96854
#
# Poissons Ratio (x) = -0.68690 -0.68622
# Poissons Ratio (y) = -0.15460 -0.17834
# Poissons Ratio (z) = -0.22703 -0.26215
#
# Static dielectric constant tensor:
#      x y z
#    x 1.621680 0.000000 0.004870 
#    y 0.000000 1.657810 0.000000 
#    z 0.004870 0.000000 1.676450 
# 
# From -- ./inp_files/204355.got.cif
#   From: 2010.05.17/outbox.cif.g08.bks.cpg/sg12_103_cif.got.tgz:204355.got - 2010.06.03 13:09:07.
