data_PCOD9193393
_publ_section_title
;
Structure prediction by ZEFSAII (Michael W. Deem and Ramdas Pophale) SiO2 
 PCOD9193393
Probable space group: C 2/M
;
_chemical_formula_sum "Si O2"
_cell_formula_units_Z 64
_cell_length_a 17.280478
_cell_length_b 7.549405
_cell_length_c 26.395967
_cell_angle_alpha 90.000000
_cell_angle_beta 129.443962
_cell_angle_gamma 90.000000
_cell_volume 2659.266760
_symmetry_space_group_name_H-M "C 2/M"
_symmetry_group_IT_number 12
_symmetry_cell_setting 'monoclinic'
loop_
_space_group_symop_operation_xyz
x,y,z
-x,y,-z
-x,-y,-z
x,-y,z
1/2+x,1/2+y,z
1/2-x,1/2+y,-z
1/2-x,1/2-y,-z
1/2+x,1/2-y,z
loop_
_atom_site_type_symbol
_atom_site_label
_atom_site_fract_x
_atom_site_fract_y
_atom_site_fract_z
Si Si1 0.504894 0.793310 0.590705
Si Si2 0.226283 0.797988 0.653768
Si Si3 0.700060 0.789448 0.533341
Si Si4 0.480257 0.291729 0.902103
Si Si5 0.063313 0.714745 0.227118
Si Si6 0.236489 0.216574 0.155273
Si Si7 0.689472 0.712235 0.025509
Si Si8 0.551390 0.782955 0.719558
O O1 0.617418 0.784803 0.616618
O O2 0.414979 0.721752 0.519073
O O3 0.505824 0.718198 0.647885
O O4 0.479107 0.000000 0.584818
O O5 0.250432 0.792989 0.603850
O O6 0.321450 0.720159 0.722906
O O7 0.215131 0.000000 0.665484
O O8 0.750000 0.750000 0.500000
O O9 0.703280 0.000000 0.543566
O O10 0.476119 0.500000 0.913002
O O11 0.492064 0.271862 0.846787
O O12 0.370908 0.218864 0.869835
O O13 0.576303 0.217688 0.971301
O O14 0.065410 0.500000 0.228410
O O15 0.007709 0.772319 0.254968
O O16 0.242318 0.272171 0.098928
O O17 0.333143 0.273678 0.226760
O O18 0.237370 0.000000 0.157745
O O19 0.682198 0.500000 0.026848
O O20 0.750000 0.750000 0.000000
O O21 0.550007 0.000000 0.717846
#
# Coordination Sequence:
#
# PCOD9193393 Si02
#       8
#     8   8   8   8   8   8   8   8
#     4  10  21  38  59  83 111 145 187 231 276 330
#     4  11  23  38  57  83 115 149 187 232 280 332
#     4  11  23  39  60  85 115 151 189 232 281 333
#     4  10  20  34  54  80 107 138 181 230 273 321
#     4  10  21  37  56  80 111 145 180 223 278 334
#     4   9  17  31  53  78 104 138 178 219 266 319
#     4  10  20  34  53  78 108 141 179 224 272 325
#     4   9  17  32  55  78 103 140 182 221 266 326
#
# _framework density 24.066783999999998
#
# number of rings (size 3 to 8) (size 9 to 14) (size 15 to 20)
#    0.000    2.000    0.000    3.750    0.000    9.500 
#    0.000    1.250    0.000    6.000    0.000    0.000 
#    0.000    0.000    0.000    0.000    0.000    0.000 
#
# Total GULP energy -178961.008381 kJ/mol
# GULP energy per Si atom -5592.531512 kJ/mol
# Density = 2.401201 g / cm^3
# Si number density = 24.066784 Si / 1000 Ang^3
#
#
#
# Elastic Constant Matrix: (Units=GPa)
#
#
# Indices 1 2 3 4 5 6 
#
# 1 52.2122 -9.9919 -27.7247 0.0000 0.7976 0.0000
# 2 -9.9919 62.5251 0.9015 0.0000 5.9643 0.0000
# 3 -27.7247 0.9015 78.0271 0.0000 4.9045 0.0000
# 4 0.0000 0.0000 0.0000 4.8508 0.0000 -9.1759
# 5 0.7976 5.9643 4.9045 0.0000 43.6179 0.0000
# 6 0.0000 0.0000 0.0000 -9.1759 0.0000 19.2446
#
#
#
# Elastic Compliance Matrix: (Units=1/GPa)
#
#
# Indices 1 2 3 4 5 6 
#
# 1 0.024639 0.004000 0.008834 0.000000 -0.001991 0.000000
# 2 0.004000 0.016855 0.001386 0.000000 -0.002534 0.000000
# 3 0.008834 0.001386 0.016075 0.000000 -0.002158 0.000000
# 4 0.000000 0.000000 0.000000 2.102273 0.000000 1.002372
# 5 -0.001991 -0.002534 -0.002158 0.000000 0.023552 0.000000
# 6 0.000000 0.000000 0.000000 1.002372 0.000000 0.529897
#
#
# Mechanical properties :
#
#
# Convention : Reuss Voigt Hill
#
# Bulk Modulus (GPa) = 11.62690 13.23716 12.43203
# Shear Modulus (GPa) = 1.84262 28.84796 15.34529
#
# Velocity S-wave (km/s) = 0.87595 3.46593 2.52784
# Velocity P-wave (km/s) = 2.42170 4.63993 3.70092
#
# Compressibility (1/GPa) = 0.08600742
#
# Stress axis : x y z
#
# Youngs Moduli (GPa) = 40.58567 59.33131 62.21023
#
# Poissons Ratio (x) = -0.23733 -0.54955
# Poissons Ratio (y) = -0.16234 -0.08621
# Poissons Ratio (z) = -0.35852 -0.08222
#
# Static dielectric constant tensor:
#      x y z
#    x 1.914510 0.000000 0.013390 
#    y 0.000000 1.878580 0.000000 
#    z 0.013390 0.000000 1.894300 
# 
# From -- ./inp_files/378307.got.cif
#   From: 2010.05.17/outbox.cif.g08.bks.cpg/sg12_190_cif.got.tgz:378307.got - 2010.06.03 13:09:07.
