data_PCOD9193513
_publ_section_title
;
Structure prediction by ZEFSAII (Michael W. Deem and Ramdas Pophale) SiO2 
 PCOD9193513
Probable space group: C 2/M
;
_chemical_formula_sum "Si O2"
_cell_formula_units_Z 64
_cell_length_a 15.465484
_cell_length_b 8.784164
_cell_length_c 29.482340
_cell_angle_alpha 90.000000
_cell_angle_beta 58.430763
_cell_angle_gamma 90.000000
_cell_volume 3412.476345
_symmetry_space_group_name_H-M "C 2/M"
_symmetry_group_IT_number 12
_symmetry_cell_setting 'monoclinic'
loop_
_space_group_symop_operation_xyz
x,y,z
-x,y,-z
-x,-y,-z
x,-y,z
1/2+x,1/2+y,z
1/2-x,1/2+y,-z
1/2-x,1/2-y,-z
1/2+x,1/2-y,z
loop_
_atom_site_type_symbol
_atom_site_label
_atom_site_fract_x
_atom_site_fract_y
_atom_site_fract_z
Si Si1 0.420530 0.672982 0.557332
Si Si2 0.616668 0.815915 0.256751
Si Si3 0.262091 0.184501 0.866614
Si Si4 0.332199 0.683326 0.942369
Si Si5 0.396094 0.317779 0.332742
Si Si6 0.530658 0.315035 0.941003
Si Si7 0.714556 0.828070 0.555892
Si Si8 0.196054 0.682760 0.332122
O O1 0.500000 0.743144 0.500000
O O2 0.455186 0.500000 0.558196
O O3 0.315092 0.665309 0.559213
O O4 0.394027 0.759297 0.610535
O O5 0.677277 0.770206 0.195058
O O6 0.503297 0.751008 0.289016
O O7 0.675100 0.767014 0.286574
O O8 0.611288 0.000000 0.258841
O O9 0.310050 0.253715 0.898702
O O10 0.144104 0.232753 0.897357
O O11 0.264445 0.000000 0.869293
O O12 0.325746 0.500000 0.944608
O O13 0.443208 0.729858 0.930048
O O14 0.250000 0.750000 0.000000
O O15 0.400769 0.500000 0.330913
O O16 0.366034 0.262179 0.391489
O O17 0.303979 0.268602 0.324304
O O18 0.531087 0.500000 0.941991
O O19 0.500000 0.263299 0.000000
O O20 0.750000 0.750000 0.500000
O O21 0.678651 0.000000 0.557092
O O22 0.195867 0.500000 0.333179
#
# Coordination Sequence:
#
# PCOD9193513 Si02
#       8
#     8   8   8   8   8   8   8   8
#     4   9  19  34  52  78 109 140 175 223 285 342
#     4  10  22  39  60  84 112 151 193 235 284 338
#     4  10  21  39  59  83 117 153 193 235 280 339
#     4  11  21  35  59  88 119 153 192 235 283 335
#     4  10  21  38  59  82 112 148 190 239 287 338
#     4   9  17  33  58  84 113 154 193 225 277 341
#     4  10  20  34  53  80 114 146 182 229 286 347
#     4   9  20  38  57  80 108 145 191 234 278 334
#
# _framework density 18.754708000000001
#
# number of rings (size 3 to 8) (size 9 to 14) (size 15 to 20)
#    0.000    2.250    1.250    1.125    1.750    3.250 
#    0.000    4.375    0.000    0.000    0.000    0.000 
#    0.000    0.000    0.000    0.000    0.000    0.000 
#
# Total GULP energy -178578.648833 kJ/mol
# GULP energy per Si atom -5580.582776 kJ/mol
# Density = 1.871202 g / cm^3
# Si number density = 18.754708 Si / 1000 Ang^3
#
#
#
# Elastic Constant Matrix: (Units=GPa)
#
#
# Indices 1 2 3 4 5 6 
#
# 1 135.1984 32.1934 101.7430 0.0000 0.5687 0.0000
# 2 32.1934 27.4872 42.0760 0.0000 3.5860 0.0001
# 3 101.7430 42.0760 206.8417 0.0000 1.2044 0.0000
# 4 0.0000 0.0000 0.0000 27.8179 0.0000 1.0719
# 5 0.5687 3.5860 1.2044 0.0000 35.9079 0.0000
# 6 0.0000 0.0001 0.0000 1.0719 0.0000 24.1000
#
#
#
# Elastic Compliance Matrix: (Units=1/GPa)
#
#
# Indices 1 2 3 4 5 6 
#
# 1 0.012812 -0.007914 -0.004697 0.000000 0.000745 0.000000
# 2 -0.007914 0.058602 -0.007997 0.000000 -0.005459 0.000000
# 3 -0.004697 -0.007997 0.008768 0.000000 0.000579 0.000000
# 4 0.000000 0.000000 0.000000 0.036010 0.000000 -0.001602
# 5 0.000745 -0.005459 0.000579 0.000000 0.028363 0.000000
# 6 0.000000 0.000000 0.000000 -0.001602 0.000000 0.041565
#
#
# Mechanical properties :
#
#
# Convention : Reuss Voigt Hill
#
# Bulk Modulus (GPa) = 25.66157 80.17246 52.91701
# Shear Modulus (GPa) = 20.80528 30.46615 25.63572
#
# Velocity S-wave (km/s) = 3.33428 4.03482 3.70117
# Velocity P-wave (km/s) = 5.34188 8.03412 6.82213
#
# Compressibility (1/GPa) = 0.03896878
#
# Stress axis : x y z
#
# Youngs Moduli (GPa) = 78.04988 17.06426 114.04849
#
# Poissons Ratio (x) = 0.13504 0.53566
# Poissons Ratio (y) = 0.61765 0.91199
# Poissons Ratio (z) = 0.36658 0.13645
#
# Static dielectric constant tensor:
#      x y z
#    x 1.654100 0.000000 0.000380 
#    y 0.000000 1.654560 0.000000 
#    z 0.000380 0.000000 1.623240 
# 
# From -- ./inp_files/375023.got.cif
#   From: 2010.05.17/outbox.cif.g08.bks.cpg/sg12_188_cif.got.tgz:375023.got - 2010.06.03 13:09:07.
