data_PCOD9193754
_publ_section_title
;
Structure prediction by ZEFSAII (Michael W. Deem and Ramdas Pophale) SiO2 
 PCOD9193754
Probable space group: C 2/M
;
_chemical_formula_sum "Si O2"
_cell_formula_units_Z 64
_cell_length_a 20.156801
_cell_length_b 7.523751
_cell_length_c 21.769037
_cell_angle_alpha 90.000000
_cell_angle_beta 63.036618
_cell_angle_gamma 90.000000
_cell_volume 2942.506534
_symmetry_space_group_name_H-M "C 2/M"
_symmetry_group_IT_number 12
_symmetry_cell_setting 'monoclinic'
loop_
_space_group_symop_operation_xyz
x,y,z
-x,y,-z
-x,-y,-z
x,-y,z
1/2+x,1/2+y,z
1/2-x,1/2+y,-z
1/2-x,1/2-y,-z
1/2+x,1/2-y,z
loop_
_atom_site_type_symbol
_atom_site_label
_atom_site_fract_x
_atom_site_fract_y
_atom_site_fract_z
Si Si1 0.982361 0.710755 0.692984
Si Si2 0.364569 0.215212 0.427733
Si Si3 0.682165 0.797060 0.839420
Si Si4 0.321852 0.715314 0.702597
Si Si5 0.981359 0.718009 0.076939
Si Si6 0.220970 0.789855 0.414456
Si Si7 0.260095 0.789073 0.924407
Si Si8 0.427426 0.782785 0.844384
O O1 0.994423 0.500000 0.693432
O O2 0.903281 0.734027 0.692661
O O3 0.974153 0.779041 0.766067
O O4 0.054326 0.780532 0.626782
O O5 0.298914 0.280030 0.409552
O O6 0.339922 0.265053 0.506690
O O7 0.363872 0.000000 0.426339
O O8 0.753916 0.719863 0.774454
O O9 0.600226 0.718602 0.867590
O O10 0.700764 0.796201 0.903946
O O11 0.676309 0.000000 0.819525
O O12 0.321473 0.500000 0.703952
O O13 0.305188 0.779218 0.640435
O O14 0.979968 0.500000 0.076384
O O15 0.040484 0.772803 0.103522
O O16 0.000000 0.775716 0.000000
O O17 0.232196 0.000000 0.401084
O O18 0.342423 0.725761 0.871731
O O19 0.255484 0.000000 0.917056
O O20 0.250000 0.750000 0.000000
O O21 0.427180 0.000000 0.844578
#
# Coordination Sequence:
#
# PCOD9193754 Si02
#       8
#     8   8   8   8   8   8   8   8
#     4  10  20  35  55  79 107 140 180 224 265 310
#     4   9  19  35  57  82 107 138 180 224 264 309
#     4  10  20  34  54  80 108 137 175 221 267 317
#     4  10  21  35  53  79 110 143 176 215 265 321
#     4   9  17  30  51  78 104 131 172 222 264 309
#     4   9  19  36  56  80 110 142 177 217 266 318
#     4  11  21  35  56  79 106 141 179 218 265 315
#     4   9  18  32  52  78 105 136 176 221 264 308
#
# _framework density 21.750164000000002
#
# number of rings (size 3 to 8) (size 9 to 14) (size 15 to 20)
#    0.000    2.375    1.250    1.125    1.750    3.500 
#    0.000    2.500    0.000    4.875    0.000    0.000 
#    0.000    0.000    0.000    0.000    0.000    0.000 
#
# Total GULP energy -178693.594264 kJ/mol
# GULP energy per Si atom -5584.174821 kJ/mol
# Density = 2.170066 g / cm^3
# Si number density = 21.750164 Si / 1000 Ang^3
#
#
#
# Elastic Constant Matrix: (Units=GPa)
#
#
# Indices 1 2 3 4 5 6 
#
# 1 62.3606 -6.7943 19.7106 0.0023 1.8537 -0.0015
# 2 -6.7943 54.2601 -7.7737 0.0018 -1.8190 -0.0013
# 3 19.7106 -7.7737 97.7682 0.0016 2.7417 -0.0012
# 4 0.0023 0.0018 0.0016 8.5471 -0.0003 4.3306
# 5 1.8537 -1.8190 2.7417 -0.0003 45.5678 0.0008
# 6 -0.0015 -0.0013 -0.0012 4.3306 0.0008 14.3885
#
#
#
# Elastic Compliance Matrix: (Units=1/GPa)
#
#
# Indices 1 2 3 4 5 6 
#
# 1 0.017286 0.001671 -0.003340 -0.000006 -0.000436 0.000004
# 2 0.001671 0.018823 0.001142 -0.000007 0.000615 0.000004
# 3 -0.003340 0.001142 0.011006 -0.000002 -0.000481 0.000001
# 4 -0.000006 -0.000007 -0.000002 0.138051 0.000002 -0.041551
# 5 -0.000436 0.000615 -0.000481 0.000002 0.022016 -0.000002
# 6 0.000004 0.000004 0.000001 -0.041551 -0.000002 0.082006
#
#
# Mechanical properties :
#
#
# Convention : Reuss Voigt Hill
#
# Bulk Modulus (GPa) = 21.70905 24.96378 23.33641
# Shear Modulus (GPa) = 16.36146 27.65044 22.00595
#
# Velocity S-wave (km/s) = 2.74568 3.56936 3.18427
# Velocity P-wave (km/s) = 4.47822 5.33756 4.92666
#
# Compressibility (1/GPa) = 0.04606375
#
# Stress axis : x y z
#
# Youngs Moduli (GPa) = 57.84866 53.12558 90.86000
#
# Poissons Ratio (x) = -0.08880 0.30347
# Poissons Ratio (y) = -0.09669 -0.10380
# Poissons Ratio (z) = 0.19321 -0.06069
#
# Static dielectric constant tensor:
#      x y z
#    x 1.752720 0.000000 -0.011730 
#    y 0.000000 1.835490 0.000000 
#    z -0.011730 0.000000 1.781850 
# 
# From -- ./inp_files/319813.got.cif
#   From: 2010.05.17/outbox.cif.g08.bks.cpg/sg12_160_cif.got.tgz:319813.got - 2010.06.03 13:09:07.
