data_PCOD9193828
_publ_section_title
;
Structure prediction by ZEFSAII (Michael W. Deem and Ramdas Pophale) SiO2 
 PCOD9193828
Probable space group: C 2/M
;
_chemical_formula_sum "Si O2"
_cell_formula_units_Z 40
_cell_length_a 9.103100
_cell_length_b 15.200025
_cell_length_c 12.761221
_cell_angle_alpha 90.000000
_cell_angle_beta 87.698349
_cell_angle_gamma 90.000000
_cell_volume 1764.311773
_symmetry_space_group_name_H-M "C 2/M"
_symmetry_group_IT_number 12
_symmetry_cell_setting 'monoclinic'
loop_
_space_group_symop_operation_xyz
x,y,z
-x,y,-z
-x,-y,-z
x,-y,z
1/2+x,1/2+y,z
1/2-x,1/2+y,-z
1/2-x,1/2-y,-z
1/2+x,1/2-y,z
loop_
_atom_site_type_symbol
_atom_site_label
_atom_site_fract_x
_atom_site_fract_y
_atom_site_fract_z
Si Si1 0.606503 0.107047 0.743527
Si Si2 0.267100 0.891548 0.708427
Si Si3 0.830683 0.661184 0.031062
Si Si4 0.901277 0.903074 0.095293
Si Si5 0.824303 0.602537 0.481461
O O1 0.432897 0.132116 0.740752
O O2 0.682386 0.140752 0.846223
O O3 0.688123 0.138812 0.635343
O O4 0.608811 0.000000 0.744042
O O5 0.141354 0.860196 0.792864
O O6 0.249228 0.861229 0.588616
O O7 0.262045 0.000000 0.709883
O O8 0.750000 0.750000 0.000000
O O9 0.754278 0.590563 0.958710
O O10 0.000000 0.663603 0.000000
O O11 0.965297 0.000000 0.114615
O O12 0.000000 0.862637 0.000000
O O13 0.779601 0.500000 0.476984
O O14 0.000000 0.603183 0.500000
#
# Coordination Sequence:
#
# PCOD9193828 Si02
#       5
#     8   8   8   8   8
#     4   9  16  29  53  82 105 132 174 220 263 314
#     4   8  13  25  49  81 110 133 163 210 266 317
#     4  12  24  37  52  73 105 145 183 223 264 314
#     4  10  20  34  54  81 110 140 174 216 266 319
#     4   7  11  21  43  79 110 127 159 212 265 312
#
# _framework density 22.671728999999999
#
# number of rings (size 3 to 8) (size 9 to 14) (size 15 to 20)
#    0.000    2.800    2.000    3.600    0.000    0.800 
#    0.000    0.000    0.000    2.400    0.000    7.000 
#    0.000    0.000    0.000    0.000    0.000    0.000 
#
# Total GULP energy -111438.370008 kJ/mol
# GULP energy per Si atom -5571.918500 kJ/mol
# Density = 2.262013 g / cm^3
# Si number density = 22.671729 Si / 1000 Ang^3
#
#
#
# Elastic Constant Matrix: (Units=GPa)
#
#
# Indices 1 2 3 4 5 6 
#
# 1 64.0132 2.7178 32.1019 0.0000 -34.3124 0.0000
# 2 2.7178 43.5797 0.5574 0.0000 -4.1060 0.0000
# 3 32.1019 0.5574 227.6475 0.0000 -54.3275 0.0000
# 4 0.0000 0.0000 0.0000 -17.8673 0.0000 -26.7961
# 5 -34.3124 -4.1060 -54.3275 0.0000 45.2247 0.0000
# 6 0.0000 0.0000 0.0000 -26.7961 0.0000 -47.6264
#
#
#
# Elastic Compliance Matrix: (Units=1/GPa)
#
#
# Indices 1 2 3 4 5 6 
#
# 1 0.026696 0.000398 0.001510 0.000000 0.022104 0.000000
# 2 0.000398 0.023214 0.000648 0.000000 0.003188 0.000000
# 3 0.001510 0.000648 0.006260 0.000000 0.008725 0.000000
# 4 0.000000 0.000000 0.000000 -0.358305 0.000000 0.201594
# 5 0.022104 0.003188 0.008725 0.000000 0.049653 0.000000
# 6 0.000000 0.000000 0.000000 0.201594 0.000000 -0.134420
#
#
# Mechanical properties :
#
#
# Convention : Reuss Voigt Hill
#
# Bulk Modulus (GPa) = 16.31805 45.11052 30.71429
# Shear Modulus (GPa) = -13.45582 15.93710 1.24064
#
# Velocity S-wave (km/s) = -2.43884 2.65420 0.74054
# Velocity P-wave (km/s) = 0.84702 5.41604 3.78259
#
# Compressibility (1/GPa) = 0.06128183
#
# Stress axis : x y z
#
# Youngs Moduli (GPa) = 37.45854 43.07805 159.73392
#
# Poissons Ratio (x) = -0.01716 -0.24113
# Poissons Ratio (y) = -0.01492 -0.10348
# Poissons Ratio (z) = -0.05655 -0.02791
#
# Static dielectric constant tensor:
#      x y z
#    x 1.885820 0.000000 -0.068520 
#    y 0.000000 1.917670 0.000000 
#    z -0.068520 0.000000 1.894610 
# 
# From -- ./inp_files/120147.got.cif
#   From: 2010.05.17/outbox.cif.g08.bks.cpg/sg12_61_cif.got.tgz:120147.got - 2010.06.03 13:09:07.
