data_PCOD9193078
_publ_section_title
;
Structure prediction by ZEFSAII (Michael W. Deem and Ramdas Pophale) SiO2 
 PCOD9193078
Probable space group: C 2/M
;
_chemical_formula_sum "Si O2"
_cell_formula_units_Z 56
_cell_length_a 19.730415
_cell_length_b 9.421191
_cell_length_c 21.448124
_cell_angle_alpha 90.000000
_cell_angle_beta 125.357769
_cell_angle_gamma 90.000000
_cell_volume 3251.504451
_symmetry_space_group_name_H-M "C 2/M"
_symmetry_group_IT_number 12
_symmetry_cell_setting 'monoclinic'
loop_
_space_group_symop_operation_xyz
x,y,z
-x,y,-z
-x,-y,-z
x,-y,z
1/2+x,1/2+y,z
1/2-x,1/2+y,-z
1/2-x,1/2-y,-z
1/2+x,1/2-y,z
loop_
_atom_site_type_symbol
_atom_site_label
_atom_site_fract_x
_atom_site_fract_y
_atom_site_fract_z
Si Si1 0.022114 0.666158 0.812263
Si Si2 0.145792 0.332136 0.197877
Si Si3 0.742077 0.172268 0.370252
Si Si4 0.072920 0.828719 0.489933
Si Si5 0.583770 0.170091 0.366700
Si Si6 0.334721 0.336156 0.046407
Si Si7 0.093760 0.164593 0.054698
O O1 0.046109 0.500000 0.827916
O O2 0.097922 0.763714 0.872749
O O3 0.945028 0.686388 0.818853
O O4 0.983848 0.694763 0.723728
O O5 0.158151 0.500000 0.194252
O O6 0.210595 0.281708 0.285181
O O7 0.145881 0.249698 0.133326
O O8 0.835757 0.213466 0.435940
O O9 0.673092 0.215693 0.384819
O O10 0.738484 0.000000 0.367418
O O11 0.062902 0.752869 0.418268
O O12 0.000000 0.792627 0.500000
O O13 0.072270 0.000000 0.481759
O O14 0.587323 0.000000 0.379577
O O15 0.321565 0.500000 0.056728
O O16 0.250000 0.250000 0.000000
O O17 0.369523 0.331071 0.994601
O O18 0.088235 0.000000 0.072219
O O19 0.000000 0.222756 0.000000
#
# Coordination Sequence:
#
# PCOD9193078 Si02
#       7
#     8   8   8   8   8   8   8
#     4   9  18  34  55  79 106 136 175 223 269 312
#     4   9  17  31  55  81 103 135 180 223 261 311
#     4   8  16  33  54  77 105 136 174 219 261 303
#     4  10  20  34  52  76 110 143 171 211 262 315
#     4   9  18  34  57  79 101 134 176 221 262 306
#     4  11  23  38  55  76 108 145 178 218 264 317
#     4  10  20  35  54  78 109 138 170 220 272 307
#
# _framework density 17.222797
#
# number of rings (size 3 to 8) (size 9 to 14) (size 15 to 20)
#    0.000    2.571    1.429    2.571    0.000    2.286 
#    2.571    2.857    0.000    0.000    0.000    0.000 
#    0.000    0.000    0.000    0.000    0.000    0.000 
#
# Total GULP energy -156123.341310 kJ/mol
# GULP energy per Si atom -5575.833618 kJ/mol
# Density = 1.718360 g / cm^3
# Si number density = 17.222797 Si / 1000 Ang^3
#
#
#
# Elastic Constant Matrix: (Units=GPa)
#
#
# Indices 1 2 3 4 5 6 
#
# 1 76.6059 44.4734 60.6290 0.0000 5.5970 0.0000
# 2 44.4734 57.5793 61.8358 0.0000 11.7343 0.0000
# 3 60.6290 61.8358 120.6428 0.0000 3.8720 0.0000
# 4 0.0000 0.0000 0.0000 25.4583 0.0000 -3.6713
# 5 5.5970 11.7343 3.8720 0.0000 19.2888 0.0000
# 6 0.0000 0.0000 0.0000 -3.6713 0.0000 20.6457
#
#
#
# Elastic Compliance Matrix: (Units=1/GPa)
#
#
# Indices 1 2 3 4 5 6 
#
# 1 0.025591 -0.014114 -0.005701 0.000000 0.002305 0.000000
# 2 -0.014114 0.055573 -0.020570 0.000000 -0.025583 0.000000
# 3 -0.005701 -0.020570 0.021380 0.000000 0.009876 0.000000
# 4 0.000000 0.000000 0.000000 0.040314 0.000000 0.007169
# 5 0.002305 -0.025583 0.009876 0.000000 0.064756 0.000000
# 6 0.000000 0.000000 0.000000 0.007169 0.000000 0.049711
#
#
# Mechanical properties :
#
#
# Convention : Reuss Voigt Hill
#
# Bulk Modulus (GPa) = 45.92414 65.41162 55.66788
# Shear Modulus (GPa) = 14.47797 18.93788 16.70793
#
# Velocity S-wave (km/s) = 2.90250 3.31959 3.11803
# Velocity P-wave (km/s) = 6.16079 7.26327 6.73463
#
# Compressibility (1/GPa) = 0.02177504
#
# Stress axis : x y z
#
# Youngs Moduli (GPa) = 39.07658 17.99431 46.77230
#
# Poissons Ratio (x) = 0.25396 0.26663
# Poissons Ratio (y) = 0.55151 0.96212
# Poissons Ratio (z) = 0.22276 0.37015
#
# Static dielectric constant tensor:
#      x y z
#    x 1.564710 0.000000 0.013840 
#    y 0.000000 1.576880 0.000000 
#    z 0.013840 0.000000 1.574720 
# 
# From -- ./inp_files/275111.got.cif
#   From: 2010.05.17/outbox.cif.g08.bks.cpg/sg12_138_cif.got.tgz:275111.got - 2010.06.03 13:09:07.
