data_PCOD9193540
_publ_section_title
;
Structure prediction by ZEFSAII (Michael W. Deem and Ramdas Pophale) SiO2 
 PCOD9193540
Probable space group: C 2/M
;
_chemical_formula_sum "Si O2"
_cell_formula_units_Z 56
_cell_length_a 20.215776
_cell_length_b 20.584475
_cell_length_c 12.132367
_cell_angle_alpha 90.000000
_cell_angle_beta 142.094360
_cell_angle_gamma 90.000000
_cell_volume 3101.706589
_symmetry_space_group_name_H-M "C 2/M"
_symmetry_group_IT_number 12
_symmetry_cell_setting 'monoclinic'
loop_
_space_group_symop_operation_xyz
x,y,z
-x,y,-z
-x,-y,-z
x,-y,z
1/2+x,1/2+y,z
1/2-x,1/2+y,-z
1/2-x,1/2-y,-z
1/2+x,1/2-y,z
loop_
_atom_site_type_symbol
_atom_site_label
_atom_site_fract_x
_atom_site_fract_y
_atom_site_fract_z
Si Si1 0.389855 0.311088 0.298283
Si Si2 0.473677 0.429611 0.835562
Si Si3 0.927906 0.572617 0.295305
Si Si4 0.581675 0.287113 0.210114
Si Si5 0.007193 0.299763 0.315196
Si Si6 0.309584 0.616919 0.980978
Si Si7 0.765565 0.274966 0.287793
O O1 0.500000 0.336132 0.500000
O O2 0.428753 0.245724 0.285198
O O3 0.301673 0.290009 0.272032
O O4 0.339564 0.356882 0.140789
O O5 0.423121 0.500000 0.740950
O O6 0.412335 0.361183 0.735118
O O7 0.500000 0.430629 0.000000
O O8 0.588272 0.423002 0.926437
O O9 0.949277 0.500000 0.282393
O O10 0.803138 0.580012 0.163819
O O11 0.000000 0.582595 0.500000
O O12 0.956049 0.629248 0.245986
O O13 0.534720 0.238745 0.239925
O O14 0.693352 0.266090 0.300949
O O15 0.500000 0.288476 0.000000
O O16 0.121008 0.305616 0.527211
O O17 0.293881 0.677312 0.875862
#
# Coordination Sequence:
#
# PCOD9193540 Si02
#       7
#     8   8   8   8   8   8   8
#     4  10  21  34  58  86 112 143 187 239 284 329
#     4  10  20  34  53  81 116 145 183 230 283 342
#     4  11  23  37  57  88 118 145 186 235 289 339
#     4  11  21  34  54  84 112 148 192 226 283 337
#     4  11  20  37  55  81 119 145 187 239 279 332
#     4  12  19  35  58  84 113 147 188 230 284 344
#     4  11  20  33  52  88 113 148 185 232 290 330
#
# _framework density 18.054576999999998
#
# number of rings (size 3 to 8) (size 9 to 14) (size 15 to 20)
#    0.000    1.143    7.143    1.714    2.000    0.000 
#    0.000    0.714    0.000    2.143    0.000    0.000 
#    0.000    0.000    0.000    0.000    0.000    0.000 
#
# Total GULP energy -156231.126415 kJ/mol
# GULP energy per Si atom -5579.683086 kJ/mol
# Density = 1.801348 g / cm^3
# Si number density = 18.054577 Si / 1000 Ang^3
#
#
#
# Elastic Constant Matrix: (Units=GPa)
#
#
# Indices 1 2 3 4 5 6 
#
# 1 124.5425 57.3422 14.4119 0.0000 7.5139 0.0000
# 2 57.3422 88.5758 29.5040 0.0000 -4.2323 0.0000
# 3 14.4119 29.5040 52.4439 0.0000 -7.0599 0.0000
# 4 0.0000 0.0000 0.0000 20.9438 0.0000 -17.3550
# 5 7.5139 -4.2323 -7.0599 0.0000 20.4397 0.0000
# 6 0.0000 0.0000 0.0000 -17.3550 0.0000 49.2991
#
#
#
# Elastic Compliance Matrix: (Units=1/GPa)
#
#
# Indices 1 2 3 4 5 6 
#
# 1 0.012174 -0.008349 0.000542 0.000000 -0.006017 0.000000
# 2 -0.008349 0.019620 -0.008163 0.000000 0.004312 0.000000
# 3 0.000542 -0.008163 0.024391 0.000000 0.006535 0.000000
# 4 0.000000 0.000000 0.000000 0.067412 0.000000 0.023731
# 5 -0.006017 0.004312 0.006535 0.000000 0.054286 0.000000
# 6 0.000000 0.000000 0.000000 0.023731 0.000000 0.028639
#
#
# Mechanical properties :
#
#
# Convention : Reuss Voigt Hill
#
# Bulk Modulus (GPa) = 41.24689 52.00871 46.62780
# Shear Modulus (GPa) = 20.28040 29.09013 24.68526
#
# Velocity S-wave (km/s) = 3.35518 4.01837 3.70166
# Velocity P-wave (km/s) = 6.15669 7.09920 6.64468
#
# Compressibility (1/GPa) = 0.02424425
#
# Stress axis : x y z
#
# Youngs Moduli (GPa) = 82.14380 50.96907 40.99830
#
# Poissons Ratio (x) = 0.42554 -0.02220
# Poissons Ratio (y) = 0.68581 0.33466
# Poissons Ratio (z) = -0.04449 0.41605
#
# Static dielectric constant tensor:
#      x y z
#    x 1.636280 0.000000 0.012520 
#    y 0.000000 1.650010 0.000000 
#    z 0.012520 0.000000 1.635940 
# 
# From -- ./inp_files/169473.got.cif
#   From: 2010.05.17/outbox.cif.g08.bks.cpg/sg12_85_cif.got.tgz:169473.got - 2010.06.03 13:09:07.
