data_PCOD9193558
_publ_section_title
;
Structure prediction by ZEFSAII (Michael W. Deem and Ramdas Pophale) SiO2 
 PCOD9193558
Probable space group: C 2/M
;
_chemical_formula_sum "Si O2"
_cell_formula_units_Z 40
_cell_length_a 31.451208
_cell_length_b 9.036956
_cell_length_c 15.688070
_cell_angle_alpha 90.000000
_cell_angle_beta 27.657311
_cell_angle_gamma 90.000000
_cell_volume 2069.748321
_symmetry_space_group_name_H-M "C 2/M"
_symmetry_group_IT_number 12
_symmetry_cell_setting 'monoclinic'
loop_
_space_group_symop_operation_xyz
x,y,z
-x,y,-z
-x,-y,-z
x,-y,z
1/2+x,1/2+y,z
1/2-x,1/2+y,-z
1/2-x,1/2-y,-z
1/2+x,1/2-y,z
loop_
_atom_site_type_symbol
_atom_site_label
_atom_site_fract_x
_atom_site_fract_y
_atom_site_fract_z
Si Si1 0.289089 0.167764 0.512966
Si Si2 0.829442 0.177394 0.612272
Si Si3 0.539192 0.675937 0.193096
Si Si4 0.996787 0.667071 0.911659
Si Si5 0.274958 0.321912 0.045543
O O1 0.250000 0.250000 0.500000
O O2 0.278813 0.259366 0.618179
O O3 0.397893 0.158293 0.304051
O O4 0.252911 0.000000 0.584975
O O5 0.789394 0.255979 0.766357
O O6 0.937914 0.212041 0.408351
O O7 0.819119 0.000000 0.635431
O O8 0.541359 0.500000 0.176996
O O9 0.552789 0.749702 0.076663
O O10 0.620983 0.716161 0.111328
O O11 0.959030 0.500000 0.987692
O O12 0.000000 0.737142 0.000000
O O13 0.266798 0.500000 0.056394
O O14 0.250000 0.250000 0.000000
#
# Coordination Sequence:
#
# PCOD9193558 Si02
#       5
#     8   8   8   8   8
#     4  10  20  34  53  82 118 155 194 238 289 349
#     4  10  21  40  62  85 117 157 196 243 297 350
#     4   9  21  40  60  84 117 155 195 240 293 352
#     4   9  19  34  53  81 114 150 192 237 287 342
#     4  11  24  42  63  91 119 152 198 246 299 355
#
# _framework density 19.32602
#
# number of rings (size 3 to 8) (size 9 to 14) (size 15 to 20)
#    0.000    2.200    0.000    1.800    2.800    4.400 
#    0.000    4.000    0.000    0.000    0.000    0.000 
#    0.000    0.000    0.000    0.000    0.000    0.000 
#
# Total GULP energy -111657.052046 kJ/mol
# GULP energy per Si atom -5582.852602 kJ/mol
# Density = 1.928203 g / cm^3
# Si number density = 19.326020 Si / 1000 Ang^3
#
#
#
# Elastic Constant Matrix: (Units=GPa)
#
#
# Indices 1 2 3 4 5 6 
#
# 1 214.3864 87.5383 71.1867 0.0000 17.5808 0.0000
# 2 87.5383 84.9683 51.1371 0.0000 4.3767 0.0000
# 3 71.1867 51.1371 76.7382 0.0000 14.1670 0.0000
# 4 0.0000 0.0000 0.0000 22.5790 0.0000 4.9531
# 5 17.5808 4.3767 14.1670 0.0000 35.9324 0.0000
# 6 0.0000 0.0000 0.0000 4.9531 0.0000 36.7389
#
#
#
# Elastic Compliance Matrix: (Units=1/GPa)
#
#
# Indices 1 2 3 4 5 6 
#
# 1 0.008727 -0.007100 -0.002951 0.000000 -0.002242 0.000000
# 2 -0.007100 0.025727 -0.011455 0.000000 0.004856 0.000000
# 3 -0.002951 -0.011455 0.024674 0.000000 -0.006889 0.000000
# 4 0.000000 0.000000 0.000000 0.045639 0.000000 -0.006153
# 5 -0.002242 0.004856 -0.006889 0.000000 0.031052 0.000000
# 6 0.000000 0.000000 0.000000 -0.006153 0.000000 0.028049
#
#
# Mechanical properties :
#
#
# Convention : Reuss Voigt Hill
#
# Bulk Modulus (GPa) = 62.04349 88.42413 75.23381
# Shear Modulus (GPa) = 23.55718 30.13211 26.84465
#
# Velocity S-wave (km/s) = 3.49511 3.95289 3.73103
# Velocity P-wave (km/s) = 6.96140 8.16621 7.58776
#
# Compressibility (1/GPa) = 0.01611773
#
# Stress axis : x y z
#
# Youngs Moduli (GPa) = 114.58657 38.86940 40.52911
#
# Poissons Ratio (x) = 0.27596 0.11959
# Poissons Ratio (y) = 0.81352 0.46425
# Poissons Ratio (z) = 0.33811 0.44524
#
# Static dielectric constant tensor:
#      x y z
#    x 1.649710 0.000000 -0.020340 
#    y 0.000000 1.676310 0.000000 
#    z -0.020340 0.000000 1.688720 
# 
# From -- ./inp_files/211234.got.cif
#   From: 2010.05.17/outbox.cif.g08.bks.cpg/sg12_106_cif.got.tgz:211234.got - 2010.06.03 13:09:07.
