data_PCOD9193525
_publ_section_title
;
Structure prediction by ZEFSAII (Michael W. Deem and Ramdas Pophale) SiO2 
 PCOD9193525
Probable space group: C 2/M
;
_chemical_formula_sum "Si O2"
_cell_formula_units_Z 58
_cell_length_a 24.539362
_cell_length_b 10.248084
_cell_length_c 31.270574
_cell_angle_alpha 90.000000
_cell_angle_beta 153.784255
_cell_angle_gamma 90.000000
_cell_volume 3473.927249
_symmetry_space_group_name_H-M "C 2/M"
_symmetry_group_IT_number 12
_symmetry_cell_setting 'monoclinic'
loop_
_space_group_symop_operation_xyz
x,y,z
-x,y,-z
-x,-y,-z
x,-y,z
1/2+x,1/2+y,z
1/2-x,1/2+y,-z
1/2-x,1/2-y,-z
1/2+x,1/2-y,z
loop_
_atom_site_type_symbol
_atom_site_label
_atom_site_fract_x
_atom_site_fract_y
_atom_site_fract_z
Si Si1 0.072357 0.154032 0.893117
Si Si2 0.287767 0.655967 0.705384
Si Si3 0.658914 0.151300 0.702578
Si Si4 0.844345 0.149403 0.546096
Si Si5 0.258022 0.347975 0.068747
Si Si6 0.412713 0.728395 0.499911
Si Si7 0.500000 0.500000 0.500000
Si Si8 0.131107 0.847953 0.759839
O O1 0.129347 0.167918 0.885667
O O2 0.928979 0.191124 0.794977
O O3 0.083715 0.000000 0.912725
O O4 0.153514 0.247193 0.980384
O O5 0.277024 0.500000 0.694107
O O6 0.246916 0.689447 0.724928
O O7 0.192991 0.718051 0.605396
O O8 0.518455 0.167913 0.586716
O O9 0.672426 0.248857 0.751947
O O10 0.681018 0.000000 0.729470
O O11 0.750000 0.250000 0.500000
O O12 0.854790 0.175498 0.502914
O O13 0.983593 0.168074 0.661456
O O14 0.807297 0.000000 0.528307
O O15 0.217567 0.500000 0.036690
O O16 0.302658 0.325135 0.148401
O O17 0.480615 0.613142 0.522879
O O18 0.150861 0.000000 0.761075
#
# Coordination Sequence:
#
# PCOD9193525 Si02
#       8
#     8   8   8   8   8   8   2   8
#     4   9  19  35  58  80 105 134 173 224 276 323
#     4  10  20  34  55  82 107 139 180 226 276 321
#     4  10  20  34  53  81 110 141 181 222 263 319
#     4  10  22  36  51  78 111 145 182 220 265 325
#     4   9  18  37  57  79 103 136 177 221 270 328
#     4  11  21  35  56  78 111 149 188 223 271 319
#     4  12  20  36  58  80 108 158 194 230 268 326
#     4   9  20  36  57  75 103 146 183 213 267 326
#
# _framework density 16.695800999999999
#
# number of rings (size 3 to 8) (size 9 to 14) (size 15 to 20)
#    0.000    2.207    2.069    0.414    2.897    4.414 
#    1.241    0.690    0.000    4.138    0.000    0.000 
#    0.000    0.000    0.000    0.000    0.000    0.000 
#
# Total GULP energy -161448.135220 kJ/mol
# GULP energy per Si atom -5567.177077 kJ/mol
# Density = 1.665780 g / cm^3
# Si number density = 16.695801 Si / 1000 Ang^3
#
#
#
# Elastic Constant Matrix: (Units=GPa)
#
#
# Indices 1 2 3 4 5 6 
#
# 1 64.5566 40.7633 43.0837 -0.0002 -10.3332 0.0000
# 2 40.7633 65.7381 47.5917 -0.0014 -7.6903 -0.0001
# 3 43.0837 47.5917 85.8055 -0.0016 -12.2793 -0.0005
# 4 -0.0002 -0.0014 -0.0016 9.5318 0.0002 0.3092
# 5 -10.3332 -7.6903 -12.2793 0.0002 24.0370 0.0002
# 6 0.0000 -0.0001 -0.0005 0.3092 0.0002 31.3119
#
#
#
# Elastic Compliance Matrix: (Units=1/GPa)
#
#
# Indices 1 2 3 4 5 6 
#
# 1 0.028533 -0.012125 -0.006907 -0.000002 0.004859 0.000000
# 2 -0.012125 0.030593 -0.011032 0.000002 -0.001060 0.000000
# 3 -0.006907 -0.011032 0.021913 0.000002 0.004696 0.000000
# 4 -0.000002 0.000002 0.000002 0.104945 0.000000 -0.001036
# 5 0.004859 -0.001060 0.004696 0.000000 0.045751 0.000000
# 6 0.000000 0.000000 0.000000 -0.001036 0.000000 0.031947
#
#
# Mechanical properties :
#
#
# Convention : Reuss Voigt Hill
#
# Bulk Modulus (GPa) = 47.81813 53.21973 50.51893
# Shear Modulus (GPa) = 15.11579 18.62025 16.86802
#
# Velocity S-wave (km/s) = 3.01219 3.34318 3.18199
# Velocity P-wave (km/s) = 6.38754 6.84455 6.61999
#
# Compressibility (1/GPa) = 0.02091257
#
# Stress axis : x y z
#
# Youngs Moduli (GPa) = 35.04697 32.68726 45.63484
#
# Poissons Ratio (x) = 0.39632 0.31518
# Poissons Ratio (y) = 0.42493 0.50345
# Poissons Ratio (z) = 0.24206 0.36061
#
# Static dielectric constant tensor:
#      x y z
#    x 1.574910 0.000000 -0.004520 
#    y 0.000000 1.554780 0.000000 
#    z -0.004520 0.000000 1.543420 
# 
# From -- ./inp_files/237570.got.cif
#   From: 2010.05.17/outbox.cif.g08.bks.cpg/sg12_119_cif.got.tgz:237570.got - 2010.06.03 13:09:07.
