data_PCOD9193619
_publ_section_title
;
Structure prediction by ZEFSAII (Michael W. Deem and Ramdas Pophale) SiO2 
 PCOD9193619
Probable space group: C 2/M
;
_chemical_formula_sum "Si O2"
_cell_formula_units_Z 58
_cell_length_a 12.190101
_cell_length_b 12.941253
_cell_length_c 17.220455
_cell_angle_alpha 90.000000
_cell_angle_beta 89.630326
_cell_angle_gamma 90.000000
_cell_volume 2716.559453
_symmetry_space_group_name_H-M "C 2/M"
_symmetry_group_IT_number 12
_symmetry_cell_setting 'monoclinic'
loop_
_space_group_symop_operation_xyz
x,y,z
-x,y,-z
-x,-y,-z
x,-y,z
1/2+x,1/2+y,z
1/2-x,1/2+y,-z
1/2-x,1/2-y,-z
1/2+x,1/2-y,z
loop_
_atom_site_type_symbol
_atom_site_label
_atom_site_fract_x
_atom_site_fract_y
_atom_site_fract_z
Si Si1 0.279075 0.887655 0.721426
Si Si2 0.896763 0.336208 0.452075
Si Si3 0.814115 0.112989 0.452154
Si Si4 0.526816 0.173031 0.720037
Si Si5 0.282587 0.194399 0.172711
Si Si6 0.085166 0.199740 0.945404
Si Si7 0.042111 0.879990 0.207923
Si Si8 0.000000 0.000000 0.000000
O O1 0.240397 0.873987 0.632927
O O2 0.410252 0.882190 0.724076
O O3 0.235170 0.797302 0.775280
O O4 0.240635 0.000000 0.748663
O O5 0.887139 0.212830 0.465228
O O6 0.784492 0.381975 0.485364
O O7 0.915644 0.351795 0.361215
O O8 0.000000 0.376126 0.500000
O O9 0.867129 0.000000 0.454632
O O10 0.609528 0.144453 0.788992
O O11 0.493811 0.295717 0.727477
O O12 0.313677 0.234151 0.086714
O O13 0.170517 0.132821 0.185915
O O14 0.024497 0.157404 0.867616
O O15 0.094097 0.092446 0.992111
O O16 0.000000 0.262746 0.000000
O O17 0.020147 0.000000 0.225723
#
# Coordination Sequence:
#
# PCOD9193619 Si02
#       8
#     8   8   8   8   8   8   8   2
#     4  10  20  34  54  77 103 132 181 221 263 320
#     4  11  21  37  57  70 109 136 171 230 268 318
#     4  10  22  36  53  79  99 134 179 220 270 326
#     4  10  21  36  51  79 103 139 177 218 271 310
#     4  10  21  34  56  80 110 142 176 218 269 312
#     4   9  18  34  56  83 113 137 177 217 256 307
#     4  10  20  36  56  81 109 143 180 215 260 319
#     4   8  16  32  56  84 114 134 182 214 258 304
#
# _framework density 21.350535000000001
#
# number of rings (size 3 to 8) (size 9 to 14) (size 15 to 20)
#    0.414    1.655    3.448    0.000    0.966    3.310 
#    0.000    1.379    0.000    0.414    0.000    0.000 
#    0.000    0.000    0.000    0.000    0.000    0.000 
#
# Total GULP energy -161503.070811 kJ/mol
# GULP energy per Si atom -5569.071407 kJ/mol
# Density = 2.130194 g / cm^3
# Si number density = 21.350535 Si / 1000 Ang^3
#
#
#
# Elastic Constant Matrix: (Units=GPa)
#
#
# Indices 1 2 3 4 5 6 
#
# 1 78.9643 -3.3639 -1.0035 0.0000 -1.5222 0.0000
# 2 -3.3639 73.6294 5.6900 0.0000 6.9218 0.0000
# 3 -1.0035 5.6900 55.6081 0.0000 -19.9020 0.0000
# 4 0.0000 0.0000 0.0000 14.4851 0.0000 7.5119
# 5 -1.5222 6.9218 -19.9020 0.0000 35.4755 0.0000
# 6 0.0000 0.0000 0.0000 7.5119 0.0000 -2.4658
#
#
#
# Elastic Compliance Matrix: (Units=1/GPa)
#
#
# Indices 1 2 3 4 5 6 
#
# 1 0.012703 0.000482 0.000427 0.000000 0.000691 0.000000
# 2 0.000482 0.014260 -0.003051 0.000000 -0.004474 0.000000
# 3 0.000427 -0.003051 0.023176 0.000000 0.013616 0.000000
# 4 0.000000 0.000000 0.000000 0.026760 0.000000 0.081522
# 5 0.000691 -0.004474 0.013616 0.000000 0.036729 0.000000
# 6 0.000000 0.000000 0.000000 0.081522 0.000000 -0.157196
#
#
# Mechanical properties :
#
#
# Convention : Reuss Voigt Hill
#
# Bulk Modulus (GPa) = 21.80784 23.42744 22.61764
# Shear Modulus (GPa) = -208.34124 23.29089 -92.52517
#
# Velocity S-wave (km/s) = -9.88904 3.30643 -6.59017
# Velocity P-wave (km/s) = 10.96150 5.05700 6.87682
#
# Compressibility (1/GPa) = 0.04585506
#
# Stress axis : x y z
#
# Youngs Moduli (GPa) = 78.72001 70.12649 43.14827
#
# Poissons Ratio (x) = -0.03383 -0.01842
# Poissons Ratio (y) = -0.03798 0.13167
# Poissons Ratio (z) = -0.03361 0.21399
#
# Static dielectric constant tensor:
#      x y z
#    x 1.805650 0.000000 -0.013960 
#    y 0.000000 1.788380 0.000000 
#    z -0.013960 0.000000 1.810530 
# 
# From -- ./inp_files/262940.got.cif
#   From: 2010.05.17/outbox.cif.g08.bks.cpg/sg12_132_cif.got.tgz:262940.got - 2010.06.03 13:09:07.
