data_PCOD9193087
_publ_section_title
;
Structure prediction by ZEFSAII (Michael W. Deem and Ramdas Pophale) SiO2 
 PCOD9193087
Probable space group: C 2/M
;
_chemical_formula_sum "Si O2"
_cell_formula_units_Z 48
_cell_length_a 13.105751
_cell_length_b 39.776128
_cell_length_c 14.032512
_cell_angle_alpha 90.000000
_cell_angle_beta 22.068015
_cell_angle_gamma 90.000000
_cell_volume 2748.331389
_symmetry_space_group_name_H-M "C 2/M"
_symmetry_group_IT_number 12
_symmetry_cell_setting 'monoclinic'
loop_
_space_group_symop_operation_xyz
x,y,z
-x,y,-z
-x,-y,-z
x,-y,z
1/2+x,1/2+y,z
1/2-x,1/2+y,-z
1/2-x,1/2-y,-z
1/2+x,1/2-y,z
loop_
_atom_site_type_symbol
_atom_site_label
_atom_site_fract_x
_atom_site_fract_y
_atom_site_fract_z
Si Si1 0.617364 0.461635 0.506171
Si Si2 0.108325 0.714980 0.014415
Si Si3 0.242375 0.852509 0.001300
Si Si4 0.128084 0.335605 0.495085
Si Si5 0.382557 0.919666 0.994005
Si Si6 0.607200 0.242724 0.514569
O O1 0.500000 0.463437 0.500000
O O2 0.661742 0.500000 0.499870
O O3 0.387068 0.442240 0.763906
O O4 0.890514 0.440115 0.260912
O O5 0.872327 0.734200 0.276109
O O6 0.189892 0.680729 0.995505
O O7 0.367676 0.739226 0.779252
O O8 0.000000 0.708475 0.000000
O O9 0.313549 0.884739 0.003376
O O10 0.926892 0.851308 0.244691
O O11 0.427094 0.851218 0.747069
O O12 0.158701 0.295983 0.494397
O O13 0.000000 0.338268 0.500000
O O14 0.500000 0.914323 0.000000
O O15 0.500000 0.241031 0.500000
#
# Coordination Sequence:
#
# PCOD9193087 Si02
#       6
#     8   8   8   8   8   8
#     4   9  17  31  53  79 112 152 178 195 229 285
#     4  10  20  34  52  77 105 132 167 208 262 331
#     4  12  23  35  55  77 104 140 171 209 270 323
#     4  11  24  40  54  71  97 132 183 237 271 301
#     4  10  20  34  52  81 118 144 170 205 243 302
#     4   9  19  35  52  70  97 132 173 225 268 305
#
# _framework density 17.465143000000001
#
# number of rings (size 3 to 8) (size 9 to 14) (size 15 to 20)
#    0.000    1.833    0.000    4.500    0.000    8.667 
#    0.000    6.667    0.000    0.000    0.000    0.000 
#    0.000   46.667    0.000    0.000    0.000    0.000 
#
# Total GULP energy -134074.336953 kJ/mol
# GULP energy per Si atom -5586.430706 kJ/mol
# Density = 1.742539 g / cm^3
# Si number density = 17.465143 Si / 1000 Ang^3
#
#
#
# Elastic Constant Matrix: (Units=GPa)
#
#
# Indices 1 2 3 4 5 6 
#
# 1 101.8347 41.0023 43.5712 0.0000 -7.6274 0.0000
# 2 41.0023 133.5369 67.7553 0.0000 -19.3971 0.0000
# 3 43.5712 67.7553 168.7111 0.0000 -28.7550 0.0000
# 4 0.0000 0.0000 0.0000 15.5575 0.0000 -4.0689
# 5 -7.6274 -19.3971 -28.7550 0.0000 13.4179 0.0000
# 6 0.0000 0.0000 0.0000 -4.0689 0.0000 21.5508
#
#
#
# Elastic Compliance Matrix: (Units=1/GPa)
#
#
# Indices 1 2 3 4 5 6 
#
# 1 0.011752 -0.002766 -0.002312 0.000000 -0.002271 0.000000
# 2 -0.002766 0.010742 -0.001924 0.000000 0.009834 0.000000
# 3 -0.002312 -0.001924 0.010396 0.000000 0.018184 0.000000
# 4 0.000000 0.000000 0.000000 0.067617 0.000000 0.012767
# 5 -0.002271 0.009834 0.018184 0.000000 0.126423 0.000000
# 6 0.000000 0.000000 0.000000 0.012767 0.000000 0.048812
#
#
# Mechanical properties :
#
#
# Convention : Reuss Voigt Hill
#
# Bulk Modulus (GPa) = 52.94062 78.74890 65.84476
# Shear Modulus (GPa) = 16.88955 26.88883 21.88919
#
# Velocity S-wave (km/s) = 3.11311 3.92799 3.54405
# Velocity P-wave (km/s) = 6.58026 8.10921 7.38441
#
# Compressibility (1/GPa) = 0.01888909
#
# Stress axis : x y z
#
# Youngs Moduli (GPa) = 85.08994 93.08960 96.18888
#
# Poissons Ratio (x) = 0.25744 0.22235
# Poissons Ratio (y) = 0.23532 0.18505
# Poissons Ratio (z) = 0.19669 0.17908
#
# Static dielectric constant tensor:
#      x y z
#    x 1.600230 0.000000 -0.000940 
#    y 0.000000 1.558460 0.000000 
#    z -0.000940 0.000000 1.591320 
# 
# From -- ./inp_files/219545.got.cif
#   From: 2010.05.17/outbox.cif.g08.bks.cpg/sg12_110_cif.got.tgz:219545.got - 2010.06.03 13:09:07.
