data_PCOD9193483
_publ_section_title
;
Structure prediction by ZEFSAII (Michael W. Deem and Ramdas Pophale) SiO2 
 PCOD9193483
Probable space group: C 2/M
;
_chemical_formula_sum "Si O2"
_cell_formula_units_Z 40
_cell_length_a 18.484018
_cell_length_b 23.870045
_cell_length_c 8.104141
_cell_angle_alpha 90.000000
_cell_angle_beta 147.072823
_cell_angle_gamma 90.000000
_cell_volume 1943.632719
_symmetry_space_group_name_H-M "C 2/M"
_symmetry_group_IT_number 12
_symmetry_cell_setting 'monoclinic'
loop_
_space_group_symop_operation_xyz
x,y,z
-x,y,-z
-x,-y,-z
x,-y,z
1/2+x,1/2+y,z
1/2-x,1/2+y,-z
1/2-x,1/2-y,-z
1/2+x,1/2-y,z
loop_
_atom_site_type_symbol
_atom_site_label
_atom_site_fract_x
_atom_site_fract_y
_atom_site_fract_z
Si Si1 0.686873 0.376520 0.558148
Si Si2 0.641702 0.706592 0.739297
Si Si3 0.080352 0.909849 0.807655
Si Si4 0.700002 0.937475 0.524917
Si Si5 0.932700 0.566050 0.203570
O O1 0.667041 0.315461 0.601814
O O2 0.539258 0.402431 0.290463
O O3 0.744577 0.389566 0.489071
O O4 0.796914 0.405357 0.887724
O O5 0.500000 0.734756 0.500000
O O6 0.629579 0.650304 0.829400
O O7 0.750000 0.750000 0.000000
O O8 0.000000 0.936389 0.500000
O O9 0.206242 0.937607 0.133663
O O10 0.548194 0.928251 0.287547
O O11 0.710145 0.000000 0.466537
O O12 0.907111 0.500000 0.178308
O O13 0.000000 0.588396 0.500000
#
# Coordination Sequence:
#
# PCOD9193483 Si02
#       5
#     8   8   8   8   8
#     4  10  20  35  55  82 114 147 186 236 289 341
#     4   9  20  39  61  83 108 144 189 239 292 347
#     4   9  20  37  56  81 112 148 193 238 283 343
#     4  11  22  35  55  85 120 156 193 236 286 339
#     4  10  20  34  53  79 113 154 197 236 278 337
#
# _framework density 20.580020999999999
#
# number of rings (size 3 to 8) (size 9 to 14) (size 15 to 20)
#    0.000    2.600    0.000    4.200    0.000    6.800 
#    0.000    4.000    0.000    4.800    0.000    0.000 
#    0.000    0.000    0.000    0.000    0.000    0.000 
#
# Total GULP energy -111500.327001 kJ/mol
# GULP energy per Si atom -5575.016350 kJ/mol
# Density = 2.053318 g / cm^3
# Si number density = 20.580021 Si / 1000 Ang^3
#
#
#
# Elastic Constant Matrix: (Units=GPa)
#
#
# Indices 1 2 3 4 5 6 
#
# 1 81.7781 25.2339 19.2748 0.0000 7.4468 0.0000
# 2 25.2339 46.5046 33.6684 0.0000 13.2618 0.0000
# 3 19.2748 33.6684 116.9038 0.0000 19.3819 0.0000
# 4 0.0000 0.0000 0.0000 -22.0331 0.0000 7.1086
# 5 7.4468 13.2618 19.3819 0.0000 39.3440 0.0000
# 6 0.0000 0.0000 0.0000 7.1086 0.0000 5.5657
#
#
#
# Elastic Compliance Matrix: (Units=1/GPa)
#
#
# Indices 1 2 3 4 5 6 
#
# 1 0.014690 -0.007842 -0.000153 0.000000 -0.000061 0.000000
# 2 -0.007842 0.032616 -0.007104 0.000000 -0.006010 0.000000
# 3 -0.000153 -0.007104 0.011133 0.000000 -0.003061 0.000000
# 4 0.000000 0.000000 0.000000 -0.032142 0.000000 0.041052
# 5 -0.000061 -0.006010 -0.003061 0.000000 0.028962 0.000000
# 6 0.000000 0.000000 0.000000 0.041052 0.000000 0.127240
#
#
# Mechanical properties :
#
#
# Convention : Reuss Voigt Hill
#
# Bulk Modulus (GPa) = 35.41193 44.61566 40.01379
# Shear Modulus (GPa) = 22.51136 15.70929 19.11032
#
# Velocity S-wave (km/s) = 3.31092 2.76584 3.05058
# Velocity P-wave (km/s) = 5.64452 5.65031 5.64741
#
# Compressibility (1/GPa) = 0.02823907
#
# Stress axis : x y z
#
# Youngs Moduli (GPa) = 68.07432 30.66015 89.82567
#
# Poissons Ratio (x) = 0.24045 0.01376
# Poissons Ratio (y) = 0.53387 0.63811
# Poissons Ratio (z) = 0.01043 0.21781
#
# Static dielectric constant tensor:
#      x y z
#    x 1.806120 0.000000 -0.033610 
#    y 0.000000 1.715320 0.000000 
#    z -0.033610 0.000000 1.728630 
# 
# From -- ./inp_files/79300.got.cif
#   From: 2010.05.17/outbox.cif.g08.bks.cpg/sg12_40_cif.got.tgz:79300.got - 2010.06.03 13:09:07.
