data_PCOD9193802
_publ_section_title
;
Structure prediction by ZEFSAII (Michael W. Deem and Ramdas Pophale) SiO2 
 PCOD9193802
Probable space group: C 2/M
;
_chemical_formula_sum "Si O2"
_cell_formula_units_Z 56
_cell_length_a 32.372458
_cell_length_b 8.781095
_cell_length_c 20.309366
_cell_angle_alpha 90.000000
_cell_angle_beta 150.649818
_cell_angle_gamma 90.000000
_cell_volume 2829.738035
_symmetry_space_group_name_H-M "C 2/M"
_symmetry_group_IT_number 12
_symmetry_cell_setting 'monoclinic'
loop_
_space_group_symop_operation_xyz
x,y,z
-x,y,-z
-x,-y,-z
x,-y,z
1/2+x,1/2+y,z
1/2-x,1/2+y,-z
1/2-x,1/2-y,-z
1/2+x,1/2-y,z
loop_
_atom_site_type_symbol
_atom_site_label
_atom_site_fract_x
_atom_site_fract_y
_atom_site_fract_z
Si Si1 0.282255 0.182987 0.113627
Si Si2 0.033900 0.174136 0.621176
Si Si3 0.783806 0.185749 0.836452
Si Si4 0.415094 0.320422 0.916104
Si Si5 0.361458 0.329400 0.597070
Si Si6 0.338550 0.169445 0.693116
Si Si7 0.877159 0.682040 0.476686
O O1 0.377392 0.240858 0.254690
O O2 0.230710 0.231814 0.107914
O O3 0.279900 0.000000 0.107723
O O4 0.250000 0.250000 0.000000
O O5 0.000000 0.168080 0.500000
O O6 0.963109 0.262928 0.563006
O O7 0.043576 0.000000 0.658957
O O8 0.869563 0.238698 0.918979
O O9 0.702945 0.233097 0.679484
O O10 0.784773 0.000000 0.836729
O O11 0.429464 0.500000 0.946196
O O12 0.348303 0.289150 0.765358
O O13 0.500000 0.256071 0.000000
O O14 0.397565 0.500000 0.650737
O O15 0.386325 0.230882 0.695087
O O16 0.260102 0.342693 0.459724
O O17 0.377279 0.251842 0.549527
O O18 0.367268 0.000000 0.752432
O O19 0.873334 0.500000 0.475014
#
# Coordination Sequence:
#
# PCOD9193802 Si02
#       7
#     8   8   8   8   8   8   8
#     4  11  23  43  66  90 125 168 212 259 321 383
#     4  11  23  39  62  94 127 157 203 261 313 374
#     4   9  19  36  61  88 115 154 202 252 309 374
#     4  10  20  37  60  84 113 154 203 251 303 364
#     4  10  20  34  54  82 114 152 191 239 297 355
#     4  10  20  34  54  80 113 151 192 241 296 352
#     4  11  20  35  61  89 119 155 198 250 309 371
#
# _framework density 19.789816999999999
#
# number of rings (size 3 to 8) (size 9 to 14) (size 15 to 20)
#    0.000    1.714    2.857    2.143    0.000    2.000 
#    2.571    1.429    0.000    0.000    0.000    0.000 
#    0.000    0.000    0.000    0.000    0.000    0.000 
#
# Total GULP energy -156153.709760 kJ/mol
# GULP energy per Si atom -5576.918206 kJ/mol
# Density = 1.974477 g / cm^3
# Si number density = 19.789817 Si / 1000 Ang^3
#
#
#
# Elastic Constant Matrix: (Units=GPa)
#
#
# Indices 1 2 3 4 5 6 
#
# 1 184.0139 33.8426 44.5505 0.0000 -0.9067 0.0000
# 2 33.8426 44.8987 4.0636 0.0000 7.2618 0.0000
# 3 44.5505 4.0636 46.3582 0.0000 5.2794 0.0000
# 4 0.0000 0.0000 0.0000 22.8510 0.0000 -0.0517
# 5 -0.9067 7.2618 5.2794 0.0000 29.2533 0.0000
# 6 0.0000 0.0000 0.0000 -0.0517 0.0000 10.8794
#
#
#
# Elastic Compliance Matrix: (Units=1/GPa)
#
#
# Indices 1 2 3 4 5 6 
#
# 1 0.008543 -0.006240 -0.008035 0.000000 0.003264 0.000000
# 2 -0.006240 0.027852 0.004457 0.000000 -0.007912 0.000000
# 3 -0.008035 0.004457 0.029666 0.000000 -0.006709 0.000000
# 4 0.000000 0.000000 0.000000 0.043762 0.000000 0.000208
# 5 0.003264 -0.007912 -0.006709 0.000000 0.037460 0.000000
# 6 0.000000 0.000000 0.000000 0.000208 0.000000 0.091917
#
#
# Mechanical properties :
#
#
# Convention : Reuss Voigt Hill
#
# Bulk Modulus (GPa) = 21.54033 48.90933 35.22483
# Shear Modulus (GPa) = 18.22726 25.45102 21.83914
#
# Velocity S-wave (km/s) = 3.03816 3.59007 3.32558
# Velocity P-wave (km/s) = 4.81824 6.47710 5.70825
#
# Compressibility (1/GPa) = 0.04642453
#
# Stress axis : x y z
#
# Youngs Moduli (GPa) = 117.04883 35.90367 33.70829
#
# Poissons Ratio (x) = 0.22405 0.27085
# Poissons Ratio (y) = 0.73043 -0.15022
# Poissons Ratio (z) = 0.94049 -0.16001
#
# Static dielectric constant tensor:
#      x y z
#    x 1.722940 0.000000 0.013230 
#    y 0.000000 1.702190 0.000000 
#    z 0.013230 0.000000 1.715320 
# 
# From -- ./inp_files/292509.got.cif
#   From: 2010.05.17/outbox.cif.g08.bks.cpg/sg12_147_cif.got.tgz:292509.got - 2010.06.03 13:09:07.
