data_PCOD9193873
_publ_section_title
;
Structure prediction by ZEFSAII (Michael W. Deem and Ramdas Pophale) SiO2 
 PCOD9193873
Probable space group: C 2/M
;
_chemical_formula_sum "Si O2"
_cell_formula_units_Z 40
_cell_length_a 8.387942
_cell_length_b 24.236235
_cell_length_c 12.020421
_cell_angle_alpha 90.000000
_cell_angle_beta 50.575586
_cell_angle_gamma 90.000000
_cell_volume 1887.634743
_symmetry_space_group_name_H-M "C 2/M"
_symmetry_group_IT_number 12
_symmetry_cell_setting 'monoclinic'
loop_
_space_group_symop_operation_xyz
x,y,z
-x,y,-z
-x,-y,-z
x,-y,z
1/2+x,1/2+y,z
1/2-x,1/2+y,-z
1/2-x,1/2-y,-z
1/2+x,1/2-y,z
loop_
_atom_site_type_symbol
_atom_site_label
_atom_site_fract_x
_atom_site_fract_y
_atom_site_fract_z
Si Si1 0.205746 0.334735 0.954298
Si Si2 0.496452 0.062837 0.637946
Si Si3 0.134565 0.860814 0.764195
Si Si4 0.717133 0.661217 0.467038
Si Si5 0.615382 0.226829 0.221630
O O1 0.397926 0.373158 0.893426
O O2 0.309651 0.289518 0.825034
O O3 0.132868 0.300647 0.093156
O O4 0.000000 0.361886 0.000000
O O5 0.500000 0.062438 0.500000
O O6 0.279536 0.092894 0.752721
O O7 0.666735 0.103704 0.615972
O O8 0.514669 0.000000 0.667173
O O9 0.177152 0.850790 0.614850
O O10 0.208181 0.803578 0.785790
O O11 0.500000 0.670944 0.500000
O O12 0.892009 0.708876 0.370280
#
# Coordination Sequence:
#
# PCOD9193873 Si02
#       5
#     8   8   8   8   8
#     4  11  21  34  53  75 103 142 184 222 261 311
#     4   8  16  33  56  80 107 140 176 215 269 332
#     4  10  20  35  56  80 108 143 181 222 268 318
#     4  10  20  34  54  82 111 139 179 228 269 305
#     4  10  20  35  52  74 107 146 181 213 262 323
#
# _framework density 21.190539999999999
#
# number of rings (size 3 to 8) (size 9 to 14) (size 15 to 20)
#    0.000    2.200    0.000    6.000    0.000    1.200 
#    0.000    5.000    0.000   10.200    0.000    0.000 
#    0.000    0.000    0.000    0.000    0.000    0.000 
#
# Total GULP energy -111597.317902 kJ/mol
# GULP energy per Si atom -5579.865895 kJ/mol
# Density = 2.114231 g / cm^3
# Si number density = 21.190540 Si / 1000 Ang^3
#
#
#
# Elastic Constant Matrix: (Units=GPa)
#
#
# Indices 1 2 3 4 5 6 
#
# 1 123.5604 5.6345 35.5596 0.0000 -41.2878 0.0000
# 2 5.6345 53.1077 21.3594 0.0000 -14.6759 0.0000
# 3 35.5596 21.3594 70.0162 0.0000 -33.5528 0.0000
# 4 0.0000 0.0000 0.0000 6.2989 0.0000 2.5887
# 5 -41.2878 -14.6759 -33.5528 0.0000 42.5481 0.0000
# 6 0.0000 0.0000 0.0000 2.5887 0.0000 19.2067
#
#
#
# Elastic Compliance Matrix: (Units=1/GPa)
#
#
# Indices 1 2 3 4 5 6 
#
# 1 0.012283 0.002487 -0.001405 0.000000 0.011669 0.000000
# 2 0.002487 0.022315 -0.005185 0.000000 0.006021 0.000000
# 3 -0.001405 -0.005185 0.024220 0.000000 0.015948 0.000000
# 4 0.000000 0.000000 0.000000 0.168067 0.000000 -0.022652
# 5 0.011669 0.006021 0.015948 0.000000 0.049480 0.000000
# 6 0.000000 0.000000 0.000000 -0.022652 0.000000 0.055118
#
#
# Mechanical properties :
#
#
# Convention : Reuss Voigt Hill
#
# Bulk Modulus (GPa) = 19.75810 41.31014 30.53412
# Shear Modulus (GPa) = 14.02283 25.88613 19.95448
#
# Velocity S-wave (km/s) = 2.57524 3.49892 3.07199
# Velocity P-wave (km/s) = 4.26459 5.98833 5.19841
#
# Compressibility (1/GPa) = 0.05061216
#
# Stress axis : x y z
#
# Youngs Moduli (GPa) = 81.41020 44.81270 41.28789
#
# Poissons Ratio (x) = -0.11143 0.05800
# Poissons Ratio (y) = -0.20243 0.21408
# Poissons Ratio (z) = 0.11437 0.23235
#
# Static dielectric constant tensor:
#      x y z
#    x 1.818780 0.000000 -0.000100 
#    y 0.000000 1.776380 0.000000 
#    z -0.000100 0.000000 1.826020 
# 
# From -- ./inp_files/41055.got.cif
#   From: 2010.05.17/outbox.cif.g08.bks.cpg/sg12_21_cif.got.tgz:41055.got - 2010.06.03 13:09:07.
