data_PCOD9193933
_publ_section_title
;
Structure prediction by ZEFSAII (Michael W. Deem and Ramdas Pophale) SiO2 
 PCOD9193933
Probable space group: C 2/M
;
_chemical_formula_sum "Si O2"
_cell_formula_units_Z 48
_cell_length_a 8.614094
_cell_length_b 17.087983
_cell_length_c 17.501013
_cell_angle_alpha 90.000000
_cell_angle_beta 117.852095
_cell_angle_gamma 90.000000
_cell_volume 2277.680321
_symmetry_space_group_name_H-M "C 2/M"
_symmetry_group_IT_number 12
_symmetry_cell_setting 'monoclinic'
loop_
_space_group_symop_operation_xyz
x,y,z
-x,y,-z
-x,-y,-z
x,-y,z
1/2+x,1/2+y,z
1/2-x,1/2+y,-z
1/2-x,1/2-y,-z
1/2+x,1/2-y,z
loop_
_atom_site_type_symbol
_atom_site_label
_atom_site_fract_x
_atom_site_fract_y
_atom_site_fract_z
Si Si1 0.080445 0.412333 0.601623
Si Si2 0.705467 0.410824 0.973288
Si Si3 0.693073 0.638242 0.129773
Si Si4 0.941250 0.616652 0.721840
Si Si5 0.806838 0.911804 0.194992
Si Si6 0.371026 0.295686 0.732599
O O1 0.162251 0.500000 0.620703
O O2 0.213278 0.343146 0.656304
O O3 0.000000 0.398811 0.500000
O O4 0.931472 0.412523 0.633222
O O5 0.752496 0.500000 0.006831
O O6 0.493128 0.406187 0.913008
O O7 0.784222 0.393613 0.908006
O O8 0.740940 0.352294 0.051689
O O9 0.662375 0.708233 0.183007
O O10 0.860727 0.596778 0.205452
O O11 0.815176 0.587890 0.759385
O O12 0.909062 0.709766 0.712051
O O13 0.960001 0.849726 0.240770
O O14 0.877637 0.000000 0.201246
#
# Coordination Sequence:
#
# PCOD9193933 Si02
#       6
#     8   8   8   8   8   8
#     4  10  22  41  65  89 110 142 189 231 273 340
#     4   9  18  33  53  79 112 153 199 238 280 330
#     4   9  18  33  53  75 105 151 195 227 262 324
#     4  11  22  37  57  84 116 148 185 232 287 338
#     4  10  20  34  54  83 114 147 189 238 284 324
#     4  10  21  39  58  80 115 154 185 221 282 347
#
# _framework density 21.074072000000001
#
# number of rings (size 3 to 8) (size 9 to 14) (size 15 to 20)
#    0.000    2.167    0.000    4.000    0.000   10.000 
#    0.000   17.500    0.000    3.000    0.000    0.000 
#    0.000    0.000    0.000    0.000    0.000    0.000 
#
# Total GULP energy -133796.130130 kJ/mol
# GULP energy per Si atom -5574.838755 kJ/mol
# Density = 2.102611 g / cm^3
# Si number density = 21.074072 Si / 1000 Ang^3
#
#
#
# Elastic Constant Matrix: (Units=GPa)
#
#
# Indices 1 2 3 4 5 6 
#
# 1 73.1842 3.0121 50.3158 0.0000 -33.3533 0.0000
# 2 3.0121 100.8839 42.7608 0.0000 -3.4736 0.0000
# 3 50.3158 42.7608 137.7101 0.0000 -41.1658 0.0000
# 4 0.0000 0.0000 0.0000 17.2075 0.0000 -13.5458
# 5 -33.3533 -3.4736 -41.1658 0.0000 35.5347 0.0000
# 6 0.0000 0.0000 0.0000 -13.5458 0.0000 14.8926
#
#
#
# Elastic Compliance Matrix: (Units=1/GPa)
#
#
# Indices 1 2 3 4 5 6 
#
# 1 0.024980 0.001570 -0.003916 0.000000 0.019063 0.000000
# 2 0.001570 0.012021 -0.005376 0.000000 -0.003579 0.000000
# 3 -0.003916 -0.005376 0.013930 0.000000 0.011936 0.000000
# 4 0.000000 0.000000 0.000000 0.204633 0.000000 0.186127
# 5 0.019063 -0.003579 0.011936 0.000000 0.059512 0.000000
# 6 0.000000 0.000000 0.000000 0.186127 0.000000 0.236441
#
#
# Mechanical properties :
#
#
# Convention : Reuss Voigt Hill
#
# Bulk Modulus (GPa) = 28.17947 55.99506 42.08727
# Shear Modulus (GPa) = 8.63870 27.90626 18.27248
#
# Velocity S-wave (km/s) = 2.02685 3.64290 2.94778
# Velocity P-wave (km/s) = 4.34490 6.65752 5.62142
#
# Compressibility (1/GPa) = 0.03548683
#
# Stress axis : x y z
#
# Youngs Moduli (GPa) = 40.03222 83.18676 71.78724
#
# Poissons Ratio (x) = -0.13064 0.28112
# Poissons Ratio (y) = -0.06287 0.38596
# Poissons Ratio (z) = 0.15677 0.44725
#
# Static dielectric constant tensor:
#      x y z
#    x 1.817710 0.000000 -0.036700 
#    y 0.000000 1.766770 0.000000 
#    z -0.036700 0.000000 1.765720 
# 
# From -- ./inp_files/256730.got.cif
#   From: 2010.05.17/outbox.cif.g08.bks.cpg/sg12_129_cif.got.tgz:256730.got - 2010.06.03 13:09:07.
