data_PCOD9193148
_publ_section_title
;
Structure prediction by ZEFSAII (Michael W. Deem and Ramdas Pophale) SiO2 
 PCOD9193148
Probable space group: C 2/M
;
_chemical_formula_sum "Si O2"
_cell_formula_units_Z 56
_cell_length_a 15.021052
_cell_length_b 7.667874
_cell_length_c 30.305919
_cell_angle_alpha 90.000000
_cell_angle_beta 126.761447
_cell_angle_gamma 90.000000
_cell_volume 2796.456572
_symmetry_space_group_name_H-M "C 2/M"
_symmetry_group_IT_number 12
_symmetry_cell_setting 'monoclinic'
loop_
_space_group_symop_operation_xyz
x,y,z
-x,y,-z
-x,-y,-z
x,-y,z
1/2+x,1/2+y,z
1/2-x,1/2+y,-z
1/2-x,1/2-y,-z
1/2+x,1/2-y,z
loop_
_atom_site_type_symbol
_atom_site_label
_atom_site_fract_x
_atom_site_fract_y
_atom_site_fract_z
Si Si1 0.471915 0.287813 0.268251
Si Si2 0.548275 0.213729 0.061673
Si Si3 0.777596 0.293348 0.644806
Si Si4 0.849047 0.707896 0.063231
Si Si5 0.833877 0.291981 0.564034
Si Si6 0.295008 0.297938 0.145283
Si Si7 0.917817 0.205102 0.350563
O O1 0.474398 0.500000 0.269363
O O2 0.599064 0.230667 0.298850
O O3 0.387402 0.224754 0.205594
O O4 0.430429 0.225414 0.304245
O O5 0.462156 0.265042 0.073589
O O6 0.671399 0.279458 0.108303
O O7 0.551514 0.000000 0.060869
O O8 0.500000 0.270155 0.000000
O O9 0.755832 0.500000 0.633963
O O10 0.788516 0.223102 0.597872
O O11 0.679317 0.221514 0.646819
O O12 0.851696 0.500000 0.069948
O O13 0.832490 0.790508 0.105808
O O14 0.750000 0.750000 0.000000
O O15 0.844062 0.500000 0.570857
O O16 0.750000 0.250000 0.500000
O O17 0.958491 0.223357 0.592889
O O18 0.282373 0.500000 0.154882
O O19 0.893203 0.000000 0.338118
#
# Coordination Sequence:
#
# PCOD9193148 Si02
#       7
#     8   8   8   8   8   8   8
#     4   9  19  34  54  77 102 133 171 217 263 308
#     4   9  17  32  53  73  97 133 168 201 249 311
#     4   9  19  35  56  78 105 139 177 220 262 304
#     4  11  21  34  54  77 100 131 168 208 255 309
#     4  10  20  34  52  79 112 145 177 218 264 308
#     4  10  20  36  54  75 104 135 170 211 257 313
#     4   9  18  35  56  77 102 139 181 219 260 308
#
# _framework density 20.025341999999998
#
# number of rings (size 3 to 8) (size 9 to 14) (size 15 to 20)
#    0.000    2.429    1.429    0.857    0.000    3.429 
#    0.000    7.857    0.000    0.000    0.000    0.000 
#    0.000    0.000    0.000    0.000    0.000    0.000 
#
# Total GULP energy -156209.162610 kJ/mol
# GULP energy per Si atom -5578.898665 kJ/mol
# Density = 1.997976 g / cm^3
# Si number density = 20.025342 Si / 1000 Ang^3
#
#
#
# Elastic Constant Matrix: (Units=GPa)
#
#
# Indices 1 2 3 4 5 6 
#
# 1 189.8592 -8.1175 79.8460 0.0000 18.1116 0.0000
# 2 -8.1175 32.0455 -21.2331 0.0000 -3.8714 0.0000
# 3 79.8460 -21.2331 159.9737 0.0000 13.9201 0.0000
# 4 0.0000 0.0000 0.0000 16.0659 0.0000 -1.5991
# 5 18.1116 -3.8714 13.9201 0.0000 14.0698 0.0000
# 6 0.0000 0.0000 0.0000 -1.5991 0.0000 10.8416
#
#
#
# Elastic Compliance Matrix: (Units=1/GPa)
#
#
# Indices 1 2 3 4 5 6 
#
# 1 0.007159 -0.001049 -0.003157 0.000000 -0.006380 0.000000
# 2 -0.001049 0.034745 0.004580 0.000000 0.006380 0.000000
# 3 -0.003157 0.004580 0.008722 0.000000 -0.003305 0.000000
# 4 0.000000 0.000000 0.000000 0.063171 0.000000 0.009318
# 5 -0.006380 0.006380 -0.003305 0.000000 0.084313 0.000000
# 6 0.000000 0.000000 0.000000 0.009318 0.000000 0.093612
#
#
# Mechanical properties :
#
#
# Convention : Reuss Voigt Hill
#
# Bulk Modulus (GPa) = 19.46500 53.65213 36.55857
# Shear Modulus (GPa) = 16.22856 30.28765 23.25811
#
# Velocity S-wave (km/s) = 2.84984 3.89326 3.41168
# Velocity P-wave (km/s) = 4.53543 6.86005 5.81508
#
# Compressibility (1/GPa) = 0.05137426
#
# Stress axis : x y z
#
# Youngs Moduli (GPa) = 139.69296 28.78072 114.64828
#
# Poissons Ratio (x) = 0.03020 0.36195
# Poissons Ratio (y) = 0.14658 -0.52512
# Poissons Ratio (z) = 0.44102 -0.13182
#
# Static dielectric constant tensor:
#      x y z
#    x 1.704390 0.000000 -0.010280 
#    y 0.000000 1.815590 0.000000 
#    z -0.010280 0.000000 1.694490 
# 
# From -- ./inp_files/338176.got.cif
#   From: 2010.05.17/outbox.cif.g08.bks.cpg/sg12_170_cif.got.tgz:338176.got - 2010.06.03 13:09:07.
