data_PCOD9193084
_publ_section_title
;
Structure prediction by ZEFSAII (Michael W. Deem and Ramdas Pophale) SiO2 
 PCOD9193084
Probable space group: C 2/M
;
_chemical_formula_sum "Si O2"
_cell_formula_units_Z 48
_cell_length_a 28.545538
_cell_length_b 13.386750
_cell_length_c 7.717393
_cell_angle_alpha 90.000000
_cell_angle_beta 72.504182
_cell_angle_gamma 90.000000
_cell_volume 2812.635781
_symmetry_space_group_name_H-M "C 2/M"
_symmetry_group_IT_number 12
_symmetry_cell_setting 'monoclinic'
loop_
_space_group_symop_operation_xyz
x,y,z
-x,y,-z
-x,-y,-z
x,-y,z
1/2+x,1/2+y,z
1/2-x,1/2+y,-z
1/2-x,1/2-y,-z
1/2+x,1/2-y,z
loop_
_atom_site_type_symbol
_atom_site_label
_atom_site_fract_x
_atom_site_fract_y
_atom_site_fract_z
Si Si1 0.776570 0.615786 0.618652
Si Si2 0.910162 0.884517 0.297145
Si Si3 0.821966 0.249533 0.273222
Si Si4 0.013114 0.121168 0.290256
Si Si5 0.694091 0.784729 0.083035
Si Si6 0.381745 0.385252 0.738443
O O1 0.770559 0.500000 0.583743
O O2 0.808306 0.675008 0.441524
O O3 0.723344 0.670150 0.683830
O O4 0.803458 0.631500 0.772997
O O5 0.871194 0.812580 0.252106
O O6 0.897148 0.885359 0.518201
O O7 0.967124 0.850642 0.221664
O O8 0.906160 0.000000 0.240977
O O9 0.824136 0.307785 0.089162
O O10 0.070211 0.146322 0.203145
O O11 0.000000 0.155475 0.500000
O O12 0.012005 0.000000 0.293840
O O13 0.661966 0.691335 0.184600
O O14 0.750000 0.750000 0.000000
O O15 0.368646 0.500000 0.797307
#
# Coordination Sequence:
#
# PCOD9193084 Si02
#       6
#     8   8   8   8   8   8
#     4  10  21  37  52  70 100 134 169 210 252 294
#     4   9  15  27  50  77 106 136 166 203 248 299
#     4  10  20  34  52  77 100 130 171 208 248 301
#     4   7  12  23  43  73 103 133 166 197 241 304
#     4  10  21  34  48  72 102 133 172 206 243 296
#     4   9  16  29  49  73 106 141 167 200 249 302
#
# _framework density 17.065843999999998
#
# number of rings (size 3 to 8) (size 9 to 14) (size 15 to 20)
#    0.000    2.833    1.667    2.500    0.000    4.000 
#    0.000    0.833    0.000    3.000    0.000    2.333 
#    0.000    2.667    0.000    0.000    0.000    0.000 
#
# Total GULP energy -133687.873747 kJ/mol
# GULP energy per Si atom -5570.328073 kJ/mol
# Density = 1.702700 g / cm^3
# Si number density = 17.065844 Si / 1000 Ang^3
#
#
#
# Elastic Constant Matrix: (Units=GPa)
#
#
# Indices 1 2 3 4 5 6 
#
# 1 103.7833 31.0907 23.1024 0.0000 2.4222 0.0000
# 2 31.0907 61.1984 21.8174 0.0000 0.4084 0.0000
# 3 23.1024 21.8174 52.6830 0.0000 10.7904 0.0000
# 4 0.0000 0.0000 0.0000 1.8733 0.0000 0.1117
# 5 2.4222 0.4084 10.7904 0.0000 30.2514 0.0000
# 6 0.0000 0.0000 0.0000 0.1117 0.0000 29.0448
#
#
#
# Elastic Compliance Matrix: (Units=1/GPa)
#
#
# Indices 1 2 3 4 5 6 
#
# 1 0.011798 -0.004847 -0.003222 0.000000 0.000270 0.000000
# 2 -0.004847 0.021381 -0.007281 0.000000 0.002697 0.000000
# 3 -0.003222 -0.007281 0.025176 0.000000 -0.008624 0.000000
# 4 0.000000 0.000000 0.000000 0.533941 0.000000 -0.002054
# 5 0.000270 0.002697 -0.008624 0.000000 0.036074 0.000000
# 6 0.000000 0.000000 0.000000 -0.002054 0.000000 0.034438
#
#
# Mechanical properties :
#
#
# Convention : Reuss Voigt Hill
#
# Bulk Modulus (GPa) = 36.15996 41.07621 38.61808
# Shear Modulus (GPa) = 7.11515 21.67749 14.39632
#
# Velocity S-wave (km/s) = 2.04409 3.56789 2.90759
# Velocity P-wave (km/s) = 5.17741 6.41051 5.82667
#
# Compressibility (1/GPa) = 0.02765490
#
# Stress axis : x y z
#
# Youngs Moduli (GPa) = 84.75702 46.77152 39.72074
#
# Poissons Ratio (x) = 0.22671 0.12797
# Poissons Ratio (y) = 0.41084 0.28920
# Poissons Ratio (z) = 0.27307 0.34054
#
# Static dielectric constant tensor:
#      x y z
#    x 1.609460 0.000000 0.024530 
#    y 0.000000 1.517360 0.000000 
#    z 0.024530 0.000000 1.654150 
# 
# From -- ./inp_files/103659.got.cif
#   From: 2010.05.17/outbox.cif.g08.bks.cpg/sg12_52_cif.got.tgz:103659.got - 2010.06.03 13:09:07.
