data_PCOD9193183
_publ_section_title
;
Structure prediction by ZEFSAII (Michael W. Deem and Ramdas Pophale) SiO2 
 PCOD9193183
Probable space group: C 2/M
;
_chemical_formula_sum "Si O2"
_cell_formula_units_Z 48
_cell_length_a 13.273890
_cell_length_b 13.234502
_cell_length_c 11.691785
_cell_angle_alpha 90.000000
_cell_angle_beta 104.229959
_cell_angle_gamma 90.000000
_cell_volume 1990.913750
_symmetry_space_group_name_H-M "C 2/M"
_symmetry_group_IT_number 12
_symmetry_cell_setting 'monoclinic'
loop_
_space_group_symop_operation_xyz
x,y,z
-x,y,-z
-x,-y,-z
x,-y,z
1/2+x,1/2+y,z
1/2-x,1/2+y,-z
1/2-x,1/2-y,-z
1/2+x,1/2-y,z
loop_
_atom_site_type_symbol
_atom_site_label
_atom_site_fract_x
_atom_site_fract_y
_atom_site_fract_z
Si Si1 0.040422 0.175374 0.173291
Si Si2 0.340758 0.612806 0.005174
Si Si3 0.591953 0.675615 0.441691
Si Si4 0.952556 0.392131 0.858825
Si Si5 0.821178 0.618467 0.464606
Si Si6 0.831898 0.616967 0.203881
O O1 0.093322 0.106793 0.093882
O O2 0.058151 0.144359 0.306095
O O3 0.097575 0.283470 0.169524
O O4 0.917738 0.174712 0.109246
O O5 0.325011 0.500000 0.049581
O O6 0.232960 0.654718 0.924398
O O7 0.500000 0.644822 0.500000
O O8 0.707162 0.630220 0.489147
O O9 0.606408 0.797863 0.455562
O O10 0.897442 0.500000 0.826426
O O11 0.047820 0.385327 0.796516
O O12 0.000000 0.393480 0.000000
O O13 0.853744 0.500000 0.478147
O O14 0.815286 0.654139 0.328792
O O15 0.798354 0.500000 0.201555
#
# Coordination Sequence:
#
# PCOD9193183 Si02
#       6
#     8   8   8   8   8   8
#     4  11  20  36  57  86 117 156 193 242 302 357
#     4  10  20  36  60  88 110 148 201 243 289 362
#     4  11  24  40  63  95 128 161 212 268 311 362
#     4  10  20  34  52  82 120 153 194 242 299 361
#     4  10  22  42  64  89 124 169 215 255 307 375
#     4   9  18  36  61  83 113 158 200 244 295 361
#
# _framework density 24.109532999999999
#
# number of rings (size 3 to 8) (size 9 to 14) (size 15 to 20)
#    0.000    1.833    3.333    2.000    0.000    2.667 
#    0.000    0.000    0.000    2.000    0.000    0.000 
#    0.000    0.000    0.000    0.000    0.000    0.000 
#
# Total GULP energy -133921.461357 kJ/mol
# GULP energy per Si atom -5580.060890 kJ/mol
# Density = 2.405466 g / cm^3
# Si number density = 24.109533 Si / 1000 Ang^3
#
#
#
# Elastic Constant Matrix: (Units=GPa)
#
#
# Indices 1 2 3 4 5 6 
#
# 1 69.4487 -4.2070 11.7829 0.0000 -9.5322 0.0000
# 2 -4.2070 84.5581 -14.8118 0.0000 3.2847 0.0000
# 3 11.7829 -14.8118 62.2674 0.0000 0.6650 0.0000
# 4 0.0000 0.0000 0.0000 23.6128 0.0000 -0.5748
# 5 -9.5322 3.2847 0.6650 0.0000 34.7145 0.0000
# 6 0.0000 0.0000 0.0000 -0.5748 0.0000 17.4576
#
#
#
# Elastic Compliance Matrix: (Units=1/GPa)
#
#
# Indices 1 2 3 4 5 6 
#
# 1 0.015497 0.000086 -0.002958 0.000000 0.004304 0.000000
# 2 0.000086 0.012393 0.002945 0.000000 -0.001206 0.000000
# 3 -0.002958 0.002945 0.017335 0.000000 -0.001423 0.000000
# 4 0.000000 0.000000 0.000000 0.042384 0.000000 0.001395
# 5 0.004304 -0.001206 -0.001423 0.000000 0.030129 0.000000
# 6 0.000000 0.000000 0.000000 0.001395 0.000000 0.057327
#
#
# Mechanical properties :
#
#
# Convention : Reuss Voigt Hill
#
# Bulk Modulus (GPa) = 22.04115 22.42249 22.23182
# Shear Modulus (GPa) = 26.30960 30.05767 28.18364
#
# Velocity S-wave (km/s) = 3.30700 3.53471 3.42275
# Velocity P-wave (km/s) = 4.87274 5.09700 4.98613
#
# Compressibility (1/GPa) = 0.04536969
#
# Stress axis : x y z
#
# Youngs Moduli (GPa) = 64.52899 80.69012 57.68611
#
# Poissons Ratio (x) = -0.00691 0.17064
# Poissons Ratio (y) = -0.00553 -0.16987
# Poissons Ratio (z) = 0.19088 -0.23761
#
# Static dielectric constant tensor:
#      x y z
#    x 1.979480 0.000000 0.046210 
#    y 0.000000 1.986790 0.000000 
#    z 0.046210 0.000000 1.915140 
# 
# From -- ./inp_files/143077.got.cif
#   From: 2010.05.17/outbox.cif.g08.bks.cpg/sg12_72_cif.got.tgz:143077.got - 2010.06.03 13:09:07.
