data_PCOD9193164
_publ_section_title
;
Structure prediction by ZEFSAII (Michael W. Deem and Ramdas Pophale) SiO2 
 PCOD9193164
Probable space group: C 2/M
;
_chemical_formula_sum "Si O2"
_cell_formula_units_Z 56
_cell_length_a 14.810953
_cell_length_b 8.432731
_cell_length_c 30.843949
_cell_angle_alpha 90.000000
_cell_angle_beta 128.245745
_cell_angle_gamma 90.000000
_cell_volume 3025.461364
_symmetry_space_group_name_H-M "C 2/M"
_symmetry_group_IT_number 12
_symmetry_cell_setting 'monoclinic'
loop_
_space_group_symop_operation_xyz
x,y,z
-x,y,-z
-x,-y,-z
x,-y,z
1/2+x,1/2+y,z
1/2-x,1/2+y,-z
1/2-x,1/2-y,-z
1/2+x,1/2-y,z
loop_
_atom_site_type_symbol
_atom_site_label
_atom_site_fract_x
_atom_site_fract_y
_atom_site_fract_z
Si Si1 0.281313 0.691668 0.145142
Si Si2 0.417261 0.808602 0.848096
Si Si3 0.361051 0.186540 0.558841
Si Si4 0.180205 0.689949 0.938033
Si Si5 0.313047 0.312722 0.638578
Si Si6 0.455661 0.308637 0.765057
Si Si7 0.937784 0.813137 0.436478
O O1 0.279226 0.500000 0.144472
O O2 0.182105 0.747124 0.148599
O O3 0.267066 0.749106 0.091572
O O4 0.410433 0.742232 0.197198
O O5 0.546292 0.756510 0.899815
O O6 0.402620 0.753721 0.794195
O O7 0.415804 0.000000 0.848270
O O8 0.250000 0.250000 0.500000
O O9 0.345611 0.219999 0.604854
O O10 0.471089 0.278588 0.573735
O O11 0.373024 0.000000 0.553972
O O12 0.180874 0.500000 0.937753
O O13 0.250000 0.750000 0.000000
O O14 0.333963 0.500000 0.638043
O O15 0.384943 0.258954 0.701788
O O16 0.178223 0.282611 0.605341
O O17 0.453961 0.500000 0.766159
O O18 0.000000 0.766773 0.500000
O O19 0.910546 0.000000 0.431224
#
# Coordination Sequence:
#
# PCOD9193164 Si02
#       7
#     8   8   8   8   8   8   8
#     4   9  18  36  58  79 108 147 185 227 276 324
#     4   9  19  35  57  81 108 147 190 230 275 328
#     4  12  24  39  60  85 113 147 184 228 282 341
#     4  10  20  34  52  80 114 148 188 231 276 327
#     4  11  23  39  59  86 118 150 186 231 283 345
#     4   9  20  37  57  82 111 142 181 228 278 330
#     4  11  23  39  60  84 110 145 188 229 278 336
#
# _framework density 18.509573
#
# number of rings (size 3 to 8) (size 9 to 14) (size 15 to 20)
#    0.000    1.857    1.429    2.571    0.000    4.571 
#    0.000    4.286    0.000    0.000    0.000    0.000 
#    0.000    0.000    0.000    0.000    0.000    0.000 
#
# Total GULP energy -156366.131776 kJ/mol
# GULP energy per Si atom -5584.504706 kJ/mol
# Density = 1.846744 g / cm^3
# Si number density = 18.509573 Si / 1000 Ang^3
#
#
#
# Elastic Constant Matrix: (Units=GPa)
#
#
# Indices 1 2 3 4 5 6 
#
# 1 136.6926 2.1578 62.3436 0.0000 -22.1035 0.0000
# 2 2.1578 20.1185 17.1150 0.0000 0.1724 0.0000
# 3 62.3436 17.1150 158.2424 0.0000 -11.6617 0.0000
# 4 0.0000 0.0000 0.0000 29.8751 0.0000 -5.4172
# 5 -22.1035 0.1724 -11.6617 0.0000 16.4548 0.0000
# 6 0.0000 0.0000 0.0000 -5.4172 0.0000 26.1606
#
#
#
# Elastic Compliance Matrix: (Units=1/GPa)
#
#
# Indices 1 2 3 4 5 6 
#
# 1 0.010871 0.001784 -0.003589 0.000000 0.012041 0.000000
# 2 0.001784 0.055433 -0.006926 0.000000 -0.003094 0.000000
# 3 -0.003589 -0.006926 0.008581 0.000000 0.001333 0.000000
# 4 0.000000 0.000000 0.000000 0.034779 0.000000 0.007202
# 5 0.012041 -0.003094 0.001333 0.000000 0.077925 0.000000
# 6 0.000000 0.000000 0.000000 0.007202 0.000000 0.039717
#
#
# Mechanical properties :
#
#
# Convention : Reuss Voigt Hill
#
# Bulk Modulus (GPa) = 17.41469 53.14291 35.27880
# Shear Modulus (GPa) = 18.94596 30.06055 24.50326
#
# Velocity S-wave (km/s) = 3.20281 4.03433 3.64237
# Velocity P-wave (km/s) = 4.80689 7.10454 6.06550
#
# Compressibility (1/GPa) = 0.05742278
#
# Stress axis : x y z
#
# Youngs Moduli (GPa) = 91.98484 18.03981 116.54201
#
# Poissons Ratio (x) = -0.03218 0.41822
# Poissons Ratio (y) = -0.16407 0.80719
# Poissons Ratio (z) = 0.33009 0.12495
#
# Static dielectric constant tensor:
#      x y z
#    x 1.626320 0.000000 0.006070 
#    y 0.000000 1.629570 0.000000 
#    z 0.006070 0.000000 1.611930 
# 
# From -- ./inp_files/360020.got.cif
#   From: 2010.05.17/outbox.cif.g08.bks.cpg/sg12_181_cif.got.tgz:360020.got - 2010.06.03 13:09:07.
