data_PCOD9193347
_publ_section_title
;
Structure prediction by ZEFSAII (Michael W. Deem and Ramdas Pophale) SiO2 
 PCOD9193347
Probable space group: C 2/M
;
_chemical_formula_sum "Si O2"
_cell_formula_units_Z 48
_cell_length_a 16.615641
_cell_length_b 8.136942
_cell_length_c 26.574599
_cell_angle_alpha 90.000000
_cell_angle_beta 146.417234
_cell_angle_gamma 90.000000
_cell_volume 1987.379853
_symmetry_space_group_name_H-M "C 2/M"
_symmetry_group_IT_number 12
_symmetry_cell_setting 'monoclinic'
loop_
_space_group_symop_operation_xyz
x,y,z
-x,y,-z
-x,-y,-z
x,-y,z
1/2+x,1/2+y,z
1/2-x,1/2+y,-z
1/2-x,1/2-y,-z
1/2+x,1/2-y,z
loop_
_atom_site_type_symbol
_atom_site_label
_atom_site_fract_x
_atom_site_fract_y
_atom_site_fract_z
Si Si1 0.520071 0.700601 0.887068
Si Si2 0.201465 0.689963 0.718186
Si Si3 0.606976 0.306175 0.453998
Si Si4 0.036344 0.195149 0.779094
Si Si5 0.344707 0.301933 0.942986
Si Si6 0.274576 0.693306 0.382394
O O1 0.518295 0.500000 0.887013
O O2 0.356990 0.757696 0.817176
O O3 0.544894 0.748927 0.842510
O O4 0.634860 0.755526 0.988398
O O5 0.197166 0.500000 0.729966
O O6 0.212898 0.710826 0.663349
O O7 0.046255 0.764137 0.650945
O O8 0.614425 0.500000 0.461931
O O9 0.750000 0.250000 0.500000
O O10 0.621391 0.244129 0.519038
O O11 0.196361 0.235010 0.841979
O O12 0.891552 0.284546 0.684494
O O13 0.010839 0.000000 0.762768
O O14 0.334207 0.500000 0.935835
O O15 0.500000 0.257464 0.000000
O O16 0.302202 0.500000 0.386230
#
# Coordination Sequence:
#
# PCOD9193347 Si02
#       6
#     8   8   8   8   8   8
#     4   8  17  34  54  78 106 138 178 221 266 319
#     4  10  20  36  59  84 111 144 184 231 278 324
#     4  11  24  39  56  81 113 148 184 224 273 330
#     4  10  20  35  56  80 106 138 180 229 275 320
#     4  10  20  34  53  77 108 145 180 217 268 328
#     4  10  21  38  59  82 109 143 185 229 273 326
#
# _framework density 24.152404000000001
#
# number of rings (size 3 to 8) (size 9 to 14) (size 15 to 20)
#    0.000    2.167    0.000    4.000    0.000    6.333 
#    0.000    7.500    0.000    0.000    0.000    0.000 
#    0.000    0.000    0.000    0.000    0.000    0.000 
#
# Total GULP energy -134164.114348 kJ/mol
# GULP energy per Si atom -5590.171431 kJ/mol
# Density = 2.409743 g / cm^3
# Si number density = 24.152404 Si / 1000 Ang^3
#
#
#
# Elastic Constant Matrix: (Units=GPa)
#
#
# Indices 1 2 3 4 5 6 
#
# 1 57.7207 -4.8071 11.2255 0.0000 21.1214 0.0000
# 2 -4.8071 14.3935 -3.8715 0.0000 0.7717 0.0001
# 3 11.2255 -3.8715 144.1698 0.0000 24.8670 0.0000
# 4 0.0000 0.0000 0.0000 25.5006 0.0000 11.2338
# 5 21.1214 0.7717 24.8670 0.0000 45.4596 0.0000
# 6 0.0000 0.0001 0.0000 11.2338 0.0000 20.0530
#
#
#
# Elastic Compliance Matrix: (Units=1/GPa)
#
#
# Indices 1 2 3 4 5 6 
#
# 1 0.021727 0.007899 0.000314 0.000000 -0.010401 0.000000
# 2 0.007899 0.073100 0.002424 0.000000 -0.006237 -0.000001
# 3 0.000314 0.002424 0.007739 0.000000 -0.004421 0.000000
# 4 0.000000 0.000000 0.000000 0.052063 0.000000 -0.029166
# 5 -0.010401 -0.006237 -0.004421 0.000000 0.029354 0.000000
# 6 0.000000 -0.000001 0.000000 -0.029166 0.000000 0.066207
#
#
# Mechanical properties :
#
#
# Convention : Reuss Voigt Hill
#
# Bulk Modulus (GPa) = 8.07490 24.59753 16.33622
# Shear Modulus (GPa) = 18.50494 32.45178 25.47836
#
# Velocity S-wave (km/s) = 2.77099 3.66953 3.25145
# Velocity P-wave (km/s) = 3.68624 5.30663 4.56885
#
# Compressibility (1/GPa) = 0.12384049
#
# Stress axis : x y z
#
# Youngs Moduli (GPa) = 46.02464 13.67988 129.20926
#
# Poissons Ratio (x) = -0.10805 -0.04062
# Poissons Ratio (y) = -0.36354 -0.31316
# Poissons Ratio (z) = -0.01447 -0.03316
#
# Static dielectric constant tensor:
#      x y z
#    x 2.027140 0.000000 0.005140 
#    y 0.000000 1.834380 0.000000 
#    z 0.005140 0.000000 1.936900 
# 
# From -- ./inp_files/244882.got.cif
#   From: 2010.05.17/outbox.cif.g08.bks.cpg/sg12_123_cif.got.tgz:244882.got - 2010.06.03 13:09:07.
