data_PCOD9193499
_publ_section_title
;
Structure prediction by ZEFSAII (Michael W. Deem and Ramdas Pophale) SiO2 
 PCOD9193499
Probable space group: C 2/M
;
_chemical_formula_sum "Si O2"
_cell_formula_units_Z 56
_cell_length_a 13.981113
_cell_length_b 14.665183
_cell_length_c 15.992033
_cell_angle_alpha 90.000000
_cell_angle_beta 49.100141
_cell_angle_gamma 90.000000
_cell_volume 2478.400262
_symmetry_space_group_name_H-M "C 2/M"
_symmetry_group_IT_number 12
_symmetry_cell_setting 'monoclinic'
loop_
_space_group_symop_operation_xyz
x,y,z
-x,y,-z
-x,-y,-z
x,-y,z
1/2+x,1/2+y,z
1/2-x,1/2+y,-z
1/2-x,1/2-y,-z
1/2+x,1/2-y,z
loop_
_atom_site_type_symbol
_atom_site_label
_atom_site_fract_x
_atom_site_fract_y
_atom_site_fract_z
Si Si1 0.914565 0.398902 0.724782
Si Si2 0.759910 0.601430 0.160593
Si Si3 0.859216 0.141143 0.605406
Si Si4 0.156846 0.607428 0.057479
Si Si5 0.046813 0.244597 0.887316
Si Si6 0.693527 0.149583 0.546362
Si Si7 0.255909 0.154697 0.663349
O O1 0.968114 0.500000 0.706718
O O2 0.824518 0.376756 0.855050
O O3 0.829812 0.398557 0.692050
O O4 0.042650 0.341076 0.644795
O O5 0.818470 0.500000 0.135159
O O6 0.655797 0.606726 0.291416
O O7 0.851653 0.681885 0.136620
O O8 0.735257 0.614493 0.075712
O O9 0.758124 0.108570 0.592782
O O10 0.833097 0.249448 0.619116
O O11 0.000000 0.119604 0.500000
O O12 0.113719 0.500000 0.075794
O O13 0.057896 0.686911 0.090590
O O14 0.116972 0.182261 0.778346
O O15 0.000000 0.196774 0.000000
O O16 0.750000 0.250000 0.500000
O O17 0.729832 0.108383 0.435223
#
# Coordination Sequence:
#
# PCOD9193499 Si02
#       7
#     8   8   8   8   8   8   8
#     4  11  22  36  57  83 109 142 187 230 265 312
#     4   9  17  30  49  75 107 139 172 217 271 325
#     4  10  20  34  53  80 111 144 180 219 273 333
#     4   9  17  31  53  80 108 138 174 221 276 324
#     4   9  17  31  52  79 106 137 179 224 272 325
#     4  10  20  35  54  76 107 146 182 220 269 320
#     4  10  20  35  53  76 109 146 185 226 267 313
#
# _framework density 22.595219
#
# number of rings (size 3 to 8) (size 9 to 14) (size 15 to 20)
#    0.000    2.286    0.000    5.143    0.000    4.857 
#    0.000    7.857    0.000    0.429    0.000    0.000 
#    0.000    0.000    0.000    0.000    0.000    0.000 
#
# Total GULP energy -155902.797413 kJ/mol
# GULP energy per Si atom -5567.957050 kJ/mol
# Density = 2.254379 g / cm^3
# Si number density = 22.595219 Si / 1000 Ang^3
#
#
#
# Elastic Constant Matrix: (Units=GPa)
#
#
# Indices 1 2 3 4 5 6 
#
# 1 58.4942 2.6763 57.8544 0.0000 13.0015 0.0000
# 2 2.6763 52.4713 13.2770 0.0000 3.1205 0.0000
# 3 57.8544 13.2770 206.3047 0.0000 30.3228 0.0000
# 4 0.0000 0.0000 0.0000 72.7543 0.0000 18.3688
# 5 13.0015 3.1205 30.3228 0.0000 34.9164 0.0000
# 6 0.0000 0.0000 0.0000 18.3688 0.0000 5.3671
#
#
#
# Elastic Compliance Matrix: (Units=1/GPa)
#
#
# Indices 1 2 3 4 5 6 
#
# 1 0.024052 0.000569 -0.006256 0.000000 -0.003574 0.000000
# 2 0.000569 0.019404 -0.001286 0.000000 -0.000829 0.000000
# 3 -0.006256 -0.001286 0.007251 0.000000 -0.003852 0.000000
# 4 0.000000 0.000000 0.000000 0.101143 0.000000 -0.346161
# 5 -0.003574 -0.000829 -0.003852 0.000000 0.033390 0.000000
# 6 0.000000 0.000000 0.000000 -0.346161 0.000000 1.371060
#
#
# Mechanical properties :
#
#
# Convention : Reuss Voigt Hill
#
# Bulk Modulus (GPa) = 27.20457 51.65394 39.42926
# Shear Modulus (GPa) = 3.15956 38.83839 20.99897
#
# Velocity S-wave (km/s) = 1.18379 4.15043 3.05184
# Velocity P-wave (km/s) = 3.73291 6.77335 5.46868
#
# Compressibility (1/GPa) = 0.03675853
#
# Stress axis : x y z
#
# Youngs Moduli (GPa) = 41.57686 51.53617 137.91895
#
# Poissons Ratio (x) = -0.02931 0.86286
# Poissons Ratio (y) = -0.02365 0.17743
# Poissons Ratio (z) = 0.26012 0.06630
#
# Static dielectric constant tensor:
#      x y z
#    x 1.832520 0.000000 0.051610 
#    y 0.000000 1.937510 0.000000 
#    z 0.051610 0.000000 1.949070 
# 
# From -- ./inp_files/216318.got.cif
#   From: 2010.05.17/outbox.cif.g08.bks.cpg/sg12_109_cif.got.tgz:216318.got - 2010.06.03 13:09:07.
