data_PCOD9193341
_publ_section_title
;
Structure prediction by ZEFSAII (Michael W. Deem and Ramdas Pophale) SiO2 
 PCOD9193341
Probable space group: C 2/M
;
_chemical_formula_sum "Si O2"
_cell_formula_units_Z 56
_cell_length_a 30.807889
_cell_length_b 9.527663
_cell_length_c 11.248594
_cell_angle_alpha 90.000000
_cell_angle_beta 63.434058
_cell_angle_gamma 90.000000
_cell_volume 2953.168229
_symmetry_space_group_name_H-M "C 2/M"
_symmetry_group_IT_number 12
_symmetry_cell_setting 'monoclinic'
loop_
_space_group_symop_operation_xyz
x,y,z
-x,y,-z
-x,-y,-z
x,-y,z
1/2+x,1/2+y,z
1/2-x,1/2+y,-z
1/2-x,1/2-y,-z
1/2+x,1/2-y,z
loop_
_atom_site_type_symbol
_atom_site_label
_atom_site_fract_x
_atom_site_fract_y
_atom_site_fract_z
Si Si1 0.970696 0.335499 0.413588
Si Si2 0.201320 0.834816 0.867602
Si Si3 0.115437 0.832193 0.575482
Si Si4 0.806252 0.332705 0.649431
Si Si5 0.943597 0.666740 0.870907
Si Si6 0.402195 0.664857 0.131014
Si Si7 0.342102 0.166663 0.870653
O O1 0.955813 0.500000 0.423205
O O2 0.924725 0.235491 0.461143
O O3 0.000000 0.320083 0.500000
O O4 0.007866 0.302360 0.261316
O O5 0.249723 0.797210 0.736728
O O6 0.152647 0.814356 0.850509
O O7 0.205393 0.000000 0.892130
O O8 0.193645 0.748087 0.997211
O O9 0.166083 0.758498 0.481743
O O10 0.098459 0.797162 0.730101
O O11 0.118695 0.000000 0.560501
O O12 0.810767 0.500000 0.620022
O O13 0.831145 0.303401 0.747053
O O14 0.942003 0.500000 0.894208
O O15 0.896903 0.701910 0.845031
O O16 0.936851 0.747513 0.002401
O O17 0.413754 0.500000 0.105776
O O18 0.335646 0.000000 0.895131
#
# Coordination Sequence:
#
# PCOD9193341 Si02
#       7
#     8   8   8   8   8   8   8
#     4  10  21  39  61  83 109 138 169 212 265 317
#     4   9  18  33  54  78 105 141 181 218 262 316
#     4  11  24  38  53  76 107 142 180 221 263 312
#     4  10  20  34  53  77 107 143 180 221 268 313
#     4   9  18  33  56  81 103 135 175 213 259 317
#     4   9  20  38  54  74 108 143 176 219 267 309
#     4   9  17  31  52  80 110 135 167 215 269 320
#
# _framework density 18.962686000000001
#
# number of rings (size 3 to 8) (size 9 to 14) (size 15 to 20)
#    0.000    2.429    0.000    1.714    0.000    6.571 
#    0.000    5.714    0.000    0.000    0.000    0.000 
#    0.000    0.000    0.000    0.000    0.000    0.000 
#
# Total GULP energy -156330.952438 kJ/mol
# GULP energy per Si atom -5583.248301 kJ/mol
# Density = 1.891953 g / cm^3
# Si number density = 18.962686 Si / 1000 Ang^3
#
#
#
# Elastic Constant Matrix: (Units=GPa)
#
#
# Indices 1 2 3 4 5 6 
#
# 1 18.2633 17.1732 13.9260 0.0000 -6.6619 0.0000
# 2 17.1732 31.3442 46.2515 0.0000 -7.4356 0.0000
# 3 13.9260 46.2515 98.0108 0.0000 -12.0506 0.0000
# 4 0.0000 0.0000 0.0000 26.1922 0.0000 1.3375
# 5 -6.6619 -7.4356 -12.0506 0.0000 25.8952 0.0000
# 6 0.0000 0.0000 0.0000 1.3375 0.0000 18.3800
#
#
#
# Elastic Compliance Matrix: (Units=1/GPa)
#
#
# Indices 1 2 3 4 5 6 
#
# 1 0.243770 -0.265940 0.094596 0.000000 0.030372 0.000000
# 2 -0.265940 0.396593 -0.152503 0.000000 -0.025507 0.000000
# 3 0.094596 -0.152503 0.070363 0.000000 0.013290 0.000000
# 4 0.000000 0.000000 0.000000 0.038322 0.000000 -0.002789
# 5 0.030372 -0.025507 0.013290 0.000000 0.045291 0.000000
# 6 0.000000 0.000000 0.000000 -0.002789 0.000000 0.054610
#
#
# Mechanical properties :
#
#
# Convention : Reuss Voigt Hill
#
# Bulk Modulus (GPa) = 15.86526 33.59109 24.72818
# Shear Modulus (GPa) = 3.29456 18.77799 11.03627
#
# Velocity S-wave (km/s) = 1.31953 3.15025 2.41508
# Velocity P-wave (km/s) = 3.27205 5.56641 4.56570
#
# Compressibility (1/GPa) = 0.06303078
#
# Stress axis : x y z
#
# Youngs Moduli (GPa) = 4.10223 2.52148 14.21210
#
# Poissons Ratio (x) = 0.67056 -1.34440
# Poissons Ratio (y) = 1.09095 2.16738
# Poissons Ratio (z) = -0.38805 0.38453
#
# Static dielectric constant tensor:
#      x y z
#    x 1.676210 0.000000 -0.004540 
#    y 0.000000 1.626130 0.000000 
#    z -0.004540 0.000000 1.642740 
# 
# From -- ./inp_files/187193.got.cif
#   From: 2010.05.17/outbox.cif.g08.bks.cpg/sg12_94_cif.got.tgz:187193.got - 2010.06.03 13:09:07.
