data_PCOD9193407
_publ_section_title
;
Structure prediction by ZEFSAII (Michael W. Deem and Ramdas Pophale) SiO2 
 PCOD9193407
Probable space group: C 2/M
;
_chemical_formula_sum "Si O2"
_cell_formula_units_Z 56
_cell_length_a 33.076956
_cell_length_b 7.822335
_cell_length_c 22.035407
_cell_angle_alpha 90.000000
_cell_angle_beta 152.394981
_cell_angle_gamma 90.000000
_cell_volume 2641.887799
_symmetry_space_group_name_H-M "C 2/M"
_symmetry_group_IT_number 12
_symmetry_cell_setting 'monoclinic'
loop_
_space_group_symop_operation_xyz
x,y,z
-x,y,-z
-x,-y,-z
x,-y,z
1/2+x,1/2+y,z
1/2-x,1/2+y,-z
1/2-x,1/2-y,-z
1/2+x,1/2-y,z
loop_
_atom_site_type_symbol
_atom_site_label
_atom_site_fract_x
_atom_site_fract_y
_atom_site_fract_z
Si Si1 0.611441 0.798100 0.785720
Si Si2 0.706794 0.293217 0.030763
Si Si3 0.356196 0.706985 0.922994
Si Si4 0.953996 0.803093 0.499175
Si Si5 0.731930 0.801161 0.406859
Si Si6 0.963991 0.206351 0.886263
Si Si7 0.294772 0.702953 0.364950
O O1 0.635552 0.768294 0.887668
O O2 0.527250 0.704295 0.648618
O O3 0.599958 0.000000 0.759564
O O4 0.697778 0.736969 0.864545
O O5 0.706437 0.500000 0.029009
O O6 0.686124 0.234693 0.070634
O O7 0.352647 0.500000 0.915405
O O8 0.298956 0.773579 0.791220
O O9 0.457404 0.755851 0.053861
O O10 0.000000 0.725763 0.500000
O O11 0.867472 0.724430 0.414995
O O12 0.932664 0.000000 0.454376
O O13 0.750000 0.750000 0.500000
O O14 0.630135 0.774446 0.256332
O O15 0.786692 0.724030 0.422663
O O16 0.751652 0.000000 0.430788
O O17 0.956438 0.000000 0.876975
O O18 0.000000 0.259547 0.000000
O O19 0.313746 0.500000 0.394408
#
# Coordination Sequence:
#
# PCOD9193407 Si02
#       7
#     8   8   8   8   8   8   8
#     4  10  20  34  53  78 109 144 184 229 274 323
#     4   9  19  35  54  78 109 145 182 223 275 333
#     4  10  20  35  59  86 111 144 185 230 281 336
#     4  10  21  37  57  80 110 148 185 225 280 339
#     4  11  24  41  61  85 118 157 196 241 292 345
#     4  10  20  37  61  87 115 146 185 233 285 343
#     4  10  22  38  57  83 113 147 188 235 283 338
#
# _framework density 21.196963
#
# number of rings (size 3 to 8) (size 9 to 14) (size 15 to 20)
#    0.000    2.000    1.429    1.714    0.000    4.571 
#    0.000    5.714    0.000    0.000    0.000    0.000 
#    0.000    0.000    0.000    0.000    0.000    0.000 
#
# Total GULP energy -156288.486194 kJ/mol
# GULP energy per Si atom -5581.731650 kJ/mol
# Density = 2.114872 g / cm^3
# Si number density = 21.196963 Si / 1000 Ang^3
#
#
#
# Elastic Constant Matrix: (Units=GPa)
#
#
# Indices 1 2 3 4 5 6 
#
# 1 159.1741 10.7487 43.2671 0.0000 -7.6403 0.0000
# 2 10.7487 26.4716 -5.4384 0.0000 0.4548 0.0000
# 3 43.2671 -5.4384 69.1455 0.0000 0.7424 0.0000
# 4 0.0000 0.0000 0.0000 21.6844 0.0000 -6.4210
# 5 -7.6403 0.4548 0.7424 0.0000 27.8496 0.0000
# 6 0.0000 0.0000 0.0000 -6.4210 0.0000 13.3759
#
#
#
# Elastic Compliance Matrix: (Units=1/GPa)
#
#
# Indices 1 2 3 4 5 6 
#
# 1 0.008204 -0.004507 -0.005515 0.000000 0.002471 0.000000
# 2 -0.004507 0.040886 0.006058 0.000000 -0.002066 0.000000
# 3 -0.005515 0.006058 0.018412 0.000000 -0.002103 0.000000
# 4 0.000000 0.000000 0.000000 0.053758 0.000000 0.025806
# 5 0.002471 -0.002066 -0.002103 0.000000 0.036675 0.000000
# 6 0.000000 0.000000 0.000000 0.025806 0.000000 0.087150
#
#
# Mechanical properties :
#
#
# Convention : Reuss Voigt Hill
#
# Bulk Modulus (GPa) = 16.78538 39.10511 27.94524
# Shear Modulus (GPa) = 18.32368 26.32956 22.32662
#
# Velocity S-wave (km/s) = 2.94334 3.52822 3.24897
# Velocity P-wave (km/s) = 4.41440 5.92337 5.22366
#
# Compressibility (1/GPa) = 0.05957566
#
# Stress axis : x y z
#
# Youngs Moduli (GPa) = 121.88503 24.45804 54.31196
#
# Poissons Ratio (x) = 0.11023 0.29952
# Poissons Ratio (y) = 0.54931 -0.32902
# Poissons Ratio (z) = 0.67218 -0.14817
#
# Static dielectric constant tensor:
#      x y z
#    x 1.857060 0.000000 0.003140 
#    y 0.000000 1.802670 0.000000 
#    z 0.003140 0.000000 1.720740 
# 
# From -- ./inp_files/329616.got.cif
#   From: 2010.05.17/outbox.cif.g08.bks.cpg/sg12_165_cif.got.tgz:329616.got - 2010.06.03 13:09:07.
