data_PCOD9193606
_publ_section_title
;
Structure prediction by ZEFSAII (Michael W. Deem and Ramdas Pophale) SiO2 
 PCOD9193606
Probable space group: C 2/M
;
_chemical_formula_sum "Si O2"
_cell_formula_units_Z 64
_cell_length_a 20.826707
_cell_length_b 8.963352
_cell_length_c 22.620144
_cell_angle_alpha 90.000000
_cell_angle_beta 117.427846
_cell_angle_gamma 90.000000
_cell_volume 3748.000312
_symmetry_space_group_name_H-M "C 2/M"
_symmetry_group_IT_number 12
_symmetry_cell_setting 'monoclinic'
loop_
_space_group_symop_operation_xyz
x,y,z
-x,y,-z
-x,-y,-z
x,-y,z
1/2+x,1/2+y,z
1/2-x,1/2+y,-z
1/2-x,1/2-y,-z
1/2+x,1/2-y,z
loop_
_atom_site_type_symbol
_atom_site_label
_atom_site_fract_x
_atom_site_fract_y
_atom_site_fract_z
Si Si1 0.196816 0.679239 0.795108
Si Si2 0.420781 0.318399 0.947969
Si Si3 0.724196 0.320354 0.049830
Si Si4 0.654805 0.320170 0.205629
Si Si5 0.094242 0.678195 0.298661
Si Si6 0.035987 0.821039 0.453508
Si Si7 0.327173 0.822117 0.544992
Si Si8 0.956783 0.178064 0.297631
O O1 0.187531 0.500000 0.789019
O O2 0.224236 0.717973 0.872786
O O3 0.263255 0.717222 0.779411
O O4 0.122507 0.758246 0.747530
O O5 0.421643 0.500000 0.949161
O O6 0.356727 0.272648 0.965285
O O7 0.396079 0.276528 0.871439
O O8 0.500000 0.265146 0.000000
O O9 0.724146 0.500000 0.044768
O O10 0.750000 0.250000 0.000000
O O11 0.650931 0.500000 0.210202
O O12 0.629067 0.243443 0.254340
O O13 0.087375 0.500000 0.291882
O O14 0.144290 0.713787 0.376806
O O15 0.016202 0.749549 0.279510
O O16 0.111860 0.741859 0.472952
O O17 0.000000 0.776476 0.500000
O O18 0.983993 0.787069 0.375783
O O19 0.047291 0.000000 0.459242
O O20 0.250000 0.750000 0.500000
O O21 0.322876 0.000000 0.537613
O O22 0.957406 0.000000 0.290702
#
# Coordination Sequence:
#
# PCOD9193606 Si02
#       8
#     8   8   8   8   8   8   8   8
#     4   9  19  35  51  71 105 140 168 208 258 301
#     4   8  15  30  51  73  98 129 166 206 246 291
#     4   9  18  32  50  73 101 132 165 205 252 298
#     4   9  18  33  53  76 102 135 173 209 249 301
#     4  10  21  36  53  75 105 136 166 208 259 302
#     4   9  19  36  55  76 104 133 164 210 260 301
#     4  10  21  36  54  76 103 136 171 207 250 301
#     4  10  20  34  54  77 100 132 174 212 249 302
#
# _framework density 17.075772000000001
#
# number of rings (size 3 to 8) (size 9 to 14) (size 15 to 20)
#    0.000    2.750    0.000    2.625    0.000    5.250 
#    0.000    6.875    0.000    0.750    0.000    0.000 
#    0.000    0.000    0.000    0.000    0.000    0.000 
#
# Total GULP energy -178473.906593 kJ/mol
# GULP energy per Si atom -5577.309581 kJ/mol
# Density = 1.703691 g / cm^3
# Si number density = 17.075772 Si / 1000 Ang^3
#
#
#
# Elastic Constant Matrix: (Units=GPa)
#
#
# Indices 1 2 3 4 5 6 
#
# 1 186.6714 65.4475 125.2770 0.0000 0.4762 0.0000
# 2 65.4475 34.6982 50.4084 0.0000 1.5486 0.0000
# 3 125.2770 50.4084 102.1024 0.0000 -0.0862 0.0000
# 4 0.0000 0.0000 0.0000 27.6573 0.0000 -1.0058
# 5 0.4762 1.5486 -0.0862 0.0000 43.1104 0.0000
# 6 0.0000 0.0000 0.0000 -1.0058 0.0000 33.3908
#
#
#
# Elastic Compliance Matrix: (Units=1/GPa)
#
#
# Indices 1 2 3 4 5 6 
#
# 1 0.031605 -0.011589 -0.033057 0.000000 0.000001 0.000000
# 2 -0.011589 0.106787 -0.038505 0.000000 -0.003785 0.000000
# 3 -0.033057 -0.038505 0.069365 0.000000 0.001887 0.000000
# 4 0.000000 0.000000 0.000000 0.036196 0.000000 0.001090
# 5 0.000001 -0.003785 0.001887 0.000000 0.023336 0.000000
# 6 0.000000 0.000000 0.000000 0.001090 0.000000 0.029981
#
#
# Mechanical properties :
#
#
# Convention : Reuss Voigt Hill
#
# Bulk Modulus (GPa) = 24.12203 89.52645 56.82424
# Shear Modulus (GPa) = 10.47359 26.32099 18.39729
#
# Velocity S-wave (km/s) = 2.47930 3.93036 3.28592
# Velocity P-wave (km/s) = 4.72790 8.55217 6.90987
#
# Compressibility (1/GPa) = 0.04145587
#
# Stress axis : x y z
#
# Youngs Moduli (GPa) = 31.64052 9.36445 14.41639
#
# Poissons Ratio (x) = 0.10853 0.47656
# Poissons Ratio (y) = 0.36669 0.55510
# Poissons Ratio (z) = 1.04594 0.36057
#
# Static dielectric constant tensor:
#      x y z
#    x 1.551710 0.000000 0.002880 
#    y 0.000000 1.569380 0.000000 
#    z 0.002880 0.000000 1.565100 
# 
# From -- ./inp_files/320183.got.cif
#   From: 2010.05.17/outbox.cif.g08.bks.cpg/sg12_161_cif.got.tgz:320183.got - 2010.06.03 13:09:07.
