data_PCOD9193304
_publ_section_title
;
Structure prediction by ZEFSAII (Michael W. Deem and Ramdas Pophale) SiO2 
 PCOD9193304
Probable space group: C 2/M
;
_chemical_formula_sum "Si O2"
_cell_formula_units_Z 64
_cell_length_a 20.029214
_cell_length_b 8.893528
_cell_length_c 20.825412
_cell_angle_alpha 90.000000
_cell_angle_beta 90.168155
_cell_angle_gamma 90.000000
_cell_volume 3709.622484
_symmetry_space_group_name_H-M "C 2/M"
_symmetry_group_IT_number 12
_symmetry_cell_setting 'monoclinic'
loop_
_space_group_symop_operation_xyz
x,y,z
-x,y,-z
-x,-y,-z
x,-y,z
1/2+x,1/2+y,z
1/2-x,1/2+y,-z
1/2-x,1/2-y,-z
1/2+x,1/2-y,z
loop_
_atom_site_type_symbol
_atom_site_label
_atom_site_fract_x
_atom_site_fract_y
_atom_site_fract_z
Si Si1 0.797013 0.820424 0.801189
Si Si2 0.048783 0.319079 0.557000
Si Si3 0.300570 0.319653 0.949244
Si Si4 0.204418 0.319737 0.555083
Si Si5 0.049573 0.819408 0.693794
Si Si6 0.553965 0.820171 0.054481
Si Si7 0.704866 0.320352 0.692820
Si Si8 0.952913 0.180963 0.808751
O O1 0.781200 0.782073 0.875384
O O2 0.751382 0.736190 0.750178
O O3 0.875586 0.785965 0.792031
O O4 0.788443 0.000000 0.793369
O O5 0.045115 0.500000 0.561007
O O6 0.126257 0.279254 0.544327
O O7 0.029778 0.251379 0.625745
O O8 0.000000 0.268430 0.500000
O O9 0.301806 0.500000 0.954461
O O10 0.374815 0.255622 0.959666
O O11 0.250000 0.250000 0.000000
O O12 0.210034 0.500000 0.554909
O O13 0.250000 0.250000 0.500000
O O14 0.223276 0.256057 0.625164
O O15 0.127224 0.780475 0.705992
O O16 0.002119 0.772083 0.751941
O O17 0.045235 0.000000 0.688582
O O18 0.531517 0.759997 0.123919
O O19 0.562084 0.000000 0.056652
O O20 0.500000 0.782766 0.000000
O O21 0.709354 0.500000 0.686280
O O22 0.957843 0.000000 0.817319
#
# Coordination Sequence:
#
# PCOD9193304 Si02
#       8
#     8   8   8   8   8   8   8   8
#     4   9  19  35  53  75 104 136 170 211 257 305
#     4   9  19  35  53  75 102 131 166 207 252 301
#     4  10  21  37  57  80 108 141 177 219 267 319
#     4  10  20  35  54  75 103 136 169 210 256 304
#     4   9  19  35  53  75 102 132 170 211 251 301
#     4  10  21  36  54  79 109 140 178 221 263 312
#     4  10  20  34  53  77 104 135 172 212 254 306
#     4   9  19  36  55  76 103 136 175 216 260 310
#
# _framework density 17.25243
#
# number of rings (size 3 to 8) (size 9 to 14) (size 15 to 20)
#    0.000    2.500    0.000    2.250    0.000    7.250 
#    0.000    5.000    0.000    0.000    0.000    0.000 
#    0.000    0.000    0.000    0.000    0.000    0.000 
#
# Total GULP energy -178557.451040 kJ/mol
# GULP energy per Si atom -5579.920345 kJ/mol
# Density = 1.721316 g / cm^3
# Si number density = 17.252430 Si / 1000 Ang^3
#
#
#
# Elastic Constant Matrix: (Units=GPa)
#
#
# Indices 1 2 3 4 5 6 
#
# 1 96.1791 50.2750 122.5160 0.0000 -3.6817 0.0000
# 2 50.2750 44.9690 68.9734 0.0000 2.6470 0.0000
# 3 122.5160 68.9734 187.0884 0.0000 -4.6207 0.0000
# 4 0.0000 0.0000 0.0000 36.8943 0.0000 -0.0276
# 5 -3.6817 2.6470 -4.6207 0.0000 42.4963 0.0000
# 6 0.0000 0.0000 0.0000 -0.0276 0.0000 24.7192
#
#
#
# Elastic Compliance Matrix: (Units=1/GPa)
#
#
# Indices 1 2 3 4 5 6 
#
# 1 0.068794 -0.018644 -0.038103 0.000000 0.002978 0.000000
# 2 -0.018644 0.057424 -0.009114 0.000000 -0.006183 0.000000
# 3 -0.038103 -0.009114 0.033680 0.000000 0.000929 0.000000
# 4 0.000000 0.000000 0.000000 0.027105 0.000000 0.000030
# 5 0.002978 -0.006183 0.000929 0.000000 0.024276 0.000000
# 6 0.000000 0.000000 0.000000 0.000030 0.000000 0.040454
#
#
# Mechanical properties :
#
#
# Convention : Reuss Voigt Hill
#
# Bulk Modulus (GPa) = 35.49095 90.19616 62.84356
# Shear Modulus (GPa) = 12.72761 26.58675 19.65718
#
# Velocity S-wave (km/s) = 2.71906 3.92987 3.37914
# Velocity P-wave (km/s) = 5.52032 8.54316 7.19234
#
# Compressibility (1/GPa) = 0.02817619
#
# Stress axis : x y z
#
# Youngs Moduli (GPa) = 14.53623 17.41423 29.69098
#
# Poissons Ratio (x) = 0.32466 1.13132
# Poissons Ratio (y) = 0.27101 0.27061
# Poissons Ratio (z) = 0.55388 0.15872
#
# Static dielectric constant tensor:
#      x y z
#    x 1.571690 0.000000 -0.002840 
#    y 0.000000 1.575480 0.000000 
#    z -0.002840 0.000000 1.556210 
# 
# From -- ./inp_files/314216.got.cif
#   From: 2010.05.17/outbox.cif.g08.bks.cpg/sg12_158_cif.got.tgz:314216.got - 2010.06.03 13:09:07.
