data_PCOD9193171
_publ_section_title
;
Structure prediction by ZEFSAII (Michael W. Deem and Ramdas Pophale) SiO2 
 PCOD9193171
Probable space group: C 2/M
;
_chemical_formula_sum "Si O2"
_cell_formula_units_Z 56
_cell_length_a 28.226891
_cell_length_b 9.088433
_cell_length_c 11.919224
_cell_angle_alpha 90.000000
_cell_angle_beta 70.828910
_cell_angle_gamma 90.000000
_cell_volume 2888.160993
_symmetry_space_group_name_H-M "C 2/M"
_symmetry_group_IT_number 12
_symmetry_cell_setting 'monoclinic'
loop_
_space_group_symop_operation_xyz
x,y,z
-x,y,-z
-x,-y,-z
x,-y,z
1/2+x,1/2+y,z
1/2-x,1/2+y,-z
1/2-x,1/2-y,-z
1/2+x,1/2-y,z
loop_
_atom_site_type_symbol
_atom_site_label
_atom_site_fract_x
_atom_site_fract_y
_atom_site_fract_z
Si Si1 0.900969 0.329513 0.844840
Si Si2 0.341404 0.326881 0.705191
Si Si3 0.941204 0.176423 0.036162
Si Si4 0.900268 0.832133 0.437184
Si Si5 0.364241 0.827167 0.261366
Si Si6 0.495603 0.838260 0.369647
Si Si7 0.252780 0.822659 0.374539
O O1 0.890900 0.500000 0.880898
O O2 0.856777 0.262160 0.803364
O O3 0.915546 0.239332 0.943859
O O4 0.951040 0.323953 0.729658
O O5 0.336173 0.500000 0.736737
O O6 0.385867 0.314051 0.578218
O O7 0.292063 0.278865 0.674503
O O8 0.940201 0.000000 0.037145
O O9 0.906940 0.238940 0.162662
O O10 0.000000 0.222746 0.000000
O O11 0.869093 0.719103 0.387211
O O12 0.957739 0.791516 0.369926
O O13 0.888486 0.000000 0.414989
O O14 0.306754 0.790232 0.276776
O O15 0.372016 0.000000 0.238819
O O16 0.500000 0.838545 0.500000
O O17 0.474586 0.000000 0.352572
O O18 0.250000 0.750000 0.500000
O O19 0.249094 0.000000 0.392726
#
# Coordination Sequence:
#
# PCOD9193171 Si02
#       7
#     8   8   8   8   8   8   8
#     4  11  23  39  61  87 120 161 204 252 304 361
#     4  10  21  37  57  86 124 160 197 245 300 359
#     4  11  25  45  67  90 120 160 206 254 305 366
#     4  11  21  33  55  86 121 159 198 244 299 359
#     4  11  23  39  63  91 121 159 205 254 304 361
#     4  10  20  34  52  80 118 154 192 241 298 361
#     4  10  21  38  61  91 126 163 203 251 305 362
#
# _framework density 19.389500999999999
#
# number of rings (size 3 to 8) (size 9 to 14) (size 15 to 20)
#    0.000    1.429    2.857    2.571    0.000    6.571 
#    0.000    0.714    0.000    0.000    0.000    0.000 
#    0.000    0.000    0.000    0.000    0.000    0.000 
#
# Total GULP energy -156316.888234 kJ/mol
# GULP energy per Si atom -5582.746008 kJ/mol
# Density = 1.934537 g / cm^3
# Si number density = 19.389501 Si / 1000 Ang^3
#
#
#
# Elastic Constant Matrix: (Units=GPa)
#
#
# Indices 1 2 3 4 5 6 
#
# 1 122.0769 48.8164 26.5459 0.0000 8.1421 0.0000
# 2 48.8164 68.6152 31.3658 0.0000 2.2415 0.0000
# 3 26.5459 31.3658 61.0651 0.0000 7.2861 0.0000
# 4 0.0000 0.0000 0.0000 28.3150 0.0000 6.6090
# 5 8.1421 2.2415 7.2861 0.0000 29.5416 0.0000
# 6 0.0000 0.0000 0.0000 6.6090 0.0000 27.2262
#
#
#
# Elastic Compliance Matrix: (Units=1/GPa)
#
#
# Indices 1 2 3 4 5 6 
#
# 1 0.011667 -0.007887 -0.000730 0.000000 -0.002437 0.000000
# 2 -0.007887 0.024407 -0.009423 0.000000 0.002646 0.000000
# 3 -0.000730 -0.009423 0.022074 0.000000 -0.004528 0.000000
# 4 0.000000 0.000000 0.000000 0.037438 0.000000 -0.009088
# 5 -0.002437 0.002646 -0.004528 0.000000 0.035438 0.000000
# 6 0.000000 0.000000 0.000000 -0.009088 0.000000 0.038935
#
#
# Mechanical properties :
#
#
# Convention : Reuss Voigt Hill
#
# Bulk Modulus (GPa) = 45.31744 51.69038 48.50391
# Shear Modulus (GPa) = 23.43075 26.68518 25.05796
#
# Velocity S-wave (km/s) = 3.48001 3.71384 3.59882
# Velocity P-wave (km/s) = 6.29048 6.71617 6.50681
#
# Compressibility (1/GPa) = 0.02206656
#
# Stress axis : x y z
#
# Youngs Moduli (GPa) = 85.71397 40.97256 45.30268
#
# Poissons Ratio (x) = 0.32316 0.03306
# Poissons Ratio (y) = 0.67604 0.42691
# Poissons Ratio (z) = 0.06255 0.38610
#
# Static dielectric constant tensor:
#      x y z
#    x 1.712240 0.000000 -0.000900 
#    y 0.000000 1.670900 0.000000 
#    z -0.000900 0.000000 1.666130 
# 
# From -- ./inp_files/180671.got.cif
#   From: 2010.05.17/outbox.cif.g08.bks.cpg/sg12_91_cif.got.tgz:180671.got - 2010.06.03 13:09:07.
