data_PCOD9193708
_publ_section_title
;
Structure prediction by ZEFSAII (Michael W. Deem and Ramdas Pophale) SiO2 
 PCOD9193708
Probable space group: C 2/M
;
_chemical_formula_sum "Si O2"
_cell_formula_units_Z 64
_cell_length_a 32.579490
_cell_length_b 8.689178
_cell_length_c 26.209622
_cell_angle_alpha 90.000000
_cell_angle_beta 29.549811
_cell_angle_gamma 90.000000
_cell_volume 3659.225865
_symmetry_space_group_name_H-M "C 2/M"
_symmetry_group_IT_number 12
_symmetry_cell_setting 'monoclinic'
loop_
_space_group_symop_operation_xyz
x,y,z
-x,y,-z
-x,-y,-z
x,-y,z
1/2+x,1/2+y,z
1/2-x,1/2+y,-z
1/2-x,1/2-y,-z
1/2+x,1/2-y,z
loop_
_atom_site_type_symbol
_atom_site_label
_atom_site_fract_x
_atom_site_fract_y
_atom_site_fract_z
Si Si1 0.175838 0.684534 0.046327
Si Si2 0.512622 0.184516 0.724126
Si Si3 0.080957 0.315494 0.445152
Si Si4 0.798022 0.686628 0.300662
Si Si5 0.457272 0.186395 0.192345
Si Si6 0.137727 0.816547 0.977803
Si Si7 0.239908 0.315132 0.772779
Si Si8 0.889328 0.815710 0.477217
O O1 0.180915 0.500000 0.037819
O O2 0.175883 0.752194 0.989284
O O3 0.085467 0.723825 0.167915
O O4 0.250000 0.750000 0.000000
O O5 0.547840 0.225648 0.742076
O O6 0.560757 0.264750 0.626400
O O7 0.519604 0.000000 0.710634
O O8 0.089195 0.500000 0.435560
O O9 0.164825 0.241401 0.331829
O O10 0.074289 0.258333 0.510598
O O11 0.000000 0.272550 0.500000
O O12 0.799927 0.500000 0.299895
O O13 0.876911 0.739813 0.247791
O O14 0.798863 0.731470 0.240229
O O15 0.707958 0.733111 0.420005
O O16 0.542972 0.255555 0.078649
O O17 0.463380 0.000000 0.182654
O O18 0.138342 0.000000 0.978268
O O19 0.189483 0.755550 0.873906
O O20 0.238256 0.500000 0.777679
O O21 0.891369 0.000000 0.480459
#
# Coordination Sequence:
#
# PCOD9193708 Si02
#       8
#     8   8   8   8   8   8   8   8
#     4  10  21  38  58  80 107 140 178 220 269 319
#     4   9  19  34  53  77 106 139 173 214 263 312
#     4  10  21  37  56  78 106 138 173 217 267 314
#     4   8  17  34  55  78 104 137 177 219 264 317
#     4   9  18  36  57  76 104 141 179 219 267 318
#     4  11  22  36  54  79 110 141 178 221 264 313
#     4  10  20  36  57  80 107 140 178 218 265 319
#     4  10  20  34  54  79 107 140 177 215 258 314
#
# _framework density 17.490037000000001
#
# number of rings (size 3 to 8) (size 9 to 14) (size 15 to 20)
#    0.000    2.375    0.000    4.125    0.000    5.500 
#    0.000    7.500    0.000    0.000    0.000    0.000 
#    0.000    0.000    0.000    0.000    0.000    0.000 
#
# Total GULP energy -178582.534593 kJ/mol
# GULP energy per Si atom -5580.704206 kJ/mol
# Density = 1.745023 g / cm^3
# Si number density = 17.490037 Si / 1000 Ang^3
#
#
#
# Elastic Constant Matrix: (Units=GPa)
#
#
# Indices 1 2 3 4 5 6 
#
# 1 173.7425 55.8463 119.8261 0.0087 -19.2666 -0.0073
# 2 55.8463 59.6298 54.0991 -0.0025 1.5097 -0.0102
# 3 119.8261 54.0991 144.9643 -0.0063 18.0366 -0.0086
# 4 0.0087 -0.0025 -0.0063 33.8555 0.0012 3.8633
# 5 -19.2666 1.5097 18.0366 0.0012 29.0022 0.0036
# 6 -0.0073 -0.0102 -0.0086 3.8633 0.0036 20.9591
#
#
#
# Elastic Compliance Matrix: (Units=1/GPa)
#
#
# Indices 1 2 3 4 5 6 
#
# 1 0.032756 -0.003802 -0.030770 -0.000015 0.041094 -0.000007
# 2 -0.003802 0.026468 -0.006773 0.000001 0.000309 0.000009
# 3 -0.030770 -0.006773 0.040493 0.000016 -0.045271 0.000007
# 4 -0.000015 0.000001 0.000016 0.030172 -0.000020 -0.005561
# 5 0.041094 0.000309 -0.045271 -0.000020 0.089918 -0.000016
# 6 -0.000007 0.000009 0.000007 -0.005561 -0.000016 0.048737
#
#
# Mechanical properties :
#
#
# Convention : Reuss Voigt Hill
#
# Bulk Modulus (GPa) = 58.73222 93.09773 75.91497
# Shear Modulus (GPa) = 14.00917 26.66772 20.33845
#
# Velocity S-wave (km/s) = 2.83323 3.90903 3.41377
# Velocity P-wave (km/s) = 6.66005 8.58595 7.68358
#
# Compressibility (1/GPa) = 0.01702643
#
# Stress axis : x y z
#
# Youngs Moduli (GPa) = 30.52878 37.78111 24.69591
#
# Poissons Ratio (x) = 0.14365 0.75989
# Poissons Ratio (y) = 0.11608 0.16727
# Poissons Ratio (z) = 0.93936 0.25590
#
# Static dielectric constant tensor:
#      x y z
#    x 1.581630 0.000000 -0.008710 
#    y 0.000000 1.590920 0.000000 
#    z -0.008710 0.000000 1.566820 
# 
# From -- ./inp_files/353264.got.cif
#   From: 2010.05.17/outbox.cif.g08.bks.cpg/sg12_177_cif.got.tgz:353264.got - 2010.06.03 13:09:07.
