data_PCOD9193735
_publ_section_title
;
Structure prediction by ZEFSAII (Michael W. Deem and Ramdas Pophale) SiO2 
 PCOD9193735
Probable space group: C 2/M
;
_chemical_formula_sum "Si O2"
_cell_formula_units_Z 40
_cell_length_a 15.576449
_cell_length_b 28.232107
_cell_length_c 9.671988
_cell_angle_alpha 90.000000
_cell_angle_beta 28.753703
_cell_angle_gamma 90.000000
_cell_volume 2046.037510
_symmetry_space_group_name_H-M "C 2/M"
_symmetry_group_IT_number 12
_symmetry_cell_setting 'monoclinic'
loop_
_space_group_symop_operation_xyz
x,y,z
-x,y,-z
-x,-y,-z
x,-y,z
1/2+x,1/2+y,z
1/2-x,1/2+y,-z
1/2-x,1/2-y,-z
1/2+x,1/2-y,z
loop_
_atom_site_type_symbol
_atom_site_label
_atom_site_fract_x
_atom_site_fract_y
_atom_site_fract_z
Si Si1 0.597129 0.689554 0.237538
Si Si2 0.471318 0.381765 0.888881
Si Si3 0.375403 0.127685 0.310825
Si Si4 0.859436 0.555545 0.574846
Si Si5 0.997672 0.708085 0.667760
O O1 0.500000 0.663836 0.500000
O O2 0.623269 0.655495 0.073695
O O3 0.475274 0.735088 0.371384
O O4 0.793297 0.704372 0.006889
O O5 0.673792 0.386001 0.549477
O O6 0.500000 0.360985 0.000000
O O7 0.337061 0.425566 0.101651
O O8 0.422007 0.086230 0.354835
O O9 0.390402 0.175227 0.385981
O O10 0.500000 0.131204 0.000000
O O11 0.850299 0.500000 0.555616
O O12 0.000000 0.562812 0.500000
O O13 0.000000 0.694537 0.500000
#
# Coordination Sequence:
#
# PCOD9193735 Si02
#       5
#     8   8   8   8   8
#     4  10  20  34  54  79 110 152 195 233 272 321
#     4  10  21  35  56  83 112 147 186 232 285 338
#     4  11  22  35  56  86 118 148 181 234 288 330
#     4  10  22  42  65  83 106 147 193 234 283 347
#     4  10  20  35  54  77 112 156 194 227 270 332
#
# _framework density 19.549983000000001
#
# number of rings (size 3 to 8) (size 9 to 14) (size 15 to 20)
#    0.000    1.800    0.000    5.400    0.000    5.600 
#    0.000    0.000    0.000    3.000    0.000    0.000 
#    0.000    0.000    0.000    0.000    0.000    0.000 
#
# Total GULP energy -111394.203574 kJ/mol
# GULP energy per Si atom -5569.710179 kJ/mol
# Density = 1.950549 g / cm^3
# Si number density = 19.549983 Si / 1000 Ang^3
#
#
#
# Elastic Constant Matrix: (Units=GPa)
#
#
# Indices 1 2 3 4 5 6 
#
# 1 25.0778 18.2184 -9.0229 0.0000 2.9373 0.0001
# 2 18.2184 71.6684 -9.1678 0.0001 11.4001 -0.0001
# 3 -9.0229 -9.1678 84.2657 0.0000 9.0479 0.0000
# 4 0.0000 0.0001 0.0000 25.9855 0.0000 -6.7885
# 5 2.9373 11.4001 9.0479 0.0000 22.5071 0.0000
# 6 0.0001 -0.0001 0.0000 -6.7885 0.0000 12.8974
#
#
#
# Elastic Compliance Matrix: (Units=1/GPa)
#
#
# Indices 1 2 3 4 5 6 
#
# 1 0.050334 -0.011873 0.004345 0.000000 -0.002302 0.000000
# 2 -0.011873 0.018537 0.001659 0.000000 -0.008506 0.000000
# 3 0.004345 0.001659 0.013235 0.000000 -0.006728 0.000000
# 4 0.000000 0.000000 0.000000 0.044618 0.000000 0.023485
# 5 -0.002302 -0.008506 -0.006728 0.000000 0.051744 0.000000
# 6 0.000000 0.000000 0.000000 0.023485 0.000000 0.089896
#
#
# Mechanical properties :
#
#
# Convention : Reuss Voigt Hill
#
# Bulk Modulus (GPa) = 14.21113 20.11859 17.16486
# Shear Modulus (GPa) = 16.47125 24.34362 20.40744
#
# Velocity S-wave (km/s) = 2.90577 3.53257 3.23439
# Velocity P-wave (km/s) = 4.30615 5.19152 4.76942
#
# Compressibility (1/GPa) = 0.07036740
#
# Stress axis : x y z
#
# Youngs Moduli (GPa) = 19.86712 53.94728 75.55533
#
# Poissons Ratio (x) = 0.64053 -0.32829
# Poissons Ratio (y) = 0.23589 -0.12532
# Poissons Ratio (z) = -0.08632 -0.08948
#
# Static dielectric constant tensor:
#      x y z
#    x 1.702140 0.000000 -0.015730 
#    y 0.000000 1.702810 0.000000 
#    z -0.015730 0.000000 1.729270 
# 
# From -- ./inp_files/41894.got.cif
#   From: 2010.05.17/outbox.cif.g08.bks.cpg/sg12_21_cif.got.tgz:41894.got - 2010.06.03 13:09:07.
