data_PCOD9193688
_publ_section_title
;
Structure prediction by ZEFSAII (Michael W. Deem and Ramdas Pophale) SiO2 
 PCOD9193688
Probable space group: C 2/M
;
_chemical_formula_sum "Si O2"
_cell_formula_units_Z 64
_cell_length_a 33.090661
_cell_length_b 7.455446
_cell_length_c 11.008636
_cell_angle_alpha 90.000000
_cell_angle_beta 95.679658
_cell_angle_gamma 90.000000
_cell_volume 2702.559605
_symmetry_space_group_name_H-M "C 2/M"
_symmetry_group_IT_number 12
_symmetry_cell_setting 'monoclinic'
loop_
_space_group_symop_operation_xyz
x,y,z
-x,y,-z
-x,-y,-z
x,-y,z
1/2+x,1/2+y,z
1/2-x,1/2+y,-z
1/2-x,1/2-y,-z
1/2+x,1/2-y,z
loop_
_atom_site_type_symbol
_atom_site_label
_atom_site_fract_x
_atom_site_fract_y
_atom_site_fract_z
Si Si1 0.109940 0.289262 0.662679
Si Si2 0.261019 0.705014 0.172982
Si Si3 0.159578 0.783460 0.922715
Si Si4 0.021110 0.780118 0.131632
Si Si5 0.017201 0.205720 0.629565
Si Si6 0.691196 0.781691 0.568538
Si Si7 0.691156 0.214443 0.302156
Si Si8 0.386338 0.286089 0.853000
O O1 0.103759 0.500000 0.643046
O O2 0.131059 0.259747 0.799456
O O3 0.065861 0.204667 0.641672
O O4 0.144323 0.229168 0.578015
O O5 0.254570 0.500000 0.132716
O O6 0.294710 0.784736 0.092501
O O7 0.283544 0.707192 0.311205
O O8 0.218029 0.789324 0.198408
O O9 0.162474 0.000000 0.929486
O O10 0.137233 0.714587 0.035557
O O11 0.067962 0.721006 0.147718
O O12 0.998279 0.718042 0.246754
O O13 0.019988 0.000000 0.129881
O O14 0.000000 0.722546 0.000000
O O15 0.000000 0.288459 0.500000
O O16 0.002131 0.000000 0.625814
O O17 0.704064 0.720018 0.438841
O O18 0.693538 0.000000 0.575787
O O19 0.643971 0.249525 0.266275
O O20 0.697022 0.000000 0.303552
O O21 0.389344 0.500000 0.869371
#
# Coordination Sequence:
#
# PCOD9193688 Si02
#       8
#     8   8   8   8   8   8   8   8
#     4  10  20  34  54  79 105 137 174 213 264 321
#     4   9  18  33  54  78 103 137 179 219 260 306
#     4   9  18  35  56  78 103 134 177 222 258 302
#     4   9  18  35  57  78 103 137 177 222 269 317
#     4  10  21  35  54  80 107 137 176 224 272 319
#     4   9  19  34  52  75 106 142 177 214 260 313
#     4  10  21  35  50  74 111 145 171 212 267 314
#     4  10  21  35  55  80 104 136 177 218 262 315
#
# _framework density 23.681253999999999
#
# number of rings (size 3 to 8) (size 9 to 14) (size 15 to 20)
#    0.000    2.500    0.000    1.500    1.750    4.750 
#    0.000    0.625    0.000    1.500    0.000    0.000 
#    0.000    0.000    0.000    0.000    0.000    0.000 
#
# Total GULP energy -178809.088964 kJ/mol
# GULP energy per Si atom -5587.784030 kJ/mol
# Density = 2.362735 g / cm^3
# Si number density = 23.681254 Si / 1000 Ang^3
#
#
#
# Elastic Constant Matrix: (Units=GPa)
#
#
# Indices 1 2 3 4 5 6 
#
# 1 149.4172 4.1530 44.0716 0.0000 -1.8673 0.0000
# 2 4.1530 76.3176 6.0088 0.0000 -5.7858 0.0000
# 3 44.0716 6.0088 120.9618 0.0000 -7.1104 0.0000
# 4 0.0000 0.0000 0.0000 6.7332 0.0000 16.0628
# 5 -1.8673 -5.7858 -7.1104 0.0000 33.1316 0.0000
# 6 0.0000 0.0000 0.0000 16.0628 0.0000 87.5506
#
#
#
# Elastic Compliance Matrix: (Units=1/GPa)
#
#
# Indices 1 2 3 4 5 6 
#
# 1 0.007503 -0.000208 -0.002735 0.000000 -0.000200 0.000000
# 2 -0.000208 0.013318 -0.000455 0.000000 0.002216 0.000000
# 3 -0.002735 -0.000455 0.009391 0.000000 0.001782 0.000000
# 4 0.000000 0.000000 0.000000 0.264116 0.000000 -0.048457
# 5 -0.000200 0.002216 0.001782 0.000000 0.030941 0.000000
# 6 0.000000 0.000000 0.000000 -0.048457 0.000000 0.020312
#
#
# Mechanical properties :
#
#
# Convention : Reuss Voigt Hill
#
# Bulk Modulus (GPa) = 42.70821 50.57373 46.64097
# Shear Modulus (GPa) = 13.88182 44.98062 29.43122
#
# Velocity S-wave (km/s) = 2.42377 4.36296 3.52917
# Velocity P-wave (km/s) = 5.08986 6.83981 6.02866
#
# Compressibility (1/GPa) = 0.02341470
#
# Stress axis : x y z
#
# Youngs Moduli (GPa) = 133.28616 75.08442 106.48597
#
# Poissons Ratio (x) = 0.01563 0.29124
# Poissons Ratio (y) = 0.02774 0.04850
# Poissons Ratio (z) = 0.36454 0.03420
#
# Static dielectric constant tensor:
#      x y z
#    x 1.885220 0.000000 -0.028070 
#    y 0.000000 1.906960 0.000000 
#    z -0.028070 0.000000 1.888000 
# 
# From -- ./inp_files/187591.got.cif
#   From: 2010.05.17/outbox.cif.g08.bks.cpg/sg12_94_cif.got.tgz:187591.got - 2010.06.03 13:09:07.
