data_PCOD9193903
_publ_section_title
;
Structure prediction by ZEFSAII (Michael W. Deem and Ramdas Pophale) SiO2 
 PCOD9193903
Probable space group: C 2/M
;
_chemical_formula_sum "Si O2"
_cell_formula_units_Z 64
_cell_length_a 14.787126
_cell_length_b 8.924208
_cell_length_c 29.419238
_cell_angle_alpha 90.000000
_cell_angle_beta 62.476742
_cell_angle_gamma 90.000000
_cell_volume 3442.880775
_symmetry_space_group_name_H-M "C 2/M"
_symmetry_group_IT_number 12
_symmetry_cell_setting 'monoclinic'
loop_
_space_group_symop_operation_xyz
x,y,z
-x,y,-z
-x,-y,-z
x,-y,z
1/2+x,1/2+y,z
1/2-x,1/2+y,-z
1/2-x,1/2-y,-z
1/2+x,1/2-y,z
loop_
_atom_site_type_symbol
_atom_site_label
_atom_site_fract_x
_atom_site_fract_y
_atom_site_fract_z
Si Si1 0.841290 0.821786 0.507913
Si Si2 0.446652 0.821130 0.783174
Si Si3 0.980993 0.180054 0.140893
Si Si4 0.074919 0.177651 0.674551
Si Si5 0.221400 0.819234 0.867390
Si Si6 0.018849 0.324792 0.593747
Si Si7 0.699416 0.825537 0.387187
Si Si8 0.207761 0.179196 0.055806
O O1 0.750000 0.750000 0.500000
O O2 0.821853 0.775583 0.564129
O O3 0.940849 0.748200 0.462119
O O4 0.844368 0.000000 0.502245
O O5 0.506215 0.755348 0.812925
O O6 0.496656 0.756870 0.726224
O O7 0.326890 0.781351 0.816755
O O8 0.454104 0.000000 0.781651
O O9 0.880208 0.226037 0.136419
O O10 0.087174 0.214186 0.090286
O O11 0.976025 0.000000 0.148193
O O12 0.064187 0.238433 0.625960
O O13 0.192417 0.209069 0.660467
O O14 0.058367 0.000000 0.679388
O O15 0.233587 0.744928 0.913972
O O16 0.218233 0.000000 0.873598
O O17 0.047908 0.500000 0.588067
O O18 0.896920 0.313114 0.623200
O O19 0.704035 0.000000 0.401815
O O20 0.218452 0.000000 0.052410
O O21 0.250000 0.250000 0.000000
#
# Coordination Sequence:
#
# PCOD9193903 Si02
#       8
#     8   8   8   8   8   8   8   8
#     4  12  23  37  60  86 114 148 184 226 276 333
#     4  10  21  37  58  83 111 142 182 236 286 329
#     4   9  19  37  59  81 108 148 193 230 274 335
#     4  11  23  40  60  82 113 150 186 228 277 338
#     4   9  19  37  59  81 109 148 191 233 279 331
#     4  11  23  40  61  85 113 146 184 230 279 334
#     4  10  23  41  60  83 113 148 185 226 278 335
#     4  10  20  34  54  82 117 152 188 232 277 328
#
# _framework density 18.589082999999999
#
# number of rings (size 3 to 8) (size 9 to 14) (size 15 to 20)
#    0.000    1.750    1.250    3.000    0.000    6.000 
#    0.000    7.500    0.000    0.000    0.000    0.000 
#    0.000    0.000    0.000    0.000    0.000    0.000 
#
# Total GULP energy -178716.891492 kJ/mol
# GULP energy per Si atom -5584.902859 kJ/mol
# Density = 1.854677 g / cm^3
# Si number density = 18.589083 Si / 1000 Ang^3
#
#
#
# Elastic Constant Matrix: (Units=GPa)
#
#
# Indices 1 2 3 4 5 6 
#
# 1 102.7796 25.6042 16.4685 0.0000 -6.2762 0.0000
# 2 25.6042 43.1710 24.5532 0.0000 -5.4251 0.0000
# 3 16.4685 24.5532 85.3183 0.0000 -4.8373 0.0000
# 4 0.0000 0.0000 0.0000 36.8504 0.0000 3.9734
# 5 -6.2762 -5.4251 -4.8373 0.0000 11.8034 0.0000
# 6 0.0000 0.0000 0.0000 3.9734 0.0000 24.7681
#
#
#
# Elastic Compliance Matrix: (Units=1/GPa)
#
#
# Indices 1 2 3 4 5 6 
#
# 1 0.011531 -0.006313 -0.000231 0.000000 0.003135 0.000000
# 2 -0.006313 0.032280 -0.007597 0.000000 0.008366 0.000000
# 3 -0.000231 -0.007597 0.014074 0.000000 0.002153 0.000000
# 4 0.000000 0.000000 0.000000 0.027614 0.000000 -0.004430
# 5 0.003135 0.008366 0.002153 0.000000 0.091116 0.000000
# 6 0.000000 0.000000 0.000000 -0.004430 0.000000 0.041085
#
#
# Mechanical properties :
#
#
# Convention : Reuss Voigt Hill
#
# Bulk Modulus (GPa) = 33.78134 40.50232 37.14183
# Shear Modulus (GPa) = 19.54271 25.66058 22.60165
#
# Velocity S-wave (km/s) = 3.24589 3.71942 3.49070
# Velocity P-wave (km/s) = 5.67978 6.34673 6.02249
#
# Compressibility (1/GPa) = 0.02960214
#
# Stress axis : x y z
#
# Youngs Moduli (GPa) = 86.72438 30.97896 71.05454
#
# Poissons Ratio (x) = 0.19558 0.01642
# Poissons Ratio (y) = 0.54753 0.53978
# Poissons Ratio (z) = 0.02004 0.23534
#
# Static dielectric constant tensor:
#      x y z
#    x 1.661810 0.000000 -0.030540 
#    y 0.000000 1.622980 0.000000 
#    z -0.030540 0.000000 1.618880 
# 
# From -- ./inp_files/375034.got.cif
#   From: 2010.05.17/outbox.cif.g08.bks.cpg/sg12_188_cif.got.tgz:375034.got - 2010.06.03 13:09:07.
