data_PCOD9193312
_publ_section_title
;
Structure prediction by ZEFSAII (Michael W. Deem and Ramdas Pophale) SiO2 
 PCOD9193312
Probable space group: C 2/M
;
_chemical_formula_sum "Si O2"
_cell_formula_units_Z 64
_cell_length_a 29.171180
_cell_length_b 8.514531
_cell_length_c 16.344312
_cell_angle_alpha 90.000000
_cell_angle_beta 116.630435
_cell_angle_gamma 90.000000
_cell_volume 3628.926830
_symmetry_space_group_name_H-M "C 2/M"
_symmetry_group_IT_number 12
_symmetry_cell_setting 'monoclinic'
loop_
_space_group_symop_operation_xyz
x,y,z
-x,y,-z
-x,-y,-z
x,-y,z
1/2+x,1/2+y,z
1/2-x,1/2+y,-z
1/2-x,1/2-y,-z
1/2+x,1/2-y,z
loop_
_atom_site_type_symbol
_atom_site_label
_atom_site_fract_x
_atom_site_fract_y
_atom_site_fract_z
Si Si1 0.848448 0.691156 0.395746
Si Si2 0.400137 0.191240 0.603970
Si Si3 0.635923 0.811705 0.247096
Si Si4 0.116136 0.309850 0.753755
Si Si5 0.510809 0.809827 0.753814
Si Si6 0.972873 0.188404 0.894417
Si Si7 0.261843 0.688296 0.755376
Si Si8 0.275474 0.313103 0.102804
O O1 0.849265 0.500000 0.398730
O O2 0.874112 0.748273 0.499844
O O3 0.878210 0.738210 0.336831
O O4 0.789262 0.738314 0.335389
O O5 0.370679 0.238999 0.663257
O O6 0.459501 0.237888 0.663360
O O7 0.399414 0.000000 0.601476
O O8 0.584454 0.755202 0.160547
O O9 0.686730 0.745783 0.246353
O O10 0.637293 0.000000 0.246458
O O11 0.117840 0.500000 0.757203
O O12 0.063133 0.258421 0.752443
O O13 0.166328 0.247640 0.840079
O O14 0.503972 0.746255 0.839893
O O15 0.510836 0.000000 0.757517
O O16 0.970334 0.000000 0.891297
O O17 0.000000 0.239001 0.000000
O O18 0.261705 0.500000 0.759518
O O19 0.254812 0.753213 0.841294
O O20 0.275324 0.500000 0.101969
O O21 0.250000 0.250000 0.000000
#
# Coordination Sequence:
#
# PCOD9193312 Si02
#       8
#     8   8   8   8   8   8   8   8
#     4   8  15  29  50  75 105 138 171 210 252 299
#     4   8  15  29  49  76 106 136 172 210 251 300
#     4  10  20  34  53  77 105 136 171 213 258 306
#     4   9  18  33  52  77 107 138 172 210 255 305
#     4   9  18  32  52  77 105 135 168 209 255 306
#     4  10  21  36  53  73  99 132 171 214 258 307
#     4  10  20  35  54  77 105 137 173 212 256 305
#     4  11  22  37  56  77 103 135 171 214 260 306
#
# _framework density 17.636068000000002
#
# number of rings (size 3 to 8) (size 9 to 14) (size 15 to 20)
#    0.000    2.625    0.000    3.750    0.000    3.500 
#    0.000    5.000    0.000   18.000    0.000    7.000 
#    0.000    0.000    0.000    0.000    0.000    0.000 
#
# Total GULP energy -178484.845395 kJ/mol
# GULP energy per Si atom -5577.651419 kJ/mol
# Density = 1.759593 g / cm^3
# Si number density = 17.636068 Si / 1000 Ang^3
#
#
#
# Elastic Constant Matrix: (Units=GPa)
#
#
# Indices 1 2 3 4 5 6 
#
# 1 197.9984 37.9795 109.6198 0.0000 -7.6868 0.0000
# 2 37.9795 37.6916 34.7442 0.0000 -0.8587 0.0000
# 3 109.6198 34.7442 201.1690 0.0000 1.9811 0.0000
# 4 0.0000 0.0000 0.0000 13.0551 0.0000 1.7294
# 5 -7.6868 -0.8587 1.9811 0.0000 5.8177 0.0000
# 6 0.0000 0.0000 0.0000 1.7294 0.0000 27.2874
#
#
#
# Elastic Compliance Matrix: (Units=1/GPa)
#
#
# Indices 1 2 3 4 5 6 
#
# 1 0.008653 -0.004742 -0.004015 0.000000 0.012100 0.000000
# 2 -0.004742 0.034403 -0.003357 0.000000 -0.000045 0.000000
# 3 -0.004015 -0.003357 0.007822 0.000000 -0.008464 0.000000
# 4 0.000000 0.000000 0.000000 0.077247 0.000000 -0.004896
# 5 0.012100 -0.000045 -0.008464 0.000000 0.190753 0.000000
# 6 0.000000 0.000000 0.000000 -0.004896 0.000000 0.036957
#
#
# Mechanical properties :
#
#
# Convention : Reuss Voigt Hill
#
# Bulk Modulus (GPa) = 37.52499 89.06066 63.29283
# Shear Modulus (GPa) = 12.85520 26.19973 19.52747
#
# Velocity S-wave (km/s) = 2.70277 3.85850 3.33114
# Velocity P-wave (km/s) = 5.57347 8.39401 7.12471
#
# Compressibility (1/GPa) = 0.02664890
#
# Stress axis : x y z
#
# Youngs Moduli (GPa) = 115.56775 29.06699 127.84262
#
# Poissons Ratio (x) = 0.13784 0.51332
# Poissons Ratio (y) = 0.54804 0.42921
# Poissons Ratio (z) = 0.46403 0.09759
#
# Static dielectric constant tensor:
#      x y z
#    x 1.580760 0.000000 -0.000010 
#    y 0.000000 1.605300 0.000000 
#    z -0.000010 0.000000 1.588210 
# 
# From -- ./inp_files/244201.got.cif
#   From: 2010.05.17/outbox.cif.g08.bks.cpg/sg12_123_cif.got.tgz:244201.got - 2010.06.03 13:09:07.
