data_PCOD9193014
_publ_section_title
;
Structure prediction by ZEFSAII (Michael W. Deem and Ramdas Pophale) SiO2 
 PCOD9193014
Probable space group: C 2/M
;
_chemical_formula_sum "Si O2"
_cell_formula_units_Z 60
_cell_length_a 8.145686
_cell_length_b 11.660771
_cell_length_c 31.443728
_cell_angle_alpha 90.000000
_cell_angle_beta 105.893386
_cell_angle_gamma 90.000000
_cell_volume 2872.509744
_symmetry_space_group_name_H-M "C 2/M"
_symmetry_group_IT_number 12
_symmetry_cell_setting 'monoclinic'
loop_
_space_group_symop_operation_xyz
x,y,z
-x,y,-z
-x,-y,-z
x,-y,z
1/2+x,1/2+y,z
1/2-x,1/2+y,-z
1/2-x,1/2-y,-z
1/2+x,1/2-y,z
loop_
_atom_site_type_symbol
_atom_site_label
_atom_site_fract_x
_atom_site_fract_y
_atom_site_fract_z
Si Si1 0.124064 0.628947 0.047272
Si Si2 0.000000 0.677439 0.500000
Si Si3 0.615344 0.800733 0.896402
Si Si4 0.585333 0.869164 0.749213
Si Si5 0.805074 0.877318 0.381608
Si Si6 0.668209 0.316608 0.434708
Si Si7 0.201959 0.130081 0.719680
Si Si8 0.363885 0.375494 0.843126
O O1 0.185017 0.500000 0.042894
O O2 0.012356 0.630993 0.082519
O O3 0.278515 0.714866 0.065950
O O4 0.000000 0.663453 0.000000
O O5 0.162121 0.621956 0.535305
O O6 0.084724 0.754933 0.469552
O O7 0.502516 0.723731 0.856420
O O8 0.751321 0.868670 0.878069
O O9 0.391949 0.867270 0.752872
O O10 0.606554 0.748100 0.725476
O O11 0.731312 0.864538 0.795208
O O12 0.601639 0.000000 0.730170
O O13 0.729072 0.776789 0.404613
O O14 0.771033 0.864231 0.329329
O O15 0.009051 0.879873 0.402622
O O16 0.733079 0.000000 0.391058
O O17 0.128961 0.000000 0.723562
O O18 0.449202 0.500000 0.846033
#
# Coordination Sequence:
#
# PCOD9193014 Si02
#       8
#     8   4   8   8   8   8   8   8
#     4  10  20  34  52  75 103 135 173 216 260 309
#     4   8  16  32  52  76 108 138 168 222 264 308
#     4  10  20  34  53  76 103 137 174 212 263 315
#     4  10  21  37  57  82 110 143 182 225 273 324
#     4  10  20  35  55  77 104 140 177 216 264 317
#     4   9  17  34  54  75 107 138 173 217 264 310
#     4  10  21  37  56  81 112 145 183 225 271 324
#     4  10  20  35  54  77 106 137 174 218 264 317
#
# _framework density 20.887656
#
# number of rings (size 3 to 8) (size 9 to 14) (size 15 to 20)
#    0.000    2.267    0.000    2.800    0.000    0.533 
#    0.000   19.333    0.000    6.400    0.000    0.000 
#    0.000    0.000    0.000    0.000    0.000    0.000 
#
# Total GULP energy -167116.853824 kJ/mol
# GULP energy per Si atom -5570.561794 kJ/mol
# Density = 2.084012 g / cm^3
# Si number density = 20.887656 Si / 1000 Ang^3
#
#
#
# Elastic Constant Matrix: (Units=GPa)
#
#
# Indices 1 2 3 4 5 6 
#
# 1 42.2577 23.1866 -9.0025 0.0000 8.2269 0.0000
# 2 23.1866 130.6130 17.3877 0.0000 -7.3004 0.0000
# 3 -9.0025 17.3877 51.0346 0.0000 15.2812 0.0000
# 4 0.0000 0.0000 0.0000 8.4769 0.0000 1.9718
# 5 8.2269 -7.3004 15.2812 0.0000 32.0002 0.0000
# 6 0.0000 0.0000 0.0000 1.9718 0.0000 3.0607
#
#
#
# Elastic Compliance Matrix: (Units=1/GPa)
#
#
# Indices 1 2 3 4 5 6 
#
# 1 0.035562 -0.009335 0.014969 0.000000 -0.018421 0.000000
# 2 -0.009335 0.010855 -0.007941 0.000000 0.008668 0.000000
# 3 0.014969 -0.007941 0.031079 0.000000 -0.020502 0.000000
# 4 0.000000 0.000000 0.000000 0.138760 0.000000 -0.089390
# 5 -0.018421 0.008668 -0.020502 0.000000 0.047753 0.000000
# 6 0.000000 0.000000 0.000000 -0.089390 0.000000 0.384304
#
#
# Mechanical properties :
#
#
# Convention : Reuss Voigt Hill
#
# Bulk Modulus (GPa) = 13.72060 31.89434 22.80747
# Shear Modulus (GPa) = 7.38311 21.52979 14.45645
#
# Velocity S-wave (km/s) = 1.88211 3.21400 2.63364
# Velocity P-wave (km/s) = 3.36246 5.39219 4.49343
#
# Compressibility (1/GPa) = 0.07288310
#
# Stress axis : x y z
#
# Youngs Moduli (GPa) = 28.11994 92.12305 32.17566
#
# Poissons Ratio (x) = 0.86001 -0.48165
# Poissons Ratio (y) = 0.26251 0.25550
# Poissons Ratio (z) = -0.42094 0.73152
#
# Static dielectric constant tensor:
#      x y z
#    x 1.728770 0.000000 0.033500 
#    y 0.000000 1.463430 0.000000 
#    z 0.033500 0.000000 1.750750 
# 
# From -- ./inp_files/372208.got.cif
#   From: 2010.05.17/outbox.cif.g08.bks.cpg/sg12_187_cif.got.tgz:372208.got - 2010.06.03 13:09:07.
