data_PCOD9193915
_publ_section_title
;
Structure prediction by ZEFSAII (Michael W. Deem and Ramdas Pophale) SiO2 
 PCOD9193915
Probable space group: C 2/M
;
_chemical_formula_sum "Si O2"
_cell_formula_units_Z 40
_cell_length_a 16.570437
_cell_length_b 24.533822
_cell_length_c 5.099362
_cell_angle_alpha 90.000000
_cell_angle_beta 101.388553
_cell_angle_gamma 90.000000
_cell_volume 2032.257494
_symmetry_space_group_name_H-M "C 2/M"
_symmetry_group_IT_number 12
_symmetry_cell_setting 'monoclinic'
loop_
_space_group_symop_operation_xyz
x,y,z
-x,y,-z
-x,-y,-z
x,-y,z
1/2+x,1/2+y,z
1/2-x,1/2+y,-z
1/2-x,1/2-y,-z
1/2+x,1/2-y,z
loop_
_atom_site_type_symbol
_atom_site_label
_atom_site_fract_x
_atom_site_fract_y
_atom_site_fract_z
Si Si1 0.338223 0.061586 0.417933
Si Si2 0.049170 0.934329 0.783332
Si Si3 0.762562 0.093367 0.164457
Si Si4 0.446279 0.838716 0.710612
Si Si5 0.718689 0.783096 0.231726
O O1 0.267214 0.062426 0.594109
O O2 0.401350 0.107631 0.561050
O O3 0.371870 0.000000 0.419742
O O4 0.298339 0.078901 0.115139
O O5 0.144600 0.920295 0.848017
O O6 0.000000 0.914034 0.500000
O O7 0.044478 0.000000 0.780587
O O8 0.000000 0.913004 0.000000
O O9 0.756587 0.156918 0.227247
O O10 0.500000 0.816752 0.500000
O O11 0.377594 0.796683 0.775710
O O12 0.500000 0.853880 0.000000
O O13 0.750000 0.750000 0.500000
O O14 0.750000 0.750000 0.000000
#
# Coordination Sequence:
#
# PCOD9193915 Si02
#       5
#     8   8   8   8   8
#     4  11  22  37  62  92 124 165 202 239 298 373
#     4  10  20  34  54  82 118 156 191 239 303 358
#     4  11  22  39  60  87 121 158 209 256 296 365
#     4  11  23  41  63  92 127 159 201 256 310 364
#     4  11  23  43  66  86 114 159 207 252 305 359
#
# _framework density 19.682545999999999
#
# number of rings (size 3 to 8) (size 9 to 14) (size 15 to 20)
#    0.000    1.200    0.000    9.000    0.000    2.400 
#    0.000    6.000    0.000    0.000    0.000    0.000 
#    0.000    0.000    0.000    0.000    0.000    0.000 
#
# Total GULP energy -111693.539086 kJ/mol
# GULP energy per Si atom -5584.676954 kJ/mol
# Density = 1.963775 g / cm^3
# Si number density = 19.682546 Si / 1000 Ang^3
#
#
#
# Elastic Constant Matrix: (Units=GPa)
#
#
# Indices 1 2 3 4 5 6 
#
# 1 109.1142 17.0623 37.4468 0.0000 -13.2357 0.0000
# 2 17.0623 96.5669 43.7748 0.0000 -4.3807 0.0000
# 3 37.4468 43.7748 154.5850 0.0000 -10.9746 0.0000
# 4 0.0000 0.0000 0.0000 91.6129 0.0000 -38.2491
# 5 -13.2357 -4.3807 -10.9746 0.0000 41.3509 0.0000
# 6 0.0000 0.0000 0.0000 -38.2491 0.0000 28.9977
#
#
#
# Elastic Compliance Matrix: (Units=1/GPa)
#
#
# Indices 1 2 3 4 5 6 
#
# 1 0.010326 -0.000752 -0.002099 0.000000 0.002669 0.000000
# 2 -0.000752 0.011941 -0.003187 0.000000 0.000179 0.000000
# 3 -0.002099 -0.003187 0.007958 0.000000 0.001103 0.000000
# 4 0.000000 0.000000 0.000000 0.024295 0.000000 0.032046
# 5 0.002669 0.000179 0.001103 0.000000 0.025349 0.000000
# 6 0.000000 0.000000 0.000000 0.032046 0.000000 0.076755
#
#
# Mechanical properties :
#
#
# Convention : Reuss Voigt Hill
#
# Bulk Modulus (GPa) = 55.09581 61.87041 58.48311
# Shear Modulus (GPa) = 28.61233 49.85780 39.23506
#
# Velocity S-wave (km/s) = 3.81687 5.03845 4.46959
# Velocity P-wave (km/s) = 6.89040 8.08396 7.51092
#
# Compressibility (1/GPa) = 0.01815020
#
# Stress axis : x y z
#
# Youngs Moduli (GPa) = 96.83937 83.74523 125.65893
#
# Poissons Ratio (x) = 0.06297 0.26377
# Poissons Ratio (y) = 0.07282 0.40042
# Poissons Ratio (z) = 0.20327 0.26686
#
# Static dielectric constant tensor:
#      x y z
#    x 1.710710 0.000000 -0.010340 
#    y 0.000000 1.686140 0.000000 
#    z -0.010340 0.000000 1.668180 
# 
# From -- ./inp_files/11697.got.cif
#   From: 2010.05.17/outbox.cif.g08.bks.cpg/sg12_6_cif.got.tgz:11697.got - 2010.06.03 13:09:07.
