data_PCOD9193124
_publ_section_title
;
Structure prediction by ZEFSAII (Michael W. Deem and Ramdas Pophale) SiO2 
 PCOD9193124
Probable space group: C 2/M
;
_chemical_formula_sum "Si O2"
_cell_formula_units_Z 56
_cell_length_a 8.739018
_cell_length_b 11.420122
_cell_length_c 27.853684
_cell_angle_alpha 90.000000
_cell_angle_beta 109.878693
_cell_angle_gamma 90.000000
_cell_volume 2614.179494
_symmetry_space_group_name_H-M "C 2/M"
_symmetry_group_IT_number 12
_symmetry_cell_setting 'monoclinic'
loop_
_space_group_symop_operation_xyz
x,y,z
-x,y,-z
-x,-y,-z
x,-y,z
1/2+x,1/2+y,z
1/2-x,1/2+y,-z
1/2-x,1/2-y,-z
1/2+x,1/2-y,z
loop_
_atom_site_type_symbol
_atom_site_label
_atom_site_fract_x
_atom_site_fract_y
_atom_site_fract_z
Si Si1 0.225047 0.133488 0.695351
Si Si2 0.261527 0.625710 0.443180
Si Si3 0.628707 0.205640 0.877281
Si Si4 0.517900 0.366192 0.056166
Si Si5 0.774459 0.370936 0.814029
Si Si6 0.971567 0.370765 0.344559
Si Si7 0.821502 0.623695 0.458777
O O1 0.258588 0.146907 0.755522
O O2 0.390533 0.133775 0.682189
O O3 0.125207 0.249315 0.669603
O O4 0.154238 0.000000 0.681004
O O5 0.331293 0.500000 0.433849
O O6 0.075350 0.623048 0.405012
O O7 0.285350 0.629155 0.503305
O O8 0.312815 0.753428 0.431162
O O9 0.581968 0.291463 0.916086
O O10 0.676403 0.277828 0.834788
O O11 0.464045 0.136232 0.848710
O O12 0.791944 0.138077 0.909215
O O13 0.459716 0.500000 0.050400
O O14 0.500000 0.319915 0.000000
O O15 0.710568 0.500000 0.818922
O O16 0.888051 0.500000 0.330440
O O17 0.219453 0.500000 0.570057
O O18 0.000000 0.616524 0.500000
#
# Coordination Sequence:
#
# PCOD9193124 Si02
#       7
#     8   8   8   8   8   8   8
#     4  10  22  39  58  83 112 144 184 232 283 335
#     4   9  19  34  50  73 104 136 172 218 266 321
#     4  10  20  34  55  80 105 143 184 221 271 322
#     4  10  20  34  52  78 112 145 180 222 266 318
#     4  10  20  36  56  78 107 139 180 230 274 323
#     4  10  22  39  58  83 114 146 184 228 280 338
#     4   9  18  32  51  75 101 133 174 217 261 315
#
# _framework density 21.421634000000001
#
# number of rings (size 3 to 8) (size 9 to 14) (size 15 to 20)
#    0.000    2.286    0.000    2.143    2.000    1.429 
#    0.000    3.571    0.000    6.857    0.000    0.000 
#    0.000    0.000    0.000    0.000    0.000    0.000 
#
# Total GULP energy -156100.140133 kJ/mol
# GULP energy per Si atom -5575.005005 kJ/mol
# Density = 2.137288 g / cm^3
# Si number density = 21.421634 Si / 1000 Ang^3
#
#
#
# Elastic Constant Matrix: (Units=GPa)
#
#
# Indices 1 2 3 4 5 6 
#
# 1 44.9405 29.7250 9.9628 0.0000 -17.5942 0.0000
# 2 29.7250 198.7757 39.4772 0.0000 -4.0161 0.0000
# 3 9.9628 39.4772 92.7302 0.0000 -24.7149 0.0000
# 4 0.0000 0.0000 0.0000 0.7756 0.0000 4.3588
# 5 -17.5942 -4.0161 -24.7149 0.0000 31.8852 0.0000
# 6 0.0000 0.0000 0.0000 4.3588 0.0000 52.1103
#
#
#
# Elastic Compliance Matrix: (Units=1/GPa)
#
#
# Indices 1 2 3 4 5 6 
#
# 1 0.033026 -0.005372 0.004305 0.000000 0.020884 0.000000
# 2 -0.005372 0.006420 -0.003442 0.000000 -0.004823 0.000000
# 3 0.004305 -0.003442 0.015508 0.000000 0.013962 0.000000
# 4 0.000000 0.000000 0.000000 2.433250 0.000000 -0.203531
# 5 0.020884 -0.004823 0.013962 0.000000 0.053101 0.000000
# 6 0.000000 0.000000 0.000000 -0.203531 0.000000 0.036215
#
#
# Mechanical properties :
#
#
# Convention : Reuss Voigt Hill
#
# Bulk Modulus (GPa) = 21.76879 54.97516 38.37197
# Shear Modulus (GPa) = 1.92171 34.10631 18.01401
#
# Velocity S-wave (km/s) = 0.94817 3.99450 2.90302
# Velocity P-wave (km/s) = 3.37385 6.85520 5.40262
#
# Compressibility (1/GPa) = 0.04593733
#
# Stress axis : x y z
#
# Youngs Moduli (GPa) = 30.27872 155.75993 64.48307
#
# Poissons Ratio (x) = 0.83670 -0.27758
# Poissons Ratio (y) = 0.16265 0.22192
# Poissons Ratio (z) = -0.13034 0.53605
#
# Static dielectric constant tensor:
#      x y z
#    x 1.796820 0.000000 -0.029380 
#    y 0.000000 1.828540 0.000000 
#    z -0.029380 0.000000 1.763670 
# 
# From -- ./inp_files/355848.got.cif
#   From: 2010.05.17/outbox.cif.g08.bks.cpg/sg12_178_cif.got.tgz:355848.got - 2010.06.03 13:09:07.
