data_PCOD9193871
_publ_section_title
;
Structure prediction by ZEFSAII (Michael W. Deem and Ramdas Pophale) SiO2 
 PCOD9193871
Probable space group: C 2/M
;
_chemical_formula_sum "Si O2"
_cell_formula_units_Z 64
_cell_length_a 18.786878
_cell_length_b 23.695461
_cell_length_c 15.191481
_cell_angle_alpha 90.000000
_cell_angle_beta 151.603541
_cell_angle_gamma 90.000000
_cell_volume 3216.134482
_symmetry_space_group_name_H-M "C 2/M"
_symmetry_group_IT_number 12
_symmetry_cell_setting 'monoclinic'
loop_
_space_group_symop_operation_xyz
x,y,z
-x,y,-z
-x,-y,-z
x,-y,z
1/2+x,1/2+y,z
1/2-x,1/2+y,-z
1/2-x,1/2-y,-z
1/2+x,1/2-y,z
loop_
_atom_site_type_symbol
_atom_site_label
_atom_site_fract_x
_atom_site_fract_y
_atom_site_fract_z
Si Si1 0.287200 0.937168 0.660095
Si Si2 0.464766 0.564692 0.766450
Si Si3 0.658463 0.324527 0.320721
Si Si4 0.119553 0.758022 0.929631
Si Si5 0.176265 0.120659 0.705381
Si Si6 0.732401 0.067317 0.008551
Si Si7 0.469480 0.859570 0.746813
Si Si8 0.671108 0.238647 0.173290
O O1 0.240518 0.924928 0.707682
O O2 0.414030 0.894125 0.770070
O O3 0.145701 0.930154 0.439412
O O4 0.343739 0.000000 0.709353
O O5 0.450032 0.500000 0.782038
O O6 0.412355 0.613783 0.775533
O O7 0.632914 0.573916 0.914513
O O8 0.529625 0.296628 0.244118
O O9 0.818939 0.337855 0.536912
O O10 0.690856 0.280871 0.277035
O O11 0.057715 0.695182 0.870472
O O12 0.250000 0.750000 0.000000
O O13 0.183817 0.773293 0.095584
O O14 0.219002 0.100621 0.849785
O O15 0.231570 0.182569 0.733950
O O16 0.000000 0.120494 0.500000
O O17 0.714179 0.000000 0.004164
O O18 0.578814 0.098229 0.813014
O O19 0.500000 0.219984 0.000000
#
# Coordination Sequence:
#
# PCOD9193871 Si02
#       8
#     8   8   8   8   8   8   8   8
#     4  10  20  34  54  81 117 163 206 249 305 374
#     4   9  19  37  60  87 117 156 211 263 311 370
#     4  10  22  39  63  89 126 164 211 258 321 374
#     4  11  22  39  66  88 122 162 209 262 315 371
#     4  12  23  35  57  84 130 168 210 260 321 384
#     4  11  22  37  58  89 128 170 213 263 319 389
#     4  11  22  38  56  87 123 162 213 257 307 379
#     4  10  23  42  59  89 126 166 208 259 311 375
#
# _framework density 19.899664999999999
#
# number of rings (size 3 to 8) (size 9 to 14) (size 15 to 20)
#    0.000    1.500    2.500    3.375    0.000    3.000 
#    0.000    1.250    0.000    3.375    0.000    0.000 
#    0.000   25.500    0.000    0.000    0.000    0.000 
#
# Total GULP energy -178473.163349 kJ/mol
# GULP energy per Si atom -5577.286355 kJ/mol
# Density = 1.985437 g / cm^3
# Si number density = 19.899665 Si / 1000 Ang^3
#
#
#
# Elastic Constant Matrix: (Units=GPa)
#
#
# Indices 1 2 3 4 5 6 
#
# 1 79.7076 36.5386 31.8209 0.0000 11.0160 0.0000
# 2 36.5386 125.2818 38.6735 0.0000 5.2465 0.0000
# 3 31.8209 38.6735 67.1731 0.0000 12.2673 0.0000
# 4 0.0000 0.0000 0.0000 29.7381 0.0000 11.6743
# 5 11.0160 5.2465 12.2673 0.0000 15.9285 0.0000
# 6 0.0000 0.0000 0.0000 11.6743 0.0000 19.7567
#
#
#
# Elastic Compliance Matrix: (Units=1/GPa)
#
#
# Indices 1 2 3 4 5 6 
#
# 1 0.016899 -0.003109 -0.004966 0.000000 -0.006838 0.000000
# 2 -0.003109 0.010302 -0.004924 0.000000 0.002549 0.000000
# 3 -0.004966 -0.004924 0.022285 0.000000 -0.012106 0.000000
# 4 0.000000 0.000000 0.000000 0.043783 0.000000 -0.025872
# 5 -0.006838 0.002549 -0.012106 0.000000 0.075994 0.000000
# 6 0.000000 0.000000 0.000000 -0.025872 0.000000 0.065903
#
#
# Mechanical properties :
#
#
# Convention : Reuss Voigt Hill
#
# Bulk Modulus (GPa) = 42.57617 54.02539 48.30078
# Shear Modulus (GPa) = 18.58777 24.09331 21.34054
#
# Velocity S-wave (km/s) = 3.05958 3.48334 3.27832
# Velocity P-wave (km/s) = 5.82437 6.58681 6.21729
#
# Compressibility (1/GPa) = 0.02348732
#
# Stress axis : x y z
#
# Youngs Moduli (GPa) = 59.17562 97.06870 44.87265
#
# Poissons Ratio (x) = 0.30180 0.22286
# Poissons Ratio (y) = 0.18398 0.22095
# Poissons Ratio (z) = 0.29389 0.47795
#
# Static dielectric constant tensor:
#      x y z
#    x 1.743230 0.000000 -0.009360 
#    y 0.000000 1.724930 0.000000 
#    z -0.009360 0.000000 1.752900 
# 
# From -- ./inp_files/228173.got.cif
#   From: 2010.05.17/outbox.cif.g08.bks.cpg/sg12_115_cif.got.tgz:228173.got - 2010.06.03 13:09:07.
