data_PCOD9193687
_publ_section_title
;
Structure prediction by ZEFSAII (Michael W. Deem and Ramdas Pophale) SiO2 
 PCOD9193687
Probable space group: C 2/M
;
_chemical_formula_sum "Si O2"
_cell_formula_units_Z 56
_cell_length_a 22.381096
_cell_length_b 9.500219
_cell_length_c 20.145330
_cell_angle_alpha 90.000000
_cell_angle_beta 47.734656
_cell_angle_gamma 90.000000
_cell_volume 3169.884194
_symmetry_space_group_name_H-M "C 2/M"
_symmetry_group_IT_number 12
_symmetry_cell_setting 'monoclinic'
loop_
_space_group_symop_operation_xyz
x,y,z
-x,y,-z
-x,-y,-z
x,-y,z
1/2+x,1/2+y,z
1/2-x,1/2+y,-z
1/2-x,1/2-y,-z
1/2+x,1/2-y,z
loop_
_atom_site_type_symbol
_atom_site_label
_atom_site_fract_x
_atom_site_fract_y
_atom_site_fract_z
Si Si1 0.879085 0.841613 0.543093
Si Si2 0.429177 0.667265 0.243616
Si Si3 0.955648 0.340553 0.753444
Si Si4 0.023862 0.330399 0.058804
Si Si5 0.748317 0.334696 0.569772
Si Si6 0.062030 0.157866 0.353647
Si Si7 0.674247 0.839893 0.031184
O O1 0.821895 0.723743 0.557449
O O2 0.889527 0.828838 0.614231
O O3 0.968014 0.831824 0.444774
O O4 0.848342 0.000000 0.550998
O O5 0.445408 0.500000 0.227408
O O6 0.475299 0.736586 0.271573
O O7 0.464228 0.747046 0.152894
O O8 0.334736 0.688616 0.327940
O O9 0.985581 0.500000 0.721993
O O10 0.920169 0.276082 0.713046
O O11 0.888308 0.342329 0.860799
O O12 0.016598 0.500000 0.075570
O O13 0.116046 0.292842 0.013127
O O14 0.000000 0.303084 0.000000
O O15 0.755035 0.500000 0.551252
O O16 0.750000 0.250000 0.500000
O O17 0.075664 0.000000 0.316359
O O18 0.701141 0.000000 0.997065
O O19 0.750000 0.750000 0.000000
#
# Coordination Sequence:
#
# PCOD9193687 Si02
#       7
#     8   8   8   8   8   8   8
#     4   9  19  35  53  74 104 138 176 219 261 310
#     4  10  21  36  54  79 109 141 180 223 265 319
#     4  10  20  34  54  79 105 136 175 217 262 314
#     4   9  19  38  61  83 109 142 183 229 276 329
#     4  11  23  36  52  77 109 142 180 223 267 315
#     4   9  18  34  54  76 102 136 176 217 262 313
#     4   9  19  35  54  79 108 137 173 219 268 319
#
# _framework density 17.666260999999999
#
# number of rings (size 3 to 8) (size 9 to 14) (size 15 to 20)
#    0.000    2.429    0.000    3.857    0.000   10.000 
#    2.571    1.429    0.000    0.000    0.000    0.000 
#    0.000    0.000    0.000    0.000    0.000    0.000 
#
# Total GULP energy -156109.569905 kJ/mol
# GULP energy per Si atom -5575.341782 kJ/mol
# Density = 1.762605 g / cm^3
# Si number density = 17.666261 Si / 1000 Ang^3
#
#
#
# Elastic Constant Matrix: (Units=GPa)
#
#
# Indices 1 2 3 4 5 6 
#
# 1 108.1627 60.7857 36.5469 0.0000 -1.0756 0.0000
# 2 60.7857 87.3939 38.8060 0.0001 -0.9602 0.0000
# 3 36.5469 38.8060 32.3898 0.0000 9.0645 0.0000
# 4 0.0000 0.0001 0.0000 31.2480 0.0000 0.0733
# 5 -1.0756 -0.9602 9.0645 0.0000 26.8446 0.0000
# 6 0.0000 0.0000 0.0000 0.0733 0.0000 33.9731
#
#
#
# Elastic Compliance Matrix: (Units=1/GPa)
#
#
# Indices 1 2 3 4 5 6 
#
# 1 0.017270 -0.005651 -0.014194 0.000000 0.005283 0.000000
# 2 -0.005651 0.030296 -0.033309 0.000000 0.012105 0.000000
# 3 -0.014194 -0.033309 0.096399 0.000000 -0.034311 0.000000
# 4 0.000000 0.000000 0.000000 0.032002 0.000000 -0.000069
# 5 0.005283 0.012105 -0.034311 0.000000 0.049482 0.000000
# 6 0.000000 0.000000 0.000000 -0.000069 0.000000 0.029435
#
#
# Mechanical properties :
#
#
# Convention : Reuss Voigt Hill
#
# Bulk Modulus (GPa) = 26.55558 55.58039 41.06798
# Shear Modulus (GPa) = 13.37810 24.53367 18.95589
#
# Velocity S-wave (km/s) = 2.75484 3.73061 3.27922
# Velocity P-wave (km/s) = 5.01829 7.07716 6.13472
#
# Compressibility (1/GPa) = 0.03765688
#
# Stress axis : x y z
#
# Youngs Moduli (GPa) = 57.90513 33.00735 10.37351
#
# Poissons Ratio (x) = 0.18652 0.14724
# Poissons Ratio (y) = 0.32722 0.34553
# Poissons Ratio (z) = 0.82192 1.09945
#
# Static dielectric constant tensor:
#      x y z
#    x 1.619710 0.000000 0.004080 
#    y 0.000000 1.605440 0.000000 
#    z 0.004080 0.000000 1.587170 
# 
# From -- ./inp_files/319660.got.cif
#   From: 2010.05.17/outbox.cif.g08.bks.cpg/sg12_160_cif.got.tgz:319660.got - 2010.06.03 13:09:07.
