data_PCOD9193081
_publ_section_title
;
Structure prediction by ZEFSAII (Michael W. Deem and Ramdas Pophale) SiO2 
 PCOD9193081
Probable space group: C 2/M
;
_chemical_formula_sum "Si O2"
_cell_formula_units_Z 64
_cell_length_a 16.226712
_cell_length_b 7.569768
_cell_length_c 24.436254
_cell_angle_alpha 90.000000
_cell_angle_beta 98.522480
_cell_angle_gamma 90.000000
_cell_volume 2968.420935
_symmetry_space_group_name_H-M "C 2/M"
_symmetry_group_IT_number 12
_symmetry_cell_setting 'monoclinic'
loop_
_space_group_symop_operation_xyz
x,y,z
-x,y,-z
-x,-y,-z
x,-y,z
1/2+x,1/2+y,z
1/2-x,1/2+y,-z
1/2-x,1/2-y,-z
1/2+x,1/2-y,z
loop_
_atom_site_type_symbol
_atom_site_label
_atom_site_fract_x
_atom_site_fract_y
_atom_site_fract_z
Si Si1 0.265568 0.789972 0.438160
Si Si2 0.681283 0.796812 0.321820
Si Si3 0.545390 0.216002 0.559733
Si Si4 0.328601 0.286016 0.259884
Si Si5 0.723537 0.709142 0.864610
Si Si6 0.006773 0.710344 0.327442
Si Si7 0.605074 0.784005 0.065738
Si Si8 0.580846 0.787102 0.937951
O O1 0.250000 0.750000 0.500000
O O2 0.202653 0.707936 0.388384
O O3 0.358513 0.729070 0.432342
O O4 0.261089 0.000000 0.430322
O O5 0.759116 0.719847 0.296201
O O6 0.589540 0.716498 0.306787
O O7 0.676727 0.000000 0.302659
O O8 0.500000 0.273899 0.500000
O O9 0.504186 0.279104 0.611792
O O10 0.544245 0.000000 0.559626
O O11 0.328622 0.500000 0.260226
O O12 0.304419 0.221327 0.197148
O O13 0.420954 0.234890 0.287215
O O14 0.736367 0.500000 0.858631
O O15 0.811826 0.779526 0.895744
O O16 0.649491 0.731681 0.900982
O O17 0.020047 0.500000 0.333989
O O18 0.515099 0.729453 0.081149
O O19 0.605992 0.000000 0.066299
O O20 0.605425 0.730332 0.001897
O O21 0.579953 0.000000 0.937988
#
# Coordination Sequence:
#
# PCOD9193081 Si02
#       8
#     8   8   8   8   8   8   8   8
#     4  11  21  34  55  82 113 144 175 217 270 326
#     4  10  21  38  59  80 106 141 181 223 271 327
#     4   9  17  31  52  78 106 133 166 211 261 314
#     4  10  22  38  54  77 111 146 181 227 274 321
#     4  10  20  34  52  76 110 149 182 220 277 329
#     4  10  20  37  60  81 103 139 182 223 270 323
#     4   8  16  32  54  79 111 145 180 224 277 327
#     4   9  17  32  55  82 108 141 185 231 269 316
#
# _framework density 21.560286000000001
#
# number of rings (size 3 to 8) (size 9 to 14) (size 15 to 20)
#    0.000    2.375    1.250    2.250    0.000    4.000 
#    0.000    4.375    0.000    1.875    0.000    0.000 
#    0.000    0.000    0.000    0.000    0.000    0.000 
#
# Total GULP energy -178691.681386 kJ/mol
# GULP energy per Si atom -5584.115043 kJ/mol
# Density = 2.151121 g / cm^3
# Si number density = 21.560286 Si / 1000 Ang^3
#
#
#
# Elastic Constant Matrix: (Units=GPa)
#
#
# Indices 1 2 3 4 5 6 
#
# 1 193.4341 -3.1594 73.5741 0.0000 19.4990 0.0000
# 2 -3.1594 48.9962 -9.6067 0.0000 0.1307 0.0000
# 3 73.5741 -9.6067 96.7425 0.0000 25.6740 0.0000
# 4 0.0000 0.0000 0.0000 11.3701 0.0000 -21.9868
# 5 19.4990 0.1307 25.6740 0.0000 20.7257 0.0000
# 6 0.0000 0.0000 0.0000 -21.9868 0.0000 -85.2776
#
#
#
# Elastic Compliance Matrix: (Units=1/GPa)
#
#
# Indices 1 2 3 4 5 6 
#
# 1 0.007293 -0.000637 -0.005646 0.000000 0.000137 0.000000
# 2 -0.000637 0.021097 0.003658 0.000000 -0.004066 0.000000
# 3 -0.005646 0.003658 0.020246 0.000000 -0.019791 0.000000
# 4 0.000000 0.000000 0.000000 0.058689 0.000000 -0.015132
# 5 0.000137 -0.004066 -0.019791 0.000000 0.072663 0.000000
# 6 0.000000 0.000000 0.000000 -0.015132 0.000000 -0.007825
#
#
# Mechanical properties :
#
#
# Convention : Reuss Voigt Hill
#
# Bulk Modulus (GPa) = 23.04856 51.19875 37.12365
# Shear Modulus (GPa) = 26.05871 7.92130 16.99000
#
# Velocity S-wave (km/s) = 3.48033 1.91885 2.81022
# Velocity P-wave (km/s) = 5.18302 5.35795 5.27121
#
# Compressibility (1/GPa) = 0.04338666
#
# Stress axis : x y z
#
# Youngs Moduli (GPa) = 137.11725 47.40055 49.39213
#
# Poissons Ratio (x) = 0.03020 0.27887
# Poissons Ratio (y) = 0.08736 -0.18070
# Poissons Ratio (z) = 0.77416 -0.17341
#
# Static dielectric constant tensor:
#      x y z
#    x 1.779190 0.000000 0.008610 
#    y 0.000000 1.826770 0.000000 
#    z 0.008610 0.000000 1.728140 
# 
# From -- ./inp_files/338792.got.cif
#   From: 2010.05.17/outbox.cif.g08.bks.cpg/sg12_170_cif.got.tgz:338792.got - 2010.06.03 13:09:07.
