data_PCOD9193779
_publ_section_title
;
Structure prediction by ZEFSAII (Michael W. Deem and Ramdas Pophale) SiO2 
 PCOD9193779
Probable space group: C 2/M
;
_chemical_formula_sum "Si O2"
_cell_formula_units_Z 64
_cell_length_a 9.037595
_cell_length_b 18.506534
_cell_length_c 16.961922
_cell_angle_alpha 90.000000
_cell_angle_beta 82.898366
_cell_angle_gamma 90.000000
_cell_volume 2815.194809
_symmetry_space_group_name_H-M "C 2/M"
_symmetry_group_IT_number 12
_symmetry_cell_setting 'monoclinic'
loop_
_space_group_symop_operation_xyz
x,y,z
-x,y,-z
-x,-y,-z
x,-y,z
1/2+x,1/2+y,z
1/2-x,1/2+y,-z
1/2-x,1/2-y,-z
1/2+x,1/2-y,z
loop_
_atom_site_type_symbol
_atom_site_label
_atom_site_fract_x
_atom_site_fract_y
_atom_site_fract_z
Si Si1 0.571269 0.254796 0.075362
Si Si2 0.044267 0.160124 0.581785
Si Si3 0.789308 0.233536 0.187355
Si Si4 0.153123 0.876528 0.264597
Si Si5 0.599105 0.819199 0.419594
Si Si6 0.232611 0.078512 0.803671
Si Si7 0.943023 0.079218 0.901800
Si Si8 0.520031 0.920463 0.708862
O O1 0.717301 0.221831 0.105086
O O2 0.453049 0.241701 0.153420
O O3 0.599739 0.341540 0.063235
O O4 0.500000 0.225663 0.000000
O O5 0.222828 0.173293 0.577004
O O6 0.000000 0.126494 0.500000
O O7 0.971149 0.118464 0.659917
O O8 0.954839 0.236599 0.587587
O O9 0.697269 0.293592 0.239262
O O10 0.804167 0.157143 0.229531
O O11 0.309478 0.907907 0.283104
O O12 0.104850 0.914295 0.186704
O O13 0.500000 0.846312 0.500000
O O14 0.544278 0.862973 0.347537
O O15 0.124058 0.078134 0.886206
O O16 0.411979 0.081261 0.793011
O O17 0.200133 0.000000 0.767012
O O18 0.892685 0.000000 0.934813
O O19 0.503042 0.000000 0.674551
#
# Coordination Sequence:
#
# PCOD9193779 Si02
#       8
#     8   8   8   8   8   8   8   8
#     4  10  20  34  54  80 110 144 183 231 284 340
#     4  11  22  38  61  87 114 147 190 246 300 347
#     4  10  20  34  55  81 109 145 185 232 283 338
#     4  11  21  35  57  84 113 147 193 242 288 341
#     4  11  22  38  57  80 111 145 187 235 293 355
#     4   9  18  33  52  76 106 141 182 228 283 344
#     4   9  19  35  54  78 108 144 187 235 288 344
#     4  11  22  35  54  79 111 150 188 235 291 344
#
# _framework density 22.733774
#
# number of rings (size 3 to 8) (size 9 to 14) (size 15 to 20)
#    0.000    1.750    0.000    6.000    0.000    4.500 
#    0.000    0.625    0.000    3.000    0.000    0.000 
#    0.000    0.000    0.000    0.000    0.000    0.000 
#
# Total GULP energy -178375.595714 kJ/mol
# GULP energy per Si atom -5574.237366 kJ/mol
# Density = 2.268203 g / cm^3
# Si number density = 22.733774 Si / 1000 Ang^3
#
#
#
# Elastic Constant Matrix: (Units=GPa)
#
#
# Indices 1 2 3 4 5 6 
#
# 1 138.7718 -10.5181 22.5472 0.0000 -1.5338 0.0000
# 2 -10.5181 68.5382 12.7267 0.0000 1.3612 0.0000
# 3 22.5472 12.7267 73.8513 0.0000 8.1500 0.0000
# 4 0.0000 0.0000 0.0000 12.5626 0.0000 -2.0987
# 5 -1.5338 1.3612 8.1500 0.0000 34.0903 0.0000
# 6 0.0000 0.0000 0.0000 -2.0987 0.0000 21.0006
#
#
#
# Elastic Compliance Matrix: (Units=1/GPa)
#
#
# Indices 1 2 3 4 5 6 
#
# 1 0.007796 0.001693 -0.002776 0.000000 0.000947 0.000000
# 2 0.001693 0.015440 -0.003203 0.000000 0.000225 0.000000
# 3 -0.002776 -0.003203 0.015345 0.000000 -0.003666 0.000000
# 4 0.000000 0.000000 0.000000 0.080953 0.000000 0.008090
# 5 0.000947 0.000225 -0.003666 0.000000 0.030244 0.000000
# 6 0.000000 0.000000 0.000000 0.008090 0.000000 0.048426
#
#
# Mechanical properties :
#
#
# Convention : Reuss Voigt Hill
#
# Bulk Modulus (GPa) = 33.32287 36.74142 35.03214
# Shear Modulus (GPa) = 23.06496 30.62441 26.84468
#
# Velocity S-wave (km/s) = 3.18868 3.67425 3.44005
# Velocity P-wave (km/s) = 5.31476 5.84781 5.58764
#
# Compressibility (1/GPa) = 0.03000942
#
# Stress axis : x y z
#
# Youngs Moduli (GPa) = 128.27133 64.76499 65.16865
#
# Poissons Ratio (x) = -0.10966 0.18094
# Poissons Ratio (y) = -0.21718 0.20871
# Poissons Ratio (z) = 0.35614 0.20742
#
# Static dielectric constant tensor:
#      x y z
#    x 1.860310 0.000000 -0.042960 
#    y 0.000000 1.860300 0.000000 
#    z -0.042960 0.000000 1.923700 
# 
# From -- ./inp_files/258095.got.cif
#   From: 2010.05.17/outbox.cif.g08.bks.cpg/sg12_130_cif.got.tgz:258095.got - 2010.06.03 13:09:07.
