data_PCOD9193306
_publ_section_title
;
Structure prediction by ZEFSAII (Michael W. Deem and Ramdas Pophale) SiO2 
 PCOD9193306
Probable space group: C 2/M
;
_chemical_formula_sum "Si O2"
_cell_formula_units_Z 64
_cell_length_a 20.893516
_cell_length_b 8.677719
_cell_length_c 22.737929
_cell_angle_alpha 90.000000
_cell_angle_beta 62.508371
_cell_angle_gamma 90.000000
_cell_volume 3657.042163
_symmetry_space_group_name_H-M "C 2/M"
_symmetry_group_IT_number 12
_symmetry_cell_setting 'monoclinic'
loop_
_space_group_symop_operation_xyz
x,y,z
-x,y,-z
-x,-y,-z
x,-y,z
1/2+x,1/2+y,z
1/2-x,1/2+y,-z
1/2-x,1/2-y,-z
1/2+x,1/2-y,z
loop_
_atom_site_type_symbol
_atom_site_label
_atom_site_fract_x
_atom_site_fract_y
_atom_site_fract_z
Si Si1 0.826761 0.685256 0.948248
Si Si2 0.840314 0.185802 0.701554
Si Si3 0.701488 0.684462 0.701379
Si Si4 0.027847 0.687198 0.050976
Si Si5 0.097009 0.814710 0.198658
Si Si6 0.780606 0.684269 0.547324
Si Si7 0.581152 0.314070 0.451898
Si Si8 0.545059 0.185029 0.796550
O O1 0.824679 0.500000 0.946940
O O2 0.890552 0.731625 0.966591
O O3 0.852181 0.748649 0.874361
O O4 0.750000 0.750000 0.000000
O O5 0.762529 0.257832 0.720752
O O6 0.873564 0.231667 0.749880
O O7 0.892287 0.228920 0.624947
O O8 0.833101 0.000000 0.704221
O O9 0.696891 0.500000 0.705507
O O10 0.730768 0.730116 0.624211
O O11 0.623991 0.755993 0.747274
O O12 0.026718 0.500000 0.049498
O O13 0.977890 0.732509 0.127348
O O14 0.000000 0.744611 0.000000
O O15 0.016921 0.752551 0.219358
O O16 0.096452 0.000000 0.195688
O O17 0.782070 0.500000 0.544184
O O18 0.750000 0.750000 0.500000
O O19 0.860167 0.746319 0.528391
O O20 0.500000 0.263193 0.500000
O O21 0.583354 0.500000 0.455055
O O22 0.542528 0.000000 0.794753
#
# Coordination Sequence:
#
# PCOD9193306 Si02
#       8
#     8   8   8   8   8   8   8   8
#     4  10  20  34  53  77 104 135 173 218 268 318
#     4   9  19  35  54  76 103 138 177 215 260 313
#     4  10  21  36  54  77 106 138 173 217 265 311
#     4   8  16  32  52  73  98 130 169 210 251 300
#     4  10  20  35  54  76 106 142 179 219 263 312
#     4  10  21  36  54  77 105 138 175 215 261 312
#     4   9  18  34  55  78 105 136 172 216 263 312
#     4  10  20  34  54  79 106 138 176 217 263 314
#
# _framework density 17.500482000000002
#
# number of rings (size 3 to 8) (size 9 to 14) (size 15 to 20)
#    0.000    2.500    0.000    2.625    0.000    4.750 
#    0.000    5.000    0.000   12.750    0.000    0.000 
#    0.000    0.000    0.000    0.000    0.000    0.000 
#
# Total GULP energy -178540.670697 kJ/mol
# GULP energy per Si atom -5579.395959 kJ/mol
# Density = 1.746065 g / cm^3
# Si number density = 17.500482 Si / 1000 Ang^3
#
#
#
# Elastic Constant Matrix: (Units=GPa)
#
#
# Indices 1 2 3 4 5 6 
#
# 1 196.0839 52.6216 131.7725 0.0001 0.0919 0.0002
# 2 52.6216 39.5860 39.4977 0.0002 -0.5448 -0.0003
# 3 131.7725 39.4977 107.2936 0.0000 0.0491 0.0001
# 4 0.0001 0.0002 0.0000 25.5914 0.0000 -1.6809
# 5 0.0919 -0.5448 0.0491 0.0000 44.5388 0.0001
# 6 0.0002 -0.0003 0.0001 -1.6809 0.0001 33.9558
#
#
#
# Elastic Compliance Matrix: (Units=1/GPa)
#
#
# Indices 1 2 3 4 5 6 
#
# 1 0.029787 -0.004893 -0.034781 0.000000 -0.000083 0.000000
# 2 -0.004893 0.040742 -0.008989 0.000000 0.000518 0.000000
# 3 -0.034781 -0.008989 0.055346 0.000000 -0.000099 0.000000
# 4 0.000000 0.000000 0.000000 0.039203 0.000000 0.001941
# 5 -0.000083 0.000518 -0.000099 0.000000 0.022459 0.000000
# 6 0.000000 0.000000 0.000000 0.001941 0.000000 0.029546
#
#
# Mechanical properties :
#
#
# Convention : Reuss Voigt Hill
#
# Bulk Modulus (GPa) = 35.02896 87.86077 61.44486
# Shear Modulus (GPa) = 15.43565 28.75531 22.09548
#
# Velocity S-wave (km/s) = 2.97309 4.05793 3.55711
# Velocity P-wave (km/s) = 5.64315 8.50115 7.21508
#
# Compressibility (1/GPa) = 0.02854781
#
# Stress axis : x y z
#
# Youngs Moduli (GPa) = 33.57202 24.54482 18.06816
#
# Poissons Ratio (x) = 0.12010 0.62843
# Poissons Ratio (y) = 0.16426 0.16242
# Poissons Ratio (z) = 1.16768 0.22064
#
# Static dielectric constant tensor:
#      x y z
#    x 1.567710 0.000000 0.006720 
#    y 0.000000 1.592500 0.000000 
#    z 0.006720 0.000000 1.584010 
# 
# From -- ./inp_files/319964.got.cif
#   From: 2010.05.17/outbox.cif.g08.bks.cpg/sg12_160_cif.got.tgz:319964.got - 2010.06.03 13:09:07.
