data_PCOD9193135
_publ_section_title
;
Structure prediction by ZEFSAII (Michael W. Deem and Ramdas Pophale) SiO2 
 PCOD9193135
Probable space group: C 2/M
;
_chemical_formula_sum "Si O2"
_cell_formula_units_Z 64
_cell_length_a 33.793838
_cell_length_b 22.646399
_cell_length_c 17.366681
_cell_angle_alpha 90.000000
_cell_angle_beta 165.899832
_cell_angle_gamma 90.000000
_cell_volume 3237.893916
_symmetry_space_group_name_H-M "C 2/M"
_symmetry_group_IT_number 12
_symmetry_cell_setting 'monoclinic'
loop_
_space_group_symop_operation_xyz
x,y,z
-x,y,-z
-x,-y,-z
x,-y,z
1/2+x,1/2+y,z
1/2-x,1/2+y,-z
1/2-x,1/2-y,-z
1/2+x,1/2-y,z
loop_
_atom_site_type_symbol
_atom_site_label
_atom_site_fract_x
_atom_site_fract_y
_atom_site_fract_z
Si Si1 0.873754 0.071832 0.152844
Si Si2 0.181815 0.069534 0.123793
Si Si3 0.168163 0.731069 0.427304
Si Si4 0.235583 0.071064 0.893852
Si Si5 0.307493 0.062132 0.634318
Si Si6 0.823609 0.336344 0.782912
Si Si7 0.623390 0.380679 0.162307
Si Si8 0.938050 0.570860 0.127961
O O1 0.761004 0.092541 0.011254
O O2 0.058530 0.085876 0.525220
O O3 0.860453 0.000000 0.125283
O O4 0.838481 0.093854 0.000664
O O5 0.068675 0.096160 0.976615
O O6 0.368195 0.077876 0.501914
O O7 0.149229 0.000000 0.058892
O O8 0.250000 0.750000 0.500000
O O9 0.283605 0.679575 0.675657
O O10 0.990716 0.701302 0.084695
O O11 0.183828 0.786382 0.514994
O O12 0.241449 0.000000 0.909955
O O13 0.368739 0.086329 0.081862
O O14 0.246487 0.072019 0.432845
O O15 0.236857 0.000000 0.530404
O O16 0.500000 0.057400 0.000000
O O17 0.279968 0.120928 0.629966
O O18 0.859163 0.382738 0.919037
O O19 0.500000 0.373106 0.000000
O O20 0.903348 0.500000 0.046341
#
# Coordination Sequence:
#
# PCOD9193135 Si02
#       8
#     8   8   8   8   8   8   8   8
#     4   8  15  30  52  81 119 156 186 219 272 346
#     4  10  20  34  52  78 117 155 187 232 285 344
#     4  12  23  41  61  78 103 149 204 258 290 332
#     4   8  15  30  54  83 118 155 184 219 275 349
#     4  11  21  37  59  80 109 149 189 235 293 353
#     4  12  23  40  59  83 110 148 201 246 293 340
#     4  12  24  38  55  81 114 153 201 245 295 339
#     4  10  20  36  58  87 122 150 184 234 290 354
#
# _framework density 19.765934999999999
#
# number of rings (size 3 to 8) (size 9 to 14) (size 15 to 20)
#    0.000    1.625    3.750    2.625    0.000    4.500 
#    0.000    3.750    0.000    0.000    0.000    0.875 
#    0.000    0.000    0.000    0.000    0.000    0.000 
#
# Total GULP energy -178402.169433 kJ/mol
# GULP energy per Si atom -5575.067795 kJ/mol
# Density = 1.972095 g / cm^3
# Si number density = 19.765935 Si / 1000 Ang^3
#
#
#
# Elastic Constant Matrix: (Units=GPa)
#
#
# Indices 1 2 3 4 5 6 
#
# 1 108.8621 39.8359 43.0954 0.0000 -10.4942 0.0000
# 2 39.8359 96.5291 27.8041 0.0000 -7.9167 0.0000
# 3 43.0954 27.8041 45.0801 -0.0002 -7.5696 -0.0002
# 4 0.0000 0.0000 -0.0002 28.4264 0.0000 7.9999
# 5 -10.4942 -7.9167 -7.5696 0.0000 33.5456 0.0000
# 6 0.0000 0.0000 -0.0002 7.9999 0.0000 18.1096
#
#
#
# Elastic Compliance Matrix: (Units=1/GPa)
#
#
# Indices 1 2 3 4 5 6 
#
# 1 0.015332 -0.002507 -0.012893 0.000000 0.001295 0.000000
# 2 -0.002507 0.013060 -0.005480 0.000000 0.001061 0.000000
# 3 -0.012893 -0.005480 0.038451 0.000000 0.003350 0.000000
# 4 0.000000 0.000000 0.000000 0.040173 0.000000 -0.017746
# 5 0.001295 0.001061 0.003350 0.000000 0.031222 0.000000
# 6 0.000000 0.000000 0.000000 -0.017746 0.000000 0.063059
#
#
# Mechanical properties :
#
#
# Convention : Reuss Voigt Hill
#
# Bulk Modulus (GPa) = 39.86943 52.43801 46.15372
# Shear Modulus (GPa) = 19.88719 25.33204 22.60962
#
# Velocity S-wave (km/s) = 3.17540 3.58383 3.38578
# Velocity P-wave (km/s) = 5.80162 6.61152 6.21977
#
# Compressibility (1/GPa) = 0.02508187
#
# Stress axis : x y z
#
# Youngs Moduli (GPa) = 65.22094 76.57139 26.00734
#
# Poissons Ratio (x) = 0.19200 0.33532
# Poissons Ratio (y) = 0.16354 0.14251
# Poissons Ratio (z) = 0.84092 0.41958
#
# Static dielectric constant tensor:
#      x y z
#    x 1.750270 0.000000 0.024800 
#    y 0.000000 1.718340 0.000000 
#    z 0.024800 0.000000 1.783080 
# 
# From -- ./inp_files/251931.got.cif
#   From: 2010.05.17/outbox.cif.g08.bks.cpg/sg12_126_cif.got.tgz:251931.got - 2010.06.03 13:09:07.
