data_PCOD9193994
_publ_section_title
;
Structure prediction by ZEFSAII (Michael W. Deem and Ramdas Pophale) SiO2 
 PCOD9193994
Probable space group: C 2/M
;
_chemical_formula_sum "Si O2"
_cell_formula_units_Z 56
_cell_length_a 24.638065
_cell_length_b 13.307115
_cell_length_c 8.711987
_cell_angle_alpha 90.000000
_cell_angle_beta 82.884693
_cell_angle_gamma 90.000000
_cell_volume 2834.328783
_symmetry_space_group_name_H-M "C 2/M"
_symmetry_group_IT_number 12
_symmetry_cell_setting 'monoclinic'
loop_
_space_group_symop_operation_xyz
x,y,z
-x,y,-z
-x,-y,-z
x,-y,z
1/2+x,1/2+y,z
1/2-x,1/2+y,-z
1/2-x,1/2-y,-z
1/2+x,1/2-y,z
loop_
_atom_site_type_symbol
_atom_site_label
_atom_site_fract_x
_atom_site_fract_y
_atom_site_fract_z
Si Si1 0.340244 0.621337 0.096863
Si Si2 0.649052 0.118465 0.229613
Si Si3 0.453197 0.619499 0.889328
Si Si4 0.720683 0.711601 0.361303
Si Si5 0.127753 0.116426 0.566380
Si Si6 0.768742 0.619317 0.052587
Si Si7 0.051755 0.740233 0.394963
O O1 0.338210 0.500000 0.099964
O O2 0.351550 0.648359 0.270840
O O3 0.393358 0.648507 0.976831
O O4 0.283091 0.652462 0.036764
O O5 0.688371 0.191786 0.310777
O O6 0.589663 0.158267 0.297347
O O7 0.655523 0.000000 0.260743
O O8 0.672853 0.134879 0.049737
O O9 0.452285 0.500000 0.857720
O O10 0.464601 0.681367 0.732358
O O11 0.500000 0.637212 0.000000
O O12 0.750000 0.750000 0.500000
O O13 0.677688 0.626774 0.429010
O O14 0.760417 0.668117 0.219669
O O15 0.084394 0.193946 0.510715
O O16 0.108776 0.000000 0.581019
O O17 0.762621 0.500000 0.071280
O O18 0.000000 0.695243 0.500000
#
# Coordination Sequence:
#
# PCOD9193994 Si02
#       7
#     8   8   8   8   8   8   8
#     4   9  17  31  54  83 117 154 183 214 268 340
#     4  10  23  41  59  80 110 152 198 240 283 334
#     4  10  20  34  55  85 119 152 185 227 286 355
#     4  11  22  34  56  89 121 152 187 227 277 336
#     4  10  20  34  54  85 120 149 183 231 289 347
#     4  10  20  37  60  85 115 150 186 227 279 340
#     4  11  23  38  58  82 108 145 194 247 299 347
#
# _framework density 19.757764000000002
#
# number of rings (size 3 to 8) (size 9 to 14) (size 15 to 20)
#    0.000    1.857    0.000    4.714    0.000    7.143 
#    0.000    0.000    0.000    0.429    0.000    0.000 
#    0.000    0.000    0.000    0.000    0.000    0.000 
#
# Total GULP energy -156333.230562 kJ/mol
# GULP energy per Si atom -5583.329663 kJ/mol
# Density = 1.971279 g / cm^3
# Si number density = 19.757764 Si / 1000 Ang^3
#
#
#
# Elastic Constant Matrix: (Units=GPa)
#
#
# Indices 1 2 3 4 5 6 
#
# 1 73.5274 21.7757 55.0252 0.0000 -23.5765 0.0000
# 2 21.7757 67.4940 38.1841 0.0000 -9.6770 0.0000
# 3 55.0252 38.1841 146.7423 0.0000 -19.3618 0.0000
# 4 0.0000 0.0000 0.0000 32.2303 0.0000 -3.2915
# 5 -23.5765 -9.6770 -19.3618 0.0000 40.6209 0.0000
# 6 0.0000 0.0000 0.0000 -3.2915 0.0000 18.2859
#
#
#
# Elastic Compliance Matrix: (Units=1/GPa)
#
#
# Indices 1 2 3 4 5 6 
#
# 1 0.022038 -0.002115 -0.006501 0.000000 0.009188 0.000000
# 2 -0.002115 0.017749 -0.003660 0.000000 0.001256 0.000000
# 3 -0.006501 -0.003660 0.010236 0.000000 0.000234 0.000000
# 4 0.000000 0.000000 0.000000 0.031608 0.000000 0.005689
# 5 0.009188 0.001256 0.000234 0.000000 0.030362 0.000000
# 6 0.000000 0.000000 0.000000 0.005689 0.000000 0.055711
#
#
# Mechanical properties :
#
#
# Convention : Reuss Voigt Hill
#
# Bulk Modulus (GPa) = 39.25976 57.52598 48.39287
# Shear Modulus (GPa) = 24.90719 29.74598 27.32659
#
# Velocity S-wave (km/s) = 3.55438 3.88433 3.72301
# Velocity P-wave (km/s) = 6.06288 7.02113 6.55953
#
# Compressibility (1/GPa) = 0.02547138
#
# Stress axis : x y z
#
# Youngs Moduli (GPa) = 45.37571 56.34106 97.69822
#
# Poissons Ratio (x) = 0.11915 0.63515
# Poissons Ratio (y) = 0.09596 0.35755
# Poissons Ratio (z) = 0.29500 0.20619
#
# Static dielectric constant tensor:
#      x y z
#    x 1.723270 0.000000 -0.032880 
#    y 0.000000 1.697900 0.000000 
#    z -0.032880 0.000000 1.707660 
# 
# From -- ./inp_files/96275.got.cif
#   From: 2010.05.17/outbox.cif.g08.bks.cpg/sg12_49_cif.got.tgz:96275.got - 2010.06.03 13:09:07.
