data_PCOD9193426
_publ_section_title
;
Structure prediction by ZEFSAII (Michael W. Deem and Ramdas Pophale) SiO2 
 PCOD9193426
Probable space group: C 2/M
;
_chemical_formula_sum "Si O2"
_cell_formula_units_Z 56
_cell_length_a 23.999985
_cell_length_b 18.927995
_cell_length_c 8.148034
_cell_angle_alpha 90.000000
_cell_angle_beta 42.534467
_cell_angle_gamma 90.000000
_cell_volume 2502.284579
_symmetry_space_group_name_H-M "C 2/M"
_symmetry_group_IT_number 12
_symmetry_cell_setting 'monoclinic'
loop_
_space_group_symop_operation_xyz
x,y,z
-x,y,-z
-x,-y,-z
x,-y,z
1/2+x,1/2+y,z
1/2-x,1/2+y,-z
1/2-x,1/2-y,-z
1/2+x,1/2-y,z
loop_
_atom_site_type_symbol
_atom_site_label
_atom_site_fract_x
_atom_site_fract_y
_atom_site_fract_z
Si Si1 0.012935 0.920190 0.276626
Si Si2 0.699382 0.079244 0.693609
Si Si3 0.622603 0.209063 0.042248
Si Si4 0.312566 0.352816 0.197579
Si Si5 0.038913 0.776614 0.736321
Si Si6 0.343554 0.823420 0.665025
Si Si7 0.558079 0.077575 0.736615
O O1 0.956571 0.857867 0.327000
O O2 0.000000 0.919835 0.500000
O O3 0.997949 0.000000 0.248855
O O4 0.105796 0.895137 0.032210
O O5 0.649362 0.132351 0.919095
O O6 0.778937 0.116322 0.441307
O O7 0.641167 0.071332 0.660834
O O8 0.714325 0.000000 0.727224
O O9 0.666533 0.269915 0.840865
O O10 0.527524 0.234006 0.233026
O O11 0.652639 0.209974 0.164453
O O12 0.243207 0.354653 0.204902
O O13 0.124662 0.736044 0.531514
O O14 0.000000 0.774978 0.000000
O O15 0.413611 0.883552 0.487889
O O16 0.522104 0.000000 0.780680
O O17 0.500000 0.114106 0.000000
#
# Coordination Sequence:
#
# PCOD9193426 Si02
#       7
#     8   8   8   8   8   8   8
#     4  10  22  42  66  91 122 159 201 252 309 366
#     4  10  20  34  53  78 111 149 190 235 288 353
#     4  11  22  36  57  85 119 155 198 251 303 357
#     4  10  21  39  60  84 115 155 198 245 306 366
#     4  11  22  38  61  89 123 163 207 249 296 360
#     4  11  21  36  60  88 118 153 200 253 303 357
#     4   9  18  33  53  78 112 153 189 226 283 353
#
# _framework density 22.379549999999998
#
# number of rings (size 3 to 8) (size 9 to 14) (size 15 to 20)
#    0.000    1.714    0.000    6.429    0.000    2.571 
#    0.000    0.000    0.000    8.571    0.000    0.000 
#    0.000    0.000    0.000    0.000    0.000    0.000 
#
# Total GULP energy -156267.201276 kJ/mol
# GULP energy per Si atom -5580.971474 kJ/mol
# Density = 2.232861 g / cm^3
# Si number density = 22.379550 Si / 1000 Ang^3
#
#
#
# Elastic Constant Matrix: (Units=GPa)
#
#
# Indices 1 2 3 4 5 6 
#
# 1 23.6320 -14.0856 -7.9348 0.0000 7.7770 0.0000
# 2 -14.0856 147.8219 27.0297 0.0000 10.4068 0.0000
# 3 -7.9348 27.0297 53.0082 0.0000 0.1425 0.0000
# 4 0.0000 0.0000 0.0000 16.3026 0.0000 8.4103
# 5 7.7770 10.4068 0.1425 0.0000 28.3408 0.0000
# 6 0.0000 0.0000 0.0000 8.4103 0.0000 16.6958
#
#
#
# Elastic Compliance Matrix: (Units=1/GPa)
#
#
# Indices 1 2 3 4 5 6 
#
# 1 0.052564 0.005198 0.005262 0.000000 -0.016359 0.000000
# 2 0.005198 0.008190 -0.003386 0.000000 -0.004417 0.000000
# 3 0.005262 -0.003386 0.021380 0.000000 -0.000308 0.000000
# 4 0.000000 0.000000 0.000000 0.082878 0.000000 -0.041749
# 5 -0.016359 -0.004417 -0.000308 0.000000 0.041398 0.000000
# 6 0.000000 0.000000 0.000000 -0.041749 0.000000 0.080926
#
#
# Mechanical properties :
#
#
# Convention : Reuss Voigt Hill
#
# Bulk Modulus (GPa) = 10.38614 26.05342 18.21978
# Shear Modulus (GPa) = 16.37824 26.89801 21.63813
#
# Velocity S-wave (km/s) = 2.70819 3.47061 3.11283
# Velocity P-wave (km/s) = 3.79869 5.26565 4.59114
#
# Compressibility (1/GPa) = 0.09628213
#
# Stress axis : x y z
#
# Youngs Moduli (GPa) = 19.02432 122.09401 46.77218
#
# Poissons Ratio (x) = -0.63469 -0.24610
# Poissons Ratio (y) = -0.09889 0.15839
# Poissons Ratio (z) = -0.10010 0.41346
#
# Static dielectric constant tensor:
#      x y z
#    x 1.875190 0.000000 -0.037680 
#    y 0.000000 1.909890 0.000000 
#    z -0.037680 0.000000 1.832420 
# 
# From -- ./inp_files/98070.got.cif
#   From: 2010.05.17/outbox.cif.g08.bks.cpg/sg12_50_cif.got.tgz:98070.got - 2010.06.03 13:09:07.
