data_PCOD9193384
_publ_section_title
;
Structure prediction by ZEFSAII (Michael W. Deem and Ramdas Pophale) SiO2 
 PCOD9193384
Probable space group: C 2/M
;
_chemical_formula_sum "Si O2"
_cell_formula_units_Z 64
_cell_length_a 14.937957
_cell_length_b 7.536689
_cell_length_c 26.404006
_cell_angle_alpha 90.000000
_cell_angle_beta 108.299050
_cell_angle_gamma 90.000000
_cell_volume 2822.311110
_symmetry_space_group_name_H-M "C 2/M"
_symmetry_group_IT_number 12
_symmetry_cell_setting 'monoclinic'
loop_
_space_group_symop_operation_xyz
x,y,z
-x,y,-z
-x,-y,-z
x,-y,z
1/2+x,1/2+y,z
1/2-x,1/2+y,-z
1/2-x,1/2-y,-z
1/2+x,1/2-y,z
loop_
_atom_site_type_symbol
_atom_site_label
_atom_site_fract_x
_atom_site_fract_y
_atom_site_fract_z
Si Si1 0.213492 0.788333 0.049389
Si Si2 0.898475 0.289251 0.499681
Si Si3 0.323495 0.783675 0.791211
Si Si4 0.943877 0.204005 0.911674
Si Si5 0.204611 0.714683 0.417000
Si Si6 0.092736 0.289317 0.300099
Si Si7 0.892488 0.786481 0.240561
Si Si8 0.402898 0.293719 0.131555
O O1 0.112306 0.719936 0.050433
O O2 0.293249 0.713296 0.100243
O O3 0.211553 0.000000 0.055202
O O4 0.250000 0.750000 0.000000
O O5 0.910656 0.500000 0.508970
O O6 0.855778 0.219707 0.545226
O O7 0.813742 0.262598 0.444742
O O8 0.000000 0.217782 0.500000
O O9 0.371913 0.711184 0.850848
O O10 0.377471 0.721944 0.750174
O O11 0.213845 0.730268 0.766286
O O12 0.328227 0.000000 0.795767
O O13 0.037743 0.286551 0.904158
O O14 0.967138 0.000000 0.929430
O O15 0.200226 0.500000 0.416463
O O16 0.157944 0.779879 0.356864
O O17 0.108078 0.500000 0.300597
O O18 0.981942 0.259283 0.290592
O O19 0.917872 0.713188 0.189181
O O20 0.888445 0.000000 0.237106
O O21 0.431760 0.500000 0.139589
#
# Coordination Sequence:
#
# PCOD9193384 Si02
#       8
#     8   8   8   8   8   8   8   8
#     4  11  24  40  59  83 110 140 177 222 270 319
#     4   9  18  34  56  78 103 140 186 228 270 319
#     4  10  20  34  53  78 107 141 177 215 262 316
#     4  10  21  37  58  81 106 139 177 216 262 315
#     4   9  19  35  52  76 110 143 178 224 273 319
#     4  10  21  35  52  78 113 145 176 220 270 320
#     4  10  20  34  54  79 107 142 179 217 261 314
#     4  10  20  37  59  81 108 140 177 220 265 314
#
# _framework density 22.676452000000001
#
# number of rings (size 3 to 8) (size 9 to 14) (size 15 to 20)
#    0.000    2.125    2.500    0.375    0.000    4.250 
#    0.000    2.500    0.000    0.000    0.000    0.000 
#    0.000    0.000    0.000    0.000    0.000    0.000 
#
# Total GULP energy -178652.536704 kJ/mol
# GULP energy per Si atom -5582.891772 kJ/mol
# Density = 2.262484 g / cm^3
# Si number density = 22.676452 Si / 1000 Ang^3
#
#
#
# Elastic Constant Matrix: (Units=GPa)
#
#
# Indices 1 2 3 4 5 6 
#
# 1 119.3190 0.9244 -5.6210 0.0000 2.9513 0.0000
# 2 0.9244 61.5849 -8.3591 0.0000 -5.8864 0.0000
# 3 -5.6210 -8.3591 45.5767 0.0000 5.0436 0.0000
# 4 0.0000 0.0000 0.0000 14.4254 0.0000 7.9554
# 5 2.9513 -5.8864 5.0436 0.0000 19.5930 0.0000
# 6 0.0000 0.0000 0.0000 7.9554 0.0000 13.6912
#
#
#
# Elastic Compliance Matrix: (Units=1/GPa)
#
#
# Indices 1 2 3 4 5 6 
#
# 1 0.008479 -0.000119 0.001203 0.000000 -0.001623 0.000000
# 2 -0.000119 0.017020 0.002614 0.000000 0.004459 0.000000
# 3 0.001203 0.002614 0.023162 0.000000 -0.005358 0.000000
# 4 0.000000 0.000000 0.000000 0.102012 0.000000 -0.059276
# 5 -0.001623 0.004459 -0.005358 0.000000 0.054002 0.000000
# 6 0.000000 0.000000 0.000000 -0.059276 0.000000 0.107483
#
#
# Mechanical properties :
#
#
# Convention : Reuss Voigt Hill
#
# Bulk Modulus (GPa) = 17.83902 22.26323 20.05112
# Shear Modulus (GPa) = 15.45845 25.51100 20.48473
#
# Velocity S-wave (km/s) = 2.61376 3.35774 3.00884
# Velocity P-wave (km/s) = 4.12224 4.98715 4.57518
#
# Compressibility (1/GPa) = 0.05605689
#
# Stress axis : x y z
#
# Youngs Moduli (GPa) = 117.94334 58.75288 43.17456
#
# Poissons Ratio (x) = 0.00699 -0.05196
# Poissons Ratio (y) = 0.01404 -0.11284
# Poissons Ratio (z) = -0.14194 -0.15356
#
# Static dielectric constant tensor:
#      x y z
#    x 1.853770 0.000000 -0.030940 
#    y 0.000000 1.861560 0.000000 
#    z -0.030940 0.000000 1.824880 
# 
# From -- ./inp_files/338927.got.cif
#   From: 2010.05.17/outbox.cif.g08.bks.cpg/sg12_170_cif.got.tgz:338927.got - 2010.06.03 13:09:07.
