data_PCOD9193121
_publ_section_title
;
Structure prediction by ZEFSAII (Michael W. Deem and Ramdas Pophale) SiO2 
 PCOD9193121
Probable space group: C 2/M
;
_chemical_formula_sum "Si O2"
_cell_formula_units_Z 56
_cell_length_a 20.864371
_cell_length_b 7.597772
_cell_length_c 29.608695
_cell_angle_alpha 90.000000
_cell_angle_beta 149.327291
_cell_angle_gamma 90.000000
_cell_volume 2394.387800
_symmetry_space_group_name_H-M "C 2/M"
_symmetry_group_IT_number 12
_symmetry_cell_setting 'monoclinic'
loop_
_space_group_symop_operation_xyz
x,y,z
-x,y,-z
-x,-y,-z
x,-y,z
1/2+x,1/2+y,z
1/2-x,1/2+y,-z
1/2-x,1/2-y,-z
1/2+x,1/2-y,z
loop_
_atom_site_type_symbol
_atom_site_label
_atom_site_fract_x
_atom_site_fract_y
_atom_site_fract_z
Si Si1 0.791691 0.295994 0.452943
Si Si2 0.655340 0.210292 0.208661
Si Si3 0.936381 0.212462 0.621721
Si Si4 0.866892 0.199798 0.404266
Si Si5 0.895630 0.790670 0.101336
Si Si6 0.637340 0.784805 0.095979
Si Si7 0.872551 0.785540 0.187502
O O1 0.767127 0.500000 0.427879
O O2 0.916865 0.280408 0.559354
O O3 0.681944 0.230792 0.419296
O O4 0.795812 0.195426 0.408984
O O5 0.767905 0.279580 0.308926
O O6 0.513166 0.235613 0.141277
O O7 0.669235 0.275036 0.165839
O O8 0.672754 0.000000 0.218475
O O9 0.052098 0.269606 0.722260
O O10 0.936691 0.000000 0.618599
O O11 0.000000 0.285400 0.500000
O O12 0.897775 0.000000 0.407588
O O13 0.916444 0.722060 0.165274
O O14 0.902841 0.000000 0.107060
O O15 0.750000 0.750000 0.000000
O O16 0.731285 0.733479 0.113180
O O17 0.638922 0.000000 0.098133
O O18 0.500000 0.725538 0.000000
O O19 0.881426 0.000000 0.191753
#
# Coordination Sequence:
#
# PCOD9193121 Si02
#       7
#     8   8   8   8   8   8   8
#     4  10  20  34  52  78 111 146 183 231 290 340
#     4  10  21  37  59  87 117 152 194 243 298 348
#     4   9  18  33  55  79 105 140 185 236 283 337
#     4  10  22  37  56  82 112 153 201 244 285 340
#     4  11  22  38  61  89 119 153 193 239 295 354
#     4   9  17  31  54  83 111 140 183 238 284 332
#     4   9  18  32  56  83 106 141 191 238 279 332
#
# _framework density 23.388023
#
# number of rings (size 3 to 8) (size 9 to 14) (size 15 to 20)
#    0.000    2.286    0.000    2.571    2.000    4.857 
#    0.000    1.429    0.000    4.714    0.000    0.000 
#    0.000    0.000    0.000    0.000    0.000    0.000 
#
# Total GULP energy -156280.886955 kJ/mol
# GULP energy per Si atom -5581.460248 kJ/mol
# Density = 2.333479 g / cm^3
# Si number density = 23.388023 Si / 1000 Ang^3
#
#
#
# Elastic Constant Matrix: (Units=GPa)
#
#
# Indices 1 2 3 4 5 6 
#
# 1 70.0310 -1.3745 -5.0587 0.0000 -11.1002 0.0009
# 2 -1.3745 54.5853 -0.5834 0.0000 -3.5027 0.0028
# 3 -5.0587 -0.5834 82.3834 0.0001 -8.8409 -0.0001
# 4 0.0000 0.0000 0.0001 8.1886 -0.0001 2.4992
# 5 -11.1002 -3.5027 -8.8409 -0.0001 38.0076 0.0000
# 6 0.0009 0.0028 -0.0001 2.4992 0.0000 10.2016
#
#
#
# Elastic Compliance Matrix: (Units=1/GPa)
#
#
# Indices 1 2 3 4 5 6 
#
# 1 0.015164 0.000707 0.001455 0.000001 0.004832 -0.000002
# 2 0.000707 0.018470 0.000389 0.000002 0.001999 -0.000006
# 3 0.001455 0.000389 0.012594 0.000000 0.003390 0.000000
# 4 0.000001 0.000002 0.000000 0.131990 0.000001 -0.032335
# 5 0.004832 0.001999 0.003390 0.000001 0.028695 -0.000001
# 6 -0.000002 -0.000006 0.000000 -0.032335 -0.000001 0.105945
#
#
# Mechanical properties :
#
#
# Convention : Reuss Voigt Hill
#
# Bulk Modulus (GPa) = 19.48145 21.44071 20.46108
# Shear Modulus (GPa) = 15.39091 25.54730 20.46911
#
# Velocity S-wave (km/s) = 2.56807 3.30862 2.96158
# Velocity P-wave (km/s) = 4.14017 4.87681 4.52351
#
# Compressibility (1/GPa) = 0.05133089
#
# Stress axis : x y z
#
# Youngs Moduli (GPa) = 65.94425 54.14123 79.40118
#
# Poissons Ratio (x) = -0.03830 -0.11551
# Poissons Ratio (y) = -0.04665 -0.03087
# Poissons Ratio (z) = -0.09593 -0.02105
#
# Static dielectric constant tensor:
#      x y z
#    x 1.862430 0.000000 0.026540 
#    y 0.000000 1.896650 0.000000 
#    z 0.026540 0.000000 1.961280 
# 
# From -- ./inp_files/380753.got.cif
#   From: 2010.05.17/outbox.cif.g08.bks.cpg/sg12_191_cif.got.tgz:380753.got - 2010.06.03 13:09:07.
