data_PCOD9193774
_publ_section_title
;
Structure prediction by ZEFSAII (Michael W. Deem and Ramdas Pophale) SiO2 
 PCOD9193774
Probable space group: C 2/M
;
_chemical_formula_sum "Si O2"
_cell_formula_units_Z 64
_cell_length_a 17.071470
_cell_length_b 12.781791
_cell_length_c 27.512444
_cell_angle_alpha 90.000000
_cell_angle_beta 38.620862
_cell_angle_gamma 90.000000
_cell_volume 3747.059584
_symmetry_space_group_name_H-M "C 2/M"
_symmetry_group_IT_number 12
_symmetry_cell_setting 'monoclinic'
loop_
_space_group_symop_operation_xyz
x,y,z
-x,y,-z
-x,-y,-z
x,-y,z
1/2+x,1/2+y,z
1/2-x,1/2+y,-z
1/2-x,1/2-y,-z
1/2+x,1/2-y,z
loop_
_atom_site_type_symbol
_atom_site_label
_atom_site_fract_x
_atom_site_fract_y
_atom_site_fract_z
Si Si1 0.412225 0.877411 0.292213
Si Si2 0.510795 0.622863 0.136345
Si Si3 0.904373 0.875792 0.715261
Si Si4 0.377988 0.620066 0.025208
Si Si5 0.851785 0.769329 0.840921
Si Si6 0.771442 0.260474 0.276690
Si Si7 0.819276 0.223328 0.416413
Si Si8 0.643922 0.876255 0.420510
O O1 0.543658 0.818506 0.221228
O O2 0.330781 0.845644 0.284607
O O3 0.349235 0.827221 0.370510
O O4 0.426790 0.000000 0.289476
O O5 0.481999 0.500000 0.158915
O O6 0.577898 0.631721 0.051835
O O7 0.600386 0.666996 0.135334
O O8 0.384817 0.692659 0.198902
O O9 0.855105 0.845130 0.792830
O O10 0.816729 0.814983 0.719733
O O11 0.047923 0.835351 0.640789
O O12 0.899659 0.000000 0.710319
O O13 0.329591 0.500000 0.054887
O O14 0.500000 0.630120 0.000000
O O15 0.276593 0.707646 0.087703
O O16 0.694053 0.183086 0.349005
O O17 0.750000 0.250000 0.500000
O O18 0.730208 0.155421 0.424337
O O19 0.500000 0.846727 0.500000
O O20 0.651129 0.000000 0.409534
#
# Coordination Sequence:
#
# PCOD9193774 Si02
#       8
#     8   8   8   8   8   8   8   8
#     4   9  19  34  53  75 101 136 173 212 259 310
#     4  10  20  35  57  81 106 141 180 219 267 319
#     4  11  22  36  56  79 106 141 176 217 270 322
#     4  10  20  34  54  80 110 143 179 221 269 318
#     4  10  20  35  55  78 108 139 177 221 263 317
#     4  10  20  35  54  77 106 137 176 220 262 317
#     4  10  21  36  54  79 109 138 176 220 264 316
#     4  10  20  35  55  77 105 141 179 220 264 311
#
# _framework density 17.080058999999999
#
# number of rings (size 3 to 8) (size 9 to 14) (size 15 to 20)
#    0.000    2.000    0.000    4.500    0.000    1.000 
#    0.000    6.875    0.000   13.125    0.000    0.000 
#    0.000    0.000    0.000    0.000    0.000    0.000 
#
# Total GULP energy -178634.851220 kJ/mol
# GULP energy per Si atom -5582.339101 kJ/mol
# Density = 1.704118 g / cm^3
# Si number density = 17.080059 Si / 1000 Ang^3
#
#
#
# Elastic Constant Matrix: (Units=GPa)
#
#
# Indices 1 2 3 4 5 6 
#
# 1 124.1686 47.7831 57.1152 0.0000 -0.5332 0.0000
# 2 47.7831 88.3353 40.8198 0.0000 -1.8487 0.0000
# 3 57.1152 40.8198 90.3369 0.0000 6.7727 0.0000
# 4 0.0000 0.0000 0.0000 17.6110 0.0000 -5.0456
# 5 -0.5332 -1.8487 6.7727 0.0000 27.2814 0.0000
# 6 0.0000 0.0000 0.0000 -5.0456 0.0000 11.0400
#
#
#
# Elastic Compliance Matrix: (Units=1/GPa)
#
#
# Indices 1 2 3 4 5 6 
#
# 1 0.012385 -0.003786 -0.006234 0.000000 0.001533 0.000000
# 2 -0.003786 0.015652 -0.004843 0.000000 0.002189 0.000000
# 3 -0.006234 -0.004843 0.017560 0.000000 -0.004809 0.000000
# 4 0.000000 0.000000 0.000000 0.065338 0.000000 0.029862
# 5 0.001533 0.002189 -0.004809 0.000000 0.038027 0.000000
# 6 0.000000 0.000000 0.000000 0.029862 0.000000 0.104227
#
#
# Mechanical properties :
#
#
# Convention : Reuss Voigt Hill
#
# Bulk Modulus (GPa) = 63.01094 66.03079 64.52086
# Shear Modulus (GPa) = 17.34861 21.66133 19.50497
#
# Velocity S-wave (km/s) = 3.19050 3.56508 3.38298
# Velocity P-wave (km/s) = 7.10943 7.46256 7.28814
#
# Compressibility (1/GPa) = 0.01587026
#
# Stress axis : x y z
#
# Youngs Moduli (GPa) = 80.74329 63.88810 56.94685
#
# Poissons Ratio (x) = 0.24190 0.35503
# Poissons Ratio (y) = 0.30572 0.27579
# Poissons Ratio (z) = 0.50338 0.30940
#
# Static dielectric constant tensor:
#      x y z
#    x 1.565610 0.000000 -0.002860 
#    y 0.000000 1.548850 0.000000 
#    z -0.002860 0.000000 1.559690 
# 
# From -- ./inp_files/361024.got.cif
#   From: 2010.05.17/outbox.cif.g08.bks.cpg/sg12_181_cif.got.tgz:361024.got - 2010.06.03 13:09:07.
