data_PCOD9193806
_publ_section_title
;
Structure prediction by ZEFSAII (Michael W. Deem and Ramdas Pophale) SiO2 
 PCOD9193806
Probable space group: C 2/M
;
_chemical_formula_sum "Si O2"
_cell_formula_units_Z 56
_cell_length_a 29.916346
_cell_length_b 9.750537
_cell_length_c 21.726508
_cell_angle_alpha 90.000000
_cell_angle_beta 152.122841
_cell_angle_gamma 90.000000
_cell_volume 2963.333853
_symmetry_space_group_name_H-M "C 2/M"
_symmetry_group_IT_number 12
_symmetry_cell_setting 'monoclinic'
loop_
_space_group_symop_operation_xyz
x,y,z
-x,y,-z
-x,-y,-z
x,-y,z
1/2+x,1/2+y,z
1/2-x,1/2+y,-z
1/2-x,1/2-y,-z
1/2+x,1/2-y,z
loop_
_atom_site_type_symbol
_atom_site_label
_atom_site_fract_x
_atom_site_fract_y
_atom_site_fract_z
Si Si1 0.195990 0.159775 0.526937
Si Si2 0.411546 0.343666 0.930144
Si Si3 0.305027 0.159019 0.359444
Si Si4 0.767338 0.159335 0.081734
Si Si5 0.386775 0.337258 0.347758
Si Si6 0.405066 0.850138 0.034568
Si Si7 0.627079 0.847394 0.335275
O O1 0.161821 0.250485 0.542470
O O2 0.309681 0.168421 0.649504
O O3 0.151606 0.226644 0.411856
O O4 0.172175 0.000000 0.506431
O O5 0.438606 0.500000 0.977607
O O6 0.309862 0.344179 0.773133
O O7 0.500000 0.282132 0.000000
O O8 0.393172 0.264610 0.969998
O O9 0.333936 0.239346 0.332504
O O10 0.338057 0.000000 0.398972
O O11 0.849710 0.196494 0.232987
O O12 0.784254 0.000000 0.084901
O O13 0.750000 0.250000 0.000000
O O14 0.668786 0.166925 0.000170
O O15 0.500000 0.322197 0.500000
O O16 0.363294 0.500000 0.328275
O O17 0.514821 0.847428 0.188108
O O18 0.384975 0.000000 0.981992
O O19 0.654495 0.000000 0.393572
#
# Coordination Sequence:
#
# PCOD9193806 Si02
#       7
#     8   8   8   8   8   8   8
#     4  10  20  34  54  80 114 156 195 235 287 351
#     4  10  21  35  54  84 119 153 189 231 284 345
#     4  11  22  36  57  84 116 152 191 240 293 349
#     4  10  22  40  62  87 116 151 194 249 306 364
#     4  10  22  42  65  88 117 153 199 254 308 366
#     4  10  20  36  58  83 111 146 190 240 291 345
#     4   9  19  35  54  80 114 151 194 241 291 347
#
# _framework density 18.897635000000001
#
# number of rings (size 3 to 8) (size 9 to 14) (size 15 to 20)
#    0.000    2.000    1.429    1.714    0.000    4.571 
#    0.000    2.857    0.000    0.000    0.000    0.000 
#    0.000    0.000    0.000    0.000    0.000    0.000 
#
# Total GULP energy -156036.313349 kJ/mol
# GULP energy per Si atom -5572.725477 kJ/mol
# Density = 1.885462 g / cm^3
# Si number density = 18.897635 Si / 1000 Ang^3
#
#
#
# Elastic Constant Matrix: (Units=GPa)
#
#
# Indices 1 2 3 4 5 6 
#
# 1 62.5704 62.2664 22.9321 0.0000 -18.8037 0.0000
# 2 62.2664 125.0676 37.5639 0.0000 -24.8936 0.0000
# 3 22.9321 37.5639 65.7332 0.0000 -0.1276 0.0000
# 4 0.0000 0.0000 0.0000 8.4284 0.0000 9.6524
# 5 -18.8037 -24.8936 -0.1276 0.0000 33.6171 0.0000
# 6 0.0000 0.0000 0.0000 9.6524 0.0000 20.9435
#
#
#
# Elastic Compliance Matrix: (Units=1/GPa)
#
#
# Indices 1 2 3 4 5 6 
#
# 1 0.033921 -0.014046 -0.003790 0.000000 0.008558 0.000000
# 2 -0.014046 0.017543 -0.005115 0.000000 0.005115 0.000000
# 3 -0.003790 -0.005115 0.019447 0.000000 -0.005834 0.000000
# 4 0.000000 0.000000 0.000000 0.251267 0.000000 -0.115803
# 5 0.008558 0.005115 -0.005834 0.000000 0.038299 0.000000
# 6 0.000000 0.000000 0.000000 -0.115803 0.000000 0.101118
#
#
# Mechanical properties :
#
#
# Convention : Reuss Voigt Hill
#
# Bulk Modulus (GPa) = 39.98741 55.43289 47.71015
# Shear Modulus (GPa) = 9.69303 21.30505 15.49904
#
# Velocity S-wave (km/s) = 2.26724 3.36131 2.86695
# Velocity P-wave (km/s) = 5.29715 6.66794 6.02168
#
# Compressibility (1/GPa) = 0.02500787
#
# Stress axis : x y z
#
# Youngs Moduli (GPa) = 29.48036 57.00282 51.42165
#
# Poissons Ratio (x) = 0.80067 0.19491
# Poissons Ratio (y) = 0.41408 0.26302
# Poissons Ratio (z) = 0.11174 0.29157
#
# Static dielectric constant tensor:
#      x y z
#    x 1.652300 0.000000 0.033890 
#    y 0.000000 1.668780 0.000000 
#    z 0.033890 0.000000 1.696910 
# 
# From -- ./inp_files/329713.got.cif
#   From: 2010.05.17/outbox.cif.g08.bks.cpg/sg12_165_cif.got.tgz:329713.got - 2010.06.03 13:09:07.
