data_PCOD9193185
_publ_section_title
;
Structure prediction by ZEFSAII (Michael W. Deem and Ramdas Pophale) SiO2 
 PCOD9193185
Probable space group: C 2/M
;
_chemical_formula_sum "Si O2"
_cell_formula_units_Z 56
_cell_length_a 9.886612
_cell_length_b 28.254898
_cell_length_c 18.676501
_cell_angle_alpha 90.000000
_cell_angle_beta 34.718464
_cell_angle_gamma 90.000000
_cell_volume 2971.422198
_symmetry_space_group_name_H-M "C 2/M"
_symmetry_group_IT_number 12
_symmetry_cell_setting 'monoclinic'
loop_
_space_group_symop_operation_xyz
x,y,z
-x,y,-z
-x,-y,-z
x,-y,z
1/2+x,1/2+y,z
1/2-x,1/2+y,-z
1/2-x,1/2-y,-z
1/2+x,1/2-y,z
loop_
_atom_site_type_symbol
_atom_site_label
_atom_site_fract_x
_atom_site_fract_y
_atom_site_fract_z
Si Si1 0.603092 0.898129 0.139047
Si Si2 0.646992 0.298078 0.511473
Si Si3 0.884940 0.127929 0.721562
Si Si4 0.681202 0.944483 0.488472
Si Si5 0.929115 0.372464 0.694484
Si Si6 0.424023 0.395337 0.857316
Si Si7 0.775413 0.500000 0.898214
Si Si8 0.764886 0.000000 0.916845
O O1 0.344038 0.889763 0.220880
O O2 0.644825 0.866879 0.190558
O O3 0.618714 0.950160 0.167792
O O4 0.782887 0.892605 0.994147
O O5 0.500000 0.293125 0.500000
O O6 0.750000 0.250000 0.500000
O O7 0.480195 0.324968 0.641749
O O8 0.875907 0.332156 0.403273
O O9 0.821106 0.131730 0.833284
O O10 0.090570 0.088190 0.625965
O O11 0.500000 0.940516 0.500000
O O12 0.559175 0.920644 0.610949
O O13 0.736732 0.000000 0.474099
O O14 0.685625 0.374732 0.755937
O O15 0.408272 0.451399 0.842368
O O16 0.500000 0.500000 0.000000
O O17 0.792686 0.500000 0.975251
O O18 0.500000 0.000000 0.000000
#
# Coordination Sequence:
#
# PCOD9193185 Si02
#       8
#     8   8   8   8   8   8   4   4
#     4  11  22  38  58  92 138 170 213 264 302 367
#     4  11  26  48  74  96 119 153 210 276 333 400
#     4  11  23  40  63  94 125 163 216 259 324 375
#     4  10  22  37  56  86 125 175 221 265 308 359
#     4  11  23  40  63  94 126 162 216 261 325 383
#     4  11  22  36  63  91 133 184 215 256 304 372
#     4  10  20  34  52  83 126 185 224 238 287 354
#     4  10  20  34  52  87 130 181 238 246 271 342
#
# _framework density 18.846195000000002
#
# number of rings (size 3 to 8) (size 9 to 14) (size 15 to 20)
#    0.000    1.286    2.857    4.286    6.000    0.000 
#    0.000    0.714    0.000    5.143    0.000    0.000 
#    0.000    0.000    0.000    0.000    0.000    0.000 
#
# Total GULP energy -156069.279783 kJ/mol
# GULP energy per Si atom -5573.902849 kJ/mol
# Density = 1.880330 g / cm^3
# Si number density = 18.846195 Si / 1000 Ang^3
#
#
#
# Elastic Constant Matrix: (Units=GPa)
#
#
# Indices 1 2 3 4 5 6 
#
# 1 117.9111 34.1782 33.4875 0.0000 -10.4759 0.0000
# 2 34.1782 87.1370 47.3096 0.0000 -3.8860 0.0000
# 3 33.4875 47.3096 66.8965 0.0003 13.7063 0.0003
# 4 0.0000 0.0000 0.0003 16.5310 0.0000 -4.6731
# 5 -10.4759 -3.8860 13.7063 0.0000 48.1358 -0.0001
# 6 0.0000 0.0000 0.0003 -4.6731 -0.0001 22.4858
#
#
#
# Elastic Compliance Matrix: (Units=1/GPa)
#
#
# Indices 1 2 3 4 5 6 
#
# 1 0.010644 -0.001137 -0.005288 0.000000 0.003730 0.000000
# 2 -0.001137 0.020278 -0.014927 0.000000 0.005640 0.000000
# 3 -0.005288 -0.014927 0.030409 -0.000001 -0.011015 -0.000001
# 4 0.000000 0.000000 -0.000001 0.064268 0.000000 0.013356
# 5 0.003730 0.005640 -0.011015 0.000000 0.025178 0.000000
# 6 0.000000 0.000000 -0.000001 0.013356 0.000000 0.047248
#
#
# Mechanical properties :
#
#
# Convention : Reuss Voigt Hill
#
# Bulk Modulus (GPa) = 53.68881 55.76611 54.72746
# Shear Modulus (GPa) = 20.24789 27.89515 24.07152
#
# Velocity S-wave (km/s) = 3.28132 3.85144 3.57776
# Velocity P-wave (km/s) = 6.55025 7.03082 6.79479
#
# Compressibility (1/GPa) = 0.01862585
#
# Stress axis : x y z
#
# Youngs Moduli (GPa) = 93.94989 49.31396 32.88512
#
# Poissons Ratio (x) = 0.05609 0.17390
# Poissons Ratio (y) = 0.10687 0.49088
# Poissons Ratio (z) = 0.49682 0.73611
#
# Static dielectric constant tensor:
#      x y z
#    x 1.677760 0.000000 0.003900 
#    y 0.000000 1.681050 0.000000 
#    z 0.003900 0.000000 1.692830 
# 
# From -- ./inp_files/259845.got.cif
#   From: 2010.05.17/outbox.cif.g08.bks.cpg/sg12_130_cif.got.tgz:259845.got - 2010.06.03 13:09:07.
