data_PCOD9193112
_publ_section_title
;
Structure prediction by ZEFSAII (Michael W. Deem and Ramdas Pophale) SiO2 
 PCOD9193112
Probable space group: C 2/M
;
_chemical_formula_sum "Si O2"
_cell_formula_units_Z 56
_cell_length_a 17.349359
_cell_length_b 20.207803
_cell_length_c 14.133602
_cell_angle_alpha 90.000000
_cell_angle_beta 138.221415
_cell_angle_gamma 90.000000
_cell_volume 3301.376724
_symmetry_space_group_name_H-M "C 2/M"
_symmetry_group_IT_number 12
_symmetry_cell_setting 'monoclinic'
loop_
_space_group_symop_operation_xyz
x,y,z
-x,y,-z
-x,-y,-z
x,-y,z
1/2+x,1/2+y,z
1/2-x,1/2+y,-z
1/2-x,1/2-y,-z
1/2+x,1/2-y,z
loop_
_atom_site_type_symbol
_atom_site_label
_atom_site_fract_x
_atom_site_fract_y
_atom_site_fract_z
Si Si1 0.084317 0.265301 0.364135
Si Si2 0.135821 0.923192 0.645591
Si Si3 0.523928 0.649910 0.172127
Si Si4 0.673385 0.423113 0.902292
Si Si5 0.820206 0.308316 0.120390
Si Si6 0.162206 0.804373 0.143597
Si Si7 0.251629 0.803367 0.644906
O O1 0.072713 0.194620 0.300286
O O2 0.146433 0.246009 0.518840
O O3 0.170437 0.308610 0.378068
O O4 0.956287 0.294763 0.246048
O O5 0.152950 0.909240 0.772690
O O6 0.204881 0.870993 0.645254
O O7 0.000000 0.916460 0.500000
O O8 0.168568 0.000000 0.657764
O O9 0.443235 0.594233 0.144635
O O10 0.434497 0.692930 0.026754
O O11 0.374338 0.640111 0.812078
O O12 0.700384 0.500000 0.938642
O O13 0.775169 0.375501 0.031160
O O14 0.778307 0.312207 0.190511
O O15 0.750000 0.250000 0.000000
O O16 0.171983 0.735853 0.208354
#
# Coordination Sequence:
#
# PCOD9193112 Si02
#       7
#     8   8   8   8   8   8   8
#     4  10  20  34  52  78 107 139 181 221 275 314
#     4  10  21  34  52  79 111 146 181 218 271 335
#     4   9  17  33  48  74 107 137 175 218 271 318
#     4  10  20  34  53  80 111 145 184 221 272 335
#     4  11  19  33  54  76 104 144 178 225 271 316
#     4   9  18  29  50  77 101 135 177 225 267 319
#     4  10  21  33  52  80 108 138 179 232 265 328
#
# _framework density 16.962620000000001
#
# number of rings (size 3 to 8) (size 9 to 14) (size 15 to 20)
#    0.000    2.143    2.857    1.714    2.000    0.000 
#    0.000    6.429    0.000    1.714    0.000   13.000 
#    0.000    0.000    0.000    0.000    0.000    0.000 
#
# Total GULP energy -155880.084671 kJ/mol
# GULP energy per Si atom -5567.145881 kJ/mol
# Density = 1.692401 g / cm^3
# Si number density = 16.962620 Si / 1000 Ang^3
#
#
#
# Elastic Constant Matrix: (Units=GPa)
#
#
# Indices 1 2 3 4 5 6 
#
# 1 112.5075 55.9614 42.0644 0.0000 12.1290 0.0000
# 2 55.9614 79.0206 32.8515 0.0000 0.8140 0.0000
# 3 42.0644 32.8515 49.1887 0.0000 4.4908 0.0000
# 4 0.0000 0.0000 0.0000 21.1231 0.0000 3.0543
# 5 12.1290 0.8140 4.4908 0.0000 27.2392 0.0000
# 6 0.0000 0.0000 0.0000 3.0543 0.0000 30.5938
#
#
#
# Elastic Compliance Matrix: (Units=1/GPa)
#
#
# Indices 1 2 3 4 5 6 
#
# 1 0.016762 -0.008408 -0.008184 0.000000 -0.005863 0.000000
# 2 -0.008408 0.021792 -0.007763 0.000000 0.004373 0.000000
# 3 -0.008184 -0.007763 0.032650 0.000000 -0.001507 0.000000
# 4 0.000000 0.000000 0.000000 0.048035 0.000000 -0.004796
# 5 -0.005863 0.004373 -0.001507 0.000000 0.039440 0.000000
# 6 0.000000 0.000000 0.000000 -0.004796 0.000000 0.033165
#
#
# Mechanical properties :
#
#
# Convention : Reuss Voigt Hill
#
# Bulk Modulus (GPa) = 44.45418 55.83015 50.14216
# Shear Modulus (GPa) = 20.15702 23.11387 21.63544
#
# Velocity S-wave (km/s) = 3.45094 3.69539 3.57526
# Velocity P-wave (km/s) = 6.49174 7.15493 6.83139
#
# Compressibility (1/GPa) = 0.02249507
#
# Stress axis : x y z
#
# Youngs Moduli (GPa) = 59.65727 45.88888 30.62761
#
# Poissons Ratio (x) = 0.38585 0.25065
# Poissons Ratio (y) = 0.50162 0.23775
# Poissons Ratio (z) = 0.48821 0.35622
#
# Static dielectric constant tensor:
#      x y z
#    x 1.647890 0.000000 0.010900 
#    y 0.000000 1.553000 0.000000 
#    z 0.010900 0.000000 1.586790 
# 
# From -- ./inp_files/226604.got.cif
#   From: 2010.05.17/outbox.cif.g08.bks.cpg/sg12_114_cif.got.tgz:226604.got - 2010.06.03 13:09:07.
