data_PCOD9193468
_publ_section_title
;
Structure prediction by ZEFSAII (Michael W. Deem and Ramdas Pophale) SiO2 
 PCOD9193468
Probable space group: C 2/M
;
_chemical_formula_sum "Si O2"
_cell_formula_units_Z 64
_cell_length_a 25.578463
_cell_length_b 13.199361
_cell_length_c 10.318038
_cell_angle_alpha 90.000000
_cell_angle_beta 96.769371
_cell_angle_gamma 90.000000
_cell_volume 3459.284319
_symmetry_space_group_name_H-M "C 2/M"
_symmetry_group_IT_number 12
_symmetry_cell_setting 'monoclinic'
loop_
_space_group_symop_operation_xyz
x,y,z
-x,y,-z
-x,-y,-z
x,-y,z
1/2+x,1/2+y,z
1/2-x,1/2+y,-z
1/2-x,1/2-y,-z
1/2+x,1/2-y,z
loop_
_atom_site_type_symbol
_atom_site_label
_atom_site_fract_x
_atom_site_fract_y
_atom_site_fract_z
Si Si1 0.027523 0.881414 0.835428
Si Si2 0.081556 0.179742 0.103583
Si Si3 0.123536 0.891104 0.376563
Si Si4 0.186955 0.704379 0.129198
Si Si5 0.142150 0.615235 0.636503
Si Si6 0.800308 0.700233 0.581007
Si Si7 0.270084 0.882522 0.120854
Si Si8 0.444560 0.711286 0.429226
O O1 0.046750 0.851269 0.699570
O O2 0.978246 0.808858 0.859562
O O3 0.011428 0.000000 0.836177
O O4 0.071966 0.864775 0.958109
O O5 0.104606 0.109099 0.223052
O O6 0.124410 0.270140 0.107962
O O7 0.162053 0.797319 0.396354
O O8 0.078088 0.862353 0.465367
O O9 0.146790 0.000000 0.416986
O O10 0.204071 0.660565 0.273813
O O11 0.220072 0.809399 0.124931
O O12 0.205215 0.637718 0.013354
O O13 0.123809 0.500000 0.653743
O O14 0.173400 0.622576 0.510107
O O15 0.184603 0.642044 0.760384
O O16 0.095789 0.697585 0.613168
O O17 0.750000 0.750000 0.500000
O O18 0.255569 0.000000 0.132941
O O19 0.500000 0.751126 0.500000
#
# Coordination Sequence:
#
# PCOD9193468 Si02
#       8
#     8   8   8   8   8   8   8   8
#     4  11  21  33  53  81 114 146 178 219 272 331
#     4  10  20  34  53  79 111 146 180 218 267 323
#     4  10  20  34  54  81 112 145 178 219 271 332
#     4  10  21  37  59  82 116 142 181 234 266 331
#     4  10  22  40  59  79 107 146 190 229 271 324
#     4  10  20  36  57  84 113 143 182 224 276 324
#     4  10  21  38  60  82 107 148 185 222 277 324
#     4  11  22  36  56  79 110 144 181 226 276 324
#
# _framework density 18.500937
#
# number of rings (size 3 to 8) (size 9 to 14) (size 15 to 20)
#    0.000    1.750    2.500    2.625    0.000    4.750 
#    0.000    0.000    0.000    0.000    0.000    3.500 
#    0.000    0.000    0.000    0.000    0.000    0.000 
#
# Total GULP energy -178323.242102 kJ/mol
# GULP energy per Si atom -5572.601316 kJ/mol
# Density = 1.845883 g / cm^3
# Si number density = 18.500937 Si / 1000 Ang^3
#
#
#
# Elastic Constant Matrix: (Units=GPa)
#
#
# Indices 1 2 3 4 5 6 
#
# 1 48.1676 1.1621 35.9920 0.0000 7.2287 0.0000
# 2 1.1621 38.6054 9.2578 0.0000 12.0357 0.0000
# 3 35.9920 9.2578 137.9854 0.0000 -1.5017 0.0000
# 4 0.0000 0.0000 0.0000 -8.0058 0.0000 -2.6815
# 5 7.2287 12.0357 -1.5017 0.0000 30.9178 0.0000
# 6 0.0000 0.0000 0.0000 -2.6815 0.0000 7.0007
#
#
#
# Elastic Compliance Matrix: (Units=1/GPa)
#
#
# Indices 1 2 3 4 5 6 
#
# 1 0.027505 0.003515 -0.007499 0.000000 -0.008163 0.000000
# 2 0.003515 0.030554 -0.003107 0.000000 -0.012867 0.000000
# 3 -0.007499 -0.003107 0.009449 0.000000 0.003422 0.000000
# 4 0.000000 0.000000 0.000000 -0.110706 0.000000 -0.042404
# 5 -0.008163 -0.012867 0.003422 0.000000 0.039427 0.000000
# 6 0.000000 0.000000 0.000000 -0.042404 0.000000 0.126601
#
#
# Mechanical properties :
#
#
# Convention : Reuss Voigt Hill
#
# Bulk Modulus (GPa) = 18.75252 35.28692 27.01972
# Shear Modulus (GPa) = 32.30267 17.87230 25.08748
#
# Velocity S-wave (km/s) = 4.18305 3.11146 3.68640
# Velocity P-wave (km/s) = 5.78693 5.65886 5.72325
#
# Compressibility (1/GPa) = 0.05332616
#
# Stress axis : x y z
#
# Youngs Moduli (GPa) = 36.35762 32.72922 105.83286
#
# Poissons Ratio (x) = -0.11506 0.79364
# Poissons Ratio (y) = -0.12781 0.32881
# Poissons Ratio (z) = 0.27264 0.10169
#
# Static dielectric constant tensor:
#      x y z
#    x 1.684230 0.000000 0.003760 
#    y 0.000000 1.598970 0.000000 
#    z 0.003760 0.000000 1.671180 
# 
# From -- ./inp_files/104606.got.cif
#   From: 2010.05.17/outbox.cif.g08.bks.cpg/sg12_53_cif.got.tgz:104606.got - 2010.06.03 13:09:07.
