data_PCOD9193448
_publ_section_title
;
Structure prediction by ZEFSAII (Michael W. Deem and Ramdas Pophale) SiO2 
 PCOD9193448
Probable space group: C 2/M
;
_chemical_formula_sum "Si O2"
_cell_formula_units_Z 64
_cell_length_a 16.493698
_cell_length_b 8.785037
_cell_length_c 20.875731
_cell_angle_alpha 90.000000
_cell_angle_beta 67.331123
_cell_angle_gamma 90.000000
_cell_volume 2791.169680
_symmetry_space_group_name_H-M "C 2/M"
_symmetry_group_IT_number 12
_symmetry_cell_setting 'monoclinic'
loop_
_space_group_symop_operation_xyz
x,y,z
-x,y,-z
-x,-y,-z
x,-y,z
1/2+x,1/2+y,z
1/2-x,1/2+y,-z
1/2-x,1/2-y,-z
1/2+x,1/2-y,z
loop_
_atom_site_type_symbol
_atom_site_label
_atom_site_fract_x
_atom_site_fract_y
_atom_site_fract_z
Si Si1 0.286889 0.178607 0.078433
Si Si2 0.668691 0.315876 0.328568
Si Si3 0.035705 0.183583 0.587520
Si Si4 0.911572 0.324627 0.164766
Si Si5 0.437220 0.672761 0.955811
Si Si6 0.445933 0.318580 0.278569
Si Si7 0.859627 0.681294 0.796635
Si Si8 0.693516 0.684423 0.459385
O O1 0.346635 0.193894 0.124703
O O2 0.343837 0.262734 0.006984
O O3 0.195318 0.251666 0.127385
O O4 0.278653 0.000000 0.066402
O O5 0.677281 0.500000 0.317083
O O6 0.566406 0.278731 0.375646
O O7 0.686128 0.235316 0.255999
O O8 0.716069 0.268636 0.380003
O O9 0.094437 0.232995 0.510124
O O10 0.078882 0.232528 0.642162
O O11 0.037277 0.000000 0.584616
O O12 0.913006 0.500000 0.182535
O O13 0.889225 0.232704 0.235395
O O14 0.007135 0.274139 0.109803
O O15 0.429701 0.500000 0.934273
O O16 0.500000 0.669380 0.000000
O O17 0.452169 0.500000 0.277216
O O18 0.543003 0.250381 0.236836
O O19 0.862345 0.500000 0.799204
O O20 0.697666 0.500000 0.458637
O O21 0.750000 0.750000 0.500000
#
# Coordination Sequence:
#
# PCOD9193448 Si02
#       8
#     8   8   8   8   8   8   8   8
#     4  10  20  35  55  79 109 143 179 220 267 317
#     4   9  18  35  57  76  98 136 181 218 258 312
#     4   8  16  33  56  76  96 132 179 216 250 305
#     4  10  20  34  54  80 109 141 178 220 266 315
#     4   9  17  31  52  78 107 140 180 220 261 314
#     4  10  20  36  57  79 106 140 178 220 268 320
#     4  11  22  36  55  79 108 140 178 223 268 317
#     4  10  20  34  53  79 109 137 169 214 265 314
#
# _framework density 22.929456999999999
#
# number of rings (size 3 to 8) (size 9 to 14) (size 15 to 20)
#    0.000    2.375    0.000    3.750    0.000    6.000 
#    0.000    6.250    0.000    3.750    0.000    0.000 
#    0.000    0.000    0.000    0.000    0.000    0.000 
#
# Total GULP energy -178853.753981 kJ/mol
# GULP energy per Si atom -5589.179812 kJ/mol
# Density = 2.287727 g / cm^3
# Si number density = 22.929457 Si / 1000 Ang^3
#
#
#
# Elastic Constant Matrix: (Units=GPa)
#
#
# Indices 1 2 3 4 5 6 
#
# 1 54.6750 1.4309 7.6913 0.0000 4.8952 0.0000
# 2 1.4309 61.1776 15.8487 0.0000 2.8988 0.0000
# 3 7.6913 15.8487 100.5616 0.0000 -1.9411 0.0000
# 4 0.0000 0.0000 0.0000 23.6734 0.0000 7.5842
# 5 4.8952 2.8988 -1.9411 0.0000 37.7739 0.0000
# 6 0.0000 0.0000 0.0000 7.5842 0.0000 17.9065
#
#
#
# Elastic Compliance Matrix: (Units=1/GPa)
#
#
# Indices 1 2 3 4 5 6 
#
# 1 0.018722 0.000067 -0.001491 0.000000 -0.002508 0.000000
# 2 0.000067 0.017121 -0.002732 0.000000 -0.001463 0.000000
# 3 -0.001491 -0.002732 0.010507 0.000000 0.000943 0.000000
# 4 0.000000 0.000000 0.000000 0.048873 0.000000 -0.020700
# 5 -0.002508 -0.001463 0.000943 0.000000 0.026959 0.000000
# 6 0.000000 0.000000 0.000000 -0.020700 0.000000 0.064613
#
#
# Mechanical properties :
#
#
# Convention : Reuss Voigt Hill
#
# Bulk Modulus (GPa) = 26.28835 29.59508 27.94171
# Shear Modulus (GPa) = 24.06313 28.63365 26.34839
#
# Velocity S-wave (km/s) = 3.24302 3.53763 3.39353
# Velocity P-wave (km/s) = 5.05101 5.44256 5.25044
#
# Compressibility (1/GPa) = 0.03803967
#
# Stress axis : x y z
#
# Youngs Moduli (GPa) = 53.41191 58.40680 95.17548
#
# Poissons Ratio (x) = -0.00392 0.14190
# Poissons Ratio (y) = -0.00359 0.25999
# Poissons Ratio (z) = 0.07963 0.15955
#
# Static dielectric constant tensor:
#      x y z
#    x 1.972060 0.000000 0.050210 
#    y 0.000000 1.769210 0.000000 
#    z 0.050210 0.000000 1.863770 
# 
# From -- ./inp_files/319898.got.cif
#   From: 2010.05.17/outbox.cif.g08.bks.cpg/sg12_160_cif.got.tgz:319898.got - 2010.06.03 13:09:07.
