data_PCOD9193763
_publ_section_title
;
Structure prediction by ZEFSAII (Michael W. Deem and Ramdas Pophale) SiO2 
 PCOD9193763
Probable space group: C 2/M
;
_chemical_formula_sum "Si O2"
_cell_formula_units_Z 64
_cell_length_a 31.948939
_cell_length_b 8.695526
_cell_length_c 25.734913
_cell_angle_alpha 90.000000
_cell_angle_beta 30.728805
_cell_angle_gamma 90.000000
_cell_volume 3653.211125
_symmetry_space_group_name_H-M "C 2/M"
_symmetry_group_IT_number 12
_symmetry_cell_setting 'monoclinic'
loop_
_space_group_symop_operation_xyz
x,y,z
-x,y,-z
-x,-y,-z
x,-y,z
1/2+x,1/2+y,z
1/2-x,1/2+y,-z
1/2-x,1/2-y,-z
1/2+x,1/2-y,z
loop_
_atom_site_type_symbol
_atom_site_label
_atom_site_fract_x
_atom_site_fract_y
_atom_site_fract_z
Si Si1 0.793655 0.184655 0.310273
Si Si2 0.453108 0.183801 0.195377
Si Si3 0.079254 0.686205 0.448330
Si Si4 0.372523 0.685859 0.013603
Si Si5 0.260230 0.313544 0.228325
Si Si6 0.505762 0.815785 0.729892
Si Si7 0.117580 0.816669 0.519490
Si Si8 0.831096 0.184296 0.939797
O O1 0.873514 0.243415 0.254356
O O2 0.794353 0.231502 0.248561
O O3 0.710120 0.252150 0.423189
O O4 0.789476 0.000000 0.316775
O O5 0.460190 0.223955 0.249000
O O6 0.449660 0.000000 0.194721
O O7 0.536640 0.245278 0.080482
O O8 0.079351 0.500000 0.453324
O O9 0.164675 0.731646 0.329531
O O10 0.081429 0.756856 0.503347
O O11 0.000000 0.731294 0.500000
O O12 0.378665 0.500000 0.009306
O O13 0.314472 0.740568 0.122273
O O14 0.336291 0.725882 0.995549
O O15 0.261730 0.500000 0.224970
O O16 0.562813 0.745824 0.624804
O O17 0.413471 0.751405 0.826246
O O18 0.503833 0.000000 0.727268
O O19 0.119379 0.000000 0.518122
O O20 0.831827 0.000000 0.935077
O O21 0.750000 0.250000 0.000000
#
# Coordination Sequence:
#
# PCOD9193763 Si02
#       8
#     8   8   8   8   8   8   8   8
#     4  10  20  36  57  78 104 139 177 215 260 319
#     4  10  21  36  54  78 106 135 172 220 270 316
#     4   9  18  34  56  80 108 144 183 218 257 313
#     4   9  18  34  54  75 103 140 180 217 256 309
#     4   8  16  32  53  77 102 134 178 218 251 300
#     4  10  21  38  57  76 104 142 181 220 264 319
#     4  11  22  36  55  80 110 139 174 223 271 314
#     4  10  20  34  54  80 109 141 177 220 267 314
#
# _framework density 17.518834999999999
#
# number of rings (size 3 to 8) (size 9 to 14) (size 15 to 20)
#    0.000    2.375    0.000    3.375    0.000    4.250 
#    0.000    8.125    0.000    0.000    0.000    0.000 
#    0.000    0.000    0.000    0.000    0.000    0.000 
#
# Total GULP energy -178586.029842 kJ/mol
# GULP energy per Si atom -5580.813433 kJ/mol
# Density = 1.747896 g / cm^3
# Si number density = 17.518835 Si / 1000 Ang^3
#
#
#
# Elastic Constant Matrix: (Units=GPa)
#
#
# Indices 1 2 3 4 5 6 
#
# 1 132.1506 49.9303 120.6016 0.0055 -29.9045 0.0001
# 2 49.9303 51.2725 57.3690 0.0018 -6.0487 -0.0026
# 3 120.6016 57.3690 199.4677 -0.0023 4.5692 -0.0050
# 4 0.0055 0.0018 -0.0023 28.5788 0.0005 -3.8314
# 5 -29.9045 -6.0487 4.5692 0.0005 31.3807 0.0004
# 6 0.0001 -0.0026 -0.0050 -3.8314 0.0004 27.4149
#
#
#
# Elastic Compliance Matrix: (Units=1/GPa)
#
#
# Indices 1 2 3 4 5 6 
#
# 1 0.042761 -0.009776 -0.024013 -0.000011 0.042361 -0.000008
# 2 -0.009776 0.032502 -0.003378 0.000000 -0.002560 0.000002
# 3 -0.024013 -0.003378 0.021113 0.000008 -0.026608 0.000005
# 4 -0.000011 0.000000 0.000008 0.035659 -0.000013 0.004984
# 5 0.042361 -0.002560 -0.026608 -0.000013 0.075616 -0.000008
# 6 -0.000008 0.000002 0.000005 0.004984 -0.000008 0.037173
#
#
# Mechanical properties :
#
#
# Convention : Reuss Voigt Hill
#
# Bulk Modulus (GPa) = 45.36920 93.18808 69.27864
# Shear Modulus (GPa) = 15.31364 27.80755 21.56059
#
# Velocity S-wave (km/s) = 2.95977 3.98841 3.51195
# Velocity P-wave (km/s) = 6.13465 8.63241 7.48840
#
# Compressibility (1/GPa) = 0.02204138
#
# Stress axis : x y z
#
# Youngs Moduli (GPa) = 23.38577 30.76714 47.36434
#
# Poissons Ratio (x) = 0.30079 1.13734
# Poissons Ratio (y) = 0.22863 0.16001
# Poissons Ratio (z) = 0.56155 0.10394
#
# Static dielectric constant tensor:
#      x y z
#    x 1.576980 0.000000 0.008600 
#    y 0.000000 1.588970 0.000000 
#    z 0.008600 0.000000 1.573590 
# 
# From -- ./inp_files/353326.got.cif
#   From: 2010.05.17/outbox.cif.g08.bks.cpg/sg12_177_cif.got.tgz:353326.got - 2010.06.03 13:09:07.
