data_PCOD9193901
_publ_section_title
;
Structure prediction by ZEFSAII (Michael W. Deem and Ramdas Pophale) SiO2 
 PCOD9193901
Probable space group: C 2/M
;
_chemical_formula_sum "Si O2"
_cell_formula_units_Z 56
_cell_length_a 14.921066
_cell_length_b 17.135318
_cell_length_c 17.329348
_cell_angle_alpha 90.000000
_cell_angle_beta 41.912344
_cell_angle_gamma 90.000000
_cell_volume 2959.689062
_symmetry_space_group_name_H-M "C 2/M"
_symmetry_group_IT_number 12
_symmetry_cell_setting 'monoclinic'
loop_
_space_group_symop_operation_xyz
x,y,z
-x,y,-z
-x,-y,-z
x,-y,z
1/2+x,1/2+y,z
1/2-x,1/2+y,-z
1/2-x,1/2-y,-z
1/2+x,1/2-y,z
loop_
_atom_site_type_symbol
_atom_site_label
_atom_site_fract_x
_atom_site_fract_y
_atom_site_fract_z
Si Si1 0.113771 0.590725 0.984454
Si Si2 0.338327 0.677762 0.914317
Si Si3 0.356351 0.406083 0.063462
Si Si4 0.582253 0.223033 0.516258
Si Si5 0.556433 0.085121 0.750550
Si Si6 0.118481 0.242435 0.672039
Si Si7 0.399836 0.912772 0.690268
O O1 0.139363 0.500000 0.947650
O O2 0.042174 0.592664 0.113655
O O3 0.252014 0.637499 0.901776
O O4 0.000000 0.622649 0.000000
O O5 0.486449 0.705655 0.795543
O O6 0.250000 0.750000 0.000000
O O7 0.340655 0.620201 0.985816
O O8 0.348127 0.500000 0.071364
O O9 0.244275 0.377548 0.195401
O O10 0.500000 0.379232 0.000000
O O11 0.500000 0.265740 0.500000
O O12 0.738210 0.205203 0.398243
O O13 0.592460 0.260926 0.595787
O O14 0.494401 0.145464 0.584796
O O15 0.633239 0.166583 0.689174
O O16 0.467090 0.080230 0.731349
O O17 0.627471 0.000000 0.712699
O O18 0.388809 0.000000 0.663627
#
# Coordination Sequence:
#
# PCOD9193901 Si02
#       7
#     8   8   8   8   8   8   8
#     4  10  20  34  54  82 116 154 191 228 282 352
#     4  12  21  36  56  87 121 150 186 242 301 353
#     4  10  21  36  58  87 121 156 190 234 292 358
#     4  10  22  39  57  76 113 155 194 246 286 335
#     4   9  16  34  57  75 105 147 188 230 279 346
#     4  10  22  38  55  86 111 147 198 241 293 350
#     4   9  17  34  58  81 109 150 193 227 279 352
#
# _framework density 18.920905999999999
#
# number of rings (size 3 to 8) (size 9 to 14) (size 15 to 20)
#    0.000    2.000    2.857    1.286    2.000    2.000 
#    0.000    1.429    0.000    2.143    0.000    0.000 
#    0.000    0.000    0.000    0.000    0.000    0.000 
#
# Total GULP energy -155970.507501 kJ/mol
# GULP energy per Si atom -5570.375268 kJ/mol
# Density = 1.887784 g / cm^3
# Si number density = 18.920906 Si / 1000 Ang^3
#
#
#
# Elastic Constant Matrix: (Units=GPa)
#
#
# Indices 1 2 3 4 5 6 
#
# 1 100.4855 22.2048 48.4426 0.0000 -18.9704 0.0000
# 2 22.2048 48.3257 34.1237 0.0000 -17.9986 0.0000
# 3 48.4426 34.1237 121.0306 -0.0001 -31.7160 0.0001
# 4 0.0000 0.0000 -0.0001 18.5471 0.0001 -7.1146
# 5 -18.9704 -17.9986 -31.7160 0.0001 35.9583 0.0000
# 6 0.0000 0.0000 0.0001 -7.1146 0.0000 3.5752
#
#
#
# Elastic Compliance Matrix: (Units=1/GPa)
#
#
# Indices 1 2 3 4 5 6 
#
# 1 0.012740 -0.002314 -0.003888 0.000000 0.002134 0.000000
# 2 -0.002314 0.028402 -0.004781 0.000000 0.008778 0.000000
# 3 -0.003888 -0.004781 0.013009 0.000000 0.007030 0.000000
# 4 0.000000 0.000000 0.000000 0.227831 0.000000 0.453381
# 5 0.002134 0.008778 0.007030 0.000000 0.039530 0.000001
# 6 0.000000 0.000000 0.000000 0.453381 0.000001 1.181930
#
#
# Mechanical properties :
#
#
# Convention : Reuss Voigt Hill
#
# Bulk Modulus (GPa) = 31.07043 53.26488 42.16765
# Shear Modulus (GPa) = 3.25492 22.62082 12.93787
#
# Velocity S-wave (km/s) = 1.31302 3.46142 2.61777
# Velocity P-wave (km/s) = 4.33077 6.64738 5.60996
#
# Compressibility (1/GPa) = 0.03218494
#
# Stress axis : x y z
#
# Youngs Moduli (GPa) = 78.49265 35.20932 76.87277
#
# Poissons Ratio (x) = 0.08147 0.29885
# Poissons Ratio (y) = 0.18163 0.36754
# Poissons Ratio (z) = 0.30515 0.16834
#
# Static dielectric constant tensor:
#      x y z
#    x 1.712700 0.000000 0.033030 
#    y 0.000000 1.712910 0.000000 
#    z 0.033030 0.000000 1.711120 
# 
# From -- ./inp_files/271392.got.cif
#   From: 2010.05.17/outbox.cif.g08.bks.cpg/sg12_136_cif.got.tgz:271392.got - 2010.06.03 13:09:07.
