data_PCOD9193237
_publ_section_title
;
Structure prediction by ZEFSAII (Michael W. Deem and Ramdas Pophale) SiO2 
 PCOD9193237
Probable space group: C 2/M
;
_chemical_formula_sum "Si O2"
_cell_formula_units_Z 56
_cell_length_a 18.449596
_cell_length_b 7.493261
_cell_length_c 29.488202
_cell_angle_alpha 90.000000
_cell_angle_beta 39.266975
_cell_angle_gamma 90.000000
_cell_volume 2580.268734
_symmetry_space_group_name_H-M "C 2/M"
_symmetry_group_IT_number 12
_symmetry_cell_setting 'monoclinic'
loop_
_space_group_symop_operation_xyz
x,y,z
-x,y,-z
-x,-y,-z
x,-y,z
1/2+x,1/2+y,z
1/2-x,1/2+y,-z
1/2-x,1/2-y,-z
1/2+x,1/2-y,z
loop_
_atom_site_type_symbol
_atom_site_label
_atom_site_fract_x
_atom_site_fract_y
_atom_site_fract_z
Si Si1 0.200658 0.286274 0.573542
Si Si2 0.486561 0.215497 0.142350
Si Si3 0.869411 0.781297 0.571442
Si Si4 0.556823 0.785594 0.286312
Si Si5 0.152746 0.718737 0.142834
Si Si6 0.229655 0.212902 0.284478
Si Si7 0.088049 0.788522 0.994600
O O1 0.195480 0.500000 0.581193
O O2 0.250000 0.250000 0.500000
O O3 0.286241 0.221521 0.571249
O O4 0.071279 0.217668 0.642003
O O5 0.569306 0.276397 0.142765
O O6 0.356822 0.281699 0.211969
O O7 0.483907 0.000000 0.145344
O O8 0.537503 0.264710 0.069044
O O9 0.821637 0.720675 0.643173
O O10 0.000000 0.725022 0.500000
O O11 0.869780 0.000000 0.571290
O O12 0.605691 0.722941 0.214448
O O13 0.642904 0.744689 0.285395
O O14 0.550030 0.000000 0.286598
O O15 0.152493 0.500000 0.142544
O O16 0.282695 0.780988 0.072195
O O17 0.240778 0.000000 0.284360
O O18 0.097263 0.000000 0.981298
O O19 0.000000 0.714090 0.000000
#
# Coordination Sequence:
#
# PCOD9193237 Si02
#       7
#     8   8   8   8   8   8   8
#     4  10  20  34  54  79 105 135 170 208 252 301
#     4  10  20  34  53  76 102 133 170 213 255 297
#     4   9  17  31  52  75 100 133 170 205 244 296
#     4  10  20  35  55  77 103 136 171 207 252 305
#     4   9  18  34  54  75 102 136 172 209 251 302
#     4  10  20  34  53  77 103 132 170 214 256 298
#     4  10  20  34  53  76 103 136 170 206 253 307
#
# _framework density 21.703164999999998
#
# number of rings (size 3 to 8) (size 9 to 14) (size 15 to 20)
#    0.000    2.286    0.000    3.000    0.000    7.143 
#    0.000    2.143    0.000    6.000    0.000    0.000 
#    0.000    0.000    0.000    0.000    0.000    0.000 
#
# Total GULP energy -156530.979466 kJ/mol
# GULP energy per Si atom -5590.392124 kJ/mol
# Density = 2.165377 g / cm^3
# Si number density = 21.703165 Si / 1000 Ang^3
#
#
#
# Elastic Constant Matrix: (Units=GPa)
#
#
# Indices 1 2 3 4 5 6 
#
# 1 250.3636 -7.1511 150.5944 0.0879 -9.9218 0.0548
# 2 -7.1511 54.9991 -8.2645 -0.1376 -8.2327 -0.0759
# 3 150.5944 -8.2645 245.6485 0.0381 -13.9845 0.0141
# 4 0.0879 -0.1376 0.0381 -47.9977 0.0086 -25.1327
# 5 -9.9218 -8.2327 -13.9845 0.0086 49.7379 0.0042
# 6 0.0548 -0.0759 0.0141 -25.1327 0.0042 2.4996
#
#
#
# Elastic Compliance Matrix: (Units=1/GPa)
#
#
# Indices 1 2 3 4 5 6 
#
# 1 0.006333 0.000277 -0.003860 0.000010 0.000224 -0.000005
# 2 0.000277 0.018818 0.000654 -0.000055 0.003354 0.000005
# 3 -0.003860 0.000654 0.006526 -0.000006 0.001173 0.000005
# 4 0.000010 -0.000055 -0.000006 -0.003325 -0.000005 -0.033438
# 5 0.000224 0.003354 0.001173 -0.000005 0.021035 0.000002
# 6 -0.000005 0.000005 0.000005 -0.033438 0.000002 0.063858
#
#
# Mechanical properties :
#
#
# Convention : Reuss Voigt Hill
#
# Bulk Modulus (GPa) = 38.73079 91.26320 64.99699
# Shear Modulus (GPa) = 39.15106 28.57012 33.86059
#
# Velocity S-wave (km/s) = 4.25188 3.63216 3.95418
# Velocity P-wave (km/s) = 6.47990 7.72865 7.13166
#
# Compressibility (1/GPa) = 0.02581925
#
# Stress axis : x y z
#
# Youngs Moduli (GPa) = 157.90324 53.13959 153.22707
#
# Poissons Ratio (x) = -0.01471 0.59151
# Poissons Ratio (y) = -0.04372 -0.10026
# Poissons Ratio (z) = 0.60957 -0.03477
#
# Static dielectric constant tensor:
#      x y z
#    x 1.739180 0.000000 -0.021880 
#    y 0.000000 1.823560 0.000000 
#    z -0.021880 0.000000 1.742300 
# 
# From -- ./inp_files/251016.got.cif
#   From: 2010.05.17/outbox.cif.g08.bks.cpg/sg12_126_cif.got.tgz:251016.got - 2010.06.03 13:09:07.
