data_PCOD9193830
_publ_section_title
;
Structure prediction by ZEFSAII (Michael W. Deem and Ramdas Pophale) SiO2 
 PCOD9193830
Probable space group: C 2/M
;
_chemical_formula_sum "Si O2"
_cell_formula_units_Z 64
_cell_length_a 19.760984
_cell_length_b 7.466379
_cell_length_c 20.702805
_cell_angle_alpha 90.000000
_cell_angle_beta 123.024725
_cell_angle_gamma 90.000000
_cell_volume 2561.046284
_symmetry_space_group_name_H-M "C 2/M"
_symmetry_group_IT_number 12
_symmetry_cell_setting 'monoclinic'
loop_
_space_group_symop_operation_xyz
x,y,z
-x,y,-z
-x,-y,-z
x,-y,z
1/2+x,1/2+y,z
1/2-x,1/2+y,-z
1/2-x,1/2-y,-z
1/2+x,1/2-y,z
loop_
_atom_site_type_symbol
_atom_site_label
_atom_site_fract_x
_atom_site_fract_y
_atom_site_fract_z
Si Si1 0.253440 0.706035 0.110906
Si Si2 0.045468 0.205322 0.295669
Si Si3 0.963257 0.210514 0.915862
Si Si4 0.157328 0.286424 0.471832
Si Si5 0.628256 0.784329 0.944579
Si Si6 0.837243 0.779949 0.754799
Si Si7 0.615796 0.284396 0.730288
Si Si8 0.337300 0.786590 0.380829
O O1 0.234626 0.500000 0.115258
O O2 0.322480 0.711872 0.090745
O O3 0.299521 0.786878 0.196536
O O4 0.175312 0.782937 0.033782
O O5 0.097775 0.205695 0.388260
O O6 0.102097 0.282376 0.269896
O O7 0.959086 0.287323 0.267351
O O8 0.030291 0.000000 0.268446
O O9 0.035404 0.230770 0.901439
O O10 0.879603 0.279665 0.843139
O O11 0.950749 0.000000 0.920590
O O12 0.000000 0.292947 0.000000
O O13 0.144793 0.500000 0.463526
O O14 0.250000 0.250000 0.500000
O O15 0.143298 0.219287 0.537648
O O16 0.634126 0.000000 0.945596
O O17 0.748887 0.716271 0.689498
O O18 0.835229 0.000000 0.753816
O O19 0.617849 0.500000 0.737900
O O20 0.604113 0.245766 0.648755
O O21 0.329140 0.000000 0.383938
#
# Coordination Sequence:
#
# PCOD9193830 Si02
#       8
#     8   8   8   8   8   8   8   8
#     4   9  19  37  58  78 108 150 191 229 279 342
#     4  10  20  38  63  86 115 153 192 236 284 341
#     4  10  21  35  55  81 111 151 196 236 281 341
#     4  11  22  39  63  89 116 150 192 237 286 340
#     4  10  20  34  54  81 110 144 188 241 291 333
#     4   9  18  37  60  82 111 153 199 236 282 343
#     4  10  22  38  59  87 118 154 191 235 287 340
#     4  10  22  39  60  85 117 153 188 236 290 342
#
# _framework density 24.989785000000001
#
# number of rings (size 3 to 8) (size 9 to 14) (size 15 to 20)
#    0.000    2.125    1.250    1.500    1.750    5.250 
#    0.000    5.000    0.000    0.000    0.000    0.000 
#    0.000    0.000    0.000    0.000    0.000    0.000 
#
# Total GULP energy -178980.591228 kJ/mol
# GULP energy per Si atom -5593.143476 kJ/mol
# Density = 2.493291 g / cm^3
# Si number density = 24.989785 Si / 1000 Ang^3
#
#
#
# Elastic Constant Matrix: (Units=GPa)
#
#
# Indices 1 2 3 4 5 6 
#
# 1 65.0769 -2.4634 -7.6170 0.0000 -2.4101 0.0000
# 2 -2.4634 95.4545 3.2125 0.0000 -2.9898 0.0000
# 3 -7.6170 3.2125 100.9743 0.0000 -5.9909 0.0000
# 4 0.0000 0.0000 0.0000 12.4744 0.0000 -3.5139
# 5 -2.4101 -2.9898 -5.9909 0.0000 43.9980 0.0000
# 6 0.0000 0.0000 0.0000 -3.5139 0.0000 16.3552
#
#
#
# Elastic Compliance Matrix: (Units=1/GPa)
#
#
# Indices 1 2 3 4 5 6 
#
# 1 0.015563 0.000393 0.001224 0.000000 0.001046 0.000000
# 2 0.000393 0.010517 -0.000263 0.000000 0.000700 0.000000
# 3 0.001224 -0.000263 0.010089 0.000000 0.001423 0.000000
# 4 0.000000 0.000000 0.000000 0.085328 0.000000 0.018333
# 5 0.001046 0.000700 0.001423 0.000000 0.023027 0.000000
# 6 0.000000 0.000000 0.000000 0.018333 0.000000 0.065082
#
#
# Mechanical properties :
#
#
# Convention : Reuss Voigt Hill
#
# Bulk Modulus (GPa) = 25.72297 27.53001 26.62649
# Shear Modulus (GPa) = 22.74200 32.45708 27.59954
#
# Velocity S-wave (km/s) = 3.01998 3.60782 3.32691
# Velocity P-wave (km/s) = 4.74090 5.32875 5.04339
#
# Compressibility (1/GPa) = 0.03887576
#
# Stress axis : x y z
#
# Youngs Moduli (GPa) = 64.25391 95.08289 99.12173
#
# Poissons Ratio (x) = -0.03739 -0.12128
# Poissons Ratio (y) = -0.02527 0.02611
# Poissons Ratio (z) = -0.07862 0.02504
#
# Static dielectric constant tensor:
#      x y z
#    x 1.978510 0.000000 -0.025370 
#    y 0.000000 1.827860 0.000000 
#    z -0.025370 0.000000 2.006750 
# 
# From -- ./inp_files/320090.got.cif
#   From: 2010.05.17/outbox.cif.g08.bks.cpg/sg12_161_cif.got.tgz:320090.got - 2010.06.03 13:09:07.
