data_PCOD9193693
_publ_section_title
;
Structure prediction by ZEFSAII (Michael W. Deem and Ramdas Pophale) SiO2 
 PCOD9193693
Probable space group: C 2/M
;
_chemical_formula_sum "Si O2"
_cell_formula_units_Z 56
_cell_length_a 18.906690
_cell_length_b 8.687354
_cell_length_c 30.033186
_cell_angle_alpha 90.000000
_cell_angle_beta 38.106421
_cell_angle_gamma 90.000000
_cell_volume 3044.226118
_symmetry_space_group_name_H-M "C 2/M"
_symmetry_group_IT_number 12
_symmetry_cell_setting 'monoclinic'
loop_
_space_group_symop_operation_xyz
x,y,z
-x,y,-z
-x,-y,-z
x,-y,z
1/2+x,1/2+y,z
1/2-x,1/2+y,-z
1/2-x,1/2-y,-z
1/2+x,1/2-y,z
loop_
_atom_site_type_symbol
_atom_site_label
_atom_site_fract_x
_atom_site_fract_y
_atom_site_fract_z
Si Si1 0.079011 0.313893 0.002159
Si Si2 0.302386 0.814307 0.292229
Si Si3 0.158695 0.814576 0.137864
Si Si4 0.004369 0.815857 0.863069
Si Si5 0.534315 0.814653 0.707153
Si Si6 0.622024 0.815046 0.566909
Si Si7 0.538089 0.686154 0.431281
O O1 0.078938 0.500000 0.004509
O O2 0.029560 0.250380 0.072601
O O3 0.210100 0.263007 0.929575
O O4 0.000000 0.266829 0.000000
O O5 0.375632 0.745985 0.215488
O O6 0.367979 0.768055 0.305345
O O7 0.170090 0.767221 0.358301
O O8 0.306529 0.000000 0.287758
O O9 0.090941 0.768692 0.126500
O O10 0.085140 0.749809 0.215200
O O11 0.157080 0.000000 0.141196
O O12 0.007181 0.000000 0.863423
O O13 0.567350 0.764853 0.641244
O O14 0.529110 0.000000 0.710217
O O15 0.750000 0.750000 0.500000
O O16 0.545021 0.756461 0.564396
O O17 0.626645 0.000000 0.564310
O O18 0.500000 0.729624 0.500000
O O19 0.531658 0.500000 0.431535
#
# Coordination Sequence:
#
# PCOD9193693 Si02
#       7
#     8   8   8   8   8   8   8
#     4  10  21  36  53  75 105 140 178 218 262 318
#     4   9  18  35  58  79 104 141 179 217 266 323
#     4   9  19  35  55  79 105 136 176 220 265 317
#     4  10  20  34  54  79 106 136 174 221 267 314
#     4   9  19  36  57  80 106 139 179 221 266 320
#     4  11  23  38  57  83 114 147 185 227 272 323
#     4  10  21  38  59  82 110 145 185 227 273 328
#
# _framework density 18.395479999999999
#
# number of rings (size 3 to 8) (size 9 to 14) (size 15 to 20)
#    0.000    2.286    0.000    2.143    0.000    6.857 
#    0.000    7.143    0.000    0.000    0.000    0.000 
#    0.000    0.000    0.000    0.000    0.000    0.000 
#
# Total GULP energy -156345.803001 kJ/mol
# GULP energy per Si atom -5583.778679 kJ/mol
# Density = 1.835361 g / cm^3
# Si number density = 18.395480 Si / 1000 Ang^3
#
#
#
# Elastic Constant Matrix: (Units=GPa)
#
#
# Indices 1 2 3 4 5 6 
#
# 1 138.1115 36.4680 134.3899 0.0000 -3.0227 -0.0007
# 2 36.4680 14.8196 43.3409 -0.0001 -0.1853 -0.0006
# 3 134.3899 43.3409 219.6126 0.0000 1.0992 -0.0001
# 4 0.0000 -0.0001 0.0000 28.3604 0.0000 -1.8123
# 5 -3.0227 -0.1853 1.0992 0.0000 37.7311 0.0002
# 6 -0.0007 -0.0006 -0.0001 -1.8123 0.0002 23.5372
#
#
#
# Elastic Compliance Matrix: (Units=1/GPa)
#
#
# Indices 1 2 3 4 5 6 
#
# 1 0.025101 -0.039711 -0.007534 0.000000 0.002035 0.000000
# 2 -0.039711 0.222521 -0.019607 0.000001 -0.001517 0.000004
# 3 -0.007534 -0.019607 0.013038 0.000000 -0.001080 -0.000001
# 4 0.000000 0.000001 0.000000 0.035435 0.000000 0.002728
# 5 0.002035 -0.001517 -0.001080 0.000000 0.026690 0.000000
# 6 0.000000 0.000004 -0.000001 0.002728 0.000000 0.042696
#
#
# Mechanical properties :
#
#
# Convention : Reuss Voigt Hill
#
# Bulk Modulus (GPa) = 7.87659 88.99348 48.43503
# Shear Modulus (GPa) = 9.23354 28.48208 18.85781
#
# Velocity S-wave (km/s) = 2.24285 3.93914 3.20524
# Velocity P-wave (km/s) = 3.31636 8.31697 6.33128
#
# Compressibility (1/GPa) = 0.12695845
#
# Stress axis : x y z
#
# Youngs Moduli (GPa) = 39.83850 4.49395 76.69649
#
# Poissons Ratio (x) = 0.17846 0.57780
# Poissons Ratio (y) = 1.58203 1.50375
# Poissons Ratio (z) = 0.30013 0.08811
#
# Static dielectric constant tensor:
#      x y z
#    x 1.615230 0.000000 -0.005260 
#    y 0.000000 1.624300 0.000000 
#    z -0.005260 0.000000 1.606310 
# 
# From -- ./inp_files/275164.got.cif
#   From: 2010.05.17/outbox.cif.g08.bks.cpg/sg12_138_cif.got.tgz:275164.got - 2010.06.03 13:09:07.
