data_PCOD9193796
_publ_section_title
;
Structure prediction by ZEFSAII (Michael W. Deem and Ramdas Pophale) SiO2 
 PCOD9193796
Probable space group: C 2/M
;
_chemical_formula_sum "Si O2"
_cell_formula_units_Z 56
_cell_length_a 30.688379
_cell_length_b 8.711129
_cell_length_c 22.453601
_cell_angle_alpha 90.000000
_cell_angle_beta 146.731700
_cell_angle_gamma 90.000000
_cell_volume 3292.750125
_symmetry_space_group_name_H-M "C 2/M"
_symmetry_group_IT_number 12
_symmetry_cell_setting 'monoclinic'
loop_
_space_group_symop_operation_xyz
x,y,z
-x,y,-z
-x,-y,-z
x,-y,z
1/2+x,1/2+y,z
1/2-x,1/2+y,-z
1/2-x,1/2-y,-z
1/2+x,1/2-y,z
loop_
_atom_site_type_symbol
_atom_site_label
_atom_site_fract_x
_atom_site_fract_y
_atom_site_fract_z
Si Si1 0.911703 0.316693 0.104226
Si Si2 0.077793 0.315080 0.746266
Si Si3 0.284399 0.183326 0.297576
Si Si4 0.542982 0.683655 0.487189
Si Si5 0.756808 0.684311 0.126665
Si Si6 0.008762 0.816890 0.918366
Si Si7 0.877983 0.683131 0.850085
O O1 0.918646 0.500000 0.105884
O O2 0.929548 0.274439 0.192831
O O3 0.968795 0.235991 0.121901
O O4 0.821963 0.266870 0.986067
O O5 0.071021 0.500000 0.732810
O O6 0.165386 0.272998 0.822200
O O7 0.012169 0.237987 0.629833
O O8 0.370392 0.241237 0.415569
O O9 0.272979 0.220854 0.214375
O O10 0.212427 0.262202 0.250361
O O11 0.278902 0.000000 0.297499
O O12 0.500000 0.729738 0.500000
O O13 0.550715 0.500000 0.495842
O O14 0.745142 0.500000 0.108818
O O15 0.926999 0.747569 0.850031
O O16 0.007610 0.000000 0.921715
O O17 0.076869 0.752508 0.040594
O O18 0.883821 0.500000 0.858693
#
# Coordination Sequence:
#
# PCOD9193796 Si02
#       7
#     8   8   8   8   8   8   8
#     4  11  22  35  55  82 114 149 187 231 278 328
#     4  10  22  39  56  78 110 152 193 229 276 332
#     4  11  21  35  58  83 113 148 185 227 278 334
#     4  11  23  37  56  82 110 145 190 238 279 319
#     4  10  20  34  54  80 112 150 187 224 275 333
#     4  11  21  35  55  80 113 148 184 222 276 338
#     4  11  21  35  56  83 113 142 182 231 279 326
#
# _framework density 17.007061
#
# number of rings (size 3 to 8) (size 9 to 14) (size 15 to 20)
#    0.000    1.286    2.857    5.143    0.000    2.857 
#    0.000    0.000    0.000    0.857    0.000    0.000 
#    0.000    0.000    0.000    0.000    0.000    0.000 
#
# Total GULP energy -156505.424519 kJ/mol
# GULP energy per Si atom -5589.479447 kJ/mol
# Density = 1.696835 g / cm^3
# Si number density = 17.007061 Si / 1000 Ang^3
#
#
#
# Elastic Constant Matrix: (Units=GPa)
#
#
# Indices 1 2 3 4 5 6 
#
# 1 148.5343 66.9302 74.6157 0.0000 11.9212 0.0000
# 2 66.9302 91.5067 50.5872 0.0000 2.8000 0.0000
# 3 74.6157 50.5872 91.5360 0.0000 2.3532 0.0000
# 4 0.0000 0.0000 0.0000 29.4487 0.0000 4.6849
# 5 11.9212 2.8000 2.3532 0.0000 29.3631 0.0000
# 6 0.0000 0.0000 0.0000 4.6849 0.0000 24.4010
#
#
#
# Elastic Compliance Matrix: (Units=1/GPa)
#
#
# Indices 1 2 3 4 5 6 
#
# 1 0.013458 -0.005339 -0.007908 0.000000 -0.004321 0.000000
# 2 -0.005339 0.017873 -0.005549 0.000000 0.000908 0.000000
# 3 -0.007908 -0.005549 0.020383 0.000000 0.002106 0.000000
# 4 0.000000 0.000000 0.000000 0.035027 0.000000 -0.006725
# 5 -0.004321 0.000908 0.002106 0.000000 0.035555 0.000000
# 6 0.000000 0.000000 0.000000 -0.006725 0.000000 0.042273
#
#
# Mechanical properties :
#
#
# Convention : Reuss Voigt Hill
#
# Bulk Modulus (GPa) = 70.81165 79.53812 75.17488
# Shear Modulus (GPa) = 24.16982 25.93882 25.05432
#
# Velocity S-wave (km/s) = 3.77392 3.90959 3.84236
# Velocity P-wave (km/s) = 7.79211 8.20056 7.99894
#
# Compressibility (1/GPa) = 0.01412197
#
# Stress axis : x y z
#
# Youngs Moduli (GPa) = 74.30585 55.95034 49.05941
#
# Poissons Ratio (x) = 0.29873 0.38798
# Poissons Ratio (y) = 0.39674 0.27221
# Poissons Ratio (z) = 0.58764 0.31044
#
# Static dielectric constant tensor:
#      x y z
#    x 1.575960 0.000000 0.003030 
#    y 0.000000 1.567830 0.000000 
#    z 0.003030 0.000000 1.536460 
# 
# From -- ./inp_files/288143.got.cif
#   From: 2010.05.17/outbox.cif.g08.bks.cpg/sg12_145_cif.got.tgz:288143.got - 2010.06.03 13:09:07.
