data_PCOD9193601
_publ_section_title
;
Structure prediction by ZEFSAII (Michael W. Deem and Ramdas Pophale) SiO2 
 PCOD9193601
Probable space group: C 2/M
;
_chemical_formula_sum "Si O2"
_cell_formula_units_Z 48
_cell_length_a 9.911019
_cell_length_b 15.104542
_cell_length_c 12.365356
_cell_angle_alpha 90.000000
_cell_angle_beta 97.883391
_cell_angle_gamma 90.000000
_cell_volume 1833.616777
_symmetry_space_group_name_H-M "C 2/M"
_symmetry_group_IT_number 12
_symmetry_cell_setting 'monoclinic'
loop_
_space_group_symop_operation_xyz
x,y,z
-x,y,-z
-x,-y,-z
x,-y,z
1/2+x,1/2+y,z
1/2-x,1/2+y,-z
1/2-x,1/2-y,-z
1/2+x,1/2-y,z
loop_
_atom_site_type_symbol
_atom_site_label
_atom_site_fract_x
_atom_site_fract_y
_atom_site_fract_z
Si Si1 0.879113 0.732156 0.398433
Si Si2 0.486986 0.093333 0.714309
Si Si3 0.019201 0.825035 0.882225
Si Si4 0.241967 0.100271 0.532874
Si Si5 0.251705 0.500000 0.990457
Si Si6 0.527525 0.500000 0.166462
Si Si7 0.168472 0.343862 0.103613
O O1 0.830857 0.833554 0.390033
O O2 0.763292 0.665062 0.432346
O O3 0.000000 0.735967 0.500000
O O4 0.929664 0.683046 0.296293
O O5 0.392381 0.088782 0.598091
O O6 0.382274 0.098578 0.801268
O O7 0.565241 0.000000 0.729672
O O8 0.926649 0.740541 0.890751
O O9 0.177814 0.808536 0.882501
O O10 0.971557 0.899136 0.790543
O O11 0.000000 0.869851 0.000000
O O12 0.187220 0.000000 0.510323
O O13 0.370313 0.500000 0.098306
O O14 0.164472 0.410924 0.000847
O O15 0.335287 0.500000 0.890272
#
# Coordination Sequence:
#
# PCOD9193601 Si02
#       7
#     8   8   8   8   4   4   8
#     4   9  18  33  53  80 109 136 173 224 271 313
#     4  10  20  34  54  76 105 142 183 223 264 323
#     4  11  21  37  58  82 108 144 186 228 276 328
#     4   9  18  33  55  80 104 141 184 216 259 324
#     4   9  16  34  54  79 103 141 182 218 273 323
#     4   9  16  34  59  76 105 138 187 226 262 328
#     4  11  22  35  57  83 109 144 182 230 277 325
#
# _framework density 26.177769000000001
#
# number of rings (size 3 to 8) (size 9 to 14) (size 15 to 20)
#    0.000    2.167    4.167    1.000    2.333    2.333 
#    0.000    1.250    0.000    0.000    0.000    0.000 
#    0.000    0.000    0.000    0.000    0.000    0.000 
#
# Total GULP energy -133775.112797 kJ/mol
# GULP energy per Si atom -5573.963033 kJ/mol
# Density = 2.611819 g / cm^3
# Si number density = 26.177769 Si / 1000 Ang^3
#
#
#
# Elastic Constant Matrix: (Units=GPa)
#
#
# Indices 1 2 3 4 5 6 
#
# 1 108.1433 90.0678 33.0025 0.0000 -35.0887 0.0000
# 2 90.0678 256.6183 12.7880 0.0000 -21.4146 0.0000
# 3 33.0025 12.7880 46.0416 0.0000 -29.2589 0.0000
# 4 0.0000 0.0000 0.0000 3.5694 0.0000 -5.6213
# 5 -35.0887 -21.4146 -29.2589 0.0000 43.4117 0.0000
# 6 0.0000 0.0000 0.0000 -5.6213 0.0000 40.7768
#
#
#
# Elastic Compliance Matrix: (Units=1/GPa)
#
#
# Indices 1 2 3 4 5 6 
#
# 1 0.018319 -0.005463 -0.006851 0.000000 0.007495 0.000000
# 2 -0.005463 0.005695 0.002297 0.000000 -0.000058 0.000000
# 3 -0.006851 0.002297 0.040570 0.000000 0.022939 0.000000
# 4 0.000000 0.000000 0.000000 0.357845 0.000000 0.049331
# 5 0.007495 -0.000058 0.022939 0.000000 0.044525 0.000000
# 6 0.000000 0.000000 0.000000 0.049331 0.000000 0.031324
#
#
# Mechanical properties :
#
#
# Convention : Reuss Voigt Hill
#
# Bulk Modulus (GPa) = 22.44650 75.83554 49.14102
# Shear Modulus (GPa) = 9.37801 35.88125 22.62963
#
# Velocity S-wave (km/s) = 1.89478 3.70628 2.94336
# Velocity P-wave (km/s) = 3.65790 6.88097 5.51035
#
# Compressibility (1/GPa) = 0.04455037
#
# Stress axis : x y z
#
# Youngs Moduli (GPa) = 54.58711 175.59644 24.64886
#
# Poissons Ratio (x) = 0.95926 0.16887
# Poissons Ratio (y) = 0.29820 -0.05662
# Poissons Ratio (z) = 0.37398 -0.40337
#
# Static dielectric constant tensor:
#      x y z
#    x 2.054740 0.000000 0.041470 
#    y 0.000000 2.236240 0.000000 
#    z 0.041470 0.000000 2.193330 
# 
# From -- ./inp_files/204415.got.cif
#   From: 2010.05.17/outbox.cif.g08.bks.cpg/sg12_103_cif.got.tgz:204415.got - 2010.06.03 13:09:07.
