data_PCOD9193458
_publ_section_title
;
Structure prediction by ZEFSAII (Michael W. Deem and Ramdas Pophale) SiO2 
 PCOD9193458
Probable space group: C 2/M
;
_chemical_formula_sum "Si O2"
_cell_formula_units_Z 40
_cell_length_a 9.081326
_cell_length_b 18.428256
_cell_length_c 14.403007
_cell_angle_alpha 90.000000
_cell_angle_beta 124.498929
_cell_angle_gamma 90.000000
_cell_volume 1986.488106
_symmetry_space_group_name_H-M "C 2/M"
_symmetry_group_IT_number 12
_symmetry_cell_setting 'monoclinic'
loop_
_space_group_symop_operation_xyz
x,y,z
-x,y,-z
-x,-y,-z
x,-y,z
1/2+x,1/2+y,z
1/2-x,1/2+y,-z
1/2-x,1/2-y,-z
1/2+x,1/2-y,z
loop_
_atom_site_type_symbol
_atom_site_label
_atom_site_fract_x
_atom_site_fract_y
_atom_site_fract_z
Si Si1 0.490106 0.585323 0.386019
Si Si2 0.292426 0.914094 0.342019
Si Si3 0.806249 0.201000 0.205003
Si Si4 0.438402 0.211588 0.577589
Si Si5 0.530549 0.673491 0.116763
O O1 0.500000 0.598384 0.500000
O O2 0.456963 0.500000 0.360873
O O3 0.333839 0.632322 0.282448
O O4 0.674735 0.601305 0.394375
O O5 0.500000 0.761228 0.500000
O O6 0.522348 0.870087 0.605533
O O7 0.160656 0.882761 0.215895
O O8 0.321565 0.000000 0.347613
O O9 0.628954 0.248128 0.150757
O O10 0.964556 0.253068 0.299625
O O11 0.854265 0.179569 0.117214
O O12 0.250000 0.250000 0.500000
O O13 0.500000 0.652054 0.000000
#
# Coordination Sequence:
#
# PCOD9193458 Si02
#       5
#     8   8   8   8   8
#     4   9  17  32  55  83 117 154 186 222 275 335
#     4   9  20  36  55  84 116 147 188 233 276 329
#     4  10  20  34  53  79 110 142 185 231 273 329
#     4  11  21  35  56  82 114 150 183 222 273 332
#     4  10  20  35  57  80 105 143 187 236 284 324
#
# _framework density 20.136037000000002
#
# number of rings (size 3 to 8) (size 9 to 14) (size 15 to 20)
#    0.000    2.200    0.000    4.800    0.000    2.400 
#    0.000    2.000    0.000   14.400    0.000    0.000 
#    0.000    0.000    0.000    0.000    0.000    0.000 
#
# Total GULP energy -111346.188940 kJ/mol
# GULP energy per Si atom -5567.309447 kJ/mol
# Density = 2.009021 g / cm^3
# Si number density = 20.136037 Si / 1000 Ang^3
#
#
#
# Elastic Constant Matrix: (Units=GPa)
#
#
# Indices 1 2 3 4 5 6 
#
# 1 87.7056 43.2860 45.3119 0.0000 -18.0402 0.0000
# 2 43.2860 155.0728 26.4261 0.0000 -3.0132 0.0000
# 3 45.3119 26.4261 105.1798 0.0000 -34.2017 0.0000
# 4 0.0000 0.0000 0.0000 -6.6122 0.0000 -33.3953
# 5 -18.0402 -3.0132 -34.2017 0.0000 36.9788 0.0000
# 6 0.0000 0.0000 0.0000 -33.3953 0.0000 -19.4884
#
#
#
# Elastic Compliance Matrix: (Units=1/GPa)
#
#
# Indices 1 2 3 4 5 6 
#
# 1 0.016519 -0.003659 -0.005253 0.000000 0.002902 0.000000
# 2 -0.003659 0.007603 -0.001019 0.000000 -0.002109 0.000000
# 3 -0.005253 -0.001019 0.015969 0.000000 0.012124 0.000000
# 4 0.000000 0.000000 0.000000 0.019757 0.000000 -0.033856
# 5 0.002902 -0.002109 0.012124 0.000000 0.039500 0.000000
# 6 0.000000 0.000000 0.000000 -0.033856 0.000000 0.006704
#
#
# Mechanical properties :
#
#
# Convention : Reuss Voigt Hill
#
# Bulk Modulus (GPa) = 49.43987 64.22289 56.83138
# Shear Modulus (GPa) = 37.69099 17.70459 27.69779
#
# Velocity S-wave (km/s) = 4.33114 2.96843 3.71284
# Velocity P-wave (km/s) = 7.04400 6.61154 6.83120
#
# Compressibility (1/GPa) = 0.02022659
#
# Stress axis : x y z
#
# Youngs Moduli (GPa) = 60.53734 131.53125 62.62048
#
# Poissons Ratio (x) = 0.48131 0.32897
# Poissons Ratio (y) = 0.22152 0.06383
# Poissons Ratio (z) = 0.31803 0.13408
#
# Static dielectric constant tensor:
#      x y z
#    x 1.749010 0.000000 0.015350 
#    y 0.000000 1.761730 0.000000 
#    z 0.015350 0.000000 1.733510 
# 
# From -- ./inp_files/204690.got.cif
#   From: 2010.05.17/outbox.cif.g08.bks.cpg/sg12_103_cif.got.tgz:204690.got - 2010.06.03 13:09:07.
