data_PCOD9193481
_publ_section_title
;
Structure prediction by ZEFSAII (Michael W. Deem and Ramdas Pophale) SiO2 
 PCOD9193481
Probable space group: C 2/M
;
_chemical_formula_sum "Si O2"
_cell_formula_units_Z 64
_cell_length_a 20.629852
_cell_length_b 7.694309
_cell_length_c 22.408247
_cell_angle_alpha 90.000000
_cell_angle_beta 59.958681
_cell_angle_gamma 90.000000
_cell_volume 3079.096343
_symmetry_space_group_name_H-M "C 2/M"
_symmetry_group_IT_number 12
_symmetry_cell_setting 'monoclinic'
loop_
_space_group_symop_operation_xyz
x,y,z
-x,y,-z
-x,-y,-z
x,-y,z
1/2+x,1/2+y,z
1/2-x,1/2+y,-z
1/2-x,1/2-y,-z
1/2+x,1/2-y,z
loop_
_atom_site_type_symbol
_atom_site_label
_atom_site_fract_x
_atom_site_fract_y
_atom_site_fract_z
Si Si1 0.419501 0.702778 0.057274
Si Si2 0.647258 0.287208 0.204931
Si Si3 0.687505 0.294690 0.444025
Si Si4 0.145398 0.787949 0.591197
Si Si5 0.793786 0.786804 0.694065
Si Si6 0.874919 0.700584 0.208509
Si Si7 0.481423 0.702797 0.261338
Si Si8 0.275831 0.792678 0.054663
O O1 0.429712 0.500000 0.067013
O O2 0.389348 0.788125 0.131566
O O3 0.356744 0.720255 0.035441
O O4 0.500000 0.773513 0.000000
O O5 0.649068 0.500000 0.201809
O O6 0.664144 0.235164 0.265141
O O7 0.565203 0.225115 0.223167
O O8 0.713367 0.228299 0.130498
O O9 0.671703 0.500000 0.449422
O O10 0.775942 0.270319 0.416498
O O11 0.645863 0.226490 0.522185
O O12 0.672919 0.225806 0.384356
O O13 0.076171 0.725032 0.662805
O O14 0.146367 0.000000 0.591188
O O15 0.707395 0.727795 0.738947
O O16 0.792931 0.000000 0.693982
O O17 0.874730 0.500000 0.226912
O O18 0.940268 0.785661 0.216904
O O19 0.489750 0.500000 0.272844
O O20 0.281024 0.000000 0.058261
O O21 0.250000 0.750000 0.000000
#
# Coordination Sequence:
#
# PCOD9193481 Si02
#       8
#     8   8   8   8   8   8   8   8
#     4  11  25  43  62  86 116 148 183 230 289 340
#     4   9  19  36  56  76 107 147 181 219 274 333
#     4   9  16  28  49  74 104 140 180 226 274 323
#     4   9  17  28  45  76 109 138 178 225 273 325
#     4   9  16  31  54  78 102 139 183 223 271 322
#     4  11  21  36  59  84 110 142 186 234 276 323
#     4  10  20  34  53  79 113 148 182 225 278 332
#     4  11  23  41  62  85 115 152 193 230 277 338
#
# _framework density 20.785319000000001
#
# number of rings (size 3 to 8) (size 9 to 14) (size 15 to 20)
#    0.000    2.125    2.500    1.125    1.750    1.000 
#    0.000    1.250    0.000    3.750    0.000    0.000 
#    0.000    5.000    0.000    0.000    0.000    0.000 
#
# Total GULP energy -178646.297739 kJ/mol
# GULP energy per Si atom -5582.696804 kJ/mol
# Density = 2.073801 g / cm^3
# Si number density = 20.785319 Si / 1000 Ang^3
#
#
#
# Elastic Constant Matrix: (Units=GPa)
#
#
# Indices 1 2 3 4 5 6 
#
# 1 119.6799 -11.9967 39.5211 0.0002 8.9127 0.0005
# 2 -11.9967 34.5434 -6.3709 0.0004 -4.1576 -0.0007
# 3 39.5211 -6.3709 93.1698 0.0001 21.6204 -0.0004
# 4 0.0002 0.0004 0.0001 8.6135 0.0000 -4.3861
# 5 8.9127 -4.1576 21.6204 0.0000 33.6773 0.0003
# 6 0.0005 -0.0007 -0.0004 -4.3861 0.0003 2.5471
#
#
#
# Elastic Compliance Matrix: (Units=1/GPa)
#
#
# Indices 1 2 3 4 5 6 
#
# 1 0.009965 0.002743 -0.004120 -0.000010 0.000346 -0.000020
# 2 0.002743 0.030291 0.000245 0.000019 0.002856 0.000041
# 3 -0.004120 0.000245 0.014380 0.000016 -0.008111 0.000032
# 4 -0.000010 0.000019 0.000016 0.942915 -0.000019 1.623718
# 5 0.000346 0.002856 -0.008111 -0.000019 0.035162 -0.000038
# 6 -0.000020 0.000041 0.000032 1.623718 -0.000038 3.188679
#
#
# Mechanical properties :
#
#
# Convention : Reuss Voigt Hill
#
# Bulk Modulus (GPa) = 19.09450 32.18892 25.64171
# Shear Modulus (GPa) = 1.17894 24.05021 12.61457
#
# Velocity S-wave (km/s) = 0.75394 3.40527 2.46620
# Velocity P-wave (km/s) = 3.15664 5.56607 4.52469
#
# Compressibility (1/GPa) = 0.05237111
#
# Stress axis : x y z
#
# Youngs Moduli (GPa) = 100.34874 33.01353 69.54295
#
# Poissons Ratio (x) = -0.09055 0.28651
# Poissons Ratio (y) = -0.27523 -0.01704
# Poissons Ratio (z) = 0.41343 -0.00809
#
# Static dielectric constant tensor:
#      x y z
#    x 1.715110 0.000000 -0.003870 
#    y 0.000000 1.820720 0.000000 
#    z -0.003870 0.000000 1.750000 
# 
# From -- ./inp_files/319796.got.cif
#   From: 2010.05.17/outbox.cif.g08.bks.cpg/sg12_160_cif.got.tgz:319796.got - 2010.06.03 13:09:07.
