data_PCOD9193198
_publ_section_title
;
Structure prediction by ZEFSAII (Michael W. Deem and Ramdas Pophale) SiO2 
 PCOD9193198
Probable space group: C 2/M
;
_chemical_formula_sum "Si O2"
_cell_formula_units_Z 64
_cell_length_a 32.483388
_cell_length_b 8.767155
_cell_length_c 26.172810
_cell_angle_alpha 90.000000
_cell_angle_beta 150.228554
_cell_angle_gamma 90.000000
_cell_volume 3701.057693
_symmetry_space_group_name_H-M "C 2/M"
_symmetry_group_IT_number 12
_symmetry_cell_setting 'monoclinic'
loop_
_space_group_symop_operation_xyz
x,y,z
-x,y,-z
-x,-y,-z
x,-y,z
1/2+x,1/2+y,z
1/2-x,1/2+y,-z
1/2-x,1/2-y,-z
1/2+x,1/2-y,z
loop_
_atom_site_type_symbol
_atom_site_label
_atom_site_fract_x
_atom_site_fract_y
_atom_site_fract_z
Si Si1 0.176591 0.317360 0.954786
Si Si2 0.917307 0.183849 0.440013
Si Si3 0.636733 0.684177 0.020189
Si Si4 0.049903 0.184020 0.206506
Si Si5 0.740612 0.683939 0.230375
Si Si6 0.885817 0.182583 0.522815
Si Si7 0.011373 0.317536 0.273405
Si Si8 0.708773 0.315661 0.311946
O O1 0.182103 0.500000 0.961687
O O2 0.086039 0.274738 0.834639
O O3 0.250000 0.250000 0.000000
O O4 0.177570 0.253953 0.013504
O O5 0.833471 0.252261 0.326337
O O6 0.918059 0.225647 0.500832
O O7 0.000000 0.234402 0.500000
O O8 0.912616 0.000000 0.431851
O O9 0.641779 0.500000 0.022431
O O10 0.682817 0.733829 0.121360
O O11 0.539314 0.725619 0.913803
O O12 0.052015 0.255425 0.265049
O O13 0.126977 0.231333 0.254541
O O14 0.051920 0.000000 0.213374
O O15 0.743957 0.500000 0.233166
O O16 0.706869 0.729406 0.250056
O O17 0.943312 0.249263 0.628828
O O18 0.792435 0.246389 0.425501
O O19 0.884316 0.000000 0.524615
O O20 0.016938 0.500000 0.280383
O O21 0.714328 0.500000 0.319944
#
# Coordination Sequence:
#
# PCOD9193198 Si02
#       8
#     8   8   8   8   8   8   8   8
#     4  10  21  36  54  76 102 133 168 207 251 298
#     4   9  19  35  52  72  99 130 166 206 247 295
#     4   9  18  33  52  76 105 134 167 206 247 295
#     4   9  18  33  53  75 101 134 169 205 247 296
#     4   9  18  32  51  76 104 132 164 204 248 294
#     4  10  20  34  53  75 100 132 168 207 252 300
#     4  10  21  36  53  74 101 131 166 209 252 296
#     4   9  18  33  52  75 103 134 168 206 248 294
#
# _framework density 17.292354
#
# number of rings (size 3 to 8) (size 9 to 14) (size 15 to 20)
#    0.000    2.625    0.000    1.125    0.000    5.250 
#    0.000    5.000    0.000    0.000    0.000    7.000 
#    0.000    0.000    0.000    0.000    0.000    0.000 
#
# Total GULP energy -178498.570492 kJ/mol
# GULP energy per Si atom -5578.080328 kJ/mol
# Density = 1.725300 g / cm^3
# Si number density = 17.292354 Si / 1000 Ang^3
#
#
#
# Elastic Constant Matrix: (Units=GPa)
#
#
# Indices 1 2 3 4 5 6 
#
# 1 142.7738 35.6418 101.0007 0.0000 19.6766 0.0000
# 2 35.6418 17.9005 35.9700 0.0000 -0.2221 0.0000
# 3 101.0007 35.9700 142.3812 0.0000 -17.1531 0.0000
# 4 0.0000 0.0000 0.0000 23.9143 0.0000 0.0575
# 5 19.6766 -0.2221 -17.1531 0.0000 30.0258 0.0000
# 6 0.0000 0.0000 0.0000 0.0575 0.0000 23.3586
#
#
#
# Elastic Compliance Matrix: (Units=1/GPa)
#
#
# Indices 1 2 3 4 5 6 
#
# 1 0.032002 -0.021220 -0.021355 0.000000 -0.033328 0.000000
# 2 -0.021220 0.135892 -0.018774 0.000000 0.004186 0.000000
# 3 -0.021355 -0.018774 0.030697 0.000000 0.031392 0.000000
# 4 0.000000 0.000000 0.000000 0.041816 0.000000 -0.000103
# 5 -0.033328 0.004186 0.031392 0.000000 0.073110 0.000000
# 6 0.000000 0.000000 0.000000 -0.000103 0.000000 0.042811
#
#
# Mechanical properties :
#
#
# Convention : Reuss Voigt Hill
#
# Bulk Modulus (GPa) = 13.17643 72.03118 42.60380
# Shear Modulus (GPa) = 9.91426 24.15594 17.03510
#
# Velocity S-wave (km/s) = 2.39703 3.74159 3.14207
# Velocity P-wave (km/s) = 3.91118 7.77247 6.15259
#
# Compressibility (1/GPa) = 0.07589309
#
# Stress axis : x y z
#
# Youngs Moduli (GPa) = 31.24828 7.35877 32.57652
#
# Poissons Ratio (x) = 0.15615 0.69568
# Poissons Ratio (y) = 0.66309 0.61158
# Poissons Ratio (z) = 0.66732 0.13815
#
# Static dielectric constant tensor:
#      x y z
#    x 1.568490 0.000000 0.000400 
#    y 0.000000 1.582400 0.000000 
#    z 0.000400 0.000000 1.565420 
# 
# From -- ./inp_files/353523.got.cif
#   From: 2010.05.17/outbox.cif.g08.bks.cpg/sg12_177_cif.got.tgz:353523.got - 2010.06.03 13:09:07.
