data_PCOD9193751
_publ_section_title
;
Structure prediction by ZEFSAII (Michael W. Deem and Ramdas Pophale) SiO2 
 PCOD9193751
Probable space group: C 2/M
;
_chemical_formula_sum "Si O2"
_cell_formula_units_Z 64
_cell_length_a 24.084990
_cell_length_b 7.419014
_cell_length_c 13.658457
_cell_angle_alpha 90.000000
_cell_angle_beta 96.394332
_cell_angle_gamma 90.000000
_cell_volume 2425.404005
_symmetry_space_group_name_H-M "C 2/M"
_symmetry_group_IT_number 12
_symmetry_cell_setting 'monoclinic'
loop_
_space_group_symop_operation_xyz
x,y,z
-x,y,-z
-x,-y,-z
x,-y,z
1/2+x,1/2+y,z
1/2-x,1/2+y,-z
1/2-x,1/2-y,-z
1/2+x,1/2-y,z
loop_
_atom_site_type_symbol
_atom_site_label
_atom_site_fract_x
_atom_site_fract_y
_atom_site_fract_z
Si Si1 0.039832 0.798524 0.677034
Si Si2 0.644973 0.211598 0.816708
Si Si3 0.617037 0.719057 0.536509
Si Si4 0.882963 0.780943 0.963491
Si Si5 0.644973 0.788402 0.316708
Si Si6 0.539832 0.701476 0.177034
Si Si7 0.236043 0.214583 0.611392
Si Si8 0.263957 0.714583 0.888608
O O1 0.098939 0.810297 0.744436
O O2 0.060340 0.718357 0.578253
O O3 1.000000 0.709154 0.750000
O O4 0.016341 0.000000 0.653424
O O5 0.708776 0.283545 0.822059
O O6 0.644480 0.000000 0.793163
O O7 0.625407 0.227761 0.926077
O O8 0.616487 0.500000 0.539131
O O9 0.625407 0.772239 0.426077
O O10 0.672794 0.783559 0.605468
O O11 0.939660 0.718357 0.921747
O O12 0.827206 0.716441 0.894532
O O13 0.883513 0.000000 0.960869
O O14 0.598939 0.689703 0.244436
O O15 0.708776 0.716455 0.322059
O O16 0.644480 0.000000 0.293163
O O17 0.516341 0.500000 0.153424
O O18 0.250000 0.250000 0.500000
O O19 0.235291 0.000000 0.625275
O O20 0.264709 0.500000 0.874725
O O21 0.250000 0.750000 0.000000
#
# Coordination Sequence:
#
# PCOD9193751 Si02
#       8
#     8   8   8   8   8   8   8   8
#     4  10  22  38  54  74 101 137 181 218 248 295
#     4  10  20  34  54  80 108 134 164 210 264 310
#     4   9  18  35  57  77 102 137 173 209 251 303
#     4   9  18  35  57  77 102 137 173 209 251 303
#     4  10  20  34  54  80 108 134 164 210 264 310
#     4  10  22  38  54  74 101 137 181 218 248 295
#     4   8  15  29  50  77 104 130 163 203 252 308
#     4   8  15  29  50  77 104 130 163 203 252 308
#
# _framework density 26.387357000000002
#
# number of rings (size 3 to 8) (size 9 to 14) (size 15 to 20)
#    0.000    2.750    0.000    0.750    0.000    4.500 
#    0.000    5.000    0.000    0.000    0.000    0.000 
#    0.000    0.000    0.000    0.000    0.000    0.000 
#
# Total GULP energy -178828.326205 kJ/mol
# GULP energy per Si atom -5588.385194 kJ/mol
# Density = 2.632730 g / cm^3
# Si number density = 26.387357 Si / 1000 Ang^3
#
#
#
# Elastic Constant Matrix: (Units=GPa)
#
#
# Indices 1 2 3 4 5 6 
#
# 1 119.2421 2.2883 31.5200 0.0000 -45.6676 0.0000
# 2 2.2883 125.7938 8.6685 0.0000 -8.0974 0.0000
# 3 31.5200 8.6685 77.1660 0.0000 -24.8016 0.0000
# 4 0.0000 0.0000 0.0000 25.6798 0.0000 1.4732
# 5 -45.6676 -8.0974 -24.8016 0.0000 70.1093 0.0000
# 6 0.0000 0.0000 0.0000 1.4732 0.0000 7.9138
#
#
#
# Elastic Compliance Matrix: (Units=1/GPa)
#
#
# Indices 1 2 3 4 5 6 
#
# 1 0.011642 0.000402 -0.002650 0.000000 0.006692 0.000000
# 2 0.000402 0.008055 -0.000774 0.000000 0.000918 0.000000
# 3 -0.002650 -0.000774 0.015282 0.000000 0.003591 0.000000
# 4 0.000000 0.000000 0.000000 0.039362 0.000000 -0.007327
# 5 0.006692 0.000918 0.003591 0.000000 0.019999 0.000000
# 6 0.000000 0.000000 0.000000 -0.007327 0.000000 0.127726
#
#
# Mechanical properties :
#
#
# Convention : Reuss Voigt Hill
#
# Bulk Modulus (GPa) = 34.55939 45.23949 39.89944
# Shear Modulus (GPa) = 21.03009 39.38892 30.20950
#
# Velocity S-wave (km/s) = 2.82614 3.86776 3.38723
# Velocity P-wave (km/s) = 4.87594 6.09325 5.51827
#
# Compressibility (1/GPa) = 0.02893570
#
# Stress axis : x y z
#
# Youngs Moduli (GPa) = 85.89559 124.15213 65.43461
#
# Poissons Ratio (x) = -0.04986 0.17337
# Poissons Ratio (y) = -0.03450 0.05063
# Poissons Ratio (z) = 0.22758 0.09606
#
# Static dielectric constant tensor:
#      x y z
#    x 2.091000 0.000000 -0.103730 
#    y 0.000000 2.077280 0.000000 
#    z -0.103730 0.000000 3.111230 
# 
# From -- ./inp_files/238779.got.cif
#   From: 2010.05.17/outbox.cif.g08.bks.cpg/sg12_120_cif.got.tgz:238779.got - 2010.06.03 13:09:07.
