data_PCOD9193061
_publ_section_title
;
Structure prediction by ZEFSAII (Michael W. Deem and Ramdas Pophale) SiO2 
 PCOD9193061
Probable space group: C 2/M
;
_chemical_formula_sum "Si O2"
_cell_formula_units_Z 48
_cell_length_a 22.387743
_cell_length_b 20.028276
_cell_length_c 6.552885
_cell_angle_alpha 90.000000
_cell_angle_beta 137.783572
_cell_angle_gamma 90.000000
_cell_volume 1974.296503
_symmetry_space_group_name_H-M "C 2/M"
_symmetry_group_IT_number 12
_symmetry_cell_setting 'monoclinic'
loop_
_space_group_symop_operation_xyz
x,y,z
-x,y,-z
-x,-y,-z
x,-y,z
1/2+x,1/2+y,z
1/2-x,1/2+y,-z
1/2-x,1/2-y,-z
1/2+x,1/2-y,z
loop_
_atom_site_type_symbol
_atom_site_label
_atom_site_fract_x
_atom_site_fract_y
_atom_site_fract_z
Si Si1 0.366948 0.285029 0.481283
Si Si2 0.810754 0.783739 0.858357
Si Si3 0.597674 0.929839 0.156912
Si Si4 0.723530 0.570864 0.203506
Si Si5 0.970791 0.299358 0.193636
Si Si6 0.573378 0.423784 0.502065
O O1 0.276565 0.263248 0.369908
O O2 0.437584 0.223692 0.681027
O O3 0.414549 0.358536 0.612338
O O4 0.335208 0.285311 0.162725
O O5 0.797691 0.859087 0.749673
O O6 0.902483 0.760355 0.995930
O O7 0.669676 0.927004 0.520193
O O8 0.615976 0.000000 0.090323
O O9 0.500000 0.933080 0.000000
O O10 0.589278 0.863866 0.005086
O O11 0.697813 0.500000 0.240334
O O12 0.669646 0.571150 0.857440
O O13 0.000000 0.306920 0.500000
O O14 0.500000 0.411270 0.500000
O O15 0.554274 0.500000 0.374838
#
# Coordination Sequence:
#
# PCOD9193061 Si02
#       6
#     8   8   8   8   8   8
#     4   9  16  29  47  70 102 134 167 210 259 308
#     4   9  17  29  48  73 100 133 169 211 261 307
#     4  10  21  36  53  74 103 141 181 219 260 308
#     4   9  17  30  48  71  98 128 167 213 255 300
#     4  10  20  34  52  76 106 139 176 218 264 314
#     4   9  16  28  49  75 100 130 171 217 263 311
#
# _framework density 24.312456999999998
#
# number of rings (size 3 to 8) (size 9 to 14) (size 15 to 20)
#    0.000    2.667    0.000    3.500    0.000    2.333 
#    0.000    0.833    0.000    3.000    0.000    0.000 
#    0.000   10.667    0.000    0.167    0.000    0.000 
#
# Total GULP energy -133654.816481 kJ/mol
# GULP energy per Si atom -5568.950687 kJ/mol
# Density = 2.425712 g / cm^3
# Si number density = 24.312457 Si / 1000 Ang^3
#
#
#
# Elastic Constant Matrix: (Units=GPa)
#
#
# Indices 1 2 3 4 5 6 
#
# 1 86.4824 14.9345 3.4694 0.0000 14.5180 0.0000
# 2 14.9345 184.4332 20.8563 0.0000 13.5378 0.0000
# 3 3.4694 20.8563 126.5510 0.0000 20.4499 0.0000
# 4 0.0000 0.0000 0.0000 34.8180 0.0000 7.1724
# 5 14.5180 13.5378 20.4499 0.0000 25.3318 0.0000
# 6 0.0000 0.0000 0.0000 7.1724 0.0000 -17.1652
#
#
#
# Elastic Compliance Matrix: (Units=1/GPa)
#
#
# Indices 1 2 3 4 5 6 
#
# 1 0.012955 -0.000582 0.001024 0.000000 -0.007940 0.000000
# 2 -0.000582 0.005698 -0.000558 0.000000 -0.002261 0.000000
# 3 0.001024 -0.000558 0.009215 0.000000 -0.007727 0.000000
# 4 0.000000 0.000000 0.000000 0.026445 0.000000 0.011050
# 5 -0.007940 -0.002261 -0.007727 0.000000 0.051474 0.000000
# 6 0.000000 0.000000 0.000000 0.011050 0.000000 -0.053640
#
#
# Mechanical properties :
#
#
# Convention : Reuss Voigt Hill
#
# Bulk Modulus (GPa) = 36.18402 52.88746 44.53574
# Shear Modulus (GPa) = 81.18208 32.47733 56.82970
#
# Velocity S-wave (km/s) = 5.78478 3.65887 4.83999
# Velocity P-wave (km/s) = 7.71579 6.29684 7.04214
#
# Compressibility (1/GPa) = 0.02763651
#
# Stress axis : x y z
#
# Youngs Moduli (GPa) = 77.18749 175.49378 108.52452
#
# Poissons Ratio (x) = 0.10214 -0.11112
# Poissons Ratio (y) = 0.04492 0.06052
# Poissons Ratio (z) = -0.07903 0.09787
#
# Static dielectric constant tensor:
#      x y z
#    x 1.938720 0.000000 -0.070160 
#    y 0.000000 2.249890 0.000000 
#    z -0.070160 0.000000 1.968390 
# 
# From -- ./inp_files/77303.got.cif
#   From: 2010.05.17/outbox.cif.g08.bks.cpg/sg12_39_cif.got.tgz:77303.got - 2010.06.03 13:09:07.
