data_PCOD9193363
_publ_section_title
;
Structure prediction by ZEFSAII (Michael W. Deem and Ramdas Pophale) SiO2 
 PCOD9193363
Probable space group: C 2/M
;
_chemical_formula_sum "Si O2"
_cell_formula_units_Z 40
_cell_length_a 15.738013
_cell_length_b 7.350977
_cell_length_c 28.376807
_cell_angle_alpha 90.000000
_cell_angle_beta 147.512984
_cell_angle_gamma 90.000000
_cell_volume 1763.276793
_symmetry_space_group_name_H-M "C 2/M"
_symmetry_group_IT_number 12
_symmetry_cell_setting 'monoclinic'
loop_
_space_group_symop_operation_xyz
x,y,z
-x,y,-z
-x,-y,-z
x,-y,z
1/2+x,1/2+y,z
1/2-x,1/2+y,-z
1/2-x,1/2-y,-z
1/2+x,1/2-y,z
loop_
_atom_site_type_symbol
_atom_site_label
_atom_site_fract_x
_atom_site_fract_y
_atom_site_fract_z
Si Si1 0.691272 0.721219 0.903513
Si Si2 0.966570 0.780549 0.714246
Si Si3 0.841591 0.223003 0.283269
Si Si4 0.124899 0.790065 0.595030
Si Si5 0.997005 0.708836 0.907423
O O1 0.693192 0.500000 0.906556
O O2 0.603186 0.775864 0.814854
O O3 0.586961 0.786026 0.899060
O O4 0.871434 0.785218 0.995373
O O5 0.798108 0.714117 0.653207
O O6 0.017670 0.725850 0.685912
O O7 0.960654 0.000000 0.712780
O O8 0.863307 0.287617 0.346801
O O9 0.675608 0.287147 0.183070
O O10 0.831937 0.000000 0.279998
O O11 0.000000 0.707710 0.500000
O O12 0.075625 0.000000 0.578827
O O13 0.970734 0.500000 0.910017
#
# Coordination Sequence:
#
# PCOD9193363 Si02
#       5
#     8   8   8   8   8
#     4   9  17  28  47  76 103 130 168 209 244 288
#     4  10  20  34  53  78 106 132 166 212 256 299
#     4   9  18  33  53  76 103 136 169 205 252 303
#     4  10  21  38  57  75  99 133 172 211 254 307
#     4   9  16  29  50  72 100 138 171 199 242 298
#
# _framework density 22.685037999999999
#
# number of rings (size 3 to 8) (size 9 to 14) (size 15 to 20)
#    0.000    2.600    2.000    0.000    0.000    2.000 
#    0.000    6.000    0.000    0.000    0.000    7.000 
#    0.000    0.000    0.000    0.000    0.000    0.000 
#
# Total GULP energy -111686.225257 kJ/mol
# GULP energy per Si atom -5584.311263 kJ/mol
# Density = 2.263341 g / cm^3
# Si number density = 22.685038 Si / 1000 Ang^3
#
#
#
# Elastic Constant Matrix: (Units=GPa)
#
#
# Indices 1 2 3 4 5 6 
#
# 1 117.0300 -12.6692 75.8006 -0.0001 -0.3423 0.0003
# 2 -12.6692 85.1279 2.5109 -0.0002 -2.7050 0.0004
# 3 75.8006 2.5109 153.6137 0.0001 -31.9109 -0.0001
# 4 -0.0001 -0.0002 0.0001 -29.8351 0.0001 27.3391
# 5 -0.3423 -2.7050 -31.9109 0.0001 -2.3893 0.0000
# 6 0.0003 0.0004 -0.0001 27.3391 0.0000 0.5030
#
#
#
# Elastic Compliance Matrix: (Units=1/GPa)
#
#
# Indices 1 2 3 4 5 6 
#
# 1 0.009775 0.002014 -0.001489 0.000000 0.016209 0.000000
# 2 0.002014 0.012095 -0.001085 0.000000 0.000511 0.000000
# 3 -0.001489 -0.001085 0.002003 0.000000 -0.025316 0.000000
# 4 0.000000 0.000000 0.000000 -0.000660 0.000000 0.035858
# 5 0.016209 0.000511 -0.025316 0.000000 -0.083324 0.000000
# 6 0.000000 0.000000 0.000000 0.035858 0.000000 0.039131
#
#
# Mechanical properties :
#
#
# Convention : Reuss Voigt Hill
#
# Bulk Modulus (GPa) = 43.95228 54.11735 49.03481
# Shear Modulus (GPa) = -407.37071 12.99768 -197.18651
#
# Velocity S-wave (km/s) = -13.41517 2.39626 -9.33340
# Velocity P-wave (km/s) = 14.85054 5.61817 9.72046
#
# Compressibility (1/GPa) = 0.02275195
#
# Stress axis : x y z
#
# Youngs Moduli (GPa) = 102.30453 82.67904 499.14504
#
# Poissons Ratio (x) = -0.16649 0.74330
# Poissons Ratio (y) = -0.20601 0.54165
# Poissons Ratio (z) = 0.15235 0.08972
#
# Static dielectric constant tensor:
#      x y z
#    x 1.800260 0.000000 -0.024820 
#    y 0.000000 1.629080 0.000000 
#    z -0.024820 0.000000 1.826280 
# 
# From -- ./inp_files/140304.got.cif
#   From: 2010.05.17/outbox.cif.g08.bks.cpg/sg12_71_cif.got.tgz:140304.got - 2010.06.03 13:09:07.
