data_PCOD9193704
_publ_section_title
;
Structure prediction by ZEFSAII (Michael W. Deem and Ramdas Pophale) SiO2 
 PCOD9193704
Probable space group: C 2/M
;
_chemical_formula_sum "Si O2"
_cell_formula_units_Z 64
_cell_length_a 14.549894
_cell_length_b 18.793713
_cell_length_c 12.301278
_cell_angle_alpha 90.000000
_cell_angle_beta 90.000000
_cell_angle_gamma 90.000000
_cell_volume 3363.741808
_symmetry_space_group_name_H-M "C 2/M"
_symmetry_group_IT_number 12
_symmetry_cell_setting 'monoclinic'
loop_
_space_group_symop_operation_xyz
x,y,z
-x,y,-z
-x,-y,-z
x,-y,z
1/2+x,1/2+y,z
1/2-x,1/2+y,-z
1/2-x,1/2-y,-z
1/2+x,1/2-y,z
loop_
_atom_site_type_symbol
_atom_site_label
_atom_site_fract_x
_atom_site_fract_y
_atom_site_fract_z
Si Si1 0.390158 0.282432 0.738559
Si Si2 0.109841 0.782432 0.738559
Si Si3 0.895404 0.228476 0.500000
Si Si4 0.730657 0.420436 0.740502
Si Si5 0.107430 0.358155 0.871474
Si Si6 0.185937 0.078207 0.500000
Si Si7 0.392569 0.141845 0.871474
Si Si8 0.230657 0.920436 0.259498
O O1 0.500000 0.295280 0.730014
O O2 0.357794 0.252903 0.619521
O O3 0.374731 0.221590 0.827071
O O4 0.338510 0.355558 0.765208
O O5 0.142206 0.752903 0.619521
O O6 0.161489 0.855558 0.765208
O O7 0.125268 0.721590 0.827070
O O8 0.886134 0.142425 0.500000
O O9 0.000000 0.253420 0.500000
O O10 0.694195 0.500000 0.763441
O O11 0.743983 0.416141 0.610075
O O12 0.823662 0.408000 0.805954
O O13 0.176337 0.408000 0.805953
O O14 1.000000 0.374041 0.850389
O O15 0.123394 0.362497 1.000000
O O16 0.243983 0.083859 0.389925
O O17 0.141458 0.000000 0.500000
O O18 0.194196 0.000000 0.236559
#
# Coordination Sequence:
#
# PCOD9193704 Si02
#       8
#     8   8   8   8   8   8   8   8
#     4   9  18  33  54  80 108 137 169 206 251 304
#     4   9  18  33  54  80 108 137 169 206 251 304
#     4   8  14  26  47  76 105 133 168 205 241 290
#     4  10  20  34  54  79 107 138 170 208 254 303
#     4  10  22  39  56  73  97 134 178 220 260 303
#     4   8  16  30  46  71 107 139 165 197 247 307
#     4  10  22  39  56  73  97 134 178 220 260 303
#     4  10  20  34  54  79 107 138 170 208 254 303
#
# _framework density 19.026430999999999
#
# number of rings (size 3 to 8) (size 9 to 14) (size 15 to 20)
#    0.000    2.750    0.000    0.750    0.000    4.750 
#    0.000   11.875    0.000    2.250    0.000    5.250 
#    0.000    0.000    0.000    0.000    0.000    0.000 
#
# Total GULP energy -178288.983019 kJ/mol
# GULP energy per Si atom -5571.530719 kJ/mol
# Density = 1.898313 g / cm^3
# Si number density = 19.026431 Si / 1000 Ang^3
#
#
#
# Elastic Constant Matrix: (Units=GPa)
#
#
# Indices 1 2 3 4 5 6 
#
# 1 62.8687 17.0658 27.3963 0.0000 -0.0001 0.0000
# 2 17.0658 37.8034 -0.8557 0.0000 -0.0001 0.0000
# 3 27.3963 -0.8557 39.2816 0.0000 0.0002 0.0000
# 4 0.0000 0.0000 0.0000 31.1973 0.0000 -0.0002
# 5 -0.0001 -0.0001 0.0002 0.0000 22.5897 0.0000
# 6 0.0000 0.0000 0.0000 -0.0002 0.0000 14.1296
#
#
#
# Elastic Compliance Matrix: (Units=1/GPa)
#
#
# Indices 1 2 3 4 5 6 
#
# 1 0.028165 -0.013166 -0.019930 0.000000 0.000000 0.000000
# 2 -0.013166 0.032620 0.009893 0.000000 0.000000 0.000000
# 3 -0.019930 0.009893 0.039573 0.000000 0.000000 0.000000
# 4 0.000000 0.000000 0.000000 0.032054 0.000000 0.000000
# 5 0.000000 0.000000 0.000000 0.000000 0.044268 0.000000
# 6 0.000000 0.000000 0.000000 0.000000 0.000000 0.070773
#
#
# Mechanical properties :
#
#
# Convention : Reuss Voigt Hill
#
# Bulk Modulus (GPa) = 18.53505 25.24070 21.88787
# Shear Modulus (GPa) = 16.03373 20.00647 18.02010
#
# Velocity S-wave (km/s) = 2.90609 3.24622 3.08085
# Velocity P-wave (km/s) = 4.58513 5.22929 4.91777
#
# Compressibility (1/GPa) = 0.05395184
#
# Stress axis : x y z
#
# Youngs Moduli (GPa) = 35.50515 30.65591 25.27006
#
# Poissons Ratio (x) = 0.40361 0.50363
# Poissons Ratio (y) = 0.46745 -0.24999
# Poissons Ratio (z) = 0.70762 -0.30328
#
# Static dielectric constant tensor:
#      x y z
#    x 1.668030 0.000000 0.000000 
#    y 0.000000 1.671630 0.000000 
#    z 0.000000 0.000000 1.679700 
# 
# From -- ./inp_files/146172.got.cif
#   From: 2010.05.17/outbox.cif.g08.bks.cpg/sg12_74_cif.got.tgz:146172.got - 2010.06.03 13:09:07.
