data_PCOD9193095
_publ_section_title
;
Structure prediction by ZEFSAII (Michael W. Deem and Ramdas Pophale) SiO2 
 PCOD9193095
Probable space group: C 2/M
;
_chemical_formula_sum "Si O2"
_cell_formula_units_Z 56
_cell_length_a 14.449957
_cell_length_b 23.838954
_cell_length_c 17.644407
_cell_angle_alpha 90.000000
_cell_angle_beta 152.998523
_cell_angle_gamma 90.000000
_cell_volume 2759.494634
_symmetry_space_group_name_H-M "C 2/M"
_symmetry_group_IT_number 12
_symmetry_cell_setting 'monoclinic'
loop_
_space_group_symop_operation_xyz
x,y,z
-x,y,-z
-x,-y,-z
x,-y,z
1/2+x,1/2+y,z
1/2-x,1/2+y,-z
1/2-x,1/2-y,-z
1/2+x,1/2-y,z
loop_
_atom_site_type_symbol
_atom_site_label
_atom_site_fract_x
_atom_site_fract_y
_atom_site_fract_z
Si Si1 0.740073 0.715098 0.395161
Si Si2 0.228758 0.609898 0.945919
Si Si3 0.564246 0.000000 0.456984
Si Si4 0.667824 0.500000 0.058483
Si Si5 0.217172 0.182590 0.882190
Si Si6 0.991373 0.214569 0.082394
Si Si7 0.021223 0.831740 0.426842
Si Si8 0.668562 0.890800 0.446921
O O1 0.505193 0.707059 0.253372
O O2 0.707218 0.707533 0.281479
O O3 0.839398 0.775531 0.479844
O O4 0.859892 0.665147 0.522999
O O5 0.342122 0.554060 0.002301
O O6 0.011458 0.605471 0.746113
O O7 0.233638 0.624872 0.038387
O O8 0.345523 0.663561 0.998293
O O9 0.500000 0.000000 0.500000
O O10 0.369684 0.000000 0.258290
O O11 0.677280 0.056678 0.510867
O O12 0.500000 0.500000 0.000000
O O13 0.189950 0.178164 0.771944
O O14 0.388820 0.226708 0.030244
O O15 0.000000 0.213725 0.000000
O O16 0.131490 0.879929 0.458026
O O17 0.000000 0.843630 0.500000
#
# Coordination Sequence:
#
# PCOD9193095 Si02
#       8
#     8   8   4   4   8   8   8   8
#     4  10  20  34  53  77 110 148 179 221 273 325
#     4  10  20  36  54  75 107 144 176 219 274 322
#     4  10  24  40  61  84 108 145 185 223 273 326
#     4  10  22  38  58  82 107 137 178 223 267 322
#     4  10  20  34  52  77 108 144 180 220 273 324
#     4  11  20  31  50  80 109 140 179 223 269 324
#     4  11  21  35  56  83 110 145 184 224 273 327
#     4  10  21  39  56  78 112 146 182 229 274 323
#
# _framework density 20.293572000000001
#
# number of rings (size 3 to 8) (size 9 to 14) (size 15 to 20)
#    0.000    1.714    0.000    7.286    0.000    6.286 
#    0.000    0.357    0.000    0.000    0.000    3.500 
#    0.000    0.000    0.000    0.000    0.000    0.000 
#
# Total GULP energy -156213.632384 kJ/mol
# GULP energy per Si atom -5579.058299 kJ/mol
# Density = 2.024738 g / cm^3
# Si number density = 20.293572 Si / 1000 Ang^3
#
#
#
# Elastic Constant Matrix: (Units=GPa)
#
#
# Indices 1 2 3 4 5 6 
#
# 1 92.6803 49.9127 22.4213 0.0000 -37.5450 0.0000
# 2 49.9127 87.4586 9.6582 -0.0001 -7.8719 0.0000
# 3 22.4213 9.6582 68.1017 0.0005 -30.0794 0.0006
# 4 0.0000 -0.0001 0.0005 21.9272 0.0002 -9.1201
# 5 -37.5450 -7.8719 -30.0794 0.0002 40.3422 0.0002
# 6 0.0000 0.0000 0.0006 -9.1201 0.0002 15.2604
#
#
#
# Elastic Compliance Matrix: (Units=1/GPa)
#
#
# Indices 1 2 3 4 5 6 
#
# 1 0.028240 -0.014201 0.004623 -0.000001 0.026958 -0.000001
# 2 -0.014201 0.018822 -0.003294 0.000000 -0.011999 0.000001
# 3 0.004623 -0.003294 0.022731 -0.000002 0.020609 -0.000002
# 4 -0.000001 0.000000 -0.000002 0.060692 -0.000002 0.036271
# 5 0.026958 -0.011999 0.020609 -0.000002 0.062901 -0.000003
# 6 -0.000001 0.000001 -0.000002 0.036271 -0.000003 0.087206
#
#
# Mechanical properties :
#
#
# Convention : Reuss Voigt Hill
#
# Bulk Modulus (GPa) = 22.70100 45.80279 34.25190
# Shear Modulus (GPa) = 15.57543 26.58917 21.08230
#
# Velocity S-wave (km/s) = 2.77339 3.62363 3.22664
# Velocity P-wave (km/s) = 4.63316 6.33456 5.54946
#
# Compressibility (1/GPa) = 0.04405091
#
# Stress axis : x y z
#
# Youngs Moduli (GPa) = 35.41111 53.12925 43.99192
#
# Poissons Ratio (x) = 0.75447 -0.20339
# Poissons Ratio (y) = 0.50286 0.14490
# Poissons Ratio (z) = -0.16372 0.17500
#
# Static dielectric constant tensor:
#      x y z
#    x 1.828570 0.000000 -0.017450 
#    y 0.000000 1.729520 0.000000 
#    z -0.017450 0.000000 1.786160 
# 
# From -- ./inp_files/272431.got.cif
#   From: 2010.05.17/outbox.cif.g08.bks.cpg/sg12_137_cif.got.tgz:272431.got - 2010.06.03 13:09:07.
