data_PCOD9193819
_publ_section_title
;
Structure prediction by ZEFSAII (Michael W. Deem and Ramdas Pophale) SiO2 
 PCOD9193819
Probable space group: C 2/M
;
_chemical_formula_sum "Si O2"
_cell_formula_units_Z 40
_cell_length_a 30.405334
_cell_length_b 9.722424
_cell_length_c 16.747008
_cell_angle_alpha 90.000000
_cell_angle_beta 25.392408
_cell_angle_gamma 90.000000
_cell_volume 2122.911894
_symmetry_space_group_name_H-M "C 2/M"
_symmetry_group_IT_number 12
_symmetry_cell_setting 'monoclinic'
loop_
_space_group_symop_operation_xyz
x,y,z
-x,y,-z
-x,-y,-z
x,-y,z
1/2+x,1/2+y,z
1/2-x,1/2+y,-z
1/2-x,1/2-y,-z
1/2+x,1/2-y,z
loop_
_atom_site_type_symbol
_atom_site_label
_atom_site_fract_x
_atom_site_fract_y
_atom_site_fract_z
Si Si1 0.428777 0.340923 0.237362
Si Si2 0.550467 0.662367 0.502265
Si Si3 0.496222 0.162682 0.744645
Si Si4 0.158635 0.157138 0.784266
Si Si5 0.774314 0.341623 0.187527
O O1 0.405946 0.500000 0.297622
O O2 0.434720 0.238145 0.301543
O O3 0.355879 0.297811 0.283523
O O4 0.543684 0.342284 0.010888
O O5 0.500000 0.693591 0.500000
O O6 0.530968 0.500000 0.551897
O O7 0.509395 0.758447 0.640018
O O8 0.673229 0.682465 0.301197
O O9 0.518185 0.000000 0.703091
O O10 0.378704 0.179664 0.967158
O O11 0.223880 0.248872 0.736726
O O12 0.194869 0.000000 0.724752
O O13 0.773376 0.500000 0.215248
#
# Coordination Sequence:
#
# PCOD9193819 Si02
#       5
#     8   8   8   8   8
#     4   8  14  27  48  75 107 141 174 206 246 302
#     4  10  22  40  58  75 100 137 177 215 261 318
#     4  10  20  34  54  81 109 135 169 216 264 305
#     4   8  14  26  48  77 106 138 175 210 246 297
#     4   9  19  35  54  78 108 138 170 213 262 308
#
# _framework density 18.842044000000001
#
# number of rings (size 3 to 8) (size 9 to 14) (size 15 to 20)
#    0.000    3.000    0.000    1.800    0.000    3.600 
#    0.000    5.000    0.000    0.000    0.000    0.000 
#    0.000    0.000    0.000    0.000    0.000    0.000 
#
# Total GULP energy -111572.489049 kJ/mol
# GULP energy per Si atom -5578.624452 kJ/mol
# Density = 1.879916 g / cm^3
# Si number density = 18.842044 Si / 1000 Ang^3
#
#
#
# Elastic Constant Matrix: (Units=GPa)
#
#
# Indices 1 2 3 4 5 6 
#
# 1 319.8722 202.5141 104.2477 0.0000 -18.2491 0.0000
# 2 202.5141 167.9483 91.7857 0.0000 -3.9894 0.0000
# 3 104.2477 91.7857 85.3402 0.0000 -5.4748 0.0000
# 4 0.0000 0.0000 0.0000 57.0043 0.0000 39.3175
# 5 -18.2491 -3.9894 -5.4748 0.0000 37.3919 0.0000
# 6 0.0000 0.0000 0.0000 39.3175 0.0000 58.0349
#
#
#
# Elastic Compliance Matrix: (Units=1/GPa)
#
#
# Indices 1 2 3 4 5 6 
#
# 1 0.014456 -0.019026 0.003156 0.000000 0.005488 0.000000
# 2 -0.019026 0.039505 -0.019758 0.000000 -0.007964 0.000000
# 3 0.003156 -0.019758 0.029353 0.000000 0.003730 0.000000
# 4 0.000000 0.000000 0.000000 0.032930 0.000000 -0.022309
# 5 0.005488 -0.007964 0.003730 0.000000 0.029118 0.000000
# 6 0.000000 0.000000 0.000000 -0.022309 0.000000 0.032345
#
#
# Mechanical properties :
#
#
# Convention : Reuss Voigt Hill
#
# Bulk Modulus (GPa) = 82.93907 152.25063 117.59485
# Shear Modulus (GPa) = 19.76416 42.12711 30.94564
#
# Velocity S-wave (km/s) = 3.24225 4.73356 4.05702
# Velocity P-wave (km/s) = 7.62429 10.52875 9.19196
#
# Compressibility (1/GPa) = 0.01205704
#
# Stress axis : x y z
#
# Youngs Moduli (GPa) = 69.17374 25.31338 34.06849
#
# Poissons Ratio (x) = 0.48161 -0.10751
# Poissons Ratio (y) = 1.31609 0.67313
# Poissons Ratio (z) = -0.21829 0.50015
#
# Static dielectric constant tensor:
#      x y z
#    x 1.627190 0.000000 -0.029100 
#    y 0.000000 1.637460 0.000000 
#    z -0.029100 0.000000 1.693400 
# 
# From -- ./inp_files/211184.got.cif
#   From: 2010.05.17/outbox.cif.g08.bks.cpg/sg12_106_cif.got.tgz:211184.got - 2010.06.03 13:09:07.
