data_PCOD9193857
_publ_section_title
;
Structure prediction by ZEFSAII (Michael W. Deem and Ramdas Pophale) SiO2 
 PCOD9193857
Probable space group: C 2/M
;
_chemical_formula_sum "Si O2"
_cell_formula_units_Z 64
_cell_length_a 30.685301
_cell_length_b 8.857180
_cell_length_c 15.014654
_cell_angle_alpha 90.000000
_cell_angle_beta 52.413152
_cell_angle_gamma 90.000000
_cell_volume 3233.716330
_symmetry_space_group_name_H-M "C 2/M"
_symmetry_group_IT_number 12
_symmetry_cell_setting 'monoclinic'
loop_
_space_group_symop_operation_xyz
x,y,z
-x,y,-z
-x,-y,-z
x,-y,z
1/2+x,1/2+y,z
1/2-x,1/2+y,-z
1/2-x,1/2-y,-z
1/2+x,1/2-y,z
loop_
_atom_site_type_symbol
_atom_site_label
_atom_site_fract_x
_atom_site_fract_y
_atom_site_fract_z
Si Si1 0.842584 0.319022 0.238371
Si Si2 0.808933 0.820250 0.943930
Si Si3 0.946134 0.320664 0.619845
Si Si4 0.343252 0.678027 0.703656
Si Si5 0.282690 0.318853 0.610718
Si Si6 0.890863 0.817774 0.997884
Si Si7 0.612455 0.179925 0.622705
Si Si8 0.015103 0.683663 0.235385
O O1 0.840521 0.500000 0.223901
O O2 0.779156 0.267206 0.334255
O O3 0.870778 0.240333 0.118763
O O4 0.876224 0.293775 0.286715
O O5 0.837473 0.787467 0.814540
O O6 0.802984 0.000000 0.960332
O O7 0.750000 0.750000 0.000000
O O8 0.844523 0.766790 0.983198
O O9 0.941377 0.500000 0.633055
O O10 0.898036 0.266024 0.614900
O O11 0.955031 0.265413 0.710136
O O12 0.000000 0.278320 0.500000
O O13 0.351683 0.500000 0.683570
O O14 0.293365 0.718268 0.701744
O O15 0.283801 0.500000 0.597343
O O16 0.335648 0.253385 0.493409
O O17 0.893611 0.000000 0.993551
O O18 0.948769 0.751070 0.890412
O O19 0.549500 0.228547 0.681315
O O20 0.615266 0.000000 0.602215
O O21 0.016508 0.500000 0.228198
#
# Coordination Sequence:
#
# PCOD9193857 Si02
#       8
#     8   8   8   8   8   8   8   8
#     4  10  22  41  63  86 116 156 198 245 304 360
#     4  10  21  36  55  81 114 150 190 232 278 337
#     4  10  20  34  54  81 112 147 189 234 278 331
#     4  10  20  35  53  79 114 148 183 223 275 340
#     4  10  21  37  60  89 120 154 191 240 302 359
#     4  11  23  39  60  87 119 156 200 248 293 347
#     4  10  22  40  63  88 115 153 200 249 299 354
#     4  10  21  38  59  84 118 158 198 244 297 352
#
# _framework density 19.791471000000001
#
# number of rings (size 3 to 8) (size 9 to 14) (size 15 to 20)
#    0.000    1.875    1.250    2.250    0.000    6.250 
#    0.000    2.500    0.000    0.000    0.000    0.000 
#    0.000    0.000    0.000    0.000    0.000    0.000 
#
# Total GULP energy -178396.611391 kJ/mol
# GULP energy per Si atom -5574.894106 kJ/mol
# Density = 1.974642 g / cm^3
# Si number density = 19.791471 Si / 1000 Ang^3
#
#
#
# Elastic Constant Matrix: (Units=GPa)
#
#
# Indices 1 2 3 4 5 6 
#
# 1 69.3460 -37.7220 45.9156 0.0000 -8.5021 0.0000
# 2 -37.7220 -128.0783 82.7736 0.0000 12.0892 0.0000
# 3 45.9156 82.7736 64.7753 0.0000 -11.6351 0.0000
# 4 0.0000 0.0000 0.0000 23.7074 0.0000 -2.6669
# 5 -8.5021 12.0892 -11.6351 0.0000 32.9415 0.0000
# 6 0.0000 0.0000 0.0000 -2.6669 0.0000 22.6927
#
#
#
# Elastic Compliance Matrix: (Units=1/GPa)
#
#
# Indices 1 2 3 4 5 6 
#
# 1 0.013750 -0.005137 -0.002355 0.000000 0.004602 0.000000
# 2 -0.005137 -0.001966 0.006454 0.000000 0.001675 0.000000
# 3 -0.002355 0.006454 0.008889 0.000000 0.000163 0.000000
# 4 0.000000 0.000000 0.000000 0.042746 0.000000 0.005024
# 5 0.004602 0.001675 0.000163 0.000000 0.030988 0.000000
# 6 0.000000 0.000000 0.000000 0.005024 0.000000 0.044657
#
#
# Mechanical properties :
#
#
# Convention : Reuss Voigt Hill
#
# Bulk Modulus (GPa) = 53.77219 20.88638 37.32929
# Shear Modulus (GPa) = 33.93511 10.20670 22.07091
#
# Velocity S-wave (km/s) = 4.14531 2.27339 3.34304
# Velocity P-wave (km/s) = 7.08094 4.17938 5.81408
#
# Compressibility (1/GPa) = 0.01859697
#
# Stress axis : x y z
#
# Youngs Moduli (GPa) = 72.72947 -508.76492 112.49370
#
# Poissons Ratio (x) = -2.61362 0.26493
# Poissons Ratio (y) = 0.37362 -0.72604
# Poissons Ratio (z) = 0.17128 3.28358
#
# Static dielectric constant tensor:
#      x y z
#    x 1.856460 0.000000 -0.137380 
#    y 0.000000 1.701990 0.000000 
#    z -0.137380 0.000000 1.894580 
# 
# From -- ./inp_files/249809.got.cif
#   From: 2010.05.17/outbox.cif.g08.bks.cpg/sg12_125_cif.got.tgz:249809.got - 2010.06.03 13:09:07.
