data_PCOD9193905
_publ_section_title
;
Structure prediction by ZEFSAII (Michael W. Deem and Ramdas Pophale) SiO2 
 PCOD9193905
Probable space group: C 2/M
;
_chemical_formula_sum "Si O2"
_cell_formula_units_Z 56
_cell_length_a 14.736910
_cell_length_b 9.040532
_cell_length_c 30.815384
_cell_angle_alpha 90.000000
_cell_angle_beta 51.264713
_cell_angle_gamma 90.000000
_cell_volume 3202.489875
_symmetry_space_group_name_H-M "C 2/M"
_symmetry_group_IT_number 12
_symmetry_cell_setting 'monoclinic'
loop_
_space_group_symop_operation_xyz
x,y,z
-x,y,-z
-x,-y,-z
x,-y,z
1/2+x,1/2+y,z
1/2-x,1/2+y,-z
1/2-x,1/2-y,-z
1/2+x,1/2-y,z
loop_
_atom_site_type_symbol
_atom_site_label
_atom_site_fract_x
_atom_site_fract_y
_atom_site_fract_z
Si Si1 0.845832 0.826252 0.941300
Si Si2 0.191006 0.176845 0.145186
Si Si3 0.279512 0.822509 0.359227
Si Si4 0.435436 0.673918 0.064287
Si Si5 0.814931 0.176544 0.440297
Si Si6 0.913851 0.822685 0.654041
Si Si7 0.949665 0.323601 0.734897
O O1 0.847917 0.773157 0.891289
O O2 0.970033 0.809916 0.926481
O O3 0.816557 0.000000 0.948986
O O4 0.750000 0.750000 0.000000
O O5 0.324607 0.227277 0.107114
O O6 0.117125 0.252471 0.204928
O O7 0.180076 0.000000 0.151884
O O8 0.268107 0.742278 0.408903
O O9 0.182721 0.778951 0.352661
O O10 0.411708 0.791252 0.304223
O O11 0.269828 0.000000 0.368615
O O12 0.401574 0.500000 0.070874
O O13 0.500000 0.713903 0.000000
O O14 0.750000 0.250000 0.500000
O O15 0.953821 0.207955 0.400932
O O16 0.799965 0.000000 0.445327
O O17 0.902491 0.742585 0.703705
O O18 0.903829 0.000000 0.663497
O O19 0.935110 0.500000 0.739240
#
# Coordination Sequence:
#
# PCOD9193905 Si02
#       7
#     8   8   8   8   8   8   8
#     4  10  21  36  55  79 106 138 173 214 265 321
#     4  11  23  37  55  80 110 141 178 221 268 327
#     4   9  19  37  59  81 108 144 186 229 275 326
#     4  10  20  36  57  79 106 138 173 216 266 320
#     4  10  20  34  54  82 117 153 188 229 273 321
#     4   9  19  37  59  81 109 146 186 228 276 323
#     4  10  21  37  57  80 107 139 179 227 276 324
#
# _framework density 17.486393
#
# number of rings (size 3 to 8) (size 9 to 14) (size 15 to 20)
#    0.000    2.143    1.429    1.286    0.000    4.857 
#    0.000    5.714    0.000    0.000    0.000    0.000 
#    0.000    0.000    0.000    0.000    0.000    0.000 
#
# Total GULP energy -156267.346950 kJ/mol
# GULP energy per Si atom -5580.976677 kJ/mol
# Density = 1.744659 g / cm^3
# Si number density = 17.486393 Si / 1000 Ang^3
#
#
#
# Elastic Constant Matrix: (Units=GPa)
#
#
# Indices 1 2 3 4 5 6 
#
# 1 133.4845 55.6340 83.9319 0.0000 22.2279 0.0000
# 2 55.6340 48.4181 71.1838 0.0000 9.8581 0.0000
# 3 83.9319 71.1838 174.6240 0.0000 25.6454 0.0000
# 4 0.0000 0.0000 0.0000 33.1451 0.0000 2.6657
# 5 22.2279 9.8581 25.6454 0.0000 16.1164 0.0000
# 6 0.0000 0.0000 0.0000 2.6657 0.0000 26.4977
#
#
#
# Elastic Compliance Matrix: (Units=1/GPa)
#
#
# Indices 1 2 3 4 5 6 
#
# 1 0.016542 -0.018699 0.001752 0.000000 -0.014165 0.000000
# 2 -0.018699 0.072759 -0.023389 0.000000 0.018503 0.000000
# 3 0.001752 -0.023389 0.016537 0.000000 -0.014425 0.000000
# 4 0.000000 0.000000 0.000000 0.030416 0.000000 -0.003060
# 5 -0.014165 0.018503 -0.014425 0.000000 0.093221 0.000000
# 6 0.000000 0.000000 0.000000 -0.003060 0.000000 0.038047
#
#
# Mechanical properties :
#
#
# Convention : Reuss Voigt Hill
#
# Bulk Modulus (GPa) = 39.73715 86.44733 63.09224
# Shear Modulus (GPa) = 14.02195 24.87029 19.44612
#
# Velocity S-wave (km/s) = 2.83482 3.77538 3.33839
# Velocity P-wave (km/s) = 5.78696 8.27943 7.14275
#
# Compressibility (1/GPa) = 0.02516537
#
# Stress axis : x y z
#
# Youngs Moduli (GPa) = 60.45151 13.74409 60.46921
#
# Poissons Ratio (x) = 0.25700 -0.10594
# Poissons Ratio (y) = 1.13039 1.41432
# Poissons Ratio (z) = -0.10591 0.32146
#
# Static dielectric constant tensor:
#      x y z
#    x 1.587560 0.000000 0.003370 
#    y 0.000000 1.590290 0.000000 
#    z 0.003370 0.000000 1.562500 
# 
# From -- ./inp_files/337885.got.cif
#   From: 2010.05.17/outbox.cif.g08.bks.cpg/sg12_169_cif.got.tgz:337885.got - 2010.06.03 13:09:07.
