data_PCOD9193718
_publ_section_title
;
Structure prediction by ZEFSAII (Michael W. Deem and Ramdas Pophale) SiO2 
 PCOD9193718
Probable space group: C 2/M
;
_chemical_formula_sum "Si O2"
_cell_formula_units_Z 56
_cell_length_a 29.338217
_cell_length_b 8.876217
_cell_length_c 19.544464
_cell_angle_alpha 90.000000
_cell_angle_beta 41.350646
_cell_angle_gamma 90.000000
_cell_volume 3362.536512
_symmetry_space_group_name_H-M "C 2/M"
_symmetry_group_IT_number 12
_symmetry_cell_setting 'monoclinic'
loop_
_space_group_symop_operation_xyz
x,y,z
-x,y,-z
-x,-y,-z
x,-y,z
1/2+x,1/2+y,z
1/2-x,1/2+y,-z
1/2-x,1/2-y,-z
1/2+x,1/2-y,z
loop_
_atom_site_type_symbol
_atom_site_label
_atom_site_fract_x
_atom_site_fract_y
_atom_site_fract_z
Si Si1 0.755074 0.320350 0.885451
Si Si2 0.709171 0.820482 0.799258
Si Si3 0.359308 0.179513 0.377072
Si Si4 0.991208 0.180238 0.799250
Si Si5 0.558101 0.680897 0.990520
Si Si6 0.741642 0.320744 0.619134
Si Si7 0.640751 0.179730 0.114478
O O1 0.745153 0.500000 0.891251
O O2 0.751185 0.246126 0.815930
O O3 0.824280 0.291733 0.851217
O O4 0.692822 0.251428 0.000385
O O5 0.739496 0.759157 0.694275
O O6 0.709728 0.000000 0.800370
O O7 0.630469 0.761456 0.894914
O O8 0.434920 0.247488 0.298487
O O9 0.320398 0.256889 0.357357
O O10 0.311256 0.207781 0.497439
O O11 0.362238 0.000000 0.362912
O O12 0.968507 0.215925 0.903095
O O13 0.933054 0.247004 0.815098
O O14 0.994434 0.000000 0.789620
O O15 0.569074 0.500000 0.974028
O O16 0.500000 0.721160 0.000000
O O17 0.733314 0.500000 0.636847
O O18 0.637667 0.000000 0.107636
#
# Coordination Sequence:
#
# PCOD9193718 Si02
#       7
#     8   8   8   8   8   8   8
#     4  10  20  35  54  77 108 144 180 221 272 324
#     4  12  23  34  54  81 109 142 180 226 269 319
#     4  10  21  37  58  82 108 141 185 230 267 315
#     4  11  21  33  54  80 111 148 179 219 272 325
#     4  10  21  35  50  73 108 146 179 213 264 326
#     4  10  21  38  58  79 108 145 183 226 273 320
#     4  10  20  34  54  79 108 141 181 226 266 319
#
# _framework density 16.654093
#
# number of rings (size 3 to 8) (size 9 to 14) (size 15 to 20)
#    0.000    1.571    1.429    4.286    0.000    5.429 
#    0.000    0.000    0.000    0.857    0.000    6.000 
#    0.000    0.000    0.000    0.000    0.000    0.000 
#
# Total GULP energy -156449.151184 kJ/mol
# GULP energy per Si atom -5587.469685 kJ/mol
# Density = 1.661619 g / cm^3
# Si number density = 16.654093 Si / 1000 Ang^3
#
#
#
# Elastic Constant Matrix: (Units=GPa)
#
#
# Indices 1 2 3 4 5 6 
#
# 1 134.6539 64.8009 65.4212 0.0007 6.1012 -0.0022
# 2 64.8009 80.8600 47.8314 0.0037 5.1542 -0.0038
# 3 65.4212 47.8314 66.6505 0.0016 4.1725 -0.0014
# 4 0.0007 0.0037 0.0016 24.9537 0.0002 1.0024
# 5 6.1012 5.1542 4.1725 0.0002 21.8053 0.0002
# 6 -0.0022 -0.0038 -0.0014 1.0024 0.0002 30.4173
#
#
#
# Elastic Compliance Matrix: (Units=1/GPa)
#
#
# Indices 1 2 3 4 5 6 
#
# 1 0.015741 -0.005999 -0.011092 0.000001 -0.000864 0.000000
# 2 -0.005999 0.023876 -0.011132 -0.000003 -0.001835 0.000002
# 3 -0.011092 -0.011132 0.033927 0.000000 -0.000757 -0.000001
# 4 0.000001 -0.000003 0.000000 0.040127 0.000000 -0.001322
# 5 -0.000864 -0.001835 -0.000757 0.000000 0.046681 -0.000001
# 6 0.000000 0.000002 -0.000001 -0.001322 -0.000001 0.032920
#
#
# Mechanical properties :
#
#
# Convention : Reuss Voigt Hill
#
# Bulk Modulus (GPa) = 58.48014 70.91905 64.69959
# Shear Modulus (GPa) = 19.57582 22.37599 20.97590
#
# Velocity S-wave (km/s) = 3.43218 3.66945 3.55280
# Velocity P-wave (km/s) = 7.13423 7.78648 7.46748
#
# Compressibility (1/GPa) = 0.01709982
#
# Stress axis : x y z
#
# Youngs Moduli (GPa) = 63.52636 41.88291 29.47502
#
# Poissons Ratio (x) = 0.25125 0.32694
# Poissons Ratio (y) = 0.38108 0.32810
# Poissons Ratio (z) = 0.70464 0.46622
#
# Static dielectric constant tensor:
#      x y z
#    x 1.554840 0.000000 0.004660 
#    y 0.000000 1.551490 0.000000 
#    z 0.004660 0.000000 1.535040 
# 
# From -- ./inp_files/288188.got.cif
#   From: 2010.05.17/outbox.cif.g08.bks.cpg/sg12_145_cif.got.tgz:288188.got - 2010.06.03 13:09:07.
