data_PCOD9193199
_publ_section_title
;
Structure prediction by ZEFSAII (Michael W. Deem and Ramdas Pophale) SiO2 
 PCOD9193199
Probable space group: C 2/M
;
_chemical_formula_sum "Si O2"
_cell_formula_units_Z 64
_cell_length_a 19.702684
_cell_length_b 29.365277
_cell_length_c 9.220276
_cell_angle_alpha 90.000000
_cell_angle_beta 139.645875
_cell_angle_gamma 90.000000
_cell_volume 3454.218959
_symmetry_space_group_name_H-M "C 2/M"
_symmetry_group_IT_number 12
_symmetry_cell_setting 'monoclinic'
loop_
_space_group_symop_operation_xyz
x,y,z
-x,y,-z
-x,-y,-z
x,-y,z
1/2+x,1/2+y,z
1/2-x,1/2+y,-z
1/2-x,1/2-y,-z
1/2+x,1/2-y,z
loop_
_atom_site_type_symbol
_atom_site_label
_atom_site_fract_x
_atom_site_fract_y
_atom_site_fract_z
Si Si1 0.708577 0.446912 0.670282
Si Si2 0.386156 0.053705 0.743701
Si Si3 0.207699 0.917536 0.995582
Si Si4 0.914090 0.552210 0.468440
Si Si5 0.114696 0.237779 0.612342
Si Si6 0.501788 0.307576 0.171762
Si Si7 0.495621 0.416812 0.822213
Si Si8 0.280157 0.688588 0.959105
O O1 0.732254 0.500000 0.738307
O O2 0.800014 0.427497 0.714922
O O3 0.696334 0.423212 0.805246
O O4 0.601090 0.441856 0.408550
O O5 0.394912 0.073437 0.595818
O O6 0.357748 0.000000 0.680320
O O7 0.500000 0.056466 0.000000
O O8 0.102014 0.928846 0.910652
O O9 0.304123 0.947208 0.207837
O O10 0.234631 0.865144 0.073193
O O11 0.950520 0.500000 0.555124
O O12 0.000000 0.573438 0.500000
O O13 0.086545 0.219158 0.407097
O O14 0.180617 0.284066 0.736742
O O15 0.000000 0.241613 0.500000
O O16 0.186891 0.202967 0.823484
O O17 0.520053 0.362033 0.218200
O O18 0.500000 0.296025 0.000000
O O19 0.384840 0.298688 0.040702
O O20 0.500000 0.427274 0.000000
#
# Coordination Sequence:
#
# PCOD9193199 Si02
#       8
#     8   8   8   8   8   8   8   8
#     4  11  22  34  52  77 103 137 179 220 261 304
#     4   9  18  34  53  72  97 130 170 214 259 306
#     4  11  21  34  52  75 104 133 172 218 261 308
#     4  10  20  34  53  75 100 135 176 216 260 309
#     4   9  17  33  54  75 102 131 166 203 245 304
#     4   9  18  33  54  78 103 133 167 206 253 305
#     4  10  21  36  52  74 106 140 173 212 262 314
#     4   9  19  33  52  76  99 133 169 203 250 305
#
# _framework density 18.528068000000001
#
# number of rings (size 3 to 8) (size 9 to 14) (size 15 to 20)
#    0.000    2.250    0.000    3.000    0.000    6.750 
#    0.000    0.000    0.000    0.750    0.000    0.000 
#    0.000    0.000    0.000    0.000    0.000    0.000 
#
# Total GULP energy -178428.083654 kJ/mol
# GULP energy per Si atom -5575.877614 kJ/mol
# Density = 1.848590 g / cm^3
# Si number density = 18.528068 Si / 1000 Ang^3
#
#
#
# Elastic Constant Matrix: (Units=GPa)
#
#
# Indices 1 2 3 4 5 6 
#
# 1 149.2956 14.7730 55.2085 0.0000 -15.1523 0.0000
# 2 14.7730 21.9649 9.8003 0.0000 1.8624 0.0000
# 3 55.2085 9.8003 83.8777 0.0000 -16.9907 0.0000
# 4 0.0000 0.0000 0.0000 21.8124 0.0000 -1.0718
# 5 -15.1523 1.8624 -16.9907 0.0000 34.3789 0.0000
# 6 0.0000 0.0000 0.0000 -1.0718 0.0000 5.2203
#
#
#
# Elastic Compliance Matrix: (Units=1/GPa)
#
#
# Indices 1 2 3 4 5 6 
#
# 1 0.009206 -0.003990 -0.005253 0.000000 0.001677 0.000000
# 2 -0.003990 0.050890 -0.004706 0.000000 -0.006841 0.000000
# 3 -0.005253 -0.004706 0.017238 0.000000 0.006459 0.000000
# 4 0.000000 0.000000 0.000000 0.046313 0.000000 0.009508
# 5 0.001677 -0.006841 0.006459 0.000000 0.033390 0.000000
# 6 0.000000 0.000000 0.000000 0.009508 0.000000 0.193514
#
#
# Mechanical properties :
#
#
# Convention : Reuss Voigt Hill
#
# Bulk Modulus (GPa) = 20.22802 46.07798 33.15300
# Shear Modulus (GPa) = 12.66057 23.97272 18.31665
#
# Velocity S-wave (km/s) = 2.61687 3.60093 3.14759
# Velocity P-wave (km/s) = 4.48017 6.49709 5.58051
#
# Compressibility (1/GPa) = 0.04943638
#
# Stress axis : x y z
#
# Youngs Moduli (GPa) = 108.62709 19.65014 58.01113
#
# Poissons Ratio (x) = 0.07840 0.30475
# Poissons Ratio (y) = 0.43340 0.27298
# Poissons Ratio (z) = 0.57066 0.09247
#
# Static dielectric constant tensor:
#      x y z
#    x 1.668480 0.000000 -0.014390 
#    y 0.000000 1.650280 0.000000 
#    z -0.014390 0.000000 1.608350 
# 
# From -- ./inp_files/80789.got.cif
#   From: 2010.05.17/outbox.cif.g08.bks.cpg/sg12_41_cif.got.tgz:80789.got - 2010.06.03 13:09:07.
