data_PCOD9193011
_publ_section_title
;
Structure prediction by ZEFSAII (Michael W. Deem and Ramdas Pophale) SiO2 
 PCOD9193011
Probable space group: C 2/M
;
_chemical_formula_sum "Si O2"
_cell_formula_units_Z 48
_cell_length_a 8.888325
_cell_length_b 11.176356
_cell_length_c 26.417655
_cell_angle_alpha 90.000000
_cell_angle_beta 102.762974
_cell_angle_gamma 90.000000
_cell_volume 2559.465159
_symmetry_space_group_name_H-M "C 2/M"
_symmetry_group_IT_number 12
_symmetry_cell_setting 'monoclinic'
loop_
_space_group_symop_operation_xyz
x,y,z
-x,y,-z
-x,-y,-z
x,-y,z
1/2+x,1/2+y,z
1/2-x,1/2+y,-z
1/2-x,1/2-y,-z
1/2+x,1/2-y,z
loop_
_atom_site_type_symbol
_atom_site_label
_atom_site_fract_x
_atom_site_fract_y
_atom_site_fract_z
Si Si1 0.103150 0.868752 0.690536
Si Si2 0.168662 0.135802 0.812209
Si Si3 0.158763 0.705373 0.374477
Si Si4 0.072683 0.363663 0.557207
Si Si5 0.027312 0.634128 0.855092
Si Si6 0.154431 0.367224 0.978077
O O1 0.170292 0.850483 0.751502
O O2 0.236979 0.863096 0.658497
O O3 0.970316 0.776532 0.666616
O O4 0.030725 0.000000 0.684003
O O5 0.079152 0.249414 0.827833
O O6 0.342561 0.139264 0.845887
O O7 0.107213 0.000000 0.818543
O O8 0.280844 0.790410 0.412291
O O9 0.060017 0.638256 0.409807
O O10 0.120399 0.500000 0.550768
O O11 0.000000 0.313192 0.500000
O O12 0.063448 0.500000 0.836177
O O13 0.106087 0.640369 0.915816
O O14 0.228385 0.500000 0.991756
O O15 0.250000 0.250000 0.000000
O O16 0.000000 0.365858 0.000000
#
# Coordination Sequence:
#
# PCOD9193011 Si02
#       6
#     8   8   8   8   8   8
#     4  10  20  35  54  77 104 135 174 216 260 311
#     4  10  21  37  57  80 108 143 180 221 269 320
#     4  10  20  34  53  76 103 135 171 213 260 308
#     4  10  20  34  52  75 103 135 171 211 257 309
#     4  10  21  37  56  81 111 142 179 222 267 318
#     4  10  21  37  57  81 110 143 180 222 267 316
#
# _framework density 18.753917999999999
#
# number of rings (size 3 to 8) (size 9 to 14) (size 15 to 20)
#    0.000    2.000    0.000    3.500    0.000    3.000 
#    0.000    4.167    0.000    8.000    0.000    0.000 
#    0.000    0.000    0.000    0.000    0.000    0.000 
#
# Total GULP energy -133794.026577 kJ/mol
# GULP energy per Si atom -5574.751107 kJ/mol
# Density = 1.871123 g / cm^3
# Si number density = 18.753918 Si / 1000 Ang^3
#
#
#
# Elastic Constant Matrix: (Units=GPa)
#
#
# Indices 1 2 3 4 5 6 
#
# 1 43.3311 23.7809 -7.4235 0.0000 3.7468 0.0000
# 2 23.7809 107.3087 10.9595 0.0000 -2.1983 0.0000
# 3 -7.4235 10.9595 35.4732 0.0000 -1.7602 0.0000
# 4 0.0000 0.0000 0.0000 11.5761 0.0000 15.4558
# 5 3.7468 -2.1983 -1.7602 0.0000 27.3133 0.0000
# 6 0.0000 0.0000 0.0000 15.4558 0.0000 -3.2002
#
#
#
# Elastic Compliance Matrix: (Units=1/GPa)
#
#
# Indices 1 2 3 4 5 6 
#
# 1 0.028813 -0.007293 0.008084 0.000000 -0.004019 0.000000
# 2 -0.007293 0.011478 -0.004993 0.000000 0.001603 0.000000
# 3 0.008084 -0.004993 0.031450 0.000000 0.000516 0.000000
# 4 0.000000 0.000000 0.000000 0.011598 0.000000 0.056014
# 5 -0.004019 0.001603 0.000516 0.000000 0.037326 0.000000
# 6 0.000000 0.000000 0.000000 0.056014 0.000000 -0.041953
#
#
# Mechanical properties :
#
#
# Convention : Reuss Voigt Hill
#
# Bulk Modulus (GPa) = 15.78879 26.74964 21.26922
# Shear Modulus (GPa) = 46.19859 17.72425 31.96142
#
# Velocity S-wave (km/s) = 4.96866 3.07758 4.13274
# Velocity P-wave (km/s) = 6.43071 5.18875 5.84282
#
# Compressibility (1/GPa) = 0.06333607
#
# Stress axis : x y z
#
# Youngs Moduli (GPa) = 34.70640 87.12376 31.79643
#
# Poissons Ratio (x) = 0.63541 -0.25703
# Poissons Ratio (y) = 0.25312 0.15875
# Poissons Ratio (z) = -0.28055 0.43500
#
# Static dielectric constant tensor:
#      x y z
#    x 1.611220 0.000000 -0.006470 
#    y 0.000000 1.667390 0.000000 
#    z -0.006470 0.000000 1.641120 
# 
# From -- ./inp_files/331989.got.cif
#   From: 2010.05.17/outbox.cif.g08.bks.cpg/sg12_166_cif.got.tgz:331989.got - 2010.06.03 13:09:07.
