data_PCOD9193073
_publ_section_title
;
Structure prediction by ZEFSAII (Michael W. Deem and Ramdas Pophale) SiO2 
 PCOD9193073
Probable space group: C 2/M
;
_chemical_formula_sum "Si O2"
_cell_formula_units_Z 58
_cell_length_a 22.495049
_cell_length_b 9.675061
_cell_length_c 11.861532
_cell_angle_alpha 90.000000
_cell_angle_beta 102.796161
_cell_angle_gamma 90.000000
_cell_volume 2517.440344
_symmetry_space_group_name_H-M "C 2/M"
_symmetry_group_IT_number 12
_symmetry_cell_setting 'monoclinic'
loop_
_space_group_symop_operation_xyz
x,y,z
-x,y,-z
-x,-y,-z
x,-y,z
1/2+x,1/2+y,z
1/2-x,1/2+y,-z
1/2-x,1/2-y,-z
1/2+x,1/2-y,z
loop_
_atom_site_type_symbol
_atom_site_label
_atom_site_fract_x
_atom_site_fract_y
_atom_site_fract_z
Si Si1 0.489328 0.844162 0.800782
Si Si2 0.105502 0.656859 0.705982
Si Si3 0.896815 0.159125 0.886655
Si Si4 0.425404 0.759478 0.551390
Si Si5 0.311163 0.657190 0.625420
Si Si6 0.718199 0.345661 0.700189
Si Si7 0.000000 0.000000 0.500000
Si Si8 0.299192 0.157315 0.954790
O O1 0.556434 0.810618 0.781948
O O2 0.458141 0.734896 0.870615
O O3 0.449281 0.842809 0.668656
O O4 0.488531 0.000000 0.847079
O O5 0.127230 0.500000 0.729350
O O6 0.073901 0.667377 0.569464
O O7 0.160469 0.763868 0.724281
O O8 0.853182 0.154437 0.757002
O O9 0.860720 0.255057 0.960612
O O10 0.905605 0.000000 0.927234
O O11 0.356634 0.713444 0.549797
O O12 0.464685 0.620851 0.557051
O O13 0.291021 0.500000 0.597530
O O14 0.254847 0.756943 0.624900
O O15 0.699988 0.500000 0.657663
O O16 0.767395 0.358598 0.820416
O O17 0.308356 0.000000 0.003112
O O18 0.250000 0.250000 0.000000
#
# Coordination Sequence:
#
# PCOD9193073 Si02
#       8
#     8   8   8   8   8   8   2   8
#     4  10  20  34  52  76 108 143 184 227 268 311
#     4  11  23  36  52  74 107 147 186 226 271 318
#     4   9  18  31  54  83 109 138 174 218 264 314
#     4  11  21  32  54  75 107 141 189 233 272 311
#     4   9  18  33  51  73 102 139 178 221 267 313
#     4  10  23  38  55  78 106 139 177 218 266 320
#     4  12  20  32  50  84 104 136 192 240 274 314
#     4  10  20  37  61  88 112 136 169 212 265 325
#
# _framework density 23.039273999999999
#
# number of rings (size 3 to 8) (size 9 to 14) (size 15 to 20)
#    0.000    1.931    2.069    1.655    1.931    7.724 
#    0.000    0.000    0.000    0.828    0.000    5.793 
#    0.000    0.000    0.000    0.000    0.000    0.000 
#
# Total GULP energy -161910.514033 kJ/mol
# GULP energy per Si atom -5583.121174 kJ/mol
# Density = 2.298684 g / cm^3
# Si number density = 23.039274 Si / 1000 Ang^3
#
#
#
# Elastic Constant Matrix: (Units=GPa)
#
#
# Indices 1 2 3 4 5 6 
#
# 1 110.6591 105.2999 27.1231 0.0000 -44.3892 0.0000
# 2 105.2999 220.5545 43.0141 0.0000 -53.4481 0.0000
# 3 27.1231 43.0141 70.3793 0.0000 -12.1625 0.0000
# 4 0.0000 0.0000 0.0000 12.6741 0.0000 -13.2406
# 5 -44.3892 -53.4481 -12.1625 0.0000 54.5516 0.0000
# 6 0.0000 0.0000 0.0000 -13.2406 0.0000 33.4467
#
#
#
# Elastic Compliance Matrix: (Units=1/GPa)
#
#
# Indices 1 2 3 4 5 6 
#
# 1 0.019500 -0.006829 -0.001826 0.000000 0.008770 0.000000
# 2 -0.006829 0.008889 -0.002347 0.000000 0.002630 0.000000
# 3 -0.001826 -0.002347 0.016321 0.000000 -0.000146 0.000000
# 4 0.000000 0.000000 0.000000 0.134544 0.000000 0.053262
# 5 0.008770 0.002630 -0.000146 0.000000 0.028011 0.000000
# 6 0.000000 0.000000 0.000000 0.053262 0.000000 0.050983
#
#
# Mechanical properties :
#
#
# Convention : Reuss Voigt Hill
#
# Bulk Modulus (GPa) = 44.03747 83.60746 63.82246
# Shear Modulus (GPa) = 17.37188 35.21153 26.29170
#
# Velocity S-wave (km/s) = 2.74891 3.91362 3.38178
# Velocity P-wave (km/s) = 5.40656 7.53590 6.55823
#
# Compressibility (1/GPa) = 0.02270793
#
# Stress axis : x y z
#
# Youngs Moduli (GPa) = 51.28169 112.49654 61.26909
#
# Poissons Ratio (x) = 0.76820 0.11188
# Poissons Ratio (y) = 0.35018 0.14378
# Poissons Ratio (z) = 0.09364 0.26400
#
# Static dielectric constant tensor:
#      x y z
#    x 1.853190 0.000000 0.051550 
#    y 0.000000 1.817960 0.000000 
#    z 0.051550 0.000000 1.911080 
# 
# From -- ./inp_files/237551.got.cif
#   From: 2010.05.17/outbox.cif.g08.bks.cpg/sg12_119_cif.got.tgz:237551.got - 2010.06.03 13:09:07.
