data_PCOD9193530
_publ_section_title
;
Structure prediction by ZEFSAII (Michael W. Deem and Ramdas Pophale) SiO2 
 PCOD9193530
Probable space group: C 2/M
;
_chemical_formula_sum "Si O2"
_cell_formula_units_Z 40
_cell_length_a 32.163175
_cell_length_b 7.838156
_cell_length_c 7.548691
_cell_angle_alpha 90.000000
_cell_angle_beta 105.025973
_cell_angle_gamma 90.000000
_cell_volume 1837.957410
_symmetry_space_group_name_H-M "C 2/M"
_symmetry_group_IT_number 12
_symmetry_cell_setting 'monoclinic'
loop_
_space_group_symop_operation_xyz
x,y,z
-x,y,-z
-x,-y,-z
x,-y,z
1/2+x,1/2+y,z
1/2-x,1/2+y,-z
1/2-x,1/2-y,-z
1/2+x,1/2-y,z
loop_
_atom_site_type_symbol
_atom_site_label
_atom_site_fract_x
_atom_site_fract_y
_atom_site_fract_z
Si Si1 0.390114 0.791347 0.229432
Si Si2 0.295855 0.703652 0.471923
Si Si3 0.045562 0.697962 0.993206
Si Si4 0.201698 0.687186 0.915912
Si Si5 0.888630 0.200995 0.642595
O O1 0.344408 0.726479 0.096026
O O2 0.394527 0.738425 0.439374
O O3 0.388210 0.000000 0.223373
O O4 0.429034 0.730559 0.148550
O O5 0.297067 0.500000 0.433375
O O6 0.250000 0.750000 0.500000
O O7 0.300609 0.810364 0.299021
O O8 0.338619 0.742531 0.631312
O O9 0.036982 0.500000 0.937921
O O10 0.078049 0.705549 0.194553
O O11 0.000000 0.776601 0.000000
O O12 0.200454 0.500000 0.995896
O O13 0.250000 0.750000 0.000000
O O14 0.894764 0.000000 0.676935
#
# Coordination Sequence:
#
# PCOD9193530 Si02
#       5
#     8   8   8   8   8
#     4   9  20  39  60  83 114 155 196 238 289 346
#     4  10  21  36  54  81 113 151 192 233 286 346
#     4  10  22  40  63  89 115 151 199 245 292 347
#     4  10  20  34  53  81 113 150 192 235 285 342
#     4  10  22  39  59  86 119 154 191 240 297 347
#
# _framework density 21.763290999999999
#
# number of rings (size 3 to 8) (size 9 to 14) (size 15 to 20)
#    0.000    2.200    0.000    1.800    2.800    5.200 
#    0.000    4.000    0.000    0.000    0.000    0.000 
#    0.000    0.000    0.000    0.000    0.000    0.000 
#
# Total GULP energy -111488.764823 kJ/mol
# GULP energy per Si atom -5574.438241 kJ/mol
# Density = 2.171376 g / cm^3
# Si number density = 21.763291 Si / 1000 Ang^3
#
#
#
# Elastic Constant Matrix: (Units=GPa)
#
#
# Indices 1 2 3 4 5 6 
#
# 1 166.8823 0.4615 20.6290 0.0000 -14.8878 0.0000
# 2 0.4615 41.3948 -16.8541 0.0000 2.4377 0.0000
# 3 20.6290 -16.8541 48.0914 0.0000 -2.2396 0.0000
# 4 0.0000 0.0000 0.0000 16.4009 0.0000 3.4993
# 5 -14.8878 2.4377 -2.2396 0.0000 31.7185 0.0000
# 6 0.0000 0.0000 0.0000 3.4993 0.0000 16.3577
#
#
#
# Elastic Compliance Matrix: (Units=1/GPa)
#
#
# Indices 1 2 3 4 5 6 
#
# 1 0.006671 -0.001587 -0.003277 0.000000 0.003022 0.000000
# 2 -0.001587 0.028625 0.010610 0.000000 -0.002195 0.000000
# 3 -0.003277 0.010610 0.025893 0.000000 -0.000525 0.000000
# 4 0.000000 0.000000 0.000000 0.063888 0.000000 -0.013667
# 5 0.003022 -0.002195 -0.000525 0.000000 0.033077 0.000000
# 6 0.000000 0.000000 0.000000 -0.013667 0.000000 0.064057
#
#
# Mechanical properties :
#
#
# Convention : Reuss Voigt Hill
#
# Bulk Modulus (GPa) = 13.75854 29.42681 21.59267
# Shear Modulus (GPa) = 21.28146 29.70422 25.49284
#
# Velocity S-wave (km/s) = 3.13047 3.69843 3.42624
# Velocity P-wave (km/s) = 4.40478 5.63813 5.05918
#
# Compressibility (1/GPa) = 0.07268215
#
# Stress axis : x y z
#
# Youngs Moduli (GPa) = 149.89579 34.93510 38.61994
#
# Poissons Ratio (x) = 0.05543 0.12656
# Poissons Ratio (y) = 0.23782 -0.40976
# Poissons Ratio (z) = 0.49121 -0.37066
#
# Static dielectric constant tensor:
#      x y z
#    x 1.865030 0.000000 0.014840 
#    y 0.000000 1.785500 0.000000 
#    z 0.014840 0.000000 1.757280 
# 
# From -- ./inp_files/101189.got.cif
#   From: 2010.05.17/outbox.cif.g08.bks.cpg/sg12_51_cif.got.tgz:101189.got - 2010.06.03 13:09:07.
