data_PCOD9193977
_publ_section_title
;
Structure prediction by ZEFSAII (Michael W. Deem and Ramdas Pophale) SiO2 
 PCOD9193977
Probable space group: C 2/M
;
_chemical_formula_sum "Si O2"
_cell_formula_units_Z 48
_cell_length_a 19.463683
_cell_length_b 10.855908
_cell_length_c 22.163226
_cell_angle_alpha 90.000000
_cell_angle_beta 149.197832
_cell_angle_gamma 90.000000
_cell_volume 2398.048909
_symmetry_space_group_name_H-M "C 2/M"
_symmetry_group_IT_number 12
_symmetry_cell_setting 'monoclinic'
loop_
_space_group_symop_operation_xyz
x,y,z
-x,y,-z
-x,-y,-z
x,-y,z
1/2+x,1/2+y,z
1/2-x,1/2+y,-z
1/2-x,1/2-y,-z
1/2+x,1/2-y,z
loop_
_atom_site_type_symbol
_atom_site_label
_atom_site_fract_x
_atom_site_fract_y
_atom_site_fract_z
Si Si1 0.749743 0.351963 0.876255
Si Si2 0.606332 0.364096 0.302193
Si Si3 0.131816 0.298590 0.568312
Si Si4 0.550661 0.642937 0.390371
Si Si5 0.453046 0.144120 0.123368
Si Si6 0.306550 0.141537 0.789732
O O1 0.763485 0.500000 0.890740
O O2 0.595560 0.323417 0.746391
O O3 0.823334 0.310287 0.870321
O O4 0.816275 0.309704 0.988548
O O5 0.538284 0.500000 0.246406
O O6 0.738030 0.368191 0.359541
O O7 0.642782 0.348543 0.400222
O O8 0.516736 0.247104 0.214887
O O9 0.087015 0.222013 0.475572
O O10 0.194595 0.212793 0.667720
O O11 0.000000 0.357427 0.500000
O O12 0.548911 0.500000 0.407750
O O13 0.558305 0.141605 0.146931
O O14 0.444565 0.000000 0.139182
O O15 0.261909 0.000000 0.761372
#
# Coordination Sequence:
#
# PCOD9193977 Si02
#       6
#     8   8   8   8   8   8
#     4   9  16  28  51  83 114 140 175 226 279 324
#     4  10  23  40  55  77 115 155 184 220 277 335
#     4  11  20  33  56  81 105 143 189 234 269 325
#     4  10  20  34  54  84 118 147 177 223 282 334
#     4   9  18  33  56  83 109 142 186 230 269 318
#     4   9  16  27  48  82 115 138 169 226 285 321
#
# _framework density 20.016273000000002
#
# number of rings (size 3 to 8) (size 9 to 14) (size 15 to 20)
#    0.000    2.333    1.667    1.500    0.000    4.333 
#    0.000    0.833    0.000    9.000    0.000    0.000 
#    0.000    0.000    0.000    0.000    0.000    0.000 
#
# Total GULP energy -133635.598049 kJ/mol
# GULP energy per Si atom -5568.149919 kJ/mol
# Density = 1.997071 g / cm^3
# Si number density = 20.016273 Si / 1000 Ang^3
#
#
#
# Elastic Constant Matrix: (Units=GPa)
#
#
# Indices 1 2 3 4 5 6 
#
# 1 68.3055 16.0269 8.7187 0.0000 -22.4476 0.0000
# 2 16.0269 91.8324 52.6966 0.0000 -17.0325 0.0000
# 3 8.7187 52.6966 97.2342 0.0000 -12.5151 0.0000
# 4 0.0000 0.0000 0.0000 5.1430 0.0000 -3.7533
# 5 -22.4476 -17.0325 -12.5151 0.0000 21.6100 0.0000
# 6 0.0000 0.0000 0.0000 -3.7533 0.0000 15.4264
#
#
#
# Elastic Compliance Matrix: (Units=1/GPa)
#
#
# Indices 1 2 3 4 5 6 
#
# 1 0.022331 -0.000143 0.001131 0.000000 0.023738 0.000000
# 2 -0.000143 0.017236 -0.008211 0.000000 0.008681 0.000000
# 3 0.001131 -0.008211 0.015075 0.000000 0.003433 0.000000
# 4 0.000000 0.000000 0.000000 0.236415 0.000001 0.057520
# 5 0.023738 0.008681 0.003433 0.000001 0.079763 0.000000
# 6 0.000000 0.000000 0.000000 0.057520 0.000000 0.078818
#
#
# Mechanical properties :
#
#
# Convention : Reuss Voigt Hill
#
# Bulk Modulus (GPa) = 24.87909 45.80628 35.34269
# Shear Modulus (GPa) = 10.47156 20.43123 15.45139
#
# Velocity S-wave (km/s) = 2.28973 3.19835 2.78140
# Velocity P-wave (km/s) = 4.40987 6.04760 5.29247
#
# Compressibility (1/GPa) = 0.04019439
#
# Stress axis : x y z
#
# Youngs Moduli (GPa) = 44.78178 58.01701 66.33499
#
# Poissons Ratio (x) = 0.00831 -0.07500
# Poissons Ratio (y) = 0.00642 0.54468
# Poissons Ratio (z) = -0.05063 0.47638
#
# Static dielectric constant tensor:
#      x y z
#    x 1.769800 0.000000 0.050980 
#    y 0.000000 1.678480 0.000000 
#    z 0.050980 0.000000 1.723760 
# 
# From -- ./inp_files/153710.got.cif
#   From: 2010.05.17/outbox.cif.g08.bks.cpg/sg12_77_cif.got.tgz:153710.got - 2010.06.03 13:09:07.
