data_PCOD9193297
_publ_section_title
;
Structure prediction by ZEFSAII (Michael W. Deem and Ramdas Pophale) SiO2 
 PCOD9193297
Probable space group: C 2/M
;
_chemical_formula_sum "Si O2"
_cell_formula_units_Z 56
_cell_length_a 16.368109
_cell_length_b 7.740155
_cell_length_c 18.396444
_cell_angle_alpha 90.000000
_cell_angle_beta 112.165581
_cell_angle_gamma 90.000000
_cell_volume 2158.433695
_symmetry_space_group_name_H-M "C 2/M"
_symmetry_group_IT_number 12
_symmetry_cell_setting 'monoclinic'
loop_
_space_group_symop_operation_xyz
x,y,z
-x,y,-z
-x,-y,-z
x,-y,z
1/2+x,1/2+y,z
1/2-x,1/2+y,-z
1/2-x,1/2-y,-z
1/2+x,1/2-y,z
loop_
_atom_site_type_symbol
_atom_site_label
_atom_site_fract_x
_atom_site_fract_y
_atom_site_fract_z
Si Si1 0.624579 0.300625 0.024133
Si Si2 0.131188 0.711497 0.403756
Si Si3 0.089012 0.798165 0.166569
Si Si4 0.900112 0.291874 0.450983
Si Si5 0.822688 0.202230 0.110449
Si Si6 0.030004 0.697202 0.739654
Si Si7 0.747969 0.795935 0.307448
O O1 0.597016 0.500000 0.011140
O O2 0.579137 0.227565 0.081372
O O3 0.729125 0.294056 0.077323
O O4 0.621793 0.230932 0.941103
O O5 0.130922 0.500000 0.402925
O O6 0.148790 0.769181 0.491472
O O7 0.033370 0.767538 0.344653
O O8 0.197697 0.769161 0.363631
O O9 0.035081 0.704507 0.211647
O O10 0.192266 0.787500 0.224155
O O11 0.062545 0.000000 0.159745
O O12 0.900428 0.500000 0.449411
O O13 0.849465 0.235322 0.361645
O O14 0.000000 0.236302 0.500000
O O15 0.880840 0.217374 0.202017
O O16 0.804228 0.000000 0.092078
O O17 0.051216 0.500000 0.728925
O O18 0.735108 0.000000 0.294974
#
# Coordination Sequence:
#
# PCOD9193297 Si02
#       7
#     8   8   8   8   8   8   8
#     4   9  20  37  55  76 105 141 178 219 265 312
#     4   8  17  34  53  73 100 135 172 210 254 306
#     4  10  20  36  57  79 104 137 179 222 264 312
#     4  10  20  34  53  77 103 134 173 213 255 309
#     4  10  20  35  55  79 107 140 178 216 260 318
#     4  10  20  35  54  78 109 141 176 220 267 312
#     4  10  20  35  54  76 104 136 170 213 264 314
#
# _framework density 25.944739999999999
#
# number of rings (size 3 to 8) (size 9 to 14) (size 15 to 20)
#    0.000    2.429    0.000    3.000    0.000    3.714 
#    0.000    9.286    0.000    0.000    0.000    0.000 
#    0.000    0.000    0.000    0.000    0.000    0.000 
#
# Total GULP energy -156566.833837 kJ/mol
# GULP energy per Si atom -5591.672637 kJ/mol
# Density = 2.588569 g / cm^3
# Si number density = 25.944740 Si / 1000 Ang^3
#
#
#
# Elastic Constant Matrix: (Units=GPa)
#
#
# Indices 1 2 3 4 5 6 
#
# 1 67.3170 -1.6984 13.7216 0.0000 8.2044 0.0000
# 2 -1.6984 58.5338 1.5401 0.0000 3.3477 0.0000
# 3 13.7216 1.5401 170.8427 0.0000 11.1079 0.0000
# 4 0.0000 0.0000 0.0000 13.1758 0.0000 1.4553
# 5 8.2044 3.3477 11.1079 0.0000 55.5208 0.0000
# 6 0.0000 0.0000 0.0000 1.4553 0.0000 9.9313
#
#
#
# Elastic Compliance Matrix: (Units=1/GPa)
#
#
# Indices 1 2 3 4 5 6 
#
# 1 0.015349 0.000594 -0.001103 0.000000 -0.002083 0.000000
# 2 0.000594 0.017168 -0.000131 0.000000 -0.001097 0.000000
# 3 -0.001103 -0.000131 0.006010 0.000000 -0.001032 0.000000
# 4 0.000000 0.000000 0.000000 0.077145 0.000000 -0.011305
# 5 -0.002083 -0.001097 -0.001032 0.000000 0.018592 0.000000
# 6 0.000000 0.000000 0.000000 -0.011305 0.000000 0.102348
#
#
# Mechanical properties :
#
#
# Convention : Reuss Voigt Hill
#
# Bulk Modulus (GPa) = 26.84863 35.98000 31.41431
# Shear Modulus (GPa) = 19.97544 34.60094 27.28819
#
# Velocity S-wave (km/s) = 2.77776 3.65587 3.24664
# Velocity P-wave (km/s) = 4.54519 5.63192 5.11748
#
# Compressibility (1/GPa) = 0.03724585
#
# Stress axis : x y z
#
# Youngs Moduli (GPa) = 65.15194 58.24952 166.38512
#
# Poissons Ratio (x) = -0.03457 0.18347
# Poissons Ratio (y) = -0.03867 0.02182
# Poissons Ratio (z) = 0.07184 0.00764
#
# Static dielectric constant tensor:
#      x y z
#    x 2.151770 0.000000 0.001920 
#    y 0.000000 1.936600 0.000000 
#    z 0.001920 0.000000 2.014250 
# 
# From -- ./inp_files/314421.got.cif
#   From: 2010.05.17/outbox.cif.g08.bks.cpg/sg12_158_cif.got.tgz:314421.got - 2010.06.03 13:09:07.
