data_PCOD9193239
_publ_section_title
;
Structure prediction by ZEFSAII (Michael W. Deem and Ramdas Pophale) SiO2 
 PCOD9193239
Probable space group: C 2/M
;
_chemical_formula_sum "Si O2"
_cell_formula_units_Z 56
_cell_length_a 16.267137
_cell_length_b 9.543362
_cell_length_c 22.631154
_cell_angle_alpha 90.000000
_cell_angle_beta 47.647649
_cell_angle_gamma 90.000000
_cell_volume 2596.408241
_symmetry_space_group_name_H-M "C 2/M"
_symmetry_group_IT_number 12
_symmetry_cell_setting 'monoclinic'
loop_
_space_group_symop_operation_xyz
x,y,z
-x,y,-z
-x,-y,-z
x,-y,z
1/2+x,1/2+y,z
1/2-x,1/2+y,-z
1/2-x,1/2-y,-z
1/2+x,1/2-y,z
loop_
_atom_site_type_symbol
_atom_site_label
_atom_site_fract_x
_atom_site_fract_y
_atom_site_fract_z
Si Si1 0.138247 0.835036 0.044120
Si Si2 0.862050 0.161371 0.515760
Si Si3 0.097879 0.661220 0.617616
Si Si4 0.302601 0.336626 0.669406
Si Si5 0.402171 0.663925 0.193943
Si Si6 0.096485 0.163550 0.247999
Si Si7 0.200878 0.159757 0.886335
O O1 0.029456 0.785750 0.131981
O O2 0.153435 0.000000 0.049936
O O3 0.250000 0.750000 0.000000
O O4 0.122394 0.823125 0.980935
O O5 0.905903 0.265803 0.444951
O O6 0.727201 0.162606 0.573510
O O7 0.877871 0.200723 0.576589
O O8 0.900296 0.000000 0.486480
O O9 0.060338 0.500000 0.633641
O O10 0.018084 0.751394 0.698441
O O11 0.274207 0.500000 0.675576
O O12 0.190065 0.247938 0.725866
O O13 0.362396 0.322702 0.703509
O O14 0.399931 0.500000 0.211258
O O15 0.362759 0.674654 0.144583
O O16 0.196319 0.233073 0.163013
O O17 0.082192 0.000000 0.241231
O O18 0.245197 0.000000 0.867069
#
# Coordination Sequence:
#
# PCOD9193239 Si02
#       7
#     8   8   8   8   8   8   8
#     4  10  21  35  52  77 106 135 168 208 254 300
#     4   9  19  36  54  72  99 135 172 208 249 299
#     4  10  20  34  53  76 102 134 171 208 250 300
#     4   9  19  35  54  76 101 132 169 208 253 301
#     4   9  18  34  55  76  99 131 171 211 251 297
#     4  10  20  34  53  77 104 132 166 209 254 301
#     4   9  18  35  56  74  98 134 173 210 249 297
#
# _framework density 21.568258
#
# number of rings (size 3 to 8) (size 9 to 14) (size 15 to 20)
#    0.000    2.571    0.000    1.286    0.000    6.286 
#    0.000    7.143    0.000    4.286    0.000    0.000 
#    0.000    0.000    0.000    0.000    0.000    0.000 
#
# Total GULP energy -156475.607769 kJ/mol
# GULP energy per Si atom -5588.414563 kJ/mol
# Density = 2.151917 g / cm^3
# Si number density = 21.568258 Si / 1000 Ang^3
#
#
#
# Elastic Constant Matrix: (Units=GPa)
#
#
# Indices 1 2 3 4 5 6 
#
# 1 54.7101 22.9518 14.7959 0.0000 -4.9769 0.0000
# 2 22.9518 81.9196 47.5657 0.0000 -24.1172 0.0000
# 3 14.7959 47.5657 102.5444 0.0000 -19.1811 0.0000
# 4 0.0000 0.0000 0.0000 33.6057 0.0000 -4.9517
# 5 -4.9769 -24.1172 -19.1811 0.0000 44.3860 0.0000
# 6 0.0000 0.0000 0.0000 -4.9517 0.0000 23.5591
#
#
#
# Elastic Compliance Matrix: (Units=1/GPa)
#
#
# Indices 1 2 3 4 5 6 
#
# 1 0.020766 -0.005851 -0.000480 0.000000 -0.001058 0.000000
# 2 -0.005851 0.020106 -0.007138 0.000000 0.007184 0.000000
# 3 -0.000480 -0.007138 0.013487 0.000000 0.001896 0.000000
# 4 0.000000 0.000000 0.000000 0.030708 0.000000 0.006454
# 5 -0.001058 0.007184 0.001896 0.000000 0.027134 0.000000
# 6 0.000000 0.000000 0.000000 0.006454 0.000000 0.043803
#
#
# Mechanical properties :
#
#
# Convention : Reuss Voigt Hill
#
# Bulk Modulus (GPa) = 36.46924 45.53342 41.00133
# Shear Modulus (GPa) = 26.03045 30.56756 28.29900
#
# Velocity S-wave (km/s) = 3.47780 3.76872 3.62618
# Velocity P-wave (km/s) = 5.75085 6.33205 6.04843
#
# Compressibility (1/GPa) = 0.02742037
#
# Stress axis : x y z
#
# Youngs Moduli (GPa) = 48.15493 49.73628 74.14584
#
# Poissons Ratio (x) = 0.29100 0.03561
# Poissons Ratio (y) = 0.28175 0.52928
# Poissons Ratio (z) = 0.02313 0.35503
#
# Static dielectric constant tensor:
#      x y z
#    x 1.856830 0.000000 0.032670 
#    y 0.000000 1.724390 0.000000 
#    z 0.032670 0.000000 1.767440 
# 
# From -- ./inp_files/342319.got.cif
#   From: 2010.05.17/outbox.cif.g08.bks.cpg/sg12_172_cif.got.tgz:342319.got - 2010.06.03 13:09:07.
