data_PCOD9193691
_publ_section_title
;
Structure prediction by ZEFSAII (Michael W. Deem and Ramdas Pophale) SiO2 
 PCOD9193691
Probable space group: C 2/M
;
_chemical_formula_sum "Si O2"
_cell_formula_units_Z 48
_cell_length_a 9.518390
_cell_length_b 13.567252
_cell_length_c 15.519141
_cell_angle_alpha 90.000000
_cell_angle_beta 116.393918
_cell_angle_gamma 90.000000
_cell_volume 1795.205722
_symmetry_space_group_name_H-M "C 2/M"
_symmetry_group_IT_number 12
_symmetry_cell_setting 'monoclinic'
loop_
_space_group_symop_operation_xyz
x,y,z
-x,y,-z
-x,-y,-z
x,-y,z
1/2+x,1/2+y,z
1/2-x,1/2+y,-z
1/2-x,1/2-y,-z
1/2+x,1/2-y,z
loop_
_atom_site_type_symbol
_atom_site_label
_atom_site_fract_x
_atom_site_fract_y
_atom_site_fract_z
Si Si1 0.523315 0.882620 0.647722
Si Si2 0.259540 0.383901 0.552804
Si Si3 0.606831 0.837504 0.151226
Si Si4 0.566673 0.323903 0.710962
Si Si5 0.043507 0.106038 0.133252
Si Si6 0.785893 0.364636 0.007254
O O1 0.656136 0.861430 0.610351
O O2 0.353398 0.862813 0.558233
O O3 0.553644 0.794199 0.722689
O O4 0.530014 0.000000 0.670895
O O5 0.277565 0.500000 0.559220
O O6 0.435454 0.343650 0.603737
O O7 0.752413 0.853534 0.255279
O O8 0.604429 0.717977 0.134424
O O9 0.660272 0.884566 0.075196
O O10 0.431358 0.880678 0.110103
O O11 0.509754 0.380681 0.780950
O O12 0.887287 0.095183 0.032981
O O13 0.131190 0.000000 0.153129
O O14 0.750000 0.250000 0.000000
#
# Coordination Sequence:
#
# PCOD9193691 Si02
#       6
#     8   8   8   8   8   8
#     4   9  19  35  55  76 102 137 176 217 260 309
#     4   9  18  34  54  78 104 133 174 218 261 314
#     4   9  18  32  51  74 105 139 169 209 256 303
#     4  11  19  29  51  80 107 136 171 216 263 309
#     4  10  20  34  54  79 105 139 178 216 256 304
#     4   8  16  34  53  72 102 138 171 208 253 301
#
# _framework density 26.737884000000001
#
# number of rings (size 3 to 8) (size 9 to 14) (size 15 to 20)
#    0.000    2.667    0.000    3.000    0.000    2.000 
#    0.000   14.167    0.000   28.000    0.000   17.500 
#    0.000    0.000    0.000    0.000    0.000    0.000 
#
# Total GULP energy -133894.033409 kJ/mol
# GULP energy per Si atom -5578.918059 kJ/mol
# Density = 2.667703 g / cm^3
# Si number density = 26.737884 Si / 1000 Ang^3
#
#
#
# Elastic Constant Matrix: (Units=GPa)
#
#
# Indices 1 2 3 4 5 6 
#
# 1 66.4631 10.3799 59.0707 0.0000 37.5845 0.0000
# 2 10.3799 117.4261 41.7061 0.0000 -1.5018 0.0000
# 3 59.0707 41.7061 133.7163 0.0000 68.0876 0.0000
# 4 0.0000 0.0000 0.0000 9.3995 0.0000 3.1700
# 5 37.5845 -1.5018 68.0876 0.0000 69.5883 0.0000
# 6 0.0000 0.0000 0.0000 3.1700 0.0000 -2.3096
#
#
#
# Elastic Compliance Matrix: (Units=1/GPa)
#
#
# Indices 1 2 3 4 5 6 
#
# 1 0.025878 0.000912 -0.009186 0.000000 -0.004969 0.000000
# 2 0.000912 0.011191 -0.007504 0.000000 0.007092 0.000000
# 3 -0.009186 -0.007504 0.022785 0.000000 -0.017494 0.000000
# 4 0.000000 0.000000 0.000000 0.072726 0.000000 0.099816
# 5 -0.004969 0.007092 -0.017494 0.000000 0.034324 0.000000
# 6 0.000000 0.000000 0.000000 0.099816 0.000000 -0.295968
#
#
# Mechanical properties :
#
#
# Convention : Reuss Voigt Hill
#
# Bulk Modulus (GPa) = 35.33946 59.99099 47.66522
# Shear Modulus (GPa) = -56.77016 29.09887 -13.83565
#
# Velocity S-wave (km/s) = -4.61283 3.30252 -2.27723
# Velocity P-wave (km/s) = 3.88912 6.08503 3.30926
#
# Compressibility (1/GPa) = 0.02829698
#
# Stress axis : x y z
#
# Youngs Moduli (GPa) = 38.64324 89.35410 43.88818
#
# Poissons Ratio (x) = -0.08145 0.40315
# Poissons Ratio (y) = -0.03522 0.32935
# Poissons Ratio (z) = 0.35497 0.67054
#
# Static dielectric constant tensor:
#      x y z
#    x 2.213640 0.000000 -0.010520 
#    y 0.000000 2.075850 0.000000 
#    z -0.010520 0.000000 2.118940 
# 
# From -- ./inp_files/305197.got.cif
#   From: 2010.05.17/outbox.cif.g08.bks.cpg/sg12_153_cif.got.tgz:305197.got - 2010.06.03 13:09:07.
