data_PCOD9193797
_publ_section_title
;
Structure prediction by ZEFSAII (Michael W. Deem and Ramdas Pophale) SiO2 
 PCOD9193797
Probable space group: C 2/M
;
_chemical_formula_sum "Si O2"
_cell_formula_units_Z 56
_cell_length_a 29.613776
_cell_length_b 7.733878
_cell_length_c 17.479393
_cell_angle_alpha 90.000000
_cell_angle_beta 35.835726
_cell_angle_gamma 90.000000
_cell_volume 2343.781485
_symmetry_space_group_name_H-M "C 2/M"
_symmetry_group_IT_number 12
_symmetry_cell_setting 'monoclinic'
loop_
_space_group_symop_operation_xyz
x,y,z
-x,y,-z
-x,-y,-z
x,-y,z
1/2+x,1/2+y,z
1/2-x,1/2+y,-z
1/2-x,1/2-y,-z
1/2+x,1/2-y,z
loop_
_atom_site_type_symbol
_atom_site_label
_atom_site_fract_x
_atom_site_fract_y
_atom_site_fract_z
Si Si1 0.142627 0.707661 0.587594
Si Si2 0.590701 0.700456 0.500723
Si Si3 0.924790 0.795053 0.720405
Si Si4 0.187008 0.204923 0.687977
Si Si5 0.064399 0.211628 0.971305
Si Si6 0.796158 0.299798 0.775814
Si Si7 0.123626 0.212345 0.045927
O O1 0.140639 0.500000 0.587340
O O2 0.089103 0.779932 0.594530
O O3 0.132799 0.763245 0.688591
O O4 0.228662 0.775844 0.446910
O O5 0.597565 0.500000 0.470209
O O6 0.509474 0.774243 0.582532
O O7 0.665833 0.785788 0.360222
O O8 0.859341 0.773646 0.747290
O O9 0.937054 0.000000 0.713292
O O10 0.897945 0.726982 0.839812
O O11 0.144994 0.266691 0.821469
O O12 0.196322 0.000000 0.683006
O O13 0.065995 0.267297 0.057087
O O14 0.061429 0.000000 0.975232
O O15 0.000000 0.271506 0.000000
O O16 0.789888 0.500000 0.803859
O O17 0.710307 0.228970 0.905070
O O18 0.123107 0.000000 0.046840
#
# Coordination Sequence:
#
# PCOD9193797 Si02
#       7
#     8   8   8   8   8   8   8
#     4  10  20  34  54  80 112 150 189 235 284 337
#     4  11  23  37  58  86 116 150 191 237 287 341
#     4  10  22  39  60  85 116 149 192 244 286 336
#     4   9  18  33  53  80 111 146 191 235 279 333
#     4   9  17  29  53  83 110 141 185 233 274 323
#     4  11  22  38  61  85 116 152 189 236 292 351
#     4   9  19  36  57  85 116 150 191 238 288 336
#
# _framework density 23.893013
#
# number of rings (size 3 to 8) (size 9 to 14) (size 15 to 20)
#    0.000    2.143    0.000    3.000    2.000    5.714 
#    0.000    0.714    0.000    1.286    0.000    0.000 
#    0.000    0.000    0.000    0.000    0.000    0.000 
#
# Total GULP energy -156475.535327 kJ/mol
# GULP energy per Si atom -5588.411976 kJ/mol
# Density = 2.383863 g / cm^3
# Si number density = 23.893013 Si / 1000 Ang^3
#
#
#
# Elastic Constant Matrix: (Units=GPa)
#
#
# Indices 1 2 3 4 5 6 
#
# 1 87.2905 -24.0409 -1.8811 0.0105 8.2321 0.0002
# 2 -24.0409 29.2863 -1.8547 -0.0041 -2.9125 -0.0023
# 3 -1.8811 -1.8547 54.1246 0.0024 4.4037 -0.0003
# 4 0.0105 -0.0041 0.0024 10.7978 0.0027 5.2292
# 5 8.2321 -2.9125 4.4037 0.0027 42.3784 -0.0005
# 6 0.0002 -0.0023 -0.0003 5.2292 -0.0005 16.9352
#
#
#
# Elastic Compliance Matrix: (Units=1/GPa)
#
#
# Indices 1 2 3 4 5 6 
#
# 1 0.015049 0.012206 0.001120 -0.000012 -0.002201 0.000005
# 2 0.012206 0.044334 0.001905 0.000002 0.000478 0.000006
# 3 0.001120 0.001905 0.018746 -0.000005 -0.002035 0.000002
# 4 -0.000012 0.000002 -0.000005 0.108895 -0.000004 -0.033625
# 5 -0.002201 0.000478 -0.002035 -0.000004 0.024269 0.000002
# 6 0.000005 0.000006 0.000002 -0.033625 0.000002 0.069431
#
#
# Mechanical properties :
#
#
# Convention : Reuss Voigt Hill
#
# Bulk Modulus (GPa) = 9.20891 12.79422 11.00156
# Shear Modulus (GPa) = 17.45451 27.25414 22.35433
#
# Velocity S-wave (km/s) = 2.70576 3.38105 3.06208
# Velocity P-wave (km/s) = 3.69109 4.53965 4.13718
#
# Compressibility (1/GPa) = 0.10859047
#
# Stress axis : x y z
#
# Youngs Moduli (GPa) = 66.44782 22.55626 53.34571
#
# Poissons Ratio (x) = -0.27532 -0.05977
# Poissons Ratio (y) = -0.81106 -0.10160
# Poissons Ratio (z) = -0.07445 -0.04296
#
# Static dielectric constant tensor:
#      x y z
#    x 1.906400 0.000000 -0.036610 
#    y 0.000000 1.867890 0.000010 
#    z -0.036610 0.000010 1.928140 
# 
# From -- ./inp_files/292363.got.cif
#   From: 2010.05.17/outbox.cif.g08.bks.cpg/sg12_147_cif.got.tgz:292363.got - 2010.06.03 13:09:07.
