data_PCOD9193792
_publ_section_title
;
Structure prediction by ZEFSAII (Michael W. Deem and Ramdas Pophale) SiO2 
 PCOD9193792
Probable space group: C 2/M
;
_chemical_formula_sum "Si O2"
_cell_formula_units_Z 64
_cell_length_a 29.034467
_cell_length_b 7.765187
_cell_length_c 21.428555
_cell_angle_alpha 90.000000
_cell_angle_beta 36.449313
_cell_angle_gamma 90.000000
_cell_volume 2870.295181
_symmetry_space_group_name_H-M "C 2/M"
_symmetry_group_IT_number 12
_symmetry_cell_setting 'monoclinic'
loop_
_space_group_symop_operation_xyz
x,y,z
-x,y,-z
-x,-y,-z
x,-y,z
1/2+x,1/2+y,z
1/2-x,1/2+y,-z
1/2-x,1/2-y,-z
1/2+x,1/2-y,z
loop_
_atom_site_type_symbol
_atom_site_label
_atom_site_fract_x
_atom_site_fract_y
_atom_site_fract_z
Si Si1 0.754541 0.291208 0.615024
Si Si2 0.893724 0.210797 0.290495
Si Si3 0.911895 0.700190 0.745494
Si Si4 0.468006 0.701986 0.938452
Si Si5 0.831928 0.198947 0.168568
Si Si6 0.230956 0.199072 0.165241
Si Si7 0.636275 0.208051 0.066116
Si Si8 0.426660 0.701582 0.392524
O O1 0.759201 0.500000 0.611612
O O2 0.694984 0.240924 0.625123
O O3 0.712014 0.227345 0.724060
O O4 0.840939 0.225065 0.512752
O O5 0.924194 0.272699 0.324208
O O6 0.948481 0.270598 0.173721
O O7 0.897026 0.000000 0.287493
O O8 0.891447 0.500000 0.766794
O O9 0.859618 0.781494 0.748730
O O10 0.886608 0.773102 0.840853
O O11 0.004200 0.718348 0.642899
O O12 0.477979 0.500000 0.941889
O O13 0.418597 0.718947 0.928363
O O14 0.412174 0.775423 0.053397
O O15 0.770233 0.201632 0.179157
O O16 0.849442 0.000000 0.165529
O O17 0.249393 0.000000 0.157285
O O18 0.277151 0.250079 0.051710
O O19 0.627211 0.000000 0.076113
O O20 0.444086 0.500000 0.369593
#
# Coordination Sequence:
#
# PCOD9193792 Si02
#       8
#     8   8   8   8   8   8   8   8
#     4  10  21  38  57  79 108 146 188 229 271 319
#     4   9  18  33  56  84 112 140 179 227 275 324
#     4  11  21  34  54  81 111 143 181 223 271 325
#     4   9  16  30  53  81 112 145 177 220 270 320
#     4   9  19  35  56  80 110 147 186 224 267 319
#     4  10  20  34  54  80 112 146 180 220 267 323
#     4   9  18  31  49  78 113 146 176 214 267 324
#     4  11  22  37  56  81 111 144 183 227 275 324
#
# _framework density 22.297359
#
# number of rings (size 3 to 8) (size 9 to 14) (size 15 to 20)
#    0.000    2.250    1.250    1.875    0.000    2.000 
#    0.000    4.375    0.000    3.750    0.000    4.375 
#    0.000    0.000    0.000    0.000    0.000    0.000 
#
# Total GULP energy -178671.986531 kJ/mol
# GULP energy per Si atom -5583.499579 kJ/mol
# Density = 2.224661 g / cm^3
# Si number density = 22.297359 Si / 1000 Ang^3
#
#
#
# Elastic Constant Matrix: (Units=GPa)
#
#
# Indices 1 2 3 4 5 6 
#
# 1 51.7751 -1.6955 31.7037 0.0073 -16.8375 0.0013
# 2 -1.6955 42.3860 -3.7412 0.0283 1.0044 -0.0200
# 3 31.7037 -3.7412 125.4657 0.0218 -12.1070 -0.0139
# 4 0.0073 0.0283 0.0218 17.2737 -0.0059 2.7463
# 5 -16.8375 1.0044 -12.1070 -0.0059 38.5762 0.0013
# 6 0.0013 -0.0200 -0.0139 2.7463 0.0013 2.2632
#
#
#
# Elastic Compliance Matrix: (Units=1/GPa)
#
#
# Indices 1 2 3 4 5 6 
#
# 1 0.025851 0.000314 -0.005605 0.000009 0.009516 -0.000063
# 2 0.000314 0.023665 0.000598 -0.000091 -0.000291 0.000323
# 3 -0.005605 0.000598 0.009453 -0.000026 0.000505 0.000098
# 4 0.000009 -0.000091 -0.000026 0.071731 0.000012 -0.087046
# 5 0.009516 -0.000291 0.000505 0.000012 0.030242 -0.000037
# 6 -0.000063 0.000323 0.000098 -0.087046 -0.000037 0.547494
#
#
# Mechanical properties :
#
#
# Convention : Reuss Voigt Hill
#
# Bulk Modulus (GPa) = 20.16763 30.24010 25.20386
# Shear Modulus (GPa) = 6.80874 24.51326 15.66100
#
# Velocity S-wave (km/s) = 1.74935 3.31929 2.65310
# Velocity P-wave (km/s) = 3.62558 5.31807 4.55119
#
# Compressibility (1/GPa) = 0.04958442
#
# Stress axis : x y z
#
# Youngs Moduli (GPa) = 38.68289 42.25620 105.78522
#
# Poissons Ratio (x) = -0.01326 0.59289
# Poissons Ratio (y) = -0.01214 -0.06329
# Poissons Ratio (z) = 0.21680 -0.02528
#
# Static dielectric constant tensor:
#      x y z
#    x 1.816310 0.000010 0.001570 
#    y 0.000010 1.885470 0.000020 
#    z 0.001570 0.000020 1.849180 
# 
# From -- ./inp_files/353310.got.cif
#   From: 2010.05.17/outbox.cif.g08.bks.cpg/sg12_177_cif.got.tgz:353310.got - 2010.06.03 13:09:07.
