data_PCOD9193851
_publ_section_title
;
Structure prediction by ZEFSAII (Michael W. Deem and Ramdas Pophale) SiO2 
 PCOD9193851
Probable space group: C 2/M
;
_chemical_formula_sum "Si O2"
_cell_formula_units_Z 48
_cell_length_a 22.504551
_cell_length_b 11.832091
_cell_length_c 7.163084
_cell_angle_alpha 90.000000
_cell_angle_beta 74.133296
_cell_angle_gamma 90.000000
_cell_volume 1834.686990
_symmetry_space_group_name_H-M "C 2/M"
_symmetry_group_IT_number 12
_symmetry_cell_setting 'monoclinic'
loop_
_space_group_symop_operation_xyz
x,y,z
-x,y,-z
-x,-y,-z
x,-y,z
1/2+x,1/2+y,z
1/2-x,1/2+y,-z
1/2-x,1/2-y,-z
1/2+x,1/2-y,z
loop_
_atom_site_type_symbol
_atom_site_label
_atom_site_fract_x
_atom_site_fract_y
_atom_site_fract_z
Si Si1 0.518769 0.873779 0.207595
Si Si2 0.738389 0.149623 0.271991
Si Si3 0.420929 0.373056 0.822480
Si Si4 0.874068 0.119108 0.279431
Si Si5 0.778921 0.119288 0.818113
Si Si6 0.117059 0.621476 0.598106
O O1 0.549009 0.751381 0.233283
O O2 0.455607 0.882909 0.379355
O O3 0.550231 0.000000 0.197660
O O4 0.500000 0.865413 0.000000
O O5 0.801652 0.107046 0.300590
O O6 0.743861 0.283460 0.292041
O O7 0.671859 0.115917 0.401529
O O8 0.743982 0.127221 0.045510
O O9 0.446720 0.500000 0.747144
O O10 0.351681 0.367450 0.796147
O O11 0.410853 0.380163 0.053247
O O12 0.880186 0.247367 0.341314
O O13 0.892791 0.000000 0.362929
O O14 0.767251 0.000000 0.740303
O O15 0.126026 0.500000 0.701004
#
# Coordination Sequence:
#
# PCOD9193851 Si02
#       6
#     8   8   8   8   8   8
#     4  10  20  35  53  78 112 144 180 220 262 318
#     4  10  20  35  55  79 109 142 177 218 272 321
#     4   9  18  35  58  81 105 139 183 224 267 314
#     4  10  20  34  54  81 112 140 175 222 269 322
#     4   9  19  37  58  79 106 140 181 227 266 317
#     4  11  22  35  54  80 113 146 177 219 269 320
#
# _framework density 26.162499
#
# number of rings (size 3 to 8) (size 9 to 14) (size 15 to 20)
#    0.000    2.167    1.667    3.000    0.000    2.333 
#    0.000    9.167    0.000    4.000    0.000    0.000 
#    0.000    0.000    0.000    0.000    0.000    0.000 
#
# Total GULP energy -133746.241727 kJ/mol
# GULP energy per Si atom -5572.760072 kJ/mol
# Density = 2.610295 g / cm^3
# Si number density = 26.162499 Si / 1000 Ang^3
#
#
#
# Elastic Constant Matrix: (Units=GPa)
#
#
# Indices 1 2 3 4 5 6 
#
# 1 71.0902 56.8874 37.2903 0.0000 -28.3958 0.0000
# 2 56.8874 380.1690 39.2929 0.0000 -10.4735 0.0000
# 3 37.2903 39.2929 76.2369 0.0000 -21.0383 0.0000
# 4 0.0000 0.0000 0.0000 24.3784 0.0000 8.8561
# 5 -28.3958 -10.4735 -21.0383 0.0000 37.0872 0.0000
# 6 0.0000 0.0000 0.0000 8.8561 0.0000 3.5988
#
#
#
# Elastic Compliance Matrix: (Units=1/GPa)
#
#
# Indices 1 2 3 4 5 6 
#
# 1 0.026053 -0.002742 -0.007160 0.000000 0.015111 0.000000
# 2 -0.002742 0.003067 -0.000687 0.000000 -0.001623 0.000000
# 3 -0.007160 -0.000687 0.018267 0.000000 0.004686 0.000000
# 4 0.000000 0.000000 0.000000 0.386897 0.000000 -0.952103
# 5 0.015111 -0.001623 0.004686 0.000000 0.040733 0.000000
# 6 0.000000 0.000000 0.000000 -0.952103 0.000000 2.620870
#
#
# Mechanical properties :
#
#
# Convention : Reuss Voigt Hill
#
# Bulk Modulus (GPa) = 38.15734 88.27078 63.21406
# Shear Modulus (GPa) = 1.59959 39.28125 20.44042
#
# Velocity S-wave (km/s) = 0.78277 3.87904 2.79818
# Velocity P-wave (km/s) = 3.92853 7.33998 5.88679
#
# Compressibility (1/GPa) = 0.02620728
#
# Stress axis : x y z
#
# Youngs Moduli (GPa) = 38.38403 326.04483 54.74458
#
# Poissons Ratio (x) = 0.89405 0.39196
# Poissons Ratio (y) = 0.10525 0.03764
# Poissons Ratio (z) = 0.27483 0.22415
#
# Static dielectric constant tensor:
#      x y z
#    x 2.027170 0.000000 0.042560 
#    y 0.000000 2.166690 0.000000 
#    z 0.042560 0.000000 2.071160 
# 
# From -- ./inp_files/102413.got.cif
#   From: 2010.05.17/outbox.cif.g08.bks.cpg/sg12_52_cif.got.tgz:102413.got - 2010.06.03 13:09:07.
