data_PCOD9193976
_publ_section_title
;
Structure prediction by ZEFSAII (Michael W. Deem and Ramdas Pophale) SiO2 
 PCOD9193976
Probable space group: C 2/M
;
_chemical_formula_sum "Si O2"
_cell_formula_units_Z 48
_cell_length_a 22.150986
_cell_length_b 7.839005
_cell_length_c 21.732764
_cell_angle_alpha 90.000000
_cell_angle_beta 146.434592
_cell_angle_gamma 90.000000
_cell_volume 2086.443291
_symmetry_space_group_name_H-M "C 2/M"
_symmetry_group_IT_number 12
_symmetry_cell_setting 'monoclinic'
loop_
_space_group_symop_operation_xyz
x,y,z
-x,y,-z
-x,-y,-z
x,-y,z
1/2+x,1/2+y,z
1/2-x,1/2+y,-z
1/2-x,1/2-y,-z
1/2+x,1/2-y,z
loop_
_atom_site_type_symbol
_atom_site_label
_atom_site_fract_x
_atom_site_fract_y
_atom_site_fract_z
Si Si1 0.683097 0.698573 0.750778
Si Si2 0.710801 0.798228 0.338667
Si Si3 0.166454 0.701419 0.875982
Si Si4 0.442033 0.698073 0.537208
Si Si5 0.403601 0.303401 0.876485
Si Si6 0.579303 0.794525 0.340504
O O1 0.690183 0.500000 0.737425
O O2 0.685569 0.707542 0.827042
O O3 0.563466 0.769369 0.629295
O O4 0.789243 0.790089 0.815294
O O5 0.828012 0.727067 0.415812
O O6 0.620061 0.777288 0.209607
O O7 0.668075 0.728832 0.367426
O O8 0.727165 0.000000 0.361527
O O9 0.175276 0.500000 0.870981
O O10 0.041600 0.736171 0.789293
O O11 0.250000 0.750000 0.000000
O O12 0.449431 0.500000 0.525082
O O13 0.421969 0.710825 0.593707
O O14 0.431907 0.500000 0.889113
O O15 0.500000 0.226716 0.000000
O O16 0.591340 0.000000 0.358790
#
# Coordination Sequence:
#
# PCOD9193976 Si02
#       6
#     8   8   8   8   8   8
#     4  10  21  39  61  84 113 152 191 237 291 343
#     4  10  21  38  60  87 118 155 193 233 283 344
#     4  10  20  34  54  84 117 153 195 240 286 337
#     4   9  19  36  60  90 120 149 188 234 286 342
#     4  11  26  44  59  82 113 150 196 245 292 341
#     4   9  19  34  55  86 120 152 190 232 282 341
#
# _framework density 23.005658
#
# number of rings (size 3 to 8) (size 9 to 14) (size 15 to 20)
#    0.000    2.167    0.000    2.000    2.333    4.667 
#    0.000    3.333    0.000    0.000    0.000    0.000 
#    0.000    0.000    0.000    0.000    0.000    0.000 
#
# Total GULP energy -134077.703450 kJ/mol
# GULP energy per Si atom -5586.570977 kJ/mol
# Density = 2.295330 g / cm^3
# Si number density = 23.005658 Si / 1000 Ang^3
#
#
#
# Elastic Constant Matrix: (Units=GPa)
#
#
# Indices 1 2 3 4 5 6 
#
# 1 98.7257 -3.8690 22.6122 0.0000 9.7584 0.0000
# 2 -3.8690 32.4340 6.5225 0.0000 5.4990 0.0000
# 3 22.6122 6.5225 136.9295 0.0000 3.7885 0.0000
# 4 0.0000 0.0000 0.0000 7.1167 0.0000 2.8425
# 5 9.7584 5.4990 3.7885 0.0000 24.0643 0.0000
# 6 0.0000 0.0000 0.0000 2.8425 0.0000 19.7878
#
#
#
# Elastic Compliance Matrix: (Units=1/GPa)
#
#
# Indices 1 2 3 4 5 6 
#
# 1 0.011119 0.002506 -0.001823 0.000000 -0.004794 0.000000
# 2 0.002506 0.032883 -0.001752 0.000000 -0.008254 0.000000
# 3 -0.001823 -0.001752 0.007689 0.000000 -0.000071 0.000000
# 4 0.000000 0.000000 0.000000 0.149067 0.000000 -0.021413
# 5 -0.004794 -0.008254 -0.000071 0.000000 0.045397 0.000000
# 6 0.000000 0.000000 0.000000 -0.021413 0.000000 0.053612
#
#
# Mechanical properties :
#
#
# Convention : Reuss Voigt Hill
#
# Bulk Modulus (GPa) = 20.18041 35.40229 27.79135
# Shear Modulus (GPa) = 15.70244 26.38199 21.04221
#
# Velocity S-wave (km/s) = 2.61539 3.39006 3.02761
# Velocity P-wave (km/s) = 4.23218 5.54484 4.93237
#
# Compressibility (1/GPa) = 0.04955301
#
# Stress axis : x y z
#
# Youngs Moduli (GPa) = 89.93878 30.41130 130.04821
#
# Poissons Ratio (x) = -0.07620 0.23705
# Poissons Ratio (y) = -0.22536 0.22781
# Poissons Ratio (z) = 0.16394 0.05327
#
# Static dielectric constant tensor:
#      x y z
#    x 1.858200 0.000000 0.019930 
#    y 0.000000 1.855950 0.000000 
#    z 0.019930 0.000000 1.898180 
# 
# From -- ./inp_files/348898.got.cif
#   From: 2010.05.17/outbox.cif.g08.bks.cpg/sg12_175_cif.got.tgz:348898.got - 2010.06.03 13:09:07.
