data_PCOD9193581
_publ_section_title
;
Structure prediction by ZEFSAII (Michael W. Deem and Ramdas Pophale) SiO2 
 PCOD9193581
Probable space group: C 2/M
;
_chemical_formula_sum "Si O2"
_cell_formula_units_Z 56
_cell_length_a 21.850710
_cell_length_b 14.217372
_cell_length_c 24.372195
_cell_angle_alpha 90.000000
_cell_angle_beta 161.203463
_cell_angle_gamma 90.000000
_cell_volume 2439.588000
_symmetry_space_group_name_H-M "C 2/M"
_symmetry_group_IT_number 12
_symmetry_cell_setting 'monoclinic'
loop_
_space_group_symop_operation_xyz
x,y,z
-x,y,-z
-x,-y,-z
x,-y,z
1/2+x,1/2+y,z
1/2-x,1/2+y,-z
1/2-x,1/2-y,-z
1/2+x,1/2-y,z
loop_
_atom_site_type_symbol
_atom_site_label
_atom_site_fract_x
_atom_site_fract_y
_atom_site_fract_z
Si Si1 0.830920 0.846777 0.131562
Si Si2 0.298278 0.885236 0.301298
Si Si3 0.357354 0.107886 0.923047
Si Si4 0.124353 0.109356 0.039911
Si Si5 0.714743 0.657646 0.508449
Si Si6 0.374745 0.868522 0.146343
Si Si7 0.450948 0.391780 0.520665
O O1 0.678313 0.837979 0.051023
O O2 0.884504 0.744960 0.154044
O O3 0.023702 0.887248 0.320981
O O4 0.733524 0.899878 0.999564
O O5 0.500000 0.854045 0.500000
O O6 0.252448 0.852453 0.199546
O O7 0.311392 0.000000 0.313564
O O8 0.093508 0.856310 0.154163
O O9 0.156739 0.103252 0.722911
O O10 0.418763 0.000000 0.987964
O O11 0.500000 0.149922 0.000000
O O12 0.250347 0.111077 0.093284
O O13 0.097362 0.000000 0.031201
O O14 0.750000 0.750000 0.500000
O O15 0.671995 0.666305 0.538164
O O16 0.908526 0.601067 0.667046
O O17 0.500000 0.360113 0.500000
O O18 0.374207 0.500000 0.452042
#
# Coordination Sequence:
#
# PCOD9193581 Si02
#       7
#     8   8   8   8   8   8   8
#     4   9  20  37  51  72 102 139 176 211 261 322
#     4   8  15  31  52  71 102 140 166 206 265 308
#     4   9  18  33  53  77 104 133 169 220 273 322
#     4   9  18  31  49  79 106 130 177 221 255 311
#     4   9  19  36  55  72 107 146 181 219 269 334
#     4  10  20  34  54  74 103 144 176 218 266 309
#     4   9  18  32  53  83 112 138 178 232 284 331
#
# _framework density 22.954695999999998
#
# number of rings (size 3 to 8) (size 9 to 14) (size 15 to 20)
#    0.000    3.000    0.000    0.857    2.000    2.286 
#    2.571    0.000    0.000    7.714    0.000    0.000 
#    0.000    0.571    0.000    0.000    0.000    0.000 
#
# Total GULP energy -155888.529909 kJ/mol
# GULP energy per Si atom -5567.447497 kJ/mol
# Density = 2.290245 g / cm^3
# Si number density = 22.954696 Si / 1000 Ang^3
#
#
#
# Elastic Constant Matrix: (Units=GPa)
#
#
# Indices 1 2 3 4 5 6 
#
# 1 199.5237 8.5817 104.4598 0.0331 8.4860 -0.0066
# 2 8.5817 80.4876 13.7682 0.1039 -5.2761 -0.0205
# 3 104.4598 13.7682 198.9278 0.0394 4.6484 -0.0189
# 4 0.0331 0.1039 0.0394 -71.7307 -0.0183 29.5179
# 5 8.4860 -5.2761 4.6484 -0.0183 35.9537 -0.0022
# 6 -0.0066 -0.0205 -0.0189 29.5179 -0.0022 21.6854
#
#
#
# Elastic Compliance Matrix: (Units=1/GPa)
#
#
# Indices 1 2 3 4 5 6 
#
# 1 0.006965 -0.000203 -0.003615 0.000000 -0.001206 -0.000002
# 2 -0.000203 0.012719 -0.000821 0.000014 0.002021 -0.000008
# 3 -0.003615 -0.000821 0.006986 0.000002 -0.000170 0.000002
# 4 0.000000 0.000014 0.000002 -0.008936 -0.000002 0.012163
# 5 -0.001206 0.002021 -0.000170 -0.000002 0.028417 0.000007
# 6 -0.000002 -0.000008 0.000002 0.012163 0.000007 0.029558
#
#
# Mechanical properties :
#
#
# Convention : Reuss Voigt Hill
#
# Bulk Modulus (GPa) = 57.49975 81.39539 69.44757
# Shear Modulus (GPa) = 55.07633 20.65696 37.86664
#
# Velocity S-wave (km/s) = 4.90363 3.00309 4.06596
# Velocity P-wave (km/s) = 7.56071 6.89644 7.23620
#
# Compressibility (1/GPa) = 0.01739138
#
# Stress axis : x y z
#
# Youngs Moduli (GPa) = 143.58397 78.62389 143.14360
#
# Poissons Ratio (x) = 0.01598 0.51745
# Poissons Ratio (y) = 0.02919 0.11749
# Poissons Ratio (z) = 0.51905 0.06453
#
# Static dielectric constant tensor:
#      x y z
#    x 1.843530 0.000000 -0.015330 
#    y 0.000000 1.939700 -0.000010 
#    z -0.015330 -0.000010 1.874130 
# 
# From -- ./inp_files/347828.got.cif
#   From: 2010.05.17/outbox.cif.g08.bks.cpg/sg12_174_cif.got.tgz:347828.got - 2010.06.03 13:09:07.
