data_PCOD9193587
_publ_section_title
;
Structure prediction by ZEFSAII (Michael W. Deem and Ramdas Pophale) SiO2 
 PCOD9193587
Probable space group: C 2/M
;
_chemical_formula_sum "Si O2"
_cell_formula_units_Z 48
_cell_length_a 36.276047
_cell_length_b 8.431484
_cell_length_c 7.513363
_cell_angle_alpha 90.000000
_cell_angle_beta 99.321604
_cell_angle_gamma 90.000000
_cell_volume 2267.697709
_symmetry_space_group_name_H-M "C 2/M"
_symmetry_group_IT_number 12
_symmetry_cell_setting 'monoclinic'
loop_
_space_group_symop_operation_xyz
x,y,z
-x,y,-z
-x,-y,-z
x,-y,z
1/2+x,1/2+y,z
1/2-x,1/2+y,-z
1/2-x,1/2-y,-z
1/2+x,1/2-y,z
loop_
_atom_site_type_symbol
_atom_site_label
_atom_site_fract_x
_atom_site_fract_y
_atom_site_fract_z
Si Si1 0.455883 0.333642 0.426224
Si Si2 0.955313 0.500000 0.423831
Si Si3 0.156352 0.192192 0.910638
Si Si4 0.298941 0.309126 0.375184
Si Si5 0.925433 0.819862 0.009382
Si Si6 0.718017 0.307590 0.240553
Si Si7 0.543734 0.000000 0.003670
O O1 0.500000 0.334895 0.500000
O O2 0.439230 0.500000 0.480001
O O3 0.450173 0.333095 0.208662
O O4 0.440009 0.167014 0.480859
O O5 0.949742 0.500000 0.205653
O O6 0.000000 0.500000 0.500000
O O7 0.189109 0.245373 0.068338
O O8 0.157380 0.000000 0.907490
O O9 0.167164 0.248281 0.721673
O O10 0.115769 0.227897 0.954588
O O11 0.300167 0.500000 0.381427
O O12 0.297143 0.254842 0.577569
O O13 0.259693 0.258930 0.256028
O O14 0.940615 0.668336 0.914713
O O15 0.924757 0.000000 0.931137
O O16 0.719986 0.500000 0.239215
O O17 0.500000 0.000000 0.000000
#
# Coordination Sequence:
#
# PCOD9193587 Si02
#       7
#     8   4   8   8   8   8   4
#     4   8  13  23  43  68  90 116 157 198 241 297
#     4   8  14  26  46  66  88 120 148 194 246 286
#     4   9  17  31  51  72 103 139 173 211 268 322
#     4   9  17  30  49  74 102 138 177 216 258 308
#     4   9  18  33  52  74 104 137 169 218 270 317
#     4   9  17  30  49  73 104 138 175 218 256 308
#     4  10  20  34  54  76 100 132 176 212 266 326
#
# _framework density 21.166841000000002
#
# number of rings (size 3 to 8) (size 9 to 14) (size 15 to 20)
#    0.000    3.167    0.000    0.500    0.000    0.333 
#    3.000    0.000   14.667    0.000    0.000    0.000 
#    0.000    0.000    0.000    0.000    0.000    0.000 
#
# Total GULP energy -133637.854089 kJ/mol
# GULP energy per Si atom -5568.243920 kJ/mol
# Density = 2.111866 g / cm^3
# Si number density = 21.166841 Si / 1000 Ang^3
#
#
#
# Elastic Constant Matrix: (Units=GPa)
#
#
# Indices 1 2 3 4 5 6 
#
# 1 41.0022 19.3422 10.3091 0.0000 -22.0422 0.0000
# 2 19.3422 146.6941 3.1077 0.0000 -19.2979 0.0000
# 3 10.3091 3.1077 46.7697 0.0000 -0.8959 0.0000
# 4 0.0000 0.0000 0.0000 0.4930 0.0000 4.1543
# 5 -22.0422 -19.2979 -0.8959 0.0000 20.2514 0.0000
# 6 0.0000 0.0000 0.0000 4.1543 0.0000 25.3305
#
#
#
# Elastic Compliance Matrix: (Units=1/GPa)
#
#
# Indices 1 2 3 4 5 6 
#
# 1 0.066174 0.001090 -0.013270 0.000000 0.072477 0.000000
# 2 0.001090 0.007819 -0.000595 0.000000 0.008611 0.000000
# 3 -0.013270 -0.000595 0.024079 0.000000 -0.013945 0.000000
# 4 0.000000 0.000000 0.000000 -5.311097 0.000000 0.871036
# 5 0.072477 0.008611 -0.013945 0.000000 0.135854 0.000000
# 6 0.000000 0.000000 0.000000 0.871036 0.000000 -0.103374
#
#
# Mechanical properties :
#
#
# Convention : Reuss Voigt Hill
#
# Bulk Modulus (GPa) = 13.78898 33.33156 23.56027
# Shear Modulus (GPa) = -0.97450 22.66212 10.84381
#
# Velocity S-wave (km/s) = -0.67926 3.27562 2.26586
# Velocity P-wave (km/s) = 2.43174 5.48520 4.24269
#
# Compressibility (1/GPa) = 0.07252166
#
# Stress axis : x y z
#
# Youngs Moduli (GPa) = 15.11170 127.90158 41.53029
#
# Poissons Ratio (x) = -0.13946 0.55112
# Poissons Ratio (y) = -0.01648 0.02471
# Poissons Ratio (z) = 0.20054 0.07609
#
# Static dielectric constant tensor:
#      x y z
#    x 1.724810 0.000000 0.001450 
#    y 0.000000 1.844590 0.000000 
#    z 0.001450 0.000000 1.752950 
# 
# From -- ./inp_files/108838.got.cif
#   From: 2010.05.17/outbox.cif.g08.bks.cpg/sg12_55_cif.got.tgz:108838.got - 2010.06.03 13:09:07.
