data_PCOD9193848
_publ_section_title
;
Structure prediction by ZEFSAII (Michael W. Deem and Ramdas Pophale) SiO2 
 PCOD9193848
Probable space group: C 2/M
;
_chemical_formula_sum "Si O2"
_cell_formula_units_Z 64
_cell_length_a 25.573447
_cell_length_b 8.297718
_cell_length_c 15.698368
_cell_angle_alpha 90.000000
_cell_angle_beta 70.920572
_cell_angle_gamma 90.000000
_cell_volume 3148.217590
_symmetry_space_group_name_H-M "C 2/M"
_symmetry_group_IT_number 12
_symmetry_cell_setting 'monoclinic'
loop_
_space_group_symop_operation_xyz
x,y,z
-x,y,-z
-x,-y,-z
x,-y,z
1/2+x,1/2+y,z
1/2-x,1/2+y,-z
1/2-x,1/2-y,-z
1/2+x,1/2-y,z
loop_
_atom_site_type_symbol
_atom_site_label
_atom_site_fract_x
_atom_site_fract_y
_atom_site_fract_z
Si Si1 0.144732 0.808532 0.692652
Si Si2 0.188006 0.189606 0.016895
Si Si3 0.400755 0.305076 0.798238
Si Si4 0.476590 0.181331 0.258561
Si Si5 0.833259 0.814910 0.507815
Si Si6 0.703248 0.809993 0.829872
Si Si7 0.550258 0.184203 0.529658
Si Si8 0.319494 0.302906 0.698783
O O1 0.167373 0.745055 0.588023
O O2 0.174239 0.726497 0.756074
O O3 0.078867 0.777307 0.736560
O O4 0.154146 0.000000 0.688909
O O5 0.175276 0.226490 0.925309
O O6 0.189001 0.000000 0.030305
O O7 0.250000 0.250000 0.000000
O O8 0.142379 0.254245 0.106942
O O9 0.401038 0.500000 0.796393
O O10 0.462433 0.250305 0.788379
O O11 0.375055 0.252795 0.719868
O O12 0.471222 0.173996 0.363284
O O13 0.472337 0.000000 0.225896
O O14 0.897961 0.801963 0.497861
O O15 0.808327 0.741979 0.608048
O O16 0.814659 0.000000 0.510820
O O17 0.767084 0.757844 0.784368
O O18 0.703228 0.000000 0.846308
O O19 0.500000 0.241983 0.500000
O O20 0.566311 0.000000 0.495169
O O21 0.320581 0.500000 0.692360
#
# Coordination Sequence:
#
# PCOD9193848 Si02
#       8
#     8   8   8   8   8   8   8   8
#     4  10  21  38  57  81 113 153 197 238 279 332
#     4  11  22  39  62  89 118 149 185 229 285 343
#     4  10  20  36  58  85 117 149 182 229 286 339
#     4  10  20  34  54  81 111 149 190 232 281 334
#     4   9  18  32  52  76 107 148 193 232 270 329
#     4  11  22  39  61  84 113 152 191 237 288 339
#     4   9  17  29  45  70 108 145 182 230 281 327
#     4   9  18  34  55  83 116 150 188 232 285 338
#
# _framework density 20.328965
#
# number of rings (size 3 to 8) (size 9 to 14) (size 15 to 20)
#    0.000    2.125    1.250    2.250    0.000    2.750 
#    0.000    1.875    0.000    3.750    0.000    0.000 
#    0.000    0.000    0.000    0.000    0.000    0.000 
#
# Total GULP energy -178409.072121 kJ/mol
# GULP energy per Si atom -5575.283504 kJ/mol
# Density = 2.028269 g / cm^3
# Si number density = 20.328965 Si / 1000 Ang^3
#
#
#
# Elastic Constant Matrix: (Units=GPa)
#
#
# Indices 1 2 3 4 5 6 
#
# 1 24.5782 -9.6180 11.2045 0.0000 -1.9017 0.0000
# 2 -9.6180 19.4213 -1.7243 0.0000 -6.6112 0.0000
# 3 11.2045 -1.7243 90.5528 0.0000 -3.2480 0.0000
# 4 0.0000 0.0000 0.0000 17.7435 0.0000 3.1994
# 5 -1.9017 -6.6112 -3.2480 0.0000 30.8548 0.0000
# 6 0.0000 0.0000 0.0000 3.1994 0.0000 25.4846
#
#
#
# Elastic Compliance Matrix: (Units=1/GPa)
#
#
# Indices 1 2 3 4 5 6 
#
# 1 0.056050 0.030401 -0.006022 0.000000 0.009335 0.000000
# 2 0.030401 0.072231 -0.001771 0.000000 0.017164 0.000000
# 3 -0.006022 -0.001771 0.011772 0.000000 0.000489 0.000000
# 4 0.000000 0.000000 0.000000 0.057664 0.000000 -0.007239
# 5 0.009335 0.017164 0.000489 0.000000 0.036714 0.000000
# 6 0.000000 0.000000 0.000000 -0.007239 0.000000 0.040148
#
#
# Mechanical properties :
#
#
# Convention : Reuss Voigt Hill
#
# Bulk Modulus (GPa) = 5.39751 14.91962 10.15857
# Shear Modulus (GPa) = 17.17507 23.79591 20.48549
#
# Velocity S-wave (km/s) = 2.90980 3.42503 3.17787
# Velocity P-wave (km/s) = 3.73498 4.79543 4.29803
#
# Compressibility (1/GPa) = 0.18527052
#
# Stress axis : x y z
#
# Youngs Moduli (GPa) = 17.84109 13.84451 84.94596
#
# Poissons Ratio (x) = -0.42088 0.51152
# Poissons Ratio (y) = -0.54238 0.15040
# Poissons Ratio (z) = 0.10743 0.02451
#
# Static dielectric constant tensor:
#      x y z
#    x 1.738650 0.000000 -0.000780 
#    y 0.000000 1.743130 0.000000 
#    z -0.000780 0.000000 1.773350 
# 
# From -- ./inp_files/243859.got.cif
#   From: 2010.05.17/outbox.cif.g08.bks.cpg/sg12_122_cif.got.tgz:243859.got - 2010.06.03 13:09:07.
