data_PCOD9193399
_publ_section_title
;
Structure prediction by ZEFSAII (Michael W. Deem and Ramdas Pophale) SiO2 
 PCOD9193399
Probable space group: C 2/M
;
_chemical_formula_sum "Si O2"
_cell_formula_units_Z 40
_cell_length_a 13.642522
_cell_length_b 8.088701
_cell_length_c 19.009719
_cell_angle_alpha 90.000000
_cell_angle_beta 49.510428
_cell_angle_gamma 90.000000
_cell_volume 1595.372692
_symmetry_space_group_name_H-M "C 2/M"
_symmetry_group_IT_number 12
_symmetry_cell_setting 'monoclinic'
loop_
_space_group_symop_operation_xyz
x,y,z
-x,y,-z
-x,-y,-z
x,-y,z
1/2+x,1/2+y,z
1/2-x,1/2+y,-z
1/2-x,1/2-y,-z
1/2+x,1/2-y,z
loop_
_atom_site_type_symbol
_atom_site_label
_atom_site_fract_x
_atom_site_fract_y
_atom_site_fract_z
Si Si1 0.336920 0.176163 0.230689
Si Si2 0.958924 0.000000 0.135864
Si Si3 0.673462 0.190609 0.424660
Si Si4 0.836170 0.813796 0.821377
Si Si5 0.713368 0.500000 0.925793
Si Si6 0.927594 0.699418 0.384985
O O1 0.428413 0.333935 0.193275
O O2 0.214472 0.203331 0.338579
O O3 0.284629 0.170196 0.176082
O O4 0.397832 0.000000 0.220634
O O5 0.851724 0.000000 0.122223
O O6 0.094734 0.000000 0.034065
O O7 0.806010 0.206378 0.408418
O O8 0.568923 0.237845 0.532926
O O9 0.654243 0.000000 0.411792
O O10 0.797198 0.666814 0.891862
O O11 0.951141 0.752448 0.717371
O O12 0.858446 0.000000 0.838009
O O13 0.909633 0.500000 0.388970
#
# Coordination Sequence:
#
# PCOD9193399 Si02
#       6
#     8   4   8   8   4   8
#     4  10  20  34  54  81 109 140 178 218 265 314
#     4   9  18  34  55  79 107 137 175 222 268 316
#     4  10  20  34  53  78 108 143 181 217 260 317
#     4  10  20  34  54  81 109 140 178 218 265 314
#     4   9  18  34  55  79 107 137 175 222 268 316
#     4  10  20  34  53  78 108 143 181 217 260 317
#
# _framework density 25.072510999999999
#
# number of rings (size 3 to 8) (size 9 to 14) (size 15 to 20)
#    0.000    2.200    2.000    1.200    0.000    4.000 
#    0.000    8.000    0.000    1.200    0.000    0.000 
#    0.000    0.000    0.000    0.000    0.000    0.000 
#
# Total GULP energy -111895.951908 kJ/mol
# GULP energy per Si atom -5594.797595 kJ/mol
# Density = 2.501544 g / cm^3
# Si number density = 25.072511 Si / 1000 Ang^3
#
#
#
# Elastic Constant Matrix: (Units=GPa)
#
#
# Indices 1 2 3 4 5 6 
#
# 1 42.7600 16.0480 -3.1297 0.0000 6.9235 0.0000
# 2 16.0480 232.6208 101.6146 0.0000 -18.0486 0.0000
# 3 -3.1297 101.6146 105.3323 0.0000 -24.8764 0.0000
# 4 0.0000 0.0000 0.0000 17.0116 0.0000 2.4277
# 5 6.9235 -18.0486 -24.8764 0.0000 41.7750 0.0000
# 6 0.0000 0.0000 0.0000 2.4277 0.0000 23.4212
#
#
#
# Elastic Compliance Matrix: (Units=1/GPa)
#
#
# Indices 1 2 3 4 5 6 
#
# 1 0.025533 -0.003448 0.003181 0.000000 -0.003827 0.000000
# 2 -0.003448 0.007950 -0.007943 0.000000 -0.000724 0.000000
# 3 0.003181 -0.007943 0.018986 0.000000 0.007347 0.000000
# 4 0.000000 0.000000 0.000000 0.059666 0.000000 -0.006185
# 5 -0.003827 -0.000724 0.007347 0.000000 0.028634 0.000000
# 6 0.000000 0.000000 0.000000 -0.006185 0.000000 0.043337
#
#
# Mechanical properties :
#
#
# Convention : Reuss Voigt Hill
#
# Bulk Modulus (GPa) = 27.73967 67.75319 47.74643
# Shear Modulus (GPa) = 23.52462 34.18690 28.85576
#
# Velocity S-wave (km/s) = 3.06643 3.69659 3.39616
# Velocity P-wave (km/s) = 4.86057 6.73062 5.87054
#
# Compressibility (1/GPa) = 0.03604945
#
# Stress axis : x y z
#
# Youngs Moduli (GPa) = 39.16524 125.78175 52.67007
#
# Poissons Ratio (x) = 0.43369 -0.16755
# Poissons Ratio (y) = 0.13504 0.41836
# Poissons Ratio (z) = -0.12459 0.99909
#
# Static dielectric constant tensor:
#      x y z
#    x 2.104100 0.000000 0.000060 
#    y 0.000000 2.064180 0.000000 
#    z 0.000060 0.000000 1.905870 
# 
# From -- ./inp_files/151909.got.cif
#   From: 2010.05.17/outbox.cif.g08.bks.cpg/sg12_76_cif.got.tgz:151909.got - 2010.06.03 13:09:07.
