data_PCOD9193592
_publ_section_title
;
Structure prediction by ZEFSAII (Michael W. Deem and Ramdas Pophale) SiO2 
 PCOD9193592
Probable space group: C 2/M
;
_chemical_formula_sum "Si O2"
_cell_formula_units_Z 40
_cell_length_a 20.908652
_cell_length_b 13.363210
_cell_length_c 7.827062
_cell_angle_alpha 90.000000
_cell_angle_beta 95.478202
_cell_angle_gamma 90.000000
_cell_volume 2176.945001
_symmetry_space_group_name_H-M "C 2/M"
_symmetry_group_IT_number 12
_symmetry_cell_setting 'monoclinic'
loop_
_space_group_symop_operation_xyz
x,y,z
-x,y,-z
-x,-y,-z
x,-y,z
1/2+x,1/2+y,z
1/2-x,1/2+y,-z
1/2-x,1/2-y,-z
1/2+x,1/2-y,z
loop_
_atom_site_type_symbol
_atom_site_label
_atom_site_fract_x
_atom_site_fract_y
_atom_site_fract_z
Si Si1 0.221668 0.386844 0.833552
Si Si2 0.426440 0.386389 0.521159
Si Si3 0.574021 0.391716 0.068211
Si Si4 0.824758 0.281330 0.493679
Si Si5 0.335877 0.223105 0.879706
O O1 0.245388 0.500000 0.829583
O O2 0.178181 0.362018 0.657552
O O3 0.279136 0.306132 0.849425
O O4 0.184468 0.364439 0.999298
O O5 0.500000 0.355285 0.500000
O O6 0.418231 0.500000 0.451376
O O7 0.420134 0.391381 0.724815
O O8 0.370782 0.310617 0.449197
O O9 0.599720 0.500000 0.012325
O O10 0.608559 0.290487 0.021847
O O11 0.500000 0.388398 0.000000
O O12 0.750000 0.250000 0.500000
O O13 0.848575 0.312334 0.689089
#
# Coordination Sequence:
#
# PCOD9193592 Si02
#       5
#     8   8   8   8   8
#     4  10  20  34  54  76 102 137 176 215 258 307
#     4   9  18  32  51  80 111 135 168 216 269 321
#     4   9  17  29  49  77 106 136 165 204 263 318
#     4   9  19  34  52  77 107 142 174 211 262 313
#     4   9  19  35  51  77 107 134 170 215 261 305
#
# _framework density 18.374372999999999
#
# number of rings (size 3 to 8) (size 9 to 14) (size 15 to 20)
#    0.000    2.800    0.000    0.600    2.800    5.600 
#    0.000    8.000    0.000    1.200    0.000    0.000 
#    0.000    0.000    0.000    0.000    0.000    0.000 
#
# Total GULP energy -111334.430426 kJ/mol
# GULP energy per Si atom -5566.721521 kJ/mol
# Density = 1.833255 g / cm^3
# Si number density = 18.374373 Si / 1000 Ang^3
#
#
#
# Elastic Constant Matrix: (Units=GPa)
#
#
# Indices 1 2 3 4 5 6 
#
# 1 65.7743 18.0487 -0.8235 0.0000 6.3487 0.0000
# 2 18.0487 49.6549 27.0216 0.0000 5.0280 0.0000
# 3 -0.8235 27.0216 66.1030 0.0000 0.1568 0.0000
# 4 0.0000 0.0000 0.0000 10.1648 0.0000 -2.0543
# 5 6.3487 5.0280 0.1568 0.0000 23.0269 0.0000
# 6 0.0000 0.0000 0.0000 -2.0543 0.0000 0.0480
#
#
#
# Elastic Compliance Matrix: (Units=1/GPa)
#
#
# Indices 1 2 3 4 5 6 
#
# 1 0.017762 -0.008052 0.003520 0.000000 -0.003163 0.000000
# 2 -0.008052 0.030289 -0.012472 0.000000 -0.004309 0.000000
# 3 0.003520 -0.012472 0.020266 0.000000 0.001615 0.000000
# 4 0.000000 0.000000 0.000000 -0.012870 0.000000 -0.550471
# 5 -0.003163 -0.004309 0.001615 0.000000 0.045229 0.000000
# 6 0.000000 0.000000 0.000000 -0.550471 0.000000 -2.723786
#
#
# Mechanical properties :
#
#
# Convention : Reuss Voigt Hill
#
# Bulk Modulus (GPa) = 29.14511 30.00287 29.57399
# Shear Modulus (GPa) = -1.93974 15.80030 6.93028
#
# Velocity S-wave (km/s) = -1.02858 2.93560 1.94420
# Velocity P-wave (km/s) = 3.80600 5.27773 4.60109
#
# Compressibility (1/GPa) = 0.03431107
#
# Stress axis : x y z
#
# Youngs Moduli (GPa) = 56.29910 33.01556 49.34365
#
# Poissons Ratio (x) = 0.26583 -0.17369
# Poissons Ratio (y) = 0.45330 0.61539
# Poissons Ratio (z) = -0.19818 0.41175
#
# Static dielectric constant tensor:
#      x y z
#    x 1.652250 0.000000 -0.014570 
#    y 0.000000 1.637870 0.000000 
#    z -0.014570 0.000000 1.668970 
# 
# From -- ./inp_files/71201.got.cif
#   From: 2010.05.17/outbox.cif.g08.bks.cpg/sg12_36_cif.got.tgz:71201.got - 2010.06.03 13:09:07.
