data_PCOD9193153
_publ_section_title
;
Structure prediction by ZEFSAII (Michael W. Deem and Ramdas Pophale) SiO2 
 PCOD9193153
Probable space group: C 2/M
;
_chemical_formula_sum "Si O2"
_cell_formula_units_Z 64
_cell_length_a 14.839142
_cell_length_b 8.771118
_cell_length_c 26.333707
_cell_angle_alpha 90.000000
_cell_angle_beta 86.908197
_cell_angle_gamma 90.000000
_cell_volume 3422.497366
_symmetry_space_group_name_H-M "C 2/M"
_symmetry_group_IT_number 12
_symmetry_cell_setting 'monoclinic'
loop_
_space_group_symop_operation_xyz
x,y,z
-x,y,-z
-x,-y,-z
x,-y,z
1/2+x,1/2+y,z
1/2-x,1/2+y,-z
1/2-x,1/2-y,-z
1/2+x,1/2-y,z
loop_
_atom_site_type_symbol
_atom_site_label
_atom_site_fract_x
_atom_site_fract_y
_atom_site_fract_z
Si Si1 0.349175 0.818841 0.488430
Si Si2 0.909669 0.815485 0.865832
Si Si3 0.881047 0.816265 0.138548
Si Si4 0.763545 0.316446 0.327818
Si Si5 0.582102 0.679099 0.618908
Si Si6 0.388630 0.680791 0.590491
Si Si7 0.230668 0.183960 0.215361
Si Si8 0.760245 0.317326 0.943830
O O1 0.250000 0.750000 0.500000
O O2 0.387925 0.748928 0.435830
O O3 0.401549 0.769492 0.537669
O O4 0.345382 0.000000 0.483976
O O5 0.856201 0.771378 0.815815
O O6 0.848629 0.747747 0.912777
O O7 0.014360 0.767122 0.864015
O O8 0.907858 0.000000 0.869664
O O9 0.819945 0.746630 0.185021
O O10 0.826551 0.776929 0.088634
O O11 0.879865 0.000000 0.143418
O O12 0.762155 0.500000 0.328559
O O13 0.862614 0.258059 0.338188
O O14 0.698609 0.265860 0.375793
O O15 0.729532 0.265195 0.273814
O O16 0.602620 0.500000 0.618205
O O17 0.474858 0.698384 0.623905
O O18 0.379487 0.500000 0.578741
O O19 0.234309 0.000000 0.214726
O O20 0.766023 0.500000 0.945786
O O21 0.750000 0.250000 0.000000
#
# Coordination Sequence:
#
# PCOD9193153 Si02
#       8
#     8   8   8   8   8   8   8   8
#     4  12  23  37  59  83 110 143 179 220 271 327
#     4   9  18  35  57  79 106 143 186 226 270 325
#     4   9  19  35  56  80 107 142 184 227 273 323
#     4  10  21  38  57  79 110 145 177 220 275 326
#     4  11  23  38  58  84 110 142 183 223 268 326
#     4  10  22  39  58  81 111 144 180 221 269 326
#     4   9  19  35  56  80 106 139 181 225 273 322
#     4  10  20  34  52  79 114 148 183 225 272 320
#
# _framework density 18.699795000000002
#
# number of rings (size 3 to 8) (size 9 to 14) (size 15 to 20)
#    0.000    2.000    1.250    2.250    0.000    5.500 
#    0.000    5.000    0.000    0.000    0.000    0.000 
#    0.000    0.000    0.000    0.000    0.000    0.000 
#
# Total GULP energy -178633.436069 kJ/mol
# GULP energy per Si atom -5582.294877 kJ/mol
# Density = 1.865723 g / cm^3
# Si number density = 18.699795 Si / 1000 Ang^3
#
#
#
# Elastic Constant Matrix: (Units=GPa)
#
#
# Indices 1 2 3 4 5 6 
#
# 1 106.4404 14.8989 25.3007 0.0000 8.8085 0.0000
# 2 14.8989 14.8127 14.3532 0.0000 2.3338 0.0000
# 3 25.3007 14.3532 94.1693 0.0000 11.2893 0.0000
# 4 0.0000 0.0000 0.0000 27.1778 0.0000 0.9767
# 5 8.8085 2.3338 11.2893 0.0000 12.1271 0.0000
# 6 0.0000 0.0000 0.0000 0.9767 0.0000 27.1222
#
#
#
# Elastic Compliance Matrix: (Units=1/GPa)
#
#
# Indices 1 2 3 4 5 6 
#
# 1 0.011438 -0.009733 -0.000921 0.000000 -0.005578 0.000000
# 2 -0.009733 0.087710 -0.010781 0.000000 0.000227 0.000000
# 3 -0.000921 -0.010781 0.013711 0.000000 -0.010020 0.000000
# 4 0.000000 0.000000 0.000000 0.036842 0.000000 -0.001327
# 5 -0.005578 0.000227 -0.010020 0.000000 0.095795 0.000000
# 6 0.000000 0.000000 0.000000 -0.001327 0.000000 0.036918
#
#
# Mechanical properties :
#
#
# Convention : Reuss Voigt Hill
#
# Bulk Modulus (GPa) = 14.28795 36.05867 25.17331
# Shear Modulus (GPa) = 14.34249 24.01005 19.17627
#
# Velocity S-wave (km/s) = 2.77246 3.58715 3.20579
# Velocity P-wave (km/s) = 4.23154 6.04000 5.21477
#
# Compressibility (1/GPa) = 0.06998906
#
# Stress axis : x y z
#
# Youngs Moduli (GPa) = 87.42939 11.40117 72.93399
#
# Poissons Ratio (x) = 0.11097 0.06716
# Poissons Ratio (y) = 0.85098 0.78629
# Poissons Ratio (z) = 0.08051 0.12291
#
# Static dielectric constant tensor:
#      x y z
#    x 1.645760 0.000000 0.020720 
#    y 0.000000 1.630960 0.000000 
#    z 0.020720 0.000000 1.629110 
# 
# From -- ./inp_files/338925.got.cif
#   From: 2010.05.17/outbox.cif.g08.bks.cpg/sg12_170_cif.got.tgz:338925.got - 2010.06.03 13:09:07.
