data_PCOD9193505
_publ_section_title
;
Structure prediction by ZEFSAII (Michael W. Deem and Ramdas Pophale) SiO2 
 PCOD9193505
Probable space group: C 2/M
;
_chemical_formula_sum "Si O2"
_cell_formula_units_Z 48
_cell_length_a 25.899903
_cell_length_b 8.826037
_cell_length_c 11.983774
_cell_angle_alpha 90.000000
_cell_angle_beta 89.223133
_cell_angle_gamma 90.000000
_cell_volume 2739.161060
_symmetry_space_group_name_H-M "C 2/M"
_symmetry_group_IT_number 12
_symmetry_cell_setting 'monoclinic'
loop_
_space_group_symop_operation_xyz
x,y,z
-x,y,-z
-x,-y,-z
x,-y,z
1/2+x,1/2+y,z
1/2-x,1/2+y,-z
1/2-x,1/2-y,-z
1/2+x,1/2-y,z
loop_
_atom_site_type_symbol
_atom_site_label
_atom_site_fract_x
_atom_site_fract_y
_atom_site_fract_z
Si Si1 0.439749 0.682740 0.001929
Si Si2 0.811126 0.682683 0.383394
Si Si3 0.699898 0.818866 0.358485
Si Si4 0.605675 0.318579 0.235878
Si Si5 0.511239 0.182524 0.371604
Si Si6 0.409639 0.182641 0.234396
O O1 0.439163 0.500000 0.007968
O O2 0.412228 0.748929 0.111373
O O3 0.500000 0.731280 0.000000
O O4 0.412431 0.728780 0.887509
O O5 0.806592 0.500000 0.377521
O O6 0.757769 0.756181 0.344919
O O7 0.817674 0.721695 0.514199
O O8 0.859937 0.729937 0.307953
O O9 0.660091 0.748733 0.272523
O O10 0.699770 0.000000 0.349598
O O11 0.607733 0.500000 0.238802
O O12 0.562068 0.259699 0.322003
O O13 0.500000 0.222224 0.500000
O O14 0.461973 0.225628 0.298063
O O15 0.517696 0.000000 0.365856
O O16 0.408801 0.000000 0.227441
#
# Coordination Sequence:
#
# PCOD9193505 Si02
#       6
#     8   8   8   8   8   8
#     4  10  21  38  55  75 109 148 185 229 275 319
#     4   9  19  37  58  83 114 144 178 223 275 327
#     4  10  20  36  59  84 112 145 181 224 273 327
#     4  11  22  36  55  79 109 146 185 226 273 323
#     4  10  20  34  53  80 113 143 174 220 275 328
#     4  10  20  34  56  82 108 142 183 225 270 325
#
# _framework density 17.523614999999999
#
# number of rings (size 3 to 8) (size 9 to 14) (size 15 to 20)
#    0.000    2.000    1.667    2.000    0.000    6.000 
#    0.000    2.500    0.000    0.000    0.000    0.000 
#    0.000    0.000    0.000    0.000    0.000    0.000 
#
# Total GULP energy -134018.361100 kJ/mol
# GULP energy per Si atom -5584.098379 kJ/mol
# Density = 1.748373 g / cm^3
# Si number density = 17.523615 Si / 1000 Ang^3
#
#
#
# Elastic Constant Matrix: (Units=GPa)
#
#
# Indices 1 2 3 4 5 6 
#
# 1 72.5749 15.5961 21.2571 0.0000 18.7004 0.0000
# 2 15.5961 12.7349 15.3460 0.0000 10.1641 0.0000
# 3 21.2571 15.3460 75.5267 0.0000 24.9865 0.0000
# 4 0.0000 0.0000 0.0000 23.3004 0.0000 -2.0277
# 5 18.7004 10.1641 24.9865 0.0000 33.5397 0.0000
# 6 0.0000 0.0000 0.0000 -2.0277 0.0000 32.6402
#
#
#
# Elastic Compliance Matrix: (Units=1/GPa)
#
#
# Indices 1 2 3 4 5 6 
#
# 1 0.019257 -0.020009 0.000254 0.000000 -0.004863 0.000000
# 2 -0.020009 0.137166 -0.016161 0.000000 -0.018372 0.000000
# 3 0.000254 -0.016161 0.019746 0.000000 -0.009955 0.000000
# 4 0.000000 0.000000 0.000000 0.043151 0.000000 0.002681
# 5 -0.004863 -0.018372 -0.009955 0.000000 0.045510 0.000000
# 6 0.000000 0.000000 0.000000 0.002681 0.000000 0.030804
#
#
# Mechanical properties :
#
#
# Convention : Reuss Voigt Hill
#
# Bulk Modulus (GPa) = 9.58419 29.47054 19.52736
# Shear Modulus (GPa) = 12.43024 25.13855 18.78440
#
# Velocity S-wave (km/s) = 2.66624 3.79166 3.27761
# Velocity P-wave (km/s) = 3.86776 6.00192 5.04889
#
# Compressibility (1/GPa) = 0.10433852
#
# Stress axis : x y z
#
# Youngs Moduli (GPa) = 51.92843 7.29041 50.64405
#
# Poissons Ratio (x) = 0.14587 -0.01288
# Poissons Ratio (y) = 1.03904 0.81844
# Poissons Ratio (z) = -0.01321 0.11782
#
# Static dielectric constant tensor:
#      x y z
#    x 1.569260 0.000000 0.006310 
#    y 0.000000 1.589790 0.000000 
#    z 0.006310 0.000000 1.580970 
# 
# From -- ./inp_files/172254.got.cif
#   From: 2010.05.17/outbox.cif.g08.bks.cpg/sg12_87_cif.got.tgz:172254.got - 2010.06.03 13:09:07.
