data_PCOD9193767
_publ_section_title
;
Structure prediction by ZEFSAII (Michael W. Deem and Ramdas Pophale) SiO2 
 PCOD9193767
Probable space group: C 2/M
;
_chemical_formula_sum "Si O2"
_cell_formula_units_Z 40
_cell_length_a 18.497267
_cell_length_b 7.609637
_cell_length_c 26.747274
_cell_angle_alpha 90.000000
_cell_angle_beta 150.196428
_cell_angle_gamma 90.000000
_cell_volume 1871.250544
_symmetry_space_group_name_H-M "C 2/M"
_symmetry_group_IT_number 12
_symmetry_cell_setting 'monoclinic'
loop_
_space_group_symop_operation_xyz
x,y,z
-x,y,-z
-x,-y,-z
x,-y,z
1/2+x,1/2+y,z
1/2-x,1/2+y,-z
1/2-x,1/2-y,-z
1/2+x,1/2-y,z
loop_
_atom_site_type_symbol
_atom_site_label
_atom_site_fract_x
_atom_site_fract_y
_atom_site_fract_z
Si Si1 0.324704 0.207685 0.195538
Si Si2 0.163194 0.208881 0.397427
Si Si3 0.666303 0.284509 0.200500
Si Si4 0.332195 0.784933 0.400399
Si Si5 0.667448 0.711101 0.001762
O O1 0.497777 0.227534 0.300221
O O2 0.250692 0.277048 0.201645
O O3 0.254360 0.279745 0.102326
O O4 0.293308 0.000000 0.176810
O O5 0.250000 0.250000 0.500000
O O6 0.249329 0.276147 0.400469
O O7 0.156132 0.000000 0.388311
O O8 0.667449 0.500000 0.201400
O O9 0.747829 0.229516 0.299889
O O10 0.498945 0.226320 0.099287
O O11 0.500000 0.729116 0.500000
O O12 0.332535 0.000000 0.401252
O O13 0.660981 0.500000 0.001923
O O14 0.750000 0.750000 0.000000
#
# Coordination Sequence:
#
# PCOD9193767 Si02
#       5
#     8   8   8   8   8
#     4  10  20  35  56  80 106 138 180 227 270 314
#     4  11  22  36  56  81 109 140 175 217 267 322
#     4   9  17  32  54  78 105 140 183 225 263 310
#     4   9  17  30  51  77 102 133 175 219 260 307
#     4  10  20  34  54  80 109 143 182 223 268 318
#
# _framework density 21.376080000000002
#
# number of rings (size 3 to 8) (size 9 to 14) (size 15 to 20)
#    0.000    2.200    0.000    3.600    0.000    8.000 
#    0.000    1.000    0.000   15.600    0.000    0.000 
#    0.000    0.000    0.000    0.000    0.000    0.000 
#
# Total GULP energy -111788.912990 kJ/mol
# GULP energy per Si atom -5589.445650 kJ/mol
# Density = 2.132743 g / cm^3
# Si number density = 21.376080 Si / 1000 Ang^3
#
#
#
# Elastic Constant Matrix: (Units=GPa)
#
#
# Indices 1 2 3 4 5 6 
#
# 1 264.2705 0.0200 154.4847 0.0000 -4.9012 -0.0003
# 2 0.0200 41.9038 -7.0944 -0.0001 -4.0163 -0.0009
# 3 154.4847 -7.0944 238.0794 -0.0002 -9.2346 0.0001
# 4 0.0000 -0.0001 -0.0002 10.2952 0.0000 4.8972
# 5 -4.9012 -4.0163 -9.2346 0.0000 47.2710 0.0000
# 6 -0.0003 -0.0009 0.0001 4.8972 0.0000 21.6273
#
#
#
# Elastic Compliance Matrix: (Units=1/GPa)
#
#
# Indices 1 2 3 4 5 6 
#
# 1 0.006118 -0.000700 -0.003998 0.000000 -0.000206 0.000000
# 2 -0.000700 0.024293 0.001265 0.000000 0.002239 0.000001
# 3 -0.003998 0.001265 0.006873 0.000000 0.001035 0.000000
# 4 0.000000 0.000000 0.000000 0.108858 0.000000 -0.024649
# 5 -0.000206 0.002239 0.001035 0.000000 0.021526 0.000000
# 6 0.000000 0.000001 0.000000 -0.024649 0.000000 0.051819
#
#
# Mechanical properties :
#
#
# Convention : Reuss Voigt Hill
#
# Bulk Modulus (GPa) = 32.87668 93.23046 63.05357
# Shear Modulus (GPa) = 21.14237 42.29493 31.71865
#
# Velocity S-wave (km/s) = 3.14836 4.45298 3.85624
# Velocity P-wave (km/s) = 5.35067 8.37543 7.02771
#
# Compressibility (1/GPa) = 0.03041670
#
# Stress axis : x y z
#
# Youngs Moduli (GPa) = 163.46318 41.16382 145.50492
#
# Poissons Ratio (x) = 0.02880 0.58179
# Poissons Ratio (y) = 0.11436 -0.18402
# Poissons Ratio (z) = 0.65359 -0.05206
#
# Static dielectric constant tensor:
#      x y z
#    x 1.737630 0.000000 -0.009930 
#    y 0.000000 1.838590 0.000000 
#    z -0.009930 0.000000 1.708380 
# 
# From -- ./inp_files/141112.got.cif
#   From: 2010.05.17/outbox.cif.g08.bks.cpg/sg12_71_cif.got.tgz:141112.got - 2010.06.03 13:09:07.
