data_PCOD9193984
_publ_section_title
;
Structure prediction by ZEFSAII (Michael W. Deem and Ramdas Pophale) SiO2 
 PCOD9193984
Probable space group: C 2/M
;
_chemical_formula_sum "Si O2"
_cell_formula_units_Z 64
_cell_length_a 24.840081
_cell_length_b 18.293291
_cell_length_c 14.760510
_cell_angle_alpha 90.000000
_cell_angle_beta 29.097891
_cell_angle_gamma 90.000000
_cell_volume 3261.770172
_symmetry_space_group_name_H-M "C 2/M"
_symmetry_group_IT_number 12
_symmetry_cell_setting 'monoclinic'
loop_
_space_group_symop_operation_xyz
x,y,z
-x,y,-z
-x,-y,-z
x,-y,z
1/2+x,1/2+y,z
1/2-x,1/2+y,-z
1/2-x,1/2-y,-z
1/2+x,1/2-y,z
loop_
_atom_site_type_symbol
_atom_site_label
_atom_site_fract_x
_atom_site_fract_y
_atom_site_fract_z
Si Si1 0.373396 0.082637 0.967602
Si Si2 0.711742 0.579306 0.376051
Si Si3 0.092307 0.716913 0.536526
Si Si4 0.749106 0.162486 0.017140
Si Si5 0.183224 0.274949 0.726747
Si Si6 0.503672 0.210011 0.141263
Si Si7 0.497885 0.359734 0.401037
Si Si8 0.619778 0.084328 0.369355
O O1 0.326486 0.126295 0.950550
O O2 0.473513 0.124137 0.871790
O O3 0.401902 0.000000 0.899947
O O4 0.274679 0.081261 0.186657
O O5 0.727989 0.500000 0.393192
O O6 0.767321 0.643554 0.350482
O O7 0.584342 0.595641 0.542488
O O8 0.210875 0.726152 0.409981
O O9 0.006370 0.738007 0.742349
O O10 0.095030 0.636316 0.491758
O O11 0.061990 0.779032 0.507592
O O12 0.699405 0.130994 0.184479
O O13 0.750000 0.250000 0.000000
O O14 0.876845 0.140219 0.817204
O O15 0.103434 0.267156 0.758557
O O16 0.107011 0.267086 0.928245
O O17 0.500000 0.389126 0.500000
O O18 0.500000 0.078611 0.500000
O O19 0.658370 0.000000 0.328570
#
# Coordination Sequence:
#
# PCOD9193984 Si02
#       8
#     8   8   8   8   8   8   8   8
#     4  10  20  34  54  84 120 152 187 234 293 358
#     4   9  19  34  52  79 116 148 178 228 291 353
#     4  11  22  37  61  83 116 154 198 246 294 353
#     4  12  23  35  60  86 119 157 203 241 285 339
#     4   9  21  37  58  87 118 139 198 250 302 352
#     4  10  20  37  59  86 111 152 192 244 308 349
#     4  11  21  35  55  87 117 149 193 239 287 344
#     4  11  25  42  57  84 126 166 202 243 291 353
#
# _framework density 19.621248000000001
#
# number of rings (size 3 to 8) (size 9 to 14) (size 15 to 20)
#    0.000    1.625    1.250    4.125    5.250    3.250 
#    0.000    2.500    0.000    0.000    0.000    1.750 
#    0.000    0.000    0.000    0.000    0.000    0.000 
#
# Total GULP energy -178401.042029 kJ/mol
# GULP energy per Si atom -5575.032563 kJ/mol
# Density = 1.957659 g / cm^3
# Si number density = 19.621248 Si / 1000 Ang^3
#
#
#
# Elastic Constant Matrix: (Units=GPa)
#
#
# Indices 1 2 3 4 5 6 
#
# 1 40.5881 10.9200 23.7589 0.0000 -2.5808 0.0000
# 2 10.9200 75.4408 -11.4543 0.0000 6.5916 0.0000
# 3 23.7589 -11.4543 63.5012 0.0000 -3.4732 0.0000
# 4 0.0000 0.0000 0.0000 10.3186 0.0000 2.1896
# 5 -2.5808 6.5916 -3.4732 0.0000 31.6335 0.0000
# 6 0.0000 0.0000 0.0000 2.1896 0.0000 11.9260
#
#
#
# Elastic Compliance Matrix: (Units=1/GPa)
#
#
# Indices 1 2 3 4 5 6 
#
# 1 0.035282 -0.007545 -0.014405 0.000000 0.002869 0.000000
# 2 -0.007545 0.015456 0.005434 0.000000 -0.003239 0.000000
# 3 -0.014405 0.005434 0.022124 0.000000 0.000122 0.000000
# 4 0.000000 0.000000 0.000000 0.100841 0.000000 -0.018514
# 5 0.002869 -0.003239 0.000122 0.000000 0.032535 0.000000
# 6 0.000000 0.000000 0.000000 -0.018514 0.000000 0.087250
#
#
# Mechanical properties :
#
#
# Convention : Reuss Voigt Hill
#
# Bulk Modulus (GPa) = 25.10693 25.10882 25.10788
# Shear Modulus (GPa) = 14.71471 21.19597 17.95534
#
# Velocity S-wave (km/s) = 2.74147 3.29029 3.02834
# Velocity P-wave (km/s) = 4.77959 5.22104 5.00518
#
# Compressibility (1/GPa) = 0.03982963
#
# Stress axis : x y z
#
# Youngs Moduli (GPa) = 28.34288 64.70155 45.19969
#
# Poissons Ratio (x) = 0.48816 0.65109
# Poissons Ratio (y) = 0.21384 -0.24560
# Poissons Ratio (z) = 0.40827 -0.35156
#
# Static dielectric constant tensor:
#      x y z
#    x 1.660580 0.000000 0.030300 
#    y 0.000000 1.721270 0.000000 
#    z 0.030300 0.000000 1.735930 
# 
# From -- ./inp_files/241456.got.cif
#   From: 2010.05.17/outbox.cif.g08.bks.cpg/sg12_121_cif.got.tgz:241456.got - 2010.06.03 13:09:07.
