data_PCOD9193657
_publ_section_title
;
Structure prediction by ZEFSAII (Michael W. Deem and Ramdas Pophale) SiO2 
 PCOD9193657
Probable space group: C 2/M
;
_chemical_formula_sum "Si O2"
_cell_formula_units_Z 64
_cell_length_a 9.171892
_cell_length_b 13.822361
_cell_length_c 28.147968
_cell_angle_alpha 90.000000
_cell_angle_beta 58.985191
_cell_angle_gamma 90.000000
_cell_volume 3058.344056
_symmetry_space_group_name_H-M "C 2/M"
_symmetry_group_IT_number 12
_symmetry_cell_setting 'monoclinic'
loop_
_space_group_symop_operation_xyz
x,y,z
-x,y,-z
-x,-y,-z
x,-y,z
1/2+x,1/2+y,z
1/2-x,1/2+y,-z
1/2-x,1/2-y,-z
1/2+x,1/2-y,z
loop_
_atom_site_type_symbol
_atom_site_label
_atom_site_fract_x
_atom_site_fract_y
_atom_site_fract_z
Si Si1 0.325373 0.890192 0.058856
Si Si2 0.649864 0.788898 0.128336
Si Si3 0.403379 0.701151 0.279411
Si Si4 0.321158 0.387879 0.016582
Si Si5 0.188084 0.216901 0.458755
Si Si6 0.238744 0.886015 0.357958
Si Si7 0.146209 0.890618 0.613566
Si Si8 0.769503 0.218650 0.203650
O O1 0.259164 0.810621 0.106139
O O2 0.330175 0.000000 0.077076
O O3 0.500000 0.875766 0.000000
O O4 0.195106 0.882916 0.036740
O O5 0.680586 0.839576 0.072822
O O6 0.727790 0.840091 0.162217
O O7 0.450975 0.770741 0.167551
O O8 0.337936 0.807408 0.308779
O O9 0.380449 0.627834 0.326316
O O10 0.603931 0.713066 0.235326
O O11 0.297444 0.670614 0.250554
O O12 0.320008 0.500000 0.030107
O O13 0.500000 0.342050 0.000000
O O14 0.250000 0.250000 0.500000
O O15 0.273917 0.141770 0.407400
O O16 0.207906 0.316852 0.426598
O O17 0.000000 0.180130 0.500000
O O18 0.036713 0.869329 0.380843
O O19 0.273922 0.000000 0.342903
O O20 0.191305 0.000000 0.594956
#
# Coordination Sequence:
#
# PCOD9193657 Si02
#       8
#     8   8   8   8   8   8   8   8
#     4  10  20  34  54  78 105 140 182 222 270 338
#     4  11  20  36  54  80 110 145 179 232 280 353
#     4  10  20  42  58  83 113 151 188 255 290 337
#     4  10  20  34  54  78 107 144 183 225 275 338
#     4  11  22  38  59  91 132 160 183 238 294 332
#     4  10  21  38  65  89 112 158 207 236 275 350
#     4  10  21  38  64  89 114 156 205 239 278 344
#     4  10  22  36  58  80 113 145 187 232 305 341
#
# _framework density 20.926356999999999
#
# number of rings (size 3 to 8) (size 9 to 14) (size 15 to 20)
#    0.000    1.750    2.500    2.250    0.000    1.000 
#    0.000    9.375    0.000    0.000    0.000    0.000 
#    0.000    0.000    0.000    0.000    0.000    0.000 
#
# Total GULP energy -178301.412062 kJ/mol
# GULP energy per Si atom -5571.919127 kJ/mol
# Density = 2.087873 g / cm^3
# Si number density = 20.926357 Si / 1000 Ang^3
#
#
#
# Elastic Constant Matrix: (Units=GPa)
#
#
# Indices 1 2 3 4 5 6 
#
# 1 57.7398 -5.8767 1.1331 0.0000 10.0606 0.0000
# 2 -5.8767 77.9244 14.1559 0.0000 -1.0837 0.0000
# 3 1.1331 14.1559 77.4777 0.0000 3.7491 0.0000
# 4 0.0000 0.0000 0.0000 -30.8562 0.0000 -7.0699
# 5 10.0606 -1.0837 3.7491 0.0000 35.8013 0.0000
# 6 0.0000 0.0000 0.0000 -7.0699 0.0000 12.5921
#
#
#
# Elastic Compliance Matrix: (Units=1/GPa)
#
#
# Indices 1 2 3 4 5 6 
#
# 1 0.018349 0.001362 -0.000271 0.000000 -0.005087 0.000000
# 2 0.001362 0.013390 -0.002480 0.000000 0.000282 0.000000
# 3 -0.000271 -0.002480 0.013432 0.000000 -0.001405 0.000000
# 4 0.000000 0.000000 0.000000 -0.028714 0.000000 -0.016122
# 5 -0.005087 0.000282 -0.001405 0.000000 0.029517 0.000000
# 6 0.000000 0.000000 0.000000 -0.016122 0.000000 0.070363
#
#
# Mechanical properties :
#
#
# Convention : Reuss Voigt Hill
#
# Bulk Modulus (GPa) = 23.58833 25.77406 24.68120
# Shear Modulus (GPa) = 37.52452 17.08942 27.30697
#
# Velocity S-wave (km/s) = 4.23918 2.86080 3.61627
# Velocity P-wave (km/s) = 5.93779 4.82240 5.40892
#
# Compressibility (1/GPa) = 0.04239384
#
# Stress axis : x y z
#
# Youngs Moduli (GPa) = 54.49778 74.68173 74.44881
#
# Poissons Ratio (x) = -0.10174 0.02019
# Poissons Ratio (y) = -0.07424 0.18464
# Poissons Ratio (z) = 0.01478 0.18522
#
# Static dielectric constant tensor:
#      x y z
#    x 1.648890 0.000000 0.461760 
#    y 0.000000 1.746110 0.000000 
#    z 0.461760 0.000000 0.762210 
# 
# From -- ./inp_files/372377.got.cif
#   From: 2010.05.17/outbox.cif.g08.bks.cpg/sg12_187_cif.got.tgz:372377.got - 2010.06.03 13:09:07.
