data_PCOD9193315
_publ_section_title
;
Structure prediction by ZEFSAII (Michael W. Deem and Ramdas Pophale) SiO2 
 PCOD9193315
Probable space group: C 2/M
;
_chemical_formula_sum "Si O2"
_cell_formula_units_Z 40
_cell_length_a 33.491379
_cell_length_b 10.876199
_cell_length_c 20.822927
_cell_angle_alpha 90.000000
_cell_angle_beta 15.720338
_cell_angle_gamma 90.000000
_cell_volume 2055.079021
_symmetry_space_group_name_H-M "C 2/M"
_symmetry_group_IT_number 12
_symmetry_cell_setting 'monoclinic'
loop_
_space_group_symop_operation_xyz
x,y,z
-x,y,-z
-x,-y,-z
x,-y,z
1/2+x,1/2+y,z
1/2-x,1/2+y,-z
1/2-x,1/2-y,-z
1/2+x,1/2-y,z
loop_
_atom_site_type_symbol
_atom_site_label
_atom_site_fract_x
_atom_site_fract_y
_atom_site_fract_z
Si Si1 0.309279 0.138073 0.865592
Si Si2 0.468338 0.785326 0.117486
Si Si3 0.216676 0.139501 0.338534
Si Si4 0.860565 0.860137 0.403551
Si Si5 0.835044 0.361741 0.677558
O O1 0.486906 0.137712 0.594832
O O2 0.274688 0.153510 0.843466
O O3 0.258165 0.000000 0.964348
O O4 0.250000 0.250000 0.000000
O O5 0.311328 0.850801 0.351311
O O6 0.450429 0.706543 0.209296
O O7 0.500000 0.718344 0.000000
O O8 0.611680 0.866956 0.906906
O O9 0.132561 0.184049 0.533467
O O10 0.204240 0.245048 0.304928
O O11 0.169204 0.000000 0.394495
O O12 0.906507 0.000000 0.334275
O O13 0.791074 0.500000 0.722773
#
# Coordination Sequence:
#
# PCOD9193315 Si02
#       5
#     8   8   8   8   8
#     4   9  19  37  59  79 103 137 172 208 254 307
#     4   9  18  33  51  72 100 136 176 216 259 304
#     4  10  20  34  53  77 105 137 173 214 258 304
#     4   9  18  33  51  72 101 137 177 217 257 304
#     4   9  20  38  55  76 108 139 168 208 258 309
#
# _framework density 19.463971999999998
#
# number of rings (size 3 to 8) (size 9 to 14) (size 15 to 20)
#    0.000    2.800    0.000    1.800    0.000    6.800 
#    0.000   17.000    0.000    0.000    0.000    0.000 
#    0.000    0.000    0.000    0.000    0.000    0.000 
#
# Total GULP energy -111365.784797 kJ/mol
# GULP energy per Si atom -5568.289240 kJ/mol
# Density = 1.941967 g / cm^3
# Si number density = 19.463972 Si / 1000 Ang^3
#
#
#
# Elastic Constant Matrix: (Units=GPa)
#
#
# Indices 1 2 3 4 5 6 
#
# 1 92.5172 83.9643 23.7745 0.0000 27.6933 0.0000
# 2 83.9643 138.6991 35.7015 0.0000 40.0518 0.0000
# 3 23.7745 35.7015 69.1654 0.0000 27.0059 0.0000
# 4 0.0000 0.0000 0.0000 13.8740 0.0000 8.2299
# 5 27.6933 40.0518 27.0059 0.0000 33.7517 0.0000
# 6 0.0000 0.0000 0.0000 8.2299 0.0000 27.7049
#
#
#
# Elastic Compliance Matrix: (Units=1/GPa)
#
#
# Indices 1 2 3 4 5 6 
#
# 1 0.024302 -0.013630 0.000222 0.000000 -0.003943 0.000000
# 2 -0.013630 0.018647 -0.000970 0.000000 -0.010168 0.000000
# 3 0.000222 -0.000970 0.021094 0.000000 -0.015909 0.000000
# 4 0.000000 0.000000 0.000000 0.087495 0.000000 -0.025991
# 5 -0.003943 -0.010168 -0.015909 0.000000 0.057659 0.000000
# 6 0.000000 0.000000 0.000000 -0.025991 0.000000 0.043815
#
#
# Mechanical properties :
#
#
# Convention : Reuss Voigt Hill
#
# Bulk Modulus (GPa) = 28.33940 65.25138 46.79539
# Shear Modulus (GPa) = 17.03390 25.52889 21.28139
#
# Velocity S-wave (km/s) = 2.96150 3.62553 3.31021
# Velocity P-wave (km/s) = 5.12694 7.15003 6.22127
#
# Compressibility (1/GPa) = 0.03528656
#
# Stress axis : x y z
#
# Youngs Moduli (GPa) = 41.14822 53.62749 47.40608
#
# Poissons Ratio (x) = 0.73097 -0.01050
# Poissons Ratio (y) = 0.56087 0.04597
# Poissons Ratio (z) = -0.00912 0.05201
#
# Static dielectric constant tensor:
#      x y z
#    x 1.704810 0.000000 -0.006770 
#    y 0.000000 1.660020 0.000000 
#    z -0.006770 0.000000 1.724770 
# 
# From -- ./inp_files/203027.got.cif
#   From: 2010.05.17/outbox.cif.g08.bks.cpg/sg12_102_cif.got.tgz:203027.got - 2010.06.03 13:09:07.
