data_PCOD9193563
_publ_section_title
;
Structure prediction by ZEFSAII (Michael W. Deem and Ramdas Pophale) SiO2 
 PCOD9193563
Probable space group: C 2/M
;
_chemical_formula_sum "Si O2"
_cell_formula_units_Z 56
_cell_length_a 9.264247
_cell_length_b 26.454371
_cell_length_c 11.590702
_cell_angle_alpha 90.000000
_cell_angle_beta 72.875798
_cell_angle_gamma 90.000000
_cell_volume 2714.717730
_symmetry_space_group_name_H-M "C 2/M"
_symmetry_group_IT_number 12
_symmetry_cell_setting 'monoclinic'
loop_
_space_group_symop_operation_xyz
x,y,z
-x,y,-z
-x,-y,-z
x,-y,z
1/2+x,1/2+y,z
1/2-x,1/2+y,-z
1/2-x,1/2-y,-z
1/2+x,1/2-y,z
loop_
_atom_site_type_symbol
_atom_site_label
_atom_site_fract_x
_atom_site_fract_y
_atom_site_fract_z
Si Si1 0.640372 0.788385 0.380866
Si Si2 0.329886 0.440278 0.038422
Si Si3 0.471106 0.130594 0.299492
Si Si4 0.333147 0.321318 0.539427
Si Si5 0.004405 0.943126 0.635334
Si Si6 0.310753 0.061555 0.166279
Si Si7 0.801720 0.558640 0.673759
O O1 0.500000 0.797873 0.500000
O O2 0.588018 0.821370 0.282343
O O3 0.652768 0.727678 0.378666
O O4 0.787090 0.804466 0.420376
O O5 0.347459 0.500000 0.010463
O O6 0.256101 0.435914 0.180709
O O7 0.500000 0.418247 0.000000
O O8 0.226209 0.423753 0.956438
O O9 0.307663 0.147818 0.380958
O O10 0.436408 0.097606 0.193210
O O11 0.547959 0.090727 0.367008
O O12 0.500000 0.344737 0.500000
O O13 0.846622 0.927507 0.728276
O O14 0.000000 0.947736 0.500000
O O15 0.163499 0.918988 0.632600
O O16 0.022186 0.000000 0.682121
O O17 0.344447 0.000000 0.168502
O O18 0.831732 0.500000 0.639898
#
# Coordination Sequence:
#
# PCOD9193563 Si02
#       7
#     8   8   8   8   8   8   8
#     4   8  17  35  57  79 106 141 190 244 286 337
#     4   9  16  33  60  80 105 152 207 251 276 311
#     4  11  22  32  51  86 118 142 179 238 307 340
#     4   9  18  36  58  76 103 149 199 241 278 334
#     4   9  18  32  49  71 107 154 191 221 268 332
#     4  10  20  34  53  83 118 154 197 233 272 341
#     4  10  20  35  55  83 119 157 195 238 283 333
#
# _framework density 20.628297
#
# number of rings (size 3 to 8) (size 9 to 14) (size 15 to 20)
#    0.000    2.571    1.429    1.286    0.000    5.714 
#    0.000    2.143    0.000   12.429    0.000    4.000 
#    0.000    0.000    0.000    0.000    0.000    0.000 
#
# Total GULP energy -155992.351233 kJ/mol
# GULP energy per Si atom -5571.155401 kJ/mol
# Density = 2.058135 g / cm^3
# Si number density = 20.628297 Si / 1000 Ang^3
#
#
#
# Elastic Constant Matrix: (Units=GPa)
#
#
# Indices 1 2 3 4 5 6 
#
# 1 161.0261 54.9041 28.9635 0.0000 20.8903 0.0000
# 2 54.9041 97.7318 11.7851 0.0000 1.1425 0.0000
# 3 28.9635 11.7851 53.6998 0.0000 19.8304 0.0000
# 4 0.0000 0.0000 0.0000 -4.7582 0.0000 -7.8149
# 5 20.8903 1.1425 19.8304 0.0000 30.7959 0.0000
# 6 0.0000 0.0000 0.0000 -7.8149 0.0000 31.8775
#
#
#
# Elastic Compliance Matrix: (Units=1/GPa)
#
#
# Indices 1 2 3 4 5 6 
#
# 1 0.008723 -0.004600 -0.002064 0.000000 -0.004417 0.000000
# 2 -0.004600 0.012985 -0.001762 0.000000 0.003773 0.000000
# 3 -0.002064 -0.001762 0.025690 0.000000 -0.015077 0.000000
# 4 0.000000 0.000000 0.000000 -0.149833 0.000000 -0.036732
# 5 -0.004417 0.003773 -0.015077 0.000000 0.045037 0.000000
# 6 0.000000 0.000000 0.000000 -0.036732 0.000000 0.022365
#
#
# Mechanical properties :
#
#
# Convention : Reuss Voigt Hill
#
# Bulk Modulus (GPa) = 32.73826 55.97368 44.35597
# Shear Modulus (GPa) = -624.94341 26.03670 -299.45336
#
# Velocity S-wave (km/s) = -17.42447 3.55658 -12.06157
# Velocity P-wave (km/s) = 19.72083 6.63769 13.13111
#
# Compressibility (1/GPa) = 0.03054530
#
# Stress axis : x y z
#
# Youngs Moduli (GPa) = 114.64098 77.01446 38.92622
#
# Poissons Ratio (x) = 0.35425 0.08034
# Poissons Ratio (y) = 0.52733 0.06859
# Poissons Ratio (z) = 0.23662 0.13570
#
# Static dielectric constant tensor:
#      x y z
#    x 1.819000 0.000000 0.010060 
#    y 0.000000 1.852890 0.000000 
#    z 0.010060 0.000000 1.746040 
# 
# From -- ./inp_files/125167.got.cif
#   From: 2010.05.17/outbox.cif.g08.bks.cpg/sg12_63_cif.got.tgz:125167.got - 2010.06.03 13:09:07.
