data_PCOD9193233
_publ_section_title
;
Structure prediction by ZEFSAII (Michael W. Deem and Ramdas Pophale) SiO2 
 PCOD9193233
Probable space group: C 2/M
;
_chemical_formula_sum "Si O2"
_cell_formula_units_Z 48
_cell_length_a 22.147689
_cell_length_b 12.650670
_cell_length_c 12.753037
_cell_angle_alpha 90.000000
_cell_angle_beta 125.804699
_cell_angle_gamma 90.000000
_cell_volume 2897.910049
_symmetry_space_group_name_H-M "C 2/M"
_symmetry_group_IT_number 12
_symmetry_cell_setting 'monoclinic'
loop_
_space_group_symop_operation_xyz
x,y,z
-x,y,-z
-x,-y,-z
x,-y,z
1/2+x,1/2+y,z
1/2-x,1/2+y,-z
1/2-x,1/2-y,-z
1/2+x,1/2-y,z
loop_
_atom_site_type_symbol
_atom_site_label
_atom_site_fract_x
_atom_site_fract_y
_atom_site_fract_z
Si Si1 0.708609 0.751358 0.291644
Si Si2 0.334161 0.874194 0.542749
Si Si3 0.625485 0.748832 0.875070
Si Si4 0.582803 0.625552 0.040033
Si Si5 0.750792 0.874138 0.125683
Si Si6 0.499624 0.125306 0.623346
O O1 0.678162 0.821838 0.356324
O O2 0.774948 0.679469 0.404522
O O3 0.643483 0.678610 0.177907
O O4 0.737946 0.824701 0.227296
O O5 0.417675 0.855028 0.586755
O O6 0.322093 0.000000 0.535127
O O7 0.675345 0.675345 0.850690
O O8 0.560992 0.807207 0.746215
O O9 0.592975 0.679730 0.937353
O O10 0.682079 0.833759 0.984162
O O11 0.595478 0.500000 0.045583
O O12 0.500000 0.643676 0.000000
O O13 0.753785 0.000000 0.131802
O O14 0.500000 0.149311 0.500000
O O15 0.515838 0.000000 0.651679
#
# Coordination Sequence:
#
# PCOD9193233 Si02
#       6
#     8   8   8   8   8   8
#     4  10  20  34  53  76 103 135 170 208 250 297
#     4  10  20  34  53  76 103 135 170 208 250 297
#     4  10  20  34  53  76 102 132 167 208 253 300
#     4  10  20  34  53  76 103 135 170 208 250 297
#     4  10  20  34  53  76 102 132 167 208 253 300
#     4  10  20  34  53  76 102 132 167 208 253 300
#
# _framework density 16.563661
#
# number of rings (size 3 to 8) (size 9 to 14) (size 15 to 20)
#    0.000    2.000    0.000    4.000    0.000    0.000 
#    0.000    5.000    0.000   20.000    0.000    0.000 
#    0.000    0.000    0.000    0.000    0.000    0.000 
#
# Total GULP energy -134012.508319 kJ/mol
# GULP energy per Si atom -5583.854513 kJ/mol
# Density = 1.652596 g / cm^3
# Si number density = 16.563661 Si / 1000 Ang^3
#
#
#
# Elastic Constant Matrix: (Units=GPa)
#
#
# Indices 1 2 3 4 5 6 
#
# 1 156.6952 108.7705 104.1102 0.0000 -3.2663 0.0000
# 2 108.7705 151.7527 108.4177 0.0000 4.9429 0.0000
# 3 104.1102 108.4177 156.5236 0.0000 -1.9353 0.0000
# 4 0.0000 0.0000 0.0000 17.8994 0.0000 1.2531
# 5 -3.2663 4.9429 -1.9353 0.0000 22.5873 0.0000
# 6 0.0000 0.0000 0.0000 1.2531 0.0000 25.7354
#
#
#
# Elastic Compliance Matrix: (Units=1/GPa)
#
#
# Indices 1 2 3 4 5 6 
#
# 1 0.014537 -0.007221 -0.004627 0.000000 0.003286 0.000000
# 2 -0.007221 0.016937 -0.006995 0.000000 -0.005350 0.000000
# 3 -0.004627 -0.006995 0.014337 0.000000 0.002090 0.000000
# 4 0.000000 0.000000 0.000000 0.056059 0.000000 -0.002730
# 5 0.003286 -0.005350 0.002090 0.000000 0.046098 0.000000
# 6 0.000000 0.000000 0.000000 -0.002730 0.000000 0.038990
#
#
# Mechanical properties :
#
#
# Convention : Reuss Voigt Hill
#
# Bulk Modulus (GPa) = 123.06237 123.06313 123.06275
# Shear Modulus (GPa) = 21.99244 22.82262 22.40753
#
# Velocity S-wave (km/s) = 3.64779 3.71600 3.68205
# Velocity P-wave (km/s) = 9.60207 9.63690 9.61950
#
# Compressibility (1/GPa) = 0.00812596
#
# Stress axis : x y z
#
# Youngs Moduli (GPa) = 68.79087 59.04268 69.74935
#
# Poissons Ratio (x) = 0.42634 0.32271
# Poissons Ratio (y) = 0.49673 0.48788
# Poissons Ratio (z) = 0.31828 0.41299
#
# Static dielectric constant tensor:
#      x y z
#    x 1.536950 0.000000 -0.005520 
#    y 0.000000 1.523490 0.000000 
#    z -0.005520 0.000000 1.525760 
# 
# From -- ./inp_files/164707.got.cif
#   From: 2010.05.17/outbox.cif.g08.bks.cpg/sg12_83_cif.got.tgz:164707.got - 2010.06.03 13:09:07.
