data_PCOD9193912
_publ_section_title
;
Structure prediction by ZEFSAII (Michael W. Deem and Ramdas Pophale) SiO2 
 PCOD9193912
Probable space group: C 2/M
;
_chemical_formula_sum "Si O2"
_cell_formula_units_Z 64
_cell_length_a 8.437573
_cell_length_b 22.910286
_cell_length_c 21.886199
_cell_angle_alpha 90.000000
_cell_angle_beta 52.738206
_cell_angle_gamma 90.000000
_cell_volume 3367.166287
_symmetry_space_group_name_H-M "C 2/M"
_symmetry_group_IT_number 12
_symmetry_cell_setting 'monoclinic'
loop_
_space_group_symop_operation_xyz
x,y,z
-x,y,-z
-x,-y,-z
x,-y,z
1/2+x,1/2+y,z
1/2-x,1/2+y,-z
1/2-x,1/2-y,-z
1/2+x,1/2-y,z
loop_
_atom_site_type_symbol
_atom_site_label
_atom_site_fract_x
_atom_site_fract_y
_atom_site_fract_z
Si Si1 0.965614 0.246607 0.832576
Si Si2 0.817423 0.331221 0.363711
Si Si3 0.580447 0.728020 0.585288
Si Si4 0.071563 0.178548 0.914611
Si Si5 0.396285 0.654304 0.301431
Si Si6 0.841146 0.639925 0.215889
Si Si7 0.305165 0.934807 0.841078
Si Si8 0.437702 0.066826 0.667910
O O1 0.922639 0.202851 0.898345
O O2 0.070238 0.207047 0.755643
O O3 0.107090 0.298284 0.825990
O O4 0.776261 0.285230 0.858047
O O5 0.601369 0.300544 0.409723
O O6 0.963674 0.285798 0.363733
O O7 0.861100 0.342051 0.282567
O O8 0.859855 0.394297 0.383761
O O9 0.750000 0.750000 0.500000
O O10 0.646231 0.682203 0.622016
O O11 0.129471 0.111569 0.889321
O O12 0.000000 0.186509 0.000000
O O13 0.614630 0.624581 0.255044
O O14 0.233099 0.606414 0.322723
O O15 0.004717 0.590802 0.166504
O O16 0.373546 0.936249 0.754203
O O17 0.253569 0.000000 0.872077
O O18 0.455128 0.000000 0.641748
#
# Coordination Sequence:
#
# PCOD9193912 Si02
#       8
#     8   8   8   8   8   8   8   8
#     4  11  19  34  53  80 112 143 183 230 285 349
#     4  10  20  34  54  82 118 147 181 228 285 329
#     4  11  22  35  58  92 123 145 180 229 289 349
#     4  11  22  34  53  80 112 148 185 233 288 346
#     4  11  20  34  59  84 114 152 187 233 289 336
#     4   9  19  31  54  82 106 144 183 237 278 336
#     4   9  19  35  54  77 108 147 192 238 286 335
#     4  10  21  37  58  83 110 149 201 243 273 329
#
# _framework density 19.007079999999998
#
# number of rings (size 3 to 8) (size 9 to 14) (size 15 to 20)
#    0.000    1.750    3.750    1.500    1.750    0.750 
#    0.000    1.875    0.000    3.000    0.000    0.875 
#    0.000    0.000    0.000    0.000    0.000    0.000 
#
# Total GULP energy -178239.029772 kJ/mol
# GULP energy per Si atom -5569.969680 kJ/mol
# Density = 1.896382 g / cm^3
# Si number density = 19.007080 Si / 1000 Ang^3
#
#
#
# Elastic Constant Matrix: (Units=GPa)
#
#
# Indices 1 2 3 4 5 6 
#
# 1 61.4698 58.6138 5.2548 0.0000 -2.0079 0.0000
# 2 58.6138 155.7023 8.3379 0.0000 -5.9803 0.0000
# 3 5.2548 8.3379 24.7147 0.0000 6.4522 0.0000
# 4 0.0000 0.0000 0.0000 12.7996 0.0000 -1.4208
# 5 -2.0079 -5.9803 6.4522 0.0000 20.6856 0.0000
# 6 0.0000 0.0000 0.0000 -1.4208 0.0000 21.0435
#
#
#
# Elastic Compliance Matrix: (Units=1/GPa)
#
#
# Indices 1 2 3 4 5 6 
#
# 1 0.025501 -0.009455 -0.002357 0.000000 0.000477 0.000000
# 2 -0.009455 0.010200 -0.002135 0.000000 0.002697 0.000000
# 3 -0.002357 -0.002135 0.045619 0.000000 -0.015075 0.000000
# 4 0.000000 0.000000 0.000000 0.078717 0.000000 0.005315
# 5 0.000477 0.002697 -0.015075 0.000000 0.053871 0.000000
# 6 0.000000 0.000000 0.000000 0.005315 0.000000 0.047879
#
#
# Mechanical properties :
#
#
# Convention : Reuss Voigt Hill
#
# Bulk Modulus (GPa) = 18.71740 42.92221 30.81980
# Shear Modulus (GPa) = 16.26071 22.21777 19.23924
#
# Velocity S-wave (km/s) = 2.92808 3.42266 3.18498
# Velocity P-wave (km/s) = 4.61525 6.18471 5.45670
#
# Compressibility (1/GPa) = 0.05342622
#
# Stress axis : x y z
#
# Youngs Moduli (GPa) = 39.21375 98.04043 21.92089
#
# Poissons Ratio (x) = 0.92701 0.05166
# Poissons Ratio (y) = 0.37078 0.04680
# Poissons Ratio (z) = 0.09241 0.20929
#
# Static dielectric constant tensor:
#      x y z
#    x 1.769810 0.000000 -0.009340 
#    y 0.000000 1.688130 0.000000 
#    z -0.009340 0.000000 1.674150 
# 
# From -- ./inp_files/333724.got.cif
#   From: 2010.05.17/outbox.cif.g08.bks.cpg/sg12_167_cif.got.tgz:333724.got - 2010.06.03 13:09:07.
