data_PCOD9193082
_publ_section_title
;
Structure prediction by ZEFSAII (Michael W. Deem and Ramdas Pophale) SiO2 
 PCOD9193082
Probable space group: C 2/M
;
_chemical_formula_sum "Si O2"
_cell_formula_units_Z 56
_cell_length_a 15.473222
_cell_length_b 7.874210
_cell_length_c 18.097487
_cell_angle_alpha 90.000000
_cell_angle_beta 95.839136
_cell_angle_gamma 90.000000
_cell_volume 2193.546262
_symmetry_space_group_name_H-M "C 2/M"
_symmetry_group_IT_number 12
_symmetry_cell_setting 'monoclinic'
loop_
_space_group_symop_operation_xyz
x,y,z
-x,y,-z
-x,-y,-z
x,-y,z
1/2+x,1/2+y,z
1/2-x,1/2+y,-z
1/2-x,1/2-y,-z
1/2+x,1/2-y,z
loop_
_atom_site_type_symbol
_atom_site_label
_atom_site_fract_x
_atom_site_fract_y
_atom_site_fract_z
Si Si1 0.552751 0.205639 0.175375
Si Si2 0.655946 0.795530 0.326632
Si Si3 0.687364 0.799090 0.562180
Si Si4 0.488156 0.806830 0.400206
Si Si5 0.105728 0.186195 0.743915
Si Si6 0.364806 0.793323 0.967249
Si Si7 0.684445 0.194764 0.882992
O O1 0.627187 0.255563 0.241633
O O2 0.468720 0.294245 0.200840
O O3 0.568149 0.246588 0.091475
O O4 0.544532 0.000000 0.179623
O O5 0.751723 0.745756 0.362149
O O6 0.578832 0.731447 0.376320
O O7 0.652566 0.000000 0.329572
O O8 0.750000 0.750000 0.500000
O O9 0.586807 0.731245 0.551610
O O10 0.676896 0.000000 0.558813
O O11 0.426673 0.811345 0.321692
O O12 0.509206 0.000000 0.423331
O O13 0.186435 0.213438 0.804451
O O14 0.107091 0.000000 0.710037
O O15 0.278231 0.709364 0.927696
O O16 0.355316 0.000000 0.967641
O O17 0.374193 0.741621 0.053203
O O18 0.660521 0.000000 0.865079
#
# Coordination Sequence:
#
# PCOD9193082 Si02
#       7
#     8   8   8   8   8   8   8
#     4   9  19  37  58  80 110 147 188 233 290 348
#     4   9  19  38  62  87 119 156 195 239 291 346
#     4  11  24  41  63  92 123 154 195 235 284 350
#     4   9  21  42  63  86 119 160 197 237 293 354
#     4  11  22  35  55  82 111 145 192 240 285 341
#     4   9  19  35  54  78 107 146 193 236 285 344
#     4  10  20  34  52  76 111 149 188 237 290 342
#
# _framework density 25.529439
#
# number of rings (size 3 to 8) (size 9 to 14) (size 15 to 20)
#    0.000    2.286    0.000    3.000    2.000    5.714 
#    0.000    5.714    0.000    0.000    0.000    0.000 
#    0.000    0.000    0.000    0.000    0.000    0.000 
#
# Total GULP energy -156266.214601 kJ/mol
# GULP energy per Si atom -5580.936236 kJ/mol
# Density = 2.547133 g / cm^3
# Si number density = 25.529439 Si / 1000 Ang^3
#
#
#
# Elastic Constant Matrix: (Units=GPa)
#
#
# Indices 1 2 3 4 5 6 
#
# 1 140.7018 -14.0354 -11.6012 0.0000 -13.7581 0.0000
# 2 -14.0354 34.3054 9.7418 0.0000 -1.3591 0.0000
# 3 -11.6012 9.7418 61.5922 0.0000 -2.9568 0.0000
# 4 0.0000 0.0000 0.0000 15.7909 0.0000 -5.1093
# 5 -13.7581 -1.3591 -2.9568 0.0000 47.0348 0.0000
# 6 0.0000 0.0000 0.0000 -5.1093 0.0000 16.5099
#
#
#
# Elastic Compliance Matrix: (Units=1/GPa)
#
#
# Indices 1 2 3 4 5 6 
#
# 1 0.007728 0.002943 0.001106 0.000000 0.002415 0.000000
# 2 0.002943 0.031658 -0.004381 0.000000 0.001500 0.000000
# 3 0.001106 -0.004381 0.017198 0.000000 0.001278 0.000000
# 4 0.000000 0.000000 0.000000 0.070374 0.000000 0.021779
# 5 0.002415 0.001500 0.001278 0.000000 0.022091 0.000000
# 6 0.000000 0.000000 0.000000 0.021779 0.000000 0.067310
#
#
# Mechanical properties :
#
#
# Convention : Reuss Voigt Hill
#
# Bulk Modulus (GPa) = 17.88215 22.75666 20.31941
# Shear Modulus (GPa) = 21.21681 32.70006 26.95843
#
# Velocity S-wave (km/s) = 2.88596 3.58282 3.25310
# Velocity P-wave (km/s) = 4.25732 5.10379 4.69965
#
# Compressibility (1/GPa) = 0.05592167
#
# Stress axis : x y z
#
# Youngs Moduli (GPa) = 129.39619 31.58796 58.14495
#
# Poissons Ratio (x) = -0.09298 -0.06431
# Poissons Ratio (y) = -0.38087 0.25472
# Poissons Ratio (z) = -0.14312 0.13838
#
# Static dielectric constant tensor:
#      x y z
#    x 2.148570 0.000000 -0.030130 
#    y 0.000000 2.012160 0.000000 
#    z -0.030130 0.000000 2.123600 
# 
# From -- ./inp_files/308999.got.cif
#   From: 2010.05.17/outbox.cif.g08.bks.cpg/sg12_155_cif.got.tgz:308999.got - 2010.06.03 13:09:07.
