data_PCOD9193327
_publ_section_title
;
Structure prediction by ZEFSAII (Michael W. Deem and Ramdas Pophale) SiO2 
 PCOD9193327
Probable space group: C 2/M
;
_chemical_formula_sum "Si O2"
_cell_formula_units_Z 40
_cell_length_a 18.859806
_cell_length_b 7.825939
_cell_length_c 23.056419
_cell_angle_alpha 90.000000
_cell_angle_beta 144.868262
_cell_angle_gamma 90.000000
_cell_volume 1958.300983
_symmetry_space_group_name_H-M "C 2/M"
_symmetry_group_IT_number 12
_symmetry_cell_setting 'monoclinic'
loop_
_space_group_symop_operation_xyz
x,y,z
-x,y,-z
-x,-y,-z
x,-y,z
1/2+x,1/2+y,z
1/2-x,1/2+y,-z
1/2-x,1/2-y,-z
1/2+x,1/2-y,z
loop_
_atom_site_type_symbol
_atom_site_label
_atom_site_fract_x
_atom_site_fract_y
_atom_site_fract_z
Si Si1 0.726462 0.790126 0.808867
Si Si2 0.054922 0.294710 0.382341
Si Si3 0.381822 0.703694 0.802650
Si Si4 0.226737 0.296312 0.392487
Si Si5 0.339290 0.294220 0.006887
O O1 0.584918 0.732903 0.708674
O O2 0.808724 0.730885 0.809858
O O3 0.726078 0.000000 0.808120
O O4 0.783684 0.735276 0.908395
O O5 0.050410 0.500000 0.374798
O O6 0.128970 0.229464 0.375219
O O7 0.138814 0.251785 0.493786
O O8 0.391932 0.500000 0.817342
O O9 0.307821 0.733963 0.694117
O O10 0.521410 0.771355 0.891291
O O11 0.218014 0.500000 0.386322
O O12 0.344457 0.500000 0.007707
O O13 0.250000 0.250000 0.000000
#
# Coordination Sequence:
#
# PCOD9193327 Si02
#       5
#     8   8   8   8   8
#     4   9  18  34  55  77 102 135 175 214 251 298
#     4   9  18  34  55  75  99 136 178 214 250 300
#     4  10  20  34  54  78 104 136 173 211 252 303
#     4  10  20  34  53  77 106 136 169 214 261 303
#     4  10  20  35  56  80 105 134 170 211 255 304
#
# _framework density 20.42587
#
# number of rings (size 3 to 8) (size 9 to 14) (size 15 to 20)
#    0.000    2.400    0.000    2.400    0.000    6.400 
#    0.000    7.000    0.000    2.400    0.000    0.000 
#    0.000    0.000    0.000    0.000    0.000    0.000 
#
# Total GULP energy -111691.463412 kJ/mol
# GULP energy per Si atom -5584.573171 kJ/mol
# Density = 2.037938 g / cm^3
# Si number density = 20.425870 Si / 1000 Ang^3
#
#
#
# Elastic Constant Matrix: (Units=GPa)
#
#
# Indices 1 2 3 4 5 6 
#
# 1 268.1945 7.1415 164.9805 -0.0002 52.0423 0.0006
# 2 7.1415 22.5105 0.9295 0.0000 5.5815 0.0003
# 3 164.9805 0.9295 193.3626 0.0000 12.3805 0.0003
# 4 -0.0002 0.0000 0.0000 2.0250 -0.0001 6.0138
# 5 52.0423 5.5815 12.3805 -0.0001 71.5888 0.0003
# 6 0.0006 0.0003 0.0003 6.0138 0.0003 15.7973
#
#
#
# Elastic Compliance Matrix: (Units=1/GPa)
#
#
# Indices 1 2 3 4 5 6 
#
# 1 0.009738 -0.001373 -0.007944 -0.000005 -0.005598 0.000002
# 2 -0.001373 0.045493 0.001129 -0.000014 -0.002744 0.000005
# 3 -0.007944 0.001129 0.011709 0.000002 0.003662 -0.000001
# 4 -0.000005 -0.000014 0.000002 -3.782387 -0.000006 1.439908
# 5 -0.005598 -0.002744 0.003662 -0.000006 0.017619 0.000002
# 6 0.000002 0.000005 -0.000001 1.439908 0.000002 -0.484853
#
#
# Mechanical properties :
#
#
# Convention : Reuss Voigt Hill
#
# Bulk Modulus (GPa) = 19.77687 92.24118 56.00903
# Shear Modulus (GPa) = -1.20498 38.61662 18.70582
#
# Velocity S-wave (km/s) = -0.76890 4.35279 3.02949
# Velocity P-wave (km/s) = 2.98580 8.39758 6.30216
#
# Compressibility (1/GPa) = 0.05056411
#
# Stress axis : x y z
#
# Youngs Moduli (GPa) = 102.68892 21.98136 85.40096
#
# Poissons Ratio (x) = 0.03019 0.67840
# Poissons Ratio (y) = 0.14102 -0.09639
# Poissons Ratio (z) = 0.81573 -0.02481
#
# Static dielectric constant tensor:
#      x y z
#    x 1.707920 0.000000 0.015040 
#    y 0.000000 1.756860 0.000000 
#    z 0.015040 0.000000 1.698900 
# 
# From -- ./inp_files/140486.got.cif
#   From: 2010.05.17/outbox.cif.g08.bks.cpg/sg12_71_cif.got.tgz:140486.got - 2010.06.03 13:09:07.
