data_PCOD9193143
_publ_section_title
;
Structure prediction by ZEFSAII (Michael W. Deem and Ramdas Pophale) SiO2 
 PCOD9193143
Probable space group: C 2/M
;
_chemical_formula_sum "Si O2"
_cell_formula_units_Z 60
_cell_length_a 28.021240
_cell_length_b 14.501674
_cell_length_c 14.450379
_cell_angle_alpha 90.000000
_cell_angle_beta 35.118827
_cell_angle_gamma 90.000000
_cell_volume 3377.998999
_symmetry_space_group_name_H-M "C 2/M"
_symmetry_group_IT_number 12
_symmetry_cell_setting 'monoclinic'
loop_
_space_group_symop_operation_xyz
x,y,z
-x,y,-z
-x,-y,-z
x,-y,z
1/2+x,1/2+y,z
1/2-x,1/2+y,-z
1/2-x,1/2-y,-z
1/2+x,1/2-y,z
loop_
_atom_site_type_symbol
_atom_site_label
_atom_site_fract_x
_atom_site_fract_y
_atom_site_fract_z
Si Si1 0.291287 0.610242 0.491181
Si Si2 0.657961 0.104415 0.856377
Si Si3 0.413086 0.107281 0.690184
Si Si4 0.061107 0.754375 0.717591
Si Si5 0.500000 0.162579 0.000000
Si Si6 0.804287 0.609860 0.545917
Si Si7 0.113671 0.260571 0.093182
Si Si8 0.756702 0.893079 0.153484
O O1 0.300344 0.500000 0.476366
O O2 0.229429 0.635364 0.672644
O O3 0.377169 0.660477 0.372278
O O4 0.249149 0.635605 0.460026
O O5 0.573461 0.105776 0.930727
O O6 0.675064 0.000000 0.859954
O O7 0.646600 0.171539 0.960316
O O8 0.500000 0.124665 0.500000
O O9 0.398215 0.178876 0.796250
O O10 0.334781 0.115553 0.745610
O O11 0.415688 0.000000 0.719028
O O12 0.037782 0.723179 0.857958
O O13 0.112355 0.670092 0.590147
O O14 0.976794 0.773241 0.796482
O O15 0.823223 0.500000 0.511281
O O16 0.753933 0.626245 0.720117
O O17 0.178636 0.176863 0.995223
O O18 0.782662 0.000000 0.101410
#
# Coordination Sequence:
#
# PCOD9193143 Si02
#       8
#     8   8   8   8   4   8   8   8
#     4  10  21  36  54  76 111 156 194 231 269 321
#     4  10  20  34  52  79 111 143 182 228 281 331
#     4  10  21  40  64  89 113 139 179 233 286 338
#     4  11  22  33  52  77 112 147 189 227 270 332
#     4  10  21  30  47  74 106 144 177 228 281 316
#     4  10  20  35  57  81 107 149 193 233 280 324
#     4  11  23  36  57  86 114 149 180 227 284 335
#     4  10  22  39  60  83 112 147 187 231 277 330
#
# _framework density 17.761994999999999
#
# number of rings (size 3 to 8) (size 9 to 14) (size 15 to 20)
#    0.000    1.733    1.333    3.000    3.733    4.267 
#    0.000    0.333    0.000    0.400    0.000    0.000 
#    0.000    0.000    0.000    0.000    0.000    0.000 
#
# Total GULP energy -167550.355316 kJ/mol
# GULP energy per Si atom -5585.011844 kJ/mol
# Density = 1.772157 g / cm^3
# Si number density = 17.761995 Si / 1000 Ang^3
#
#
#
# Elastic Constant Matrix: (Units=GPa)
#
#
# Indices 1 2 3 4 5 6 
#
# 1 69.8491 44.4277 51.7220 0.0000 1.8850 0.0000
# 2 44.4277 74.2640 71.4649 0.0000 -1.3698 0.0000
# 3 51.7220 71.4649 126.4021 0.0000 -1.6308 0.0000
# 4 0.0000 0.0000 0.0000 -136.4957 0.0000 -21.0599
# 5 1.8850 -1.3698 -1.6308 0.0000 28.0895 0.0000
# 6 0.0000 0.0000 0.0000 -21.0599 0.0000 10.4658
#
#
#
# Elastic Compliance Matrix: (Units=1/GPa)
#
#
# Indices 1 2 3 4 5 6 
#
# 1 0.024036 -0.010811 -0.003753 0.000000 -0.002358 0.000000
# 2 -0.010811 0.034403 -0.015007 0.000000 0.001532 0.000000
# 3 -0.003753 -0.015007 0.017939 0.000000 0.000562 0.000000
# 4 0.000000 0.000000 0.000000 -0.005591 0.000000 -0.011250
# 5 -0.002358 0.001532 0.000562 0.000000 0.035866 0.000000
# 6 0.000000 0.000000 0.000000 -0.011250 0.000000 0.072912
#
#
# Mechanical properties :
#
#
# Convention : Reuss Voigt Hill
#
# Bulk Modulus (GPa) = 58.02164 67.30493 62.66329
# Shear Modulus (GPa) = 20.45390 -12.72803 3.86293
#
# Velocity S-wave (km/s) = 3.39714 -2.67982 1.47633
# Velocity P-wave (km/s) = 6.93718 5.32913 6.18563
#
# Compressibility (1/GPa) = 0.01723495
#
# Stress axis : x y z
#
# Youngs Moduli (GPa) = 41.60477 29.06757 55.74451
#
# Poissons Ratio (x) = 0.31424 0.20923
# Poissons Ratio (y) = 0.44978 0.83656
# Poissons Ratio (z) = 0.15616 0.43622
#
# Static dielectric constant tensor:
#      x y z
#    x 1.594850 0.000000 0.003010 
#    y 0.000000 1.611610 0.000000 
#    z 0.003010 0.000000 1.642820 
# 
# From -- ./inp_files/246716.got.cif
#   From: 2010.05.17/outbox.cif.g08.bks.cpg/sg12_124_cif.got.tgz:246716.got - 2010.06.03 13:09:07.
