data_PCOD9193432
_publ_section_title
;
Structure prediction by ZEFSAII (Michael W. Deem and Ramdas Pophale) SiO2 
 PCOD9193432
Probable space group: C 2/M
;
_chemical_formula_sum "Si O2"
_cell_formula_units_Z 40
_cell_length_a 20.603842
_cell_length_b 18.744181
_cell_length_c 5.023631
_cell_angle_alpha 90.000000
_cell_angle_beta 115.033623
_cell_angle_gamma 90.000000
_cell_volume 1757.879859
_symmetry_space_group_name_H-M "C 2/M"
_symmetry_group_IT_number 12
_symmetry_cell_setting 'monoclinic'
loop_
_space_group_symop_operation_xyz
x,y,z
-x,y,-z
-x,-y,-z
x,-y,z
1/2+x,1/2+y,z
1/2-x,1/2+y,-z
1/2-x,1/2-y,-z
1/2+x,1/2-y,z
loop_
_atom_site_type_symbol
_atom_site_label
_atom_site_fract_x
_atom_site_fract_y
_atom_site_fract_z
Si Si1 0.232679 0.581950 0.606736
Si Si2 0.135486 0.578926 0.936667
Si Si3 0.416326 0.228061 0.305659
Si Si4 0.550770 0.576018 0.341540
Si Si5 0.849747 0.199222 0.668925
O O1 0.264779 0.500000 0.633721
O O2 0.203777 0.585774 0.857015
O O3 0.279282 0.652645 0.617872
O O4 0.166256 0.582990 0.287475
O O5 0.104173 0.500000 0.838405
O O6 0.086059 0.645434 0.784013
O O7 0.500000 0.247042 0.500000
O O8 0.362938 0.240079 0.466376
O O9 0.384102 0.272592 0.002033
O O10 0.500000 0.587224 0.500000
O O11 0.588062 0.500000 0.443318
O O12 0.604083 0.638489 0.391370
O O13 0.500000 0.573059 0.000000
#
# Coordination Sequence:
#
# PCOD9193432 Si02
#       5
#     8   8   8   8   8
#     4  10  22  41  66  94 124 161 203 250 306 366
#     4  10  23  44  66  90 120 156 207 263 311 366
#     4  12  26  41  62  91 124 165 207 253 309 363
#     4  10  20  34  53  78 114 162 207 242 281 338
#     4  12  23  38  61  90 129 161 199 249 305 368
#
# _framework density 22.754681999999999
#
# number of rings (size 3 to 8) (size 9 to 14) (size 15 to 20)
#    0.000    1.200    0.000    6.600    0.000    5.200 
#    0.000    8.000    0.000    7.800    0.000    0.000 
#    0.000    0.000    0.000    0.000    0.000    0.000 
#
# Total GULP energy -111666.063427 kJ/mol
# GULP energy per Si atom -5583.303171 kJ/mol
# Density = 2.270289 g / cm^3
# Si number density = 22.754682 Si / 1000 Ang^3
#
#
#
# Elastic Constant Matrix: (Units=GPa)
#
#
# Indices 1 2 3 4 5 6 
#
# 1 39.7816 10.9764 17.2299 0.0000 -9.7037 0.0000
# 2 10.9764 146.3745 26.8209 0.0000 16.4226 0.0000
# 3 17.2299 26.8209 91.0980 0.0000 -20.7989 0.0000
# 4 0.0000 0.0000 0.0000 45.9685 0.0000 4.3100
# 5 -9.7037 16.4226 -20.7989 0.0000 30.7339 0.0000
# 6 0.0000 0.0000 0.0000 4.3100 0.0000 42.2796
#
#
#
# Elastic Compliance Matrix: (Units=1/GPa)
#
#
# Indices 1 2 3 4 5 6 
#
# 1 0.029205 -0.002679 -0.002724 0.000000 0.008810 0.000000
# 2 -0.002679 0.008655 -0.003892 0.000000 -0.008105 0.000000
# 3 -0.002724 -0.003892 0.015277 0.000000 0.011558 0.000000
# 4 0.000000 0.000000 0.000000 0.021964 0.000000 -0.002239
# 5 0.008810 -0.008105 0.011558 0.000000 0.047472 0.000000
# 6 0.000000 0.000000 0.000000 -0.002239 0.000000 0.023880
#
#
# Mechanical properties :
#
#
# Convention : Reuss Voigt Hill
#
# Bulk Modulus (GPa) = 28.94554 43.03429 35.98991
# Shear Modulus (GPa) = 28.31925 38.61150 33.46538
#
# Velocity S-wave (km/s) = 3.53164 4.12376 3.83913
# Velocity P-wave (km/s) = 5.42017 6.45192 5.95842
#
# Compressibility (1/GPa) = 0.03454764
#
# Stress axis : x y z
#
# Youngs Moduli (GPa) = 34.24076 115.53835 65.45766
#
# Poissons Ratio (x) = 0.30957 0.17828
# Poissons Ratio (y) = 0.09174 0.25475
# Poissons Ratio (z) = 0.09326 0.44966
#
# Static dielectric constant tensor:
#      x y z
#    x 1.852390 0.000000 -0.001550 
#    y 0.000000 1.959230 0.000000 
#    z -0.001550 0.000000 1.797210 
# 
# From -- ./inp_files/20262.got.cif
#   From: 2010.05.17/outbox.cif.g08.bks.cpg/sg12_11_cif.got.tgz:20262.got - 2010.06.03 13:09:07.
