data_PCOD9193546
_publ_section_title
;
Structure prediction by ZEFSAII (Michael W. Deem and Ramdas Pophale) SiO2 
 PCOD9193546
Probable space group: C 2/M
;
_chemical_formula_sum "Si O2"
_cell_formula_units_Z 58
_cell_length_a 16.149695
_cell_length_b 16.883130
_cell_length_c 11.459917
_cell_angle_alpha 90.000000
_cell_angle_beta 101.083211
_cell_angle_gamma 90.000000
_cell_volume 3066.353789
_symmetry_space_group_name_H-M "C 2/M"
_symmetry_group_IT_number 12
_symmetry_cell_setting 'monoclinic'
loop_
_space_group_symop_operation_xyz
x,y,z
-x,y,-z
-x,-y,-z
x,-y,z
1/2+x,1/2+y,z
1/2-x,1/2+y,-z
1/2-x,1/2-y,-z
1/2+x,1/2-y,z
loop_
_atom_site_type_symbol
_atom_site_label
_atom_site_fract_x
_atom_site_fract_y
_atom_site_fract_z
Si Si1 0.615643 0.843223 0.011067
Si Si2 0.061623 0.767386 0.781719
Si Si3 0.000000 0.500000 0.000000
Si Si4 0.069827 0.089233 0.934930
Si Si5 0.246396 0.910725 0.103868
Si Si6 0.907402 0.594400 0.534336
Si Si7 0.120376 0.711870 0.276398
Si Si8 0.791146 0.305478 0.333839
O O1 0.571054 0.790515 0.898044
O O2 0.706594 0.860562 0.981839
O O3 0.623372 0.801475 0.137985
O O4 0.571224 0.928370 0.011428
O O5 0.082793 0.855084 0.829353
O O6 0.130714 0.740711 0.706021
O O7 0.963774 0.762525 0.717553
O O8 0.044392 0.000000 0.895016
O O9 0.151426 0.085104 0.036850
O O10 0.000000 0.126080 0.000000
O O11 0.257818 0.866875 0.228140
O O12 0.281062 0.000000 0.122042
O O13 0.894254 0.500000 0.527832
O O14 0.900689 0.629408 0.663042
O O15 0.835658 0.642926 0.446042
O O16 0.000000 0.609061 0.500000
O O17 0.209510 0.750848 0.339467
#
# Coordination Sequence:
#
# PCOD9193546 Si02
#       8
#     8   8   2   8   8   8   8   8
#     4  11  22  34  56  92 128 162 195 239 304 371
#     4  11  21  38  59  88 125 161 198 239 302 362
#     4  12  20  32  52  88 134 160 198 240 294 378
#     4  10  20  34  53  81 118 159 201 239 284 349
#     4  10  20  34  56  85 124 159 193 242 292 352
#     4  11  25  45  66  89 118 154 204 261 320 368
#     4  12  23  39  64  88 121 162 201 253 302 367
#     4  11  23  40  61  90 118 159 205 248 302 366
#
# _framework density 18.914971999999999
#
# number of rings (size 3 to 8) (size 9 to 14) (size 15 to 20)
#    0.000    1.103    3.448    4.138    0.966    2.207 
#    2.483    1.379    0.000    0.000    0.000    1.931 
#    0.000    0.000    0.000    0.000    0.000    0.000 
#
# Total GULP energy -161554.155804 kJ/mol
# GULP energy per Si atom -5570.832959 kJ/mol
# Density = 1.887192 g / cm^3
# Si number density = 18.914972 Si / 1000 Ang^3
#
#
#
# Elastic Constant Matrix: (Units=GPa)
#
#
# Indices 1 2 3 4 5 6 
#
# 1 101.2108 25.2370 28.1064 0.0000 11.9861 0.0000
# 2 25.2370 64.2320 9.8426 0.0000 0.4662 0.0000
# 3 28.1064 9.8426 41.2819 0.0000 -6.4512 0.0000
# 4 0.0000 0.0000 0.0000 18.6541 0.0000 -3.8072
# 5 11.9861 0.4662 -6.4512 0.0000 14.2925 0.0000
# 6 0.0000 0.0000 0.0000 -3.8072 0.0000 29.5660
#
#
#
# Elastic Compliance Matrix: (Units=1/GPa)
#
#
# Indices 1 2 3 4 5 6 
#
# 1 0.017334 -0.004522 -0.013956 0.000000 -0.020689 0.000000
# 2 -0.004522 0.017418 -0.000614 0.000000 0.002947 0.000000
# 3 -0.013956 -0.000614 0.038414 0.000000 0.029063 0.000000
# 4 0.000000 0.000000 0.000000 0.055054 0.000000 0.007089
# 5 -0.020689 0.002947 0.029063 0.000000 0.100339 0.000000
# 6 0.000000 0.000000 0.000000 0.007089 0.000000 0.034735
#
#
# Mechanical properties :
#
#
# Convention : Reuss Voigt Hill
#
# Bulk Modulus (GPa) = 28.58647 37.01075 32.79861
# Shear Modulus (GPa) = 15.96736 22.07178 19.01957
#
# Velocity S-wave (km/s) = 2.90860 3.41969 3.17445
# Velocity P-wave (km/s) = 5.14062 5.93311 5.55102
#
# Compressibility (1/GPa) = 0.03498158
#
# Stress axis : x y z
#
# Youngs Moduli (GPa) = 57.69118 57.41249 26.03224
#
# Poissons Ratio (x) = 0.25960 0.36332
# Poissons Ratio (y) = 0.26086 0.01598
# Poissons Ratio (z) = 0.80516 0.03524
#
# Static dielectric constant tensor:
#      x y z
#    x 1.687110 0.000000 -0.005070 
#    y 0.000000 1.658590 0.000000 
#    z -0.005070 0.000000 1.680390 
# 
# From -- ./inp_files/145632.got.cif
#   From: 2010.05.17/outbox.cif.g08.bks.cpg/sg12_73_cif.got.tgz:145632.got - 2010.06.03 13:09:07.
