data_PCOD9193150
_publ_section_title
;
Structure prediction by ZEFSAII (Michael W. Deem and Ramdas Pophale) SiO2 
 PCOD9193150
Probable space group: C 2/M
;
_chemical_formula_sum "Si O2"
_cell_formula_units_Z 58
_cell_length_a 14.162014
_cell_length_b 12.978057
_cell_length_c 20.005669
_cell_angle_alpha 90.000000
_cell_angle_beta 123.232934
_cell_angle_gamma 90.000000
_cell_volume 3075.583103
_symmetry_space_group_name_H-M "C 2/M"
_symmetry_group_IT_number 12
_symmetry_cell_setting 'monoclinic'
loop_
_space_group_symop_operation_xyz
x,y,z
-x,y,-z
-x,-y,-z
x,-y,z
1/2+x,1/2+y,z
1/2-x,1/2+y,-z
1/2-x,1/2-y,-z
1/2+x,1/2-y,z
loop_
_atom_site_type_symbol
_atom_site_label
_atom_site_fract_x
_atom_site_fract_y
_atom_site_fract_z
Si Si1 0.697981 0.618429 0.663914
Si Si2 0.089696 0.878576 0.764250
Si Si3 0.681822 0.874667 0.078737
Si Si4 0.593515 0.157281 0.425370
Si Si5 0.562162 0.798097 0.267241
Si Si6 0.359958 0.384307 0.508745
Si Si7 0.000000 0.500000 0.500000
Si Si8 0.977719 0.376330 0.097522
O O1 0.740565 0.500000 0.687487
O O2 0.629041 0.641143 0.703568
O O3 0.806563 0.690223 0.699268
O O4 0.631263 0.622444 0.568456
O O5 0.193712 0.842108 0.851404
O O6 0.977261 0.818069 0.737329
O O7 0.075536 0.000000 0.767023
O O8 0.589756 0.844458 0.099277
O O9 0.683678 0.000000 0.079658
O O10 0.630115 0.840939 0.987711
O O11 0.545991 0.144949 0.331844
O O12 0.591580 0.279384 0.441823
O O13 0.725443 0.122896 0.473052
O O14 0.531665 0.089910 0.456413
O O15 0.490657 0.841314 0.178050
O O16 0.400063 0.500000 0.545224
O O17 0.976384 0.500000 0.096098
#
# Coordination Sequence:
#
# PCOD9193150 Si02
#       8
#     8   8   8   8   8   8   2   8
#     4   9  18  35  58  78 106 138 176 232 274 311
#     4  10  20  34  52  79 113 143 176 218 275 323
#     4   8  15  30  52  80 105 138 171 218 276 315
#     4  10  23  36  56  80 113 146 185 224 288 328
#     4  11  21  32  55  85 107 141 184 223 266 327
#     4   9  18  39  60  79 100 147 192 230 271 334
#     4  12  24  40  50  80 120 148 172 236 284 340
#     4   9  16  29  54  81 108 132 175 227 267 313
#
# _framework density 18.858212999999999
#
# number of rings (size 3 to 8) (size 9 to 14) (size 15 to 20)
#    0.000    2.483    2.069    1.241    3.862    1.103 
#    0.000    0.345    0.000    1.655    0.000    1.931 
#    0.000    0.000    0.000    0.000    0.000    0.000 
#
# Total GULP energy -161542.433643 kJ/mol
# GULP energy per Si atom -5570.428746 kJ/mol
# Density = 1.881529 g / cm^3
# Si number density = 18.858213 Si / 1000 Ang^3
#
#
#
# Elastic Constant Matrix: (Units=GPa)
#
#
# Indices 1 2 3 4 5 6 
#
# 1 60.3853 46.4147 44.4937 0.0000 -2.6682 0.0000
# 2 46.4147 86.8803 46.1238 0.0000 -2.3298 0.0000
# 3 44.4937 46.1238 120.2171 0.0000 -19.7045 0.0000
# 4 0.0000 0.0000 0.0000 23.3733 0.0000 -0.3598
# 5 -2.6682 -2.3298 -19.7045 0.0000 29.0773 0.0000
# 6 0.0000 0.0000 0.0000 -0.3598 0.0000 24.8395
#
#
#
# Elastic Compliance Matrix: (Units=1/GPa)
#
#
# Indices 1 2 3 4 5 6 
#
# 1 0.032006 -0.013346 -0.007221 0.000000 -0.003026 0.000000
# 2 -0.013346 0.020244 -0.003108 0.000000 -0.001708 0.000000
# 3 -0.007221 -0.003108 0.013537 0.000000 0.008262 0.000000
# 4 0.000000 0.000000 0.000000 0.042793 0.000000 0.000620
# 5 -0.003026 -0.001708 0.008262 0.000000 0.039575 0.000000
# 6 0.000000 0.000000 0.000000 0.000620 0.000000 0.040267
#
#
# Mechanical properties :
#
#
# Convention : Reuss Voigt Hill
#
# Bulk Modulus (GPa) = 54.23708 60.17191 57.20449
# Shear Modulus (GPa) = 20.66806 24.15473 22.41140
#
# Velocity S-wave (km/s) = 3.31414 3.58279 3.45108
# Velocity P-wave (km/s) = 6.59299 7.00657 6.80293
#
# Compressibility (1/GPa) = 0.01843757
#
# Stress axis : x y z
#
# Youngs Moduli (GPa) = 31.24425 49.39709 73.86953
#
# Poissons Ratio (x) = 0.65927 0.53342
# Poissons Ratio (y) = 0.41699 0.22955
# Poissons Ratio (z) = 0.22562 0.15350
#
# Static dielectric constant tensor:
#      x y z
#    x 1.657260 0.000000 0.022320 
#    y 0.000000 1.646900 0.000000 
#    z 0.022320 0.000000 1.708360 
# 
# From -- ./inp_files/309998.got.cif
#   From: 2010.05.17/outbox.cif.g08.bks.cpg/sg12_155_cif.got.tgz:309998.got - 2010.06.03 13:09:07.
