data_PCOD9193134
_publ_section_title
;
Structure prediction by ZEFSAII (Michael W. Deem and Ramdas Pophale) SiO2 
 PCOD9193134
Probable space group: C 2/M
;
_chemical_formula_sum "Si O2"
_cell_formula_units_Z 36
_cell_length_a 8.683269
_cell_length_b 15.901784
_cell_length_c 17.208232
_cell_angle_alpha 90.000000
_cell_angle_beta 133.681795
_cell_angle_gamma 90.000000
_cell_volume 1718.366294
_symmetry_space_group_name_H-M "C 2/M"
_symmetry_group_IT_number 12
_symmetry_cell_setting 'monoclinic'
loop_
_space_group_symop_operation_xyz
x,y,z
-x,y,-z
-x,-y,-z
x,-y,z
1/2+x,1/2+y,z
1/2-x,1/2+y,-z
1/2-x,1/2-y,-z
1/2+x,1/2-y,z
loop_
_atom_site_type_symbol
_atom_site_label
_atom_site_fract_x
_atom_site_fract_y
_atom_site_fract_z
Si Si1 0.563402 0.323880 0.367732
Si Si2 0.406598 0.167248 0.217165
Si Si3 0.500000 0.753089 0.500000
Si Si4 0.470752 0.500000 0.616296
Si Si5 0.375437 0.000000 0.642415
Si Si6 0.008182 0.278879 0.919108
O O1 0.503334 0.250870 0.289210
O O2 0.450467 0.306748 0.410483
O O3 0.814373 0.311843 0.465919
O O4 0.523585 0.417600 0.329531
O O5 0.505377 0.166149 0.164255
O O6 0.156702 0.198669 0.134648
O O7 0.480675 0.083749 0.289764
O O8 0.678720 0.500000 0.634487
O O9 0.257542 0.500000 0.486138
O O10 0.250000 0.250000 0.000000
O O11 0.000000 0.324067 0.000000
#
# Coordination Sequence:
#
# PCOD9193134 Si02
#       6
#     8   8   4   4   4   8
#     4  11  21  36  57  82 117 165 205 247 291 349
#     4  11  21  38  63  88 118 159 207 246 300 369
#     4  10  20  34  52  78 116 158 204 244 292 338
#     4  11  22  35  54  86 131 168 204 248 290 332
#     4  11  22  36  58  90 125 166 204 242 292 357
#     4   9  20  40  64  87 112 147 191 254 317 362
#
# _framework density 20.950130000000001
#
# number of rings (size 3 to 8) (size 9 to 14) (size 15 to 20)
#    0.000    1.556    0.000    8.000    0.000    0.444 
#    0.000   10.000    0.000    8.000    0.000    0.000 
#    0.000    0.000    0.000    0.000    0.000    0.000 
#
# Total GULP energy -100216.542183 kJ/mol
# GULP energy per Si atom -5567.585677 kJ/mol
# Density = 2.090245 g / cm^3
# Si number density = 20.950130 Si / 1000 Ang^3
#
#
#
# Elastic Constant Matrix: (Units=GPa)
#
#
# Indices 1 2 3 4 5 6 
#
# 1 90.2028 22.5617 29.8262 0.0000 5.8383 0.0000
# 2 22.5617 154.4013 31.7819 0.0000 10.8498 0.0000
# 3 29.8262 31.7819 79.4214 0.0000 7.0905 0.0000
# 4 0.0000 0.0000 0.0000 20.4752 0.0000 2.3082
# 5 5.8383 10.8498 7.0905 0.0000 43.2192 0.0000
# 6 0.0000 0.0000 0.0000 2.3082 0.0000 21.3682
#
#
#
# Elastic Compliance Matrix: (Units=1/GPa)
#
#
# Indices 1 2 3 4 5 6 
#
# 1 0.012813 -0.000917 -0.004375 0.000000 -0.000783 0.000000
# 2 -0.000917 0.007199 -0.002422 0.000000 -0.001286 0.000000
# 3 -0.004375 -0.002422 0.015321 0.000000 -0.001314 0.000000
# 4 0.000000 0.000000 0.000000 0.049442 0.000000 -0.005341
# 5 -0.000783 -0.001286 -0.001314 0.000000 0.023782 0.000000
# 6 0.000000 0.000000 0.000000 -0.005341 0.000000 0.047375
#
#
# Mechanical properties :
#
#
# Convention : Reuss Voigt Hill
#
# Bulk Modulus (GPa) = 50.23719 54.70725 52.47222
# Shear Modulus (GPa) = 28.09074 33.00289 30.54681
#
# Velocity S-wave (km/s) = 3.66572 3.97332 3.82261
# Velocity P-wave (km/s) = 6.47674 6.87164 6.67711
#
# Compressibility (1/GPa) = 0.01990557
#
# Stress axis : x y z
#
# Youngs Moduli (GPa) = 78.04742 138.89879 65.27163
#
# Poissons Ratio (x) = 0.12733 0.28556
# Poissons Ratio (y) = 0.07154 0.15808
# Poissons Ratio (z) = 0.34146 0.33640
#
# Static dielectric constant tensor:
#      x y z
#    x 1.826780 0.000000 -0.010940 
#    y 0.000000 1.827010 0.000000 
#    z -0.010940 0.000000 1.947190 
# 
# From -- ./inp_files/256283.got.cif
#   From: 2010.05.17/outbox.cif.g08.bks.cpg/sg12_129_cif.got.tgz:256283.got - 2010.06.03 13:09:07.
