data_PCOD9193743
_publ_section_title
;
Structure prediction by ZEFSAII (Michael W. Deem and Ramdas Pophale) SiO2 
 PCOD9193743
Probable space group: C 2/M
;
_chemical_formula_sum "Si O2"
_cell_formula_units_Z 48
_cell_length_a 13.909374
_cell_length_b 11.912241
_cell_length_c 18.488699
_cell_angle_alpha 90.000000
_cell_angle_beta 47.691715
_cell_angle_gamma 90.000000
_cell_volume 2265.507050
_symmetry_space_group_name_H-M "C 2/M"
_symmetry_group_IT_number 12
_symmetry_cell_setting 'monoclinic'
loop_
_space_group_symop_operation_xyz
x,y,z
-x,y,-z
-x,-y,-z
x,-y,z
1/2+x,1/2+y,z
1/2-x,1/2+y,-z
1/2-x,1/2-y,-z
1/2+x,1/2-y,z
loop_
_atom_site_type_symbol
_atom_site_label
_atom_site_fract_x
_atom_site_fract_y
_atom_site_fract_z
Si Si1 0.818099 0.627882 0.034577
Si Si2 0.310008 0.729555 0.176179
Si Si3 0.954668 0.769157 0.846797
Si Si4 0.461786 0.124825 0.706915
Si Si5 0.861991 0.872224 0.636588
Si Si6 0.384336 0.259163 0.474544
O O1 0.849605 0.500000 0.036836
O O2 0.853384 0.717824 0.078429
O O3 0.662609 0.643964 0.104537
O O4 0.889407 0.667270 0.925592
O O5 0.427048 0.686200 0.165556
O O6 0.192585 0.642825 0.224496
O O7 0.243169 0.833758 0.252356
O O8 0.000706 0.716352 0.747668
O O9 0.534168 0.152284 0.595120
O O10 0.492997 0.000000 0.715410
O O11 0.854133 0.785461 0.573477
O O12 0.007354 0.856346 0.595483
O O13 0.843467 0.000000 0.622303
O O14 0.250000 0.250000 0.500000
#
# Coordination Sequence:
#
# PCOD9193743 Si02
#       6
#     8   8   8   8   8   8
#     4  10  21  36  56  85 115 143 182 228 270 319
#     4  10  21  37  57  83 112 143 184 228 270 322
#     4  10  21  37  57  82 113 147 183 223 270 326
#     4  10  22  38  56  80 111 146 184 224 270 327
#     4  10  21  38  58  81 109 143 183 226 274 328
#     4  10  20  34  54  80 106 136 180 226 266 318
#
# _framework density 21.18731
#
# number of rings (size 3 to 8) (size 9 to 14) (size 15 to 20)
#    0.000    2.000    0.000    3.500    0.000    6.667 
#    0.000    7.500    0.000   26.000    0.000    0.000 
#    0.000    0.000    0.000    0.000    0.000    0.000 
#
# Total GULP energy -133872.817120 kJ/mol
# GULP energy per Si atom -5578.034047 kJ/mol
# Density = 2.113909 g / cm^3
# Si number density = 21.187310 Si / 1000 Ang^3
#
#
#
# Elastic Constant Matrix: (Units=GPa)
#
#
# Indices 1 2 3 4 5 6 
#
# 1 118.9295 -6.9908 11.7035 0.0000 -5.4818 0.0000
# 2 -6.9908 39.1464 14.8466 0.0000 10.8020 0.0000
# 3 11.7035 14.8466 73.3302 0.0000 8.2438 0.0000
# 4 0.0000 0.0000 0.0000 7.7239 0.0000 7.4461
# 5 -5.4818 10.8020 8.2438 0.0000 33.9899 0.0000
# 6 0.0000 0.0000 0.0000 7.4461 0.0000 2.5032
#
#
#
# Elastic Compliance Matrix: (Units=1/GPa)
#
#
# Indices 1 2 3 4 5 6 
#
# 1 0.008772 0.001952 -0.001937 0.000000 0.001264 0.000000
# 2 0.001952 0.030181 -0.005530 0.000000 -0.007935 0.000000
# 3 -0.001937 -0.005530 0.015321 0.000000 -0.002271 0.000000
# 4 0.000000 0.000000 0.000000 -0.069320 0.000000 0.206203
# 5 0.001264 -0.007935 -0.002271 0.000000 0.032697 0.000000
# 6 0.000000 0.000000 0.000000 0.206203 0.000000 -0.213894
#
#
# Mechanical properties :
#
#
# Convention : Reuss Voigt Hill
#
# Bulk Modulus (GPa) = 23.12458 30.05829 26.59143
# Shear Modulus (GPa) = -29.27426 22.96651 -3.15387
#
# Velocity S-wave (km/s) = -3.72114 3.29595 -1.22139
# Velocity P-wave (km/s) = 2.74307 5.35743 3.25405
#
# Compressibility (1/GPa) = 0.04324403
#
# Stress axis : x y z
#
# Youngs Moduli (GPa) = 113.99864 33.13368 65.26958
#
# Poissons Ratio (x) = -0.06469 0.12646
# Poissons Ratio (y) = -0.22258 0.36094
# Poissons Ratio (z) = 0.22086 0.18323
#
# Static dielectric constant tensor:
#      x y z
#    x 1.814060 0.000000 -0.006890 
#    y 0.000000 1.693940 0.000000 
#    z -0.006890 0.000000 1.761520 
# 
# From -- ./inp_files/309403.got.cif
#   From: 2010.05.17/outbox.cif.g08.bks.cpg/sg12_155_cif.got.tgz:309403.got - 2010.06.03 13:09:07.
