data_PCOD9193511
_publ_section_title
;
Structure prediction by ZEFSAII (Michael W. Deem and Ramdas Pophale) SiO2 
 PCOD9193511
Probable space group: C 2/M
;
_chemical_formula_sum "Si O2"
_cell_formula_units_Z 56
_cell_length_a 14.664116
_cell_length_b 24.900572
_cell_length_c 9.885821
_cell_angle_alpha 90.000000
_cell_angle_beta 41.733610
_cell_angle_gamma 90.000000
_cell_volume 2402.900448
_symmetry_space_group_name_H-M "C 2/M"
_symmetry_group_IT_number 12
_symmetry_cell_setting 'monoclinic'
loop_
_space_group_symop_operation_xyz
x,y,z
-x,y,-z
-x,-y,-z
x,-y,z
1/2+x,1/2+y,z
1/2-x,1/2+y,-z
1/2-x,1/2-y,-z
1/2+x,1/2-y,z
loop_
_atom_site_type_symbol
_atom_site_label
_atom_site_fract_x
_atom_site_fract_y
_atom_site_fract_z
Si Si1 0.282835 0.171518 0.651097
Si Si2 0.004312 0.288344 0.214650
Si Si3 0.779623 0.287752 0.217278
Si Si4 0.115436 0.436331 0.772496
Si Si5 0.438812 0.327997 0.346472
Si Si6 0.934353 0.939440 0.426355
Si Si7 0.362780 0.059914 0.566877
O O1 0.432178 0.182952 0.419689
O O2 0.251717 0.224671 0.770454
O O3 0.171735 0.172405 0.653012
O O4 0.279192 0.111381 0.711257
O O5 0.888995 0.290095 0.221862
O O6 0.025454 0.225661 0.227258
O O7 0.143088 0.310875 0.997819
O O8 0.644217 0.315706 0.422909
O O9 0.109166 0.500000 0.798898
O O10 0.274226 0.423618 0.621117
O O11 0.096998 0.427450 0.633502
O O12 0.000000 0.412355 0.000000
O O13 0.499385 0.387729 0.281257
O O14 0.000000 0.942931 0.500000
O O15 0.941766 0.000000 0.357024
O O16 0.500000 0.057079 0.500000
O O17 0.297937 0.000000 0.641006
#
# Coordination Sequence:
#
# PCOD9193511 Si02
#       7
#     8   8   8   8   8   8   8
#     4   9  16  29  50  76 105 140 183 226 278 341
#     4   8  15  28  48  74 103 137 178 229 282 332
#     4   8  15  28  48  74 103 137 178 229 282 332
#     4   9  18  34  56  81 109 145 191 239 283 332
#     4   9  16  29  50  76 105 140 183 226 278 341
#     4  10  20  34  53  80 113 149 184 229 288 342
#     4  10  20  34  53  80 113 149 184 229 288 342
#
# _framework density 23.305167000000001
#
# number of rings (size 3 to 8) (size 9 to 14) (size 15 to 20)
#    0.000    3.000    1.429    1.714    0.000    1.143 
#    0.000    4.286    0.000    4.286    0.000    4.000 
#    0.000    0.000    0.000    0.000    0.000    0.000 
#
# Total GULP energy -156162.161984 kJ/mol
# GULP energy per Si atom -5577.220071 kJ/mol
# Density = 2.325212 g / cm^3
# Si number density = 23.305167 Si / 1000 Ang^3
#
#
#
# Elastic Constant Matrix: (Units=GPa)
#
#
# Indices 1 2 3 4 5 6 
#
# 1 64.5178 -0.3291 3.4386 0.0000 -3.5388 0.0000
# 2 -0.3291 160.9798 -0.8526 0.0000 0.8607 0.0000
# 3 3.4386 -0.8526 55.3594 0.0000 7.4092 0.0000
# 4 0.0000 0.0000 0.0000 7.1902 0.0000 -2.2058
# 5 -3.5388 0.8607 7.4092 0.0000 3.5340 0.0000
# 6 0.0000 0.0000 0.0000 -2.2058 0.0000 25.0393
#
#
#
# Elastic Compliance Matrix: (Units=1/GPa)
#
#
# Indices 1 2 3 4 5 6 
#
# 1 0.017240 -0.000135 -0.004709 0.000000 0.027169 0.000000
# 2 -0.000135 0.006228 0.000452 0.000000 -0.002600 0.000000
# 3 -0.004709 0.000452 0.026424 0.000000 -0.060224 0.000000
# 4 0.000000 0.000000 0.000000 0.142941 0.000000 0.012592
# 5 0.027169 -0.002600 -0.060224 0.000000 0.437068 0.000000
# 6 0.000000 0.000000 0.000000 0.012592 0.000000 0.041046
#
#
# Mechanical properties :
#
#
# Convention : Reuss Voigt Hill
#
# Bulk Modulus (GPa) = 24.32621 31.70789 28.01705
# Shear Modulus (GPa) = 7.21050 25.72605 16.46828
#
# Velocity S-wave (km/s) = 1.76087 3.32607 2.66115
# Velocity P-wave (km/s) = 3.82034 5.32779 4.63575
#
# Compressibility (1/GPa) = 0.04110792
#
# Stress axis : x y z
#
# Youngs Moduli (GPa) = 58.00424 160.56564 37.84494
#
# Poissons Ratio (x) = 0.02167 0.17822
# Poissons Ratio (y) = 0.00783 -0.01712
# Poissons Ratio (z) = 0.27316 -0.07263
#
# Static dielectric constant tensor:
#      x y z
#    x 1.874940 0.000000 -0.003190 
#    y 0.000000 1.932380 0.000000 
#    z -0.003190 0.000000 1.851090 
# 
# From -- ./inp_files/149435.got.cif
#   From: 2010.05.17/outbox.cif.g08.bks.cpg/sg12_75_cif.got.tgz:149435.got - 2010.06.03 13:09:07.
