data_PCOD9193231
_publ_section_title
;
Structure prediction by ZEFSAII (Michael W. Deem and Ramdas Pophale) SiO2 
 PCOD9193231
Probable space group: C 2/M
;
_chemical_formula_sum "Si O2"
_cell_formula_units_Z 64
_cell_length_a 28.913558
_cell_length_b 8.825200
_cell_length_c 14.648943
_cell_angle_alpha 90.000000
_cell_angle_beta 74.285530
_cell_angle_gamma 90.000000
_cell_volume 3598.228895
_symmetry_space_group_name_H-M "C 2/M"
_symmetry_group_IT_number 12
_symmetry_cell_setting 'monoclinic'
loop_
_space_group_symop_operation_xyz
x,y,z
-x,y,-z
-x,-y,-z
x,-y,z
1/2+x,1/2+y,z
1/2-x,1/2+y,-z
1/2-x,1/2-y,-z
1/2+x,1/2-y,z
loop_
_atom_site_type_symbol
_atom_site_label
_atom_site_fract_x
_atom_site_fract_y
_atom_site_fract_z
Si Si1 0.445584 0.816173 0.525508
Si Si2 0.183141 0.682539 0.721718
Si Si3 0.628137 0.817375 0.275054
Si Si4 0.583891 0.183324 0.106737
Si Si5 0.019147 0.327310 0.884983
Si Si6 0.886787 0.820952 0.101965
Si Si7 0.139851 0.316760 0.553140
Si Si8 0.794405 0.818635 0.639648
O O1 0.500000 0.758629 0.500000
O O2 0.415183 0.778023 0.632247
O O3 0.412151 0.768442 0.458148
O O4 0.448037 0.000000 0.520461
O O5 0.180492 0.500000 0.730866
O O6 0.159636 0.755231 0.823104
O O7 0.152887 0.729395 0.648416
O O8 0.238658 0.724509 0.677077
O O9 0.613377 0.774748 0.180756
O O10 0.675385 0.739184 0.289622
O O11 0.634074 0.000000 0.275796
O O12 0.527490 0.227563 0.145148
O O13 0.583592 0.000000 0.098422
O O14 0.605131 0.251290 0.002743
O O15 0.031365 0.500000 0.850997
O O16 0.066802 0.228902 0.862975
O O17 0.000000 0.332345 0.000000
O O18 0.884697 0.000000 0.096330
O O19 0.141659 0.500000 0.548150
O O20 0.179658 0.254055 0.461940
O O21 0.797428 0.000000 0.631391
#
# Coordination Sequence:
#
# PCOD9193231 Si02
#       8
#     8   8   8   8   8   8   8   8
#     4   8  14  26  47  77 106 127 156 201 245 287
#     4  10  21  36  53  73  99 135 175 212 255 307
#     4   9  18  33  54  77 100 133 176 213 249 299
#     4   9  18  34  55  75  99 137 179 213 246 297
#     4   8  15  30  51  72  97 131 168 204 243 292
#     4  11  22  33  49  76 107 135 167 213 263 305
#     4   9  18  33  54  76  99 132 171 209 248 299
#     4  10  20  34  53  76 102 131 165 211 263 311
#
# _framework density 17.786529999999999
#
# number of rings (size 3 to 8) (size 9 to 14) (size 15 to 20)
#    0.000    2.750    0.000    3.375    0.000    5.250 
#    0.000    4.375    0.000    6.000    0.000    0.000 
#    0.000    0.000    0.000    0.000    0.000    0.000 
#
# Total GULP energy -178420.356572 kJ/mol
# GULP energy per Si atom -5575.636143 kJ/mol
# Density = 1.774605 g / cm^3
# Si number density = 17.786530 Si / 1000 Ang^3
#
#
#
# Elastic Constant Matrix: (Units=GPa)
#
#
# Indices 1 2 3 4 5 6 
#
# 1 120.9007 25.6574 61.0952 0.0000 0.1543 0.0000
# 2 25.6574 16.7164 18.3979 0.0000 0.9204 0.0000
# 3 61.0952 18.3979 66.7279 0.0000 11.6142 0.0000
# 4 0.0000 0.0000 0.0000 14.5306 0.0000 -6.0641
# 5 0.1543 0.9204 11.6142 0.0000 27.6584 0.0000
# 6 0.0000 0.0000 0.0000 -6.0641 0.0000 19.3474
#
#
#
# Elastic Compliance Matrix: (Units=1/GPa)
#
#
# Indices 1 2 3 4 5 6 
#
# 1 0.018099 -0.012466 -0.014229 0.000000 0.006289 0.000000
# 2 -0.012466 0.095993 -0.015654 0.000000 0.003448 0.000000
# 3 -0.014229 -0.015654 0.034766 0.000000 -0.013999 0.000000
# 4 0.000000 0.000000 0.000000 0.079177 0.000000 0.024817
# 5 0.006289 0.003448 -0.013999 0.000000 0.041884 0.000000
# 6 0.000000 0.000000 0.000000 0.024817 0.000000 0.059465
#
#
# Mechanical properties :
#
#
# Convention : Reuss Voigt Hill
#
# Bulk Modulus (GPa) = 15.58546 46.07177 30.82862
# Shear Modulus (GPa) = 11.48191 18.92024 15.20107
#
# Velocity S-wave (km/s) = 2.54350 3.26504 2.92659
# Velocity P-wave (km/s) = 4.17222 6.33820 5.36564
#
# Compressibility (1/GPa) = 0.06416235
#
# Stress axis : x y z
#
# Youngs Moduli (GPa) = 55.25182 10.41742 28.76338
#
# Poissons Ratio (x) = 0.12986 0.40927
# Poissons Ratio (y) = 0.68875 0.45025
# Poissons Ratio (z) = 0.78617 0.16307
#
# Static dielectric constant tensor:
#      x y z
#    x 1.624490 0.000000 0.010600 
#    y 0.000000 1.597140 0.000000 
#    z 0.010600 0.000000 1.591740 
# 
# From -- ./inp_files/243846.got.cif
#   From: 2010.05.17/outbox.cif.g08.bks.cpg/sg12_122_cif.got.tgz:243846.got - 2010.06.03 13:09:07.
