data_PCOD9193001
_publ_section_title
;
Structure prediction by ZEFSAII (Michael W. Deem and Ramdas Pophale) SiO2 
 PCOD9193001
Probable space group: C 2/M
;
_chemical_formula_sum "Si O2"
_cell_formula_units_Z 52
_cell_length_a 8.796055
_cell_length_b 11.337664
_cell_length_c 27.500522
_cell_angle_alpha 90.000000
_cell_angle_beta 92.724017
_cell_angle_gamma 90.000000
_cell_volume 2739.437797
_symmetry_space_group_name_H-M "C 2/M"
_symmetry_group_IT_number 12
_symmetry_cell_setting 'monoclinic'
loop_
_space_group_symop_operation_xyz
x,y,z
-x,y,-z
-x,-y,-z
x,-y,z
1/2+x,1/2+y,z
1/2-x,1/2+y,-z
1/2-x,1/2-y,-z
1/2+x,1/2-y,z
loop_
_atom_site_type_symbol
_atom_site_label
_atom_site_fract_x
_atom_site_fract_y
_atom_site_fract_z
Si Si1 0.274239 0.369537 0.438751
Si Si2 0.449271 0.632783 0.175315
Si Si3 0.050606 0.362699 0.948429
Si Si4 0.227573 0.863632 0.674953
Si Si5 0.403740 0.363330 0.716783
Si Si6 0.500000 0.201694 0.500000
Si Si7 0.695909 0.741716 0.114818
O O1 0.341994 0.500000 0.443045
O O2 0.241264 0.346729 0.381711
O O3 0.394050 0.279532 0.463152
O O4 0.119679 0.365170 0.467707
O O5 0.390956 0.500000 0.174288
O O6 0.524580 0.654546 0.228579
O O7 0.579405 0.649238 0.136522
O O8 0.310276 0.715995 0.158534
O O9 0.082638 0.500000 0.955069
O O10 0.198156 0.304295 0.926887
O O11 0.911760 0.342553 0.908987
O O12 0.000000 0.312945 0.000000
O O13 0.299468 0.750114 0.703283
O O14 0.047137 0.861114 0.682421
O O15 0.277181 0.000000 0.689274
O O16 0.340031 0.500000 0.714188
#
# Coordination Sequence:
#
# PCOD9193001 Si02
#       7
#     8   8   8   8   8   4   8
#     4  10  20  35  54  77 106 138 174 217 262 311
#     4  10  20  35  54  76 104 135 171 215 259 307
#     4  10  20  34  52  75 103 134 169 209 253 304
#     4  10  21  37  56  80 110 142 178 220 266 317
#     4  10  21  37  56  80 108 140 179 221 266 317
#     4  10  20  34  54  78 104 136 176 214 262 312
#     4  10  20  34  53  76 102 134 171 209 257 306
#
# _framework density 18.981997
#
# number of rings (size 3 to 8) (size 9 to 14) (size 15 to 20)
#    0.000    2.000    0.000    3.692    0.000    0.615 
#    0.000    7.692    0.000    7.385    0.000    0.000 
#    0.000    0.000    0.000    0.000    0.000    0.000 
#
# Total GULP energy -144902.961114 kJ/mol
# GULP energy per Si atom -5573.190812 kJ/mol
# Density = 1.893879 g / cm^3
# Si number density = 18.981997 Si / 1000 Ang^3
#
#
#
# Elastic Constant Matrix: (Units=GPa)
#
#
# Indices 1 2 3 4 5 6 
#
# 1 52.8883 6.6398 -8.2711 0.0000 -0.6753 0.0000
# 2 6.6398 77.0420 4.0014 0.0000 18.9635 0.0000
# 3 -8.2711 4.0014 43.0104 0.0000 -7.2866 0.0000
# 4 0.0000 0.0000 0.0000 6.0127 0.0000 5.2314
# 5 -0.6753 18.9635 -7.2866 0.0000 26.5024 0.0000
# 6 0.0000 0.0000 0.0000 5.2314 0.0000 18.0862
#
#
#
# Elastic Compliance Matrix: (Units=1/GPa)
#
#
# Indices 1 2 3 4 5 6 
#
# 1 0.020080 -0.002951 0.004804 0.000000 0.003944 0.000000
# 2 -0.002951 0.016720 -0.004366 0.000000 -0.013239 0.000000
# 3 0.004804 -0.004366 0.026358 0.000000 0.010493 0.000000
# 4 0.000000 0.000000 0.000000 0.222247 0.000000 -0.064284
# 5 0.003944 -0.013239 0.010493 0.000000 0.050191 0.000000
# 6 0.000000 0.000000 0.000000 -0.064284 0.000000 0.073885
#
#
# Mechanical properties :
#
#
# Convention : Reuss Voigt Hill
#
# Bulk Modulus (GPa) = 17.20212 19.74233 18.47223
# Shear Modulus (GPa) = 11.52385 21.49163 16.50774
#
# Velocity S-wave (km/s) = 2.46660 3.36848 2.95219
# Velocity P-wave (km/s) = 4.14658 5.05490 4.62311
#
# Compressibility (1/GPa) = 0.05813237
#
# Stress axis : x y z
#
# Youngs Moduli (GPa) = 49.80108 59.80948 37.93922
#
# Poissons Ratio (x) = 0.17649 -0.18226
# Poissons Ratio (y) = 0.14696 0.16564
# Poissons Ratio (z) = -0.23925 0.26112
#
# Static dielectric constant tensor:
#      x y z
#    x 1.634060 0.000000 -0.016550 
#    y 0.000000 1.668700 0.000000 
#    z -0.016550 0.000000 1.669460 
# 
# From -- ./inp_files/355525.got.cif
#   From: 2010.05.17/outbox.cif.g08.bks.cpg/sg12_178_cif.got.tgz:355525.got - 2010.06.03 13:09:07.
