data_PCOD9193728
_publ_section_title
;
Structure prediction by ZEFSAII (Michael W. Deem and Ramdas Pophale) SiO2 
 PCOD9193728
Probable space group: C 2/M
;
_chemical_formula_sum "Si O2"
_cell_formula_units_Z 56
_cell_length_a 29.180698
_cell_length_b 8.896039
_cell_length_c 19.515171
_cell_angle_alpha 90.000000
_cell_angle_beta 138.734772
_cell_angle_gamma 90.000000
_cell_volume 3341.254467
_symmetry_space_group_name_H-M "C 2/M"
_symmetry_group_IT_number 12
_symmetry_cell_setting 'monoclinic'
loop_
_space_group_symop_operation_xyz
x,y,z
-x,y,-z
-x,-y,-z
x,-y,z
1/2+x,1/2+y,z
1/2-x,1/2+y,-z
1/2-x,1/2-y,-z
1/2+x,1/2-y,z
loop_
_atom_site_type_symbol
_atom_site_label
_atom_site_fract_x
_atom_site_fract_y
_atom_site_fract_z
Si Si1 0.644026 0.321102 0.872584
Si Si2 0.788764 0.820980 0.294458
Si Si3 0.250026 0.678178 0.888397
Si Si4 0.561391 0.179437 0.514590
Si Si5 0.737854 0.678380 0.376978
Si Si6 0.981795 0.820234 0.679243
Si Si7 0.639187 0.178339 0.374524
O O1 0.652406 0.500000 0.868157
O O2 0.683245 0.230346 0.857343
O O3 0.562699 0.287296 0.783509
O O4 0.684203 0.289317 0.988651
O O5 0.750217 0.765547 0.182967
O O6 0.866545 0.752854 0.380752
O O7 0.751923 0.757720 0.320933
O O8 0.792572 0.000000 0.301290
O O9 0.246772 0.500000 0.872201
O O10 0.500000 0.207816 0.500000
O O11 0.540332 0.247631 0.417784
O O12 0.571018 0.000000 0.518862
O O13 0.729525 0.500000 0.358500
O O14 0.673488 0.747018 0.346442
O O15 0.805402 0.702764 0.501362
O O16 0.932077 0.753043 0.681517
O O17 0.972717 0.000000 0.665395
O O18 0.631670 0.000000 0.356721
#
# Coordination Sequence:
#
# PCOD9193728 Si02
#       7
#     8   8   8   8   8   8   8
#     4   9  20  37  56  80 108 142 184 225 267 317
#     4  12  23  35  54  79 109 142 179 221 269 320
#     4  10  20  36  57  79 107 143 184 227 268 314
#     4  11  23  36  50  74 108 144 179 216 265 320
#     4  10  20  35  55  78 108 141 178 219 265 319
#     4  11  21  34  54  79 109 142 177 218 267 319
#     4  10  20  34  54  79 109 141 178 218 263 319
#
# _framework density 16.760173999999999
#
# number of rings (size 3 to 8) (size 9 to 14) (size 15 to 20)
#    0.000    1.571    1.429    4.286    0.000    6.286 
#    0.000    0.000    0.000    0.857    0.000    6.000 
#    0.000    0.000    0.000    0.000    0.000    0.000 
#
# Total GULP energy -156459.568618 kJ/mol
# GULP energy per Si atom -5587.841736 kJ/mol
# Density = 1.672203 g / cm^3
# Si number density = 16.760174 Si / 1000 Ang^3
#
#
#
# Elastic Constant Matrix: (Units=GPa)
#
#
# Indices 1 2 3 4 5 6 
#
# 1 90.8199 52.6913 28.2969 0.0000 -16.7970 0.0000
# 2 52.6913 77.2413 30.8040 0.0000 -12.9297 0.0000
# 3 28.2969 30.8040 42.4952 0.0000 -11.5008 0.0000
# 4 0.0000 0.0000 0.0000 24.5569 0.0000 -3.2681
# 5 -16.7970 -12.9297 -11.5008 0.0000 22.5584 0.0000
# 6 0.0000 0.0000 0.0000 -3.2681 0.0000 33.8666
#
#
#
# Elastic Compliance Matrix: (Units=1/GPa)
#
#
# Indices 1 2 3 4 5 6 
#
# 1 0.019631 -0.010949 -0.003339 0.000000 0.006640 0.000000
# 2 -0.010949 0.024684 -0.010417 0.000000 0.000685 0.000000
# 3 -0.003339 -0.010417 0.035983 0.000000 0.009888 0.000000
# 4 0.000000 0.000000 0.000000 0.041251 0.000000 0.003981
# 5 0.006640 0.000685 0.009888 0.000000 0.054707 0.000000
# 6 0.000000 0.000000 0.000000 0.003981 0.000000 0.029912
#
#
# Mechanical properties :
#
#
# Convention : Reuss Voigt Hill
#
# Bulk Modulus (GPa) = 32.37415 48.23788 40.30601
# Shear Modulus (GPa) = 18.80589 22.78067 20.79328
#
# Velocity S-wave (km/s) = 3.35335 3.69075 3.52609
# Velocity P-wave (km/s) = 5.86100 6.85609 6.37798
#
# Compressibility (1/GPa) = 0.03088884
#
# Stress axis : x y z
#
# Youngs Moduli (GPa) = 50.93914 40.51127 27.79126
#
# Poissons Ratio (x) = 0.44355 0.09278
# Poissons Ratio (y) = 0.55773 0.28951
# Poissons Ratio (z) = 0.17006 0.42202
#
# Static dielectric constant tensor:
#      x y z
#    x 1.544070 0.000000 0.000470 
#    y 0.000000 1.556770 0.000000 
#    z 0.000470 0.000000 1.547420 
# 
# From -- ./inp_files/288160.got.cif
#   From: 2010.05.17/outbox.cif.g08.bks.cpg/sg12_145_cif.got.tgz:288160.got - 2010.06.03 13:09:07.
