data_PCOD9193052
_publ_section_title
;
Structure prediction by ZEFSAII (Michael W. Deem and Ramdas Pophale) SiO2 
 PCOD9193052
Probable space group: C 2/M
;
_chemical_formula_sum "Si O2"
_cell_formula_units_Z 56
_cell_length_a 14.826171
_cell_length_b 7.501122
_cell_length_c 31.907557
_cell_angle_alpha 90.000000
_cell_angle_beta 49.321113
_cell_angle_gamma 90.000000
_cell_volume 2691.116837
_symmetry_space_group_name_H-M "C 2/M"
_symmetry_group_IT_number 12
_symmetry_cell_setting 'monoclinic'
loop_
_space_group_symop_operation_xyz
x,y,z
-x,y,-z
-x,-y,-z
x,-y,z
1/2+x,1/2+y,z
1/2-x,1/2+y,-z
1/2-x,1/2-y,-z
1/2+x,1/2-y,z
loop_
_atom_site_type_symbol
_atom_site_label
_atom_site_fract_x
_atom_site_fract_y
_atom_site_fract_z
Si Si1 0.388036 0.290409 0.640359
Si Si2 0.311968 0.717980 0.142484
Si Si3 0.574361 0.283700 0.070932
Si Si4 0.100115 0.283488 0.266239
Si Si5 0.808979 0.206188 0.048904
Si Si6 0.846913 0.787685 0.435462
Si Si7 0.666654 0.792898 0.656021
O O1 0.393935 0.500000 0.627655
O O2 0.368139 0.271464 0.696079
O O3 0.521325 0.217755 0.592467
O O4 0.277695 0.213464 0.647658
O O5 0.306883 0.500000 0.143329
O O6 0.440275 0.767107 0.122300
O O7 0.199731 0.777621 0.203473
O O8 0.311411 0.782480 0.094633
O O9 0.582638 0.500000 0.068405
O O10 0.675475 0.215740 0.071343
O O11 0.609214 0.220394 0.013368
O O12 0.097532 0.500000 0.266707
O O13 0.966281 0.218042 0.296922
O O14 0.845524 0.000000 0.042271
O O15 0.750000 0.750000 0.500000
O O16 0.812425 0.715066 0.400227
O O17 0.856597 0.000000 0.427287
O O18 0.658898 0.000000 0.671177
#
# Coordination Sequence:
#
# PCOD9193052 Si02
#       7
#     8   8   8   8   8   8   8
#     4   9  19  35  53  72  98 131 161 193 238 283
#     4   9  17  30  48  69  93 124 159 193 237 290
#     4   9  17  30  47  67  93 123 155 194 240 288
#     4   9  18  32  50  71  94 122 161 203 235 276
#     4   9  17  30  48  68  91 122 159 196 236 287
#     4  10  20  34  52  76 104 130 159 196 234 276
#     4   9  18  34  53  71  95 129 163 195 235 280
#
# _framework density 20.809204000000001
#
# number of rings (size 3 to 8) (size 9 to 14) (size 15 to 20)
#    0.000    2.857    0.000    0.857    0.000    4.571 
#    0.000    6.429    0.000    3.429    0.000    0.000 
#    0.000    0.000    0.000    0.000    0.000    0.000 
#
# Total GULP energy -156200.340348 kJ/mol
# GULP energy per Si atom -5578.583584 kJ/mol
# Density = 2.076184 g / cm^3
# Si number density = 20.809204 Si / 1000 Ang^3
#
#
#
# Elastic Constant Matrix: (Units=GPa)
#
#
# Indices 1 2 3 4 5 6 
#
# 1 162.4569 -0.5413 69.7905 -0.0006 -21.4964 -0.0012
# 2 -0.5413 53.4834 -4.2454 -0.0014 -5.2272 -0.0037
# 3 69.7905 -4.2454 92.1657 0.0003 -25.3809 -0.0009
# 4 -0.0006 -0.0014 0.0003 11.1709 0.0006 3.0367
# 5 -21.4964 -5.2272 -25.3809 0.0006 13.8125 0.0002
# 6 -0.0012 -0.0037 -0.0009 3.0367 0.0002 7.8607
#
#
#
# Elastic Compliance Matrix: (Units=1/GPa)
#
#
# Indices 1 2 3 4 5 6 
#
# 1 0.009188 -0.000105 -0.006144 0.000000 0.002968 0.000000
# 2 -0.000105 0.021147 0.006503 -0.000001 0.019789 0.000011
# 3 -0.006144 0.006503 0.028031 -0.000004 0.044406 0.000006
# 4 0.000000 -0.000001 -0.000004 0.100022 -0.000011 -0.038639
# 5 0.002968 0.019789 0.044406 -0.000011 0.166105 0.000014
# 6 0.000000 0.000011 0.000006 -0.038639 0.000014 0.142141
#
#
# Mechanical properties :
#
#
# Convention : Reuss Voigt Hill
#
# Bulk Modulus (GPa) = 16.98578 48.67932 32.83255
# Shear Modulus (GPa) = 10.29336 22.77564 16.53450
#
# Velocity S-wave (km/s) = 2.22650 3.31191 2.82188
# Velocity P-wave (km/s) = 3.84578 6.17000 5.14096
#
# Compressibility (1/GPa) = 0.05887278
#
# Stress axis : x y z
#
# Youngs Moduli (GPa) = 108.84334 47.28900 35.67467
#
# Poissons Ratio (x) = 0.00495 0.21920
# Poissons Ratio (y) = 0.01139 -0.23199
# Poissons Ratio (z) = 0.66878 -0.30751
#
# Static dielectric constant tensor:
#      x y z
#    x 1.744290 0.000000 -0.028070 
#    y 0.000000 1.803110 0.000000 
#    z -0.028070 0.000000 1.714110 
# 
# From -- ./inp_files/337894.got.cif
#   From: 2010.05.17/outbox.cif.g08.bks.cpg/sg12_169_cif.got.tgz:337894.got - 2010.06.03 13:09:07.
