data_PCOD9193069
_publ_section_title
;
Structure prediction by ZEFSAII (Michael W. Deem and Ramdas Pophale) SiO2 
 PCOD9193069
Probable space group: C 2/M
;
_chemical_formula_sum "Si O2"
_cell_formula_units_Z 56
_cell_length_a 19.078853
_cell_length_b 8.572403
_cell_length_c 30.160033
_cell_angle_alpha 90.000000
_cell_angle_beta 142.330542
_cell_angle_gamma 90.000000
_cell_volume 3014.412086
_symmetry_space_group_name_H-M "C 2/M"
_symmetry_group_IT_number 12
_symmetry_cell_setting 'monoclinic'
loop_
_space_group_symop_operation_xyz
x,y,z
-x,y,-z
-x,-y,-z
x,-y,z
1/2+x,1/2+y,z
1/2-x,1/2+y,-z
1/2-x,1/2-y,-z
1/2+x,1/2-y,z
loop_
_atom_site_type_symbol
_atom_site_label
_atom_site_fract_x
_atom_site_fract_y
_atom_site_fract_z
Si Si1 0.671106 0.188920 0.499597
Si Si2 0.709936 0.814538 0.932452
Si Si3 0.954660 0.187371 0.799454
Si Si4 0.633536 0.811557 0.068326
Si Si5 0.749019 0.810629 0.635212
Si Si6 0.092574 0.688625 0.639240
Si Si7 0.795265 0.686871 0.797408
O O1 0.750000 0.250000 0.500000
O O2 0.718490 0.244336 0.570942
O O3 0.539289 0.237388 0.426428
O O4 0.672545 0.000000 0.500654
O O5 0.580815 0.756298 0.859154
O O6 0.794275 0.756638 0.935998
O O7 0.711424 0.000000 0.934832
O O8 0.750000 0.750000 0.000000
O O9 0.870470 0.237840 0.717104
O O10 0.890591 0.240728 0.812334
O O11 0.961164 0.000000 0.802650
O O12 0.684003 0.765710 0.141481
O O13 0.638270 0.000000 0.067459
O O14 0.500000 0.765187 0.000000
O O15 0.652003 0.766646 0.622380
O O16 0.750072 0.000000 0.634448
O O17 0.098082 0.500000 0.645218
O O18 0.172311 0.759335 0.717331
O O19 0.804452 0.500000 0.799333
#
# Coordination Sequence:
#
# PCOD9193069 Si02
#       7
#     8   8   8   8   8   8   8
#     4  10  20  34  52  76 107 142 182 228 279 331
#     4  12  25  40  60  85 115 149 186 228 274 326
#     4  10  20  37  61  86 113 145 184 229 278 333
#     4  10  22  40  60  82 111 147 186 228 276 329
#     4   8  16  33  57  79 101 138 185 227 267 320
#     4   9  18  34  56  78 103 142 189 230 270 326
#     4  10  20  35  58  86 115 146 182 229 281 333
#
# _framework density 18.577421000000001
#
# number of rings (size 3 to 8) (size 9 to 14) (size 15 to 20)
#    0.000    2.143    0.000    4.286    0.000    6.000 
#    0.000    7.857    0.000    4.286    0.000    0.000 
#    0.000    0.000    0.000    0.000    0.000    0.000 
#
# Total GULP energy -156366.014594 kJ/mol
# GULP energy per Si atom -5584.500521 kJ/mol
# Density = 1.853514 g / cm^3
# Si number density = 18.577421 Si / 1000 Ang^3
#
#
#
# Elastic Constant Matrix: (Units=GPa)
#
#
# Indices 1 2 3 4 5 6 
#
# 1 164.7968 46.1002 146.1566 0.0000 0.9140 0.0000
# 2 46.1002 44.7819 48.8754 0.0000 -0.1322 0.0000
# 3 146.1566 48.8754 191.7351 0.0000 1.2695 0.0000
# 4 0.0000 0.0000 0.0000 22.7609 0.0000 0.3163
# 5 0.9140 -0.1322 1.2695 0.0000 38.6411 0.0000
# 6 0.0000 0.0000 0.0000 0.3163 0.0000 35.3552
#
#
#
# Elastic Compliance Matrix: (Units=1/GPa)
#
#
# Indices 1 2 3 4 5 6 
#
# 1 0.019621 -0.005369 -0.013588 0.000000 -0.000036 0.000000
# 2 -0.005369 0.032412 -0.004172 0.000000 0.000375 0.000000
# 3 -0.013588 -0.004172 0.016639 0.000000 -0.000239 0.000000
# 4 0.000000 0.000000 0.000000 0.043940 0.000000 -0.000393
# 5 -0.000036 0.000375 -0.000239 0.000000 0.025889 0.000000
# 6 0.000000 0.000000 0.000000 -0.000393 0.000000 0.028288
#
#
# Mechanical properties :
#
#
# Convention : Reuss Voigt Hill
#
# Bulk Modulus (GPa) = 44.61556 98.17534 71.39545
# Shear Modulus (GPa) = 22.67376 30.03022 26.35199
#
# Velocity S-wave (km/s) = 3.49736 4.02492 3.77038
# Velocity P-wave (km/s) = 6.35428 8.63489 7.58084
#
# Compressibility (1/GPa) = 0.02241370
#
# Stress axis : x y z
#
# Youngs Moduli (GPa) = 50.96450 30.85296 60.10040
#
# Poissons Ratio (x) = 0.16564 0.81667
# Poissons Ratio (y) = 0.27361 0.25075
# Poissons Ratio (z) = 0.69252 0.12872
#
# Static dielectric constant tensor:
#      x y z
#    x 1.602590 0.000000 -0.005820 
#    y 0.000000 1.637570 0.000000 
#    z -0.005820 0.000000 1.640140 
# 
# From -- ./inp_files/377759.got.cif
#   From: 2010.05.17/outbox.cif.g08.bks.cpg/sg12_189_cif.got.tgz:377759.got - 2010.06.03 13:09:07.
