data_PCOD9193523
_publ_section_title
;
Structure prediction by ZEFSAII (Michael W. Deem and Ramdas Pophale) SiO2 
 PCOD9193523
Probable space group: C 2/M
;
_chemical_formula_sum "Si O2"
_cell_formula_units_Z 64
_cell_length_a 9.385178
_cell_length_b 26.251268
_cell_length_c 15.459333
_cell_angle_alpha 90.000000
_cell_angle_beta 54.983171
_cell_angle_gamma 90.000000
_cell_volume 3119.311337
_symmetry_space_group_name_H-M "C 2/M"
_symmetry_group_IT_number 12
_symmetry_cell_setting 'monoclinic'
loop_
_space_group_symop_operation_xyz
x,y,z
-x,y,-z
-x,-y,-z
x,-y,z
1/2+x,1/2+y,z
1/2-x,1/2+y,-z
1/2-x,1/2-y,-z
1/2+x,1/2-y,z
loop_
_atom_site_type_symbol
_atom_site_label
_atom_site_fract_x
_atom_site_fract_y
_atom_site_fract_z
Si Si1 0.716684 0.278731 0.603302
Si Si2 0.001400 0.642213 0.896223
Si Si3 0.314666 0.059707 0.422410
Si Si4 0.792909 0.788594 0.064223
Si Si5 0.691161 0.719232 0.259144
Si Si6 0.394574 0.881306 0.614299
Si Si7 0.906830 0.939417 0.328787
Si Si8 0.774683 0.441783 0.239187
O O1 0.750000 0.250000 0.500000
O O2 0.513085 0.294162 0.675613
O O3 0.763919 0.238819 0.661186
O O4 0.831791 0.327955 0.593829
O O5 0.164625 0.677270 0.811602
O O6 0.052340 0.587203 0.844998
O O7 0.823383 0.662847 0.918074
O O8 0.000000 0.644341 0.000000
O O9 0.458962 0.105736 0.366634
O O10 0.174913 0.070387 0.546867
O O11 0.234277 0.059810 0.355210
O O12 0.378810 0.000000 0.413016
O O13 0.725302 0.763817 0.176917
O O14 0.750000 0.750000 0.000000
O O15 0.000000 0.796171 0.000000
O O16 0.500000 0.909506 0.500000
O O17 0.219923 0.911522 0.693336
O O18 0.102520 0.920237 0.253764
O O19 0.903557 0.000000 0.318395
O O20 0.791898 0.500000 0.207697
#
# Coordination Sequence:
#
# PCOD9193523 Si02
#       8
#     8   8   8   8   8   8   8   8
#     4  12  26  41  57  88 136 179 210 245 309 394
#     4  12  25  42  67  95 122 163 215 271 333 379
#     4   9  18  34  59  89 122 161 213 269 309 363
#     4  12  21  43  70  98 121 149 211 286 330 363
#     4  12  23  41  65  90 124 168 212 266 313 372
#     4  10  20  34  53  80 119 167 213 248 300 361
#     4   9  17  34  59  88 122 161 208 259 305 363
#     4  10  22  39  60  93 129 162 203 256 324 393
#
# _framework density 20.517347999999998
#
# number of rings (size 3 to 8) (size 9 to 14) (size 15 to 20)
#    0.000    1.250    3.750    2.625    1.750    5.250 
#    0.000    3.750    0.000    0.375    0.000    0.000 
#    0.000    0.000    0.000    0.000    0.000    0.000 
#
# Total GULP energy -178372.509555 kJ/mol
# GULP energy per Si atom -5574.140924 kJ/mol
# Density = 2.047065 g / cm^3
# Si number density = 20.517348 Si / 1000 Ang^3
#
#
#
# Elastic Constant Matrix: (Units=GPa)
#
#
# Indices 1 2 3 4 5 6 
#
# 1 83.5612 18.9692 36.8195 0.0000 -21.3035 0.0000
# 2 18.9692 51.8211 24.3052 0.0000 -10.7253 0.0000
# 3 36.8195 24.3052 67.1482 0.0000 -6.9777 0.0000
# 4 0.0000 0.0000 0.0000 27.3264 0.0000 -8.9092
# 5 -21.3035 -10.7253 -6.9777 0.0000 42.8753 0.0000
# 6 0.0000 0.0000 0.0000 -8.9092 0.0000 27.7525
#
#
#
# Elastic Compliance Matrix: (Units=1/GPa)
#
#
# Indices 1 2 3 4 5 6 
#
# 1 0.017856 -0.000966 -0.008691 0.000000 0.007216 0.000000
# 2 -0.000966 0.024190 -0.007779 0.000000 0.004305 0.000000
# 3 -0.008691 -0.007779 0.022198 0.000000 -0.002652 0.000000
# 4 0.000000 0.000000 0.000000 0.040872 0.000000 0.013121
# 5 0.007216 0.004305 -0.002652 0.000000 0.027554 0.000000
# 6 0.000000 0.000000 0.000000 0.013121 0.000000 0.040245
#
#
# Mechanical properties :
#
#
# Convention : Reuss Voigt Hill
#
# Bulk Modulus (GPa) = 34.04649 40.30206 37.17428
# Shear Modulus (GPa) = 22.98009 27.75328 25.36668
#
# Velocity S-wave (km/s) = 3.35032 3.68186 3.52000
# Velocity P-wave (km/s) = 5.62105 6.14495 5.88883
#
# Compressibility (1/GPa) = 0.02937160
#
# Stress axis : x y z
#
# Youngs Moduli (GPa) = 56.00360 41.33887 45.04852
#
# Poissons Ratio (x) = 0.03995 0.39153
# Poissons Ratio (y) = 0.05412 0.35042
# Poissons Ratio (z) = 0.48675 0.32157
#
# Static dielectric constant tensor:
#      x y z
#    x 1.811310 0.000000 -0.014770 
#    y 0.000000 1.821660 0.000000 
#    z -0.014770 0.000000 1.735410 
# 
# From -- ./inp_files/201277.got.cif
#   From: 2010.05.17/outbox.cif.g08.bks.cpg/sg12_101_cif.got.tgz:201277.got - 2010.06.03 13:09:07.
