data_PCOD9193211
_publ_section_title
;
Structure prediction by ZEFSAII (Michael W. Deem and Ramdas Pophale) SiO2 
 PCOD9193211
Probable space group: C 2/M
;
_chemical_formula_sum "Si O2"
_cell_formula_units_Z 64
_cell_length_a 28.815531
_cell_length_b 8.942754
_cell_length_c 14.551794
_cell_angle_alpha 90.000000
_cell_angle_beta 74.843983
_cell_angle_gamma 90.000000
_cell_volume 3619.425379
_symmetry_space_group_name_H-M "C 2/M"
_symmetry_group_IT_number 12
_symmetry_cell_setting 'monoclinic'
loop_
_space_group_symop_operation_xyz
x,y,z
-x,y,-z
-x,-y,-z
x,-y,z
1/2+x,1/2+y,z
1/2-x,1/2+y,-z
1/2-x,1/2-y,-z
1/2+x,1/2-y,z
loop_
_atom_site_type_symbol
_atom_site_label
_atom_site_fract_x
_atom_site_fract_y
_atom_site_fract_z
Si Si1 0.612024 0.821781 0.890184
Si Si2 0.554718 0.317979 0.472096
Si Si3 0.789097 0.179476 0.646551
Si Si4 0.376569 0.678897 0.732763
Si Si5 0.516286 0.670601 0.884330
Si Si6 0.639685 0.318384 0.554725
Si Si7 0.684977 0.679372 0.722061
Si Si8 0.580378 0.178109 0.113308
O O1 0.565881 0.760254 0.858319
O O2 0.659167 0.746703 0.824339
O O3 0.614509 0.000000 0.881018
O O4 0.602707 0.783584 0.001978
O O5 0.500000 0.263819 0.500000
O O6 0.553443 0.500000 0.476624
O O7 0.583177 0.279943 0.364111
O O8 0.588698 0.267842 0.538997
O O9 0.825329 0.210684 0.712143
O O10 0.818513 0.223227 0.539452
O O11 0.738930 0.262233 0.682143
O O12 0.781493 0.000000 0.647006
O O13 0.379670 0.500000 0.745576
O O14 0.387080 0.762731 0.821232
O O15 0.523737 0.500000 0.849948
O O16 0.472186 0.746098 0.854320
O O17 0.500000 0.668745 0.000000
O O18 0.638397 0.500000 0.555633
O O19 0.654256 0.270106 0.648622
O O20 0.684431 0.500000 0.726063
O O21 0.574910 0.000000 0.119741
#
# Coordination Sequence:
#
# PCOD9193211 Si02
#       8
#     8   8   8   8   8   8   8   8
#     4  10  21  36  51  72 105 140 171 206 255 308
#     4   8  14  27  48  75 106 135 163 200 247 300
#     4   9  18  35  54  72 100 135 170 211 260 314
#     4   9  18  32  53  77  99 132 176 214 250 299
#     4   9  17  31  52  75  99 129 167 209 247 288
#     4   8  16  30  48  73 103 133 168 207 251 308
#     4  11  21  32  51  78 103 130 169 218 264 304
#     4  10  20  34  53  75 103 139 173 207 251 305
#
# _framework density 17.682364
#
# number of rings (size 3 to 8) (size 9 to 14) (size 15 to 20)
#    0.000    2.750    0.000    3.375    0.000    4.500 
#    0.000    3.750    0.000    1.875    0.000    0.000 
#    0.000    0.000    0.000    0.000    0.000    0.000 
#
# Total GULP energy -178450.325695 kJ/mol
# GULP energy per Si atom -5576.572678 kJ/mol
# Density = 1.764212 g / cm^3
# Si number density = 17.682364 Si / 1000 Ang^3
#
#
#
# Elastic Constant Matrix: (Units=GPa)
#
#
# Indices 1 2 3 4 5 6 
#
# 1 112.5840 37.2663 60.4383 0.0000 -8.3232 0.0000
# 2 37.2663 37.2138 32.5217 0.0000 4.4947 0.0000
# 3 60.4383 32.5217 63.5648 0.0000 8.2240 0.0000
# 4 0.0000 0.0000 0.0000 7.3695 0.0000 -1.8781
# 5 -8.3232 4.4947 8.2240 0.0000 27.0758 0.0000
# 6 0.0000 0.0000 0.0000 -1.8781 0.0000 30.4917
#
#
#
# Elastic Compliance Matrix: (Units=1/GPa)
#
#
# Indices 1 2 3 4 5 6 
#
# 1 0.023238 -0.007368 -0.020202 0.000000 0.014503 0.000000
# 2 -0.007368 0.050947 -0.018396 0.000000 -0.005135 0.000000
# 3 -0.020202 -0.018396 0.046592 0.000000 -0.017308 0.000000
# 4 0.000000 0.000000 0.000000 0.137858 0.000000 0.008491
# 5 0.014503 -0.005135 -0.017308 0.000000 0.047501 0.000000
# 6 0.000000 0.000000 0.000000 0.008491 0.000000 0.033319
#
#
# Mechanical properties :
#
#
# Convention : Reuss Voigt Hill
#
# Bulk Modulus (GPa) = 34.66838 52.64613 43.65725
# Shear Modulus (GPa) = 11.33783 18.52983 14.93383
#
# Velocity S-wave (km/s) = 2.53493 3.24068 2.90929
# Velocity P-wave (km/s) = 5.31193 6.62122 6.00238
#
# Compressibility (1/GPa) = 0.02884473
#
# Stress axis : x y z
#
# Youngs Moduli (GPa) = 43.03250 19.62825 21.46308
#
# Poissons Ratio (x) = 0.14462 0.43360
# Poissons Ratio (y) = 0.31706 0.39484
# Poissons Ratio (z) = 0.86934 0.36109
#
# Static dielectric constant tensor:
#      x y z
#    x 1.592930 0.000000 0.004430 
#    y 0.000000 1.587710 0.000000 
#    z 0.004430 0.000000 1.600900 
# 
# From -- ./inp_files/243895.got.cif
#   From: 2010.05.17/outbox.cif.g08.bks.cpg/sg12_122_cif.got.tgz:243895.got - 2010.06.03 13:09:07.
