data_PCOD9193543
_publ_section_title
;
Structure prediction by ZEFSAII (Michael W. Deem and Ramdas Pophale) SiO2 
 PCOD9193543
Probable space group: C 2/M
;
_chemical_formula_sum "Si O2"
_cell_formula_units_Z 64
_cell_length_a 25.658143
_cell_length_b 14.442919
_cell_length_c 9.168385
_cell_angle_alpha 90.000000
_cell_angle_beta 110.650979
_cell_angle_gamma 90.000000
_cell_volume 3179.296785
_symmetry_space_group_name_H-M "C 2/M"
_symmetry_group_IT_number 12
_symmetry_cell_setting 'monoclinic'
loop_
_space_group_symop_operation_xyz
x,y,z
-x,y,-z
-x,-y,-z
x,-y,z
1/2+x,1/2+y,z
1/2-x,1/2+y,-z
1/2-x,1/2-y,-z
1/2+x,1/2-y,z
loop_
_atom_site_type_symbol
_atom_site_label
_atom_site_fract_x
_atom_site_fract_y
_atom_site_fract_z
Si Si1 0.200278 0.111640 0.287660
Si Si2 0.755284 0.112367 0.357237
Si Si3 0.469308 0.678521 0.613120
Si Si4 0.573932 0.606437 0.138207
Si Si5 0.640374 0.280645 0.669134
Si Si6 0.204278 0.393534 0.812704
Si Si7 0.931014 0.242853 0.125300
Si Si8 0.652434 0.892244 0.074243
O O1 0.233728 0.139583 0.464578
O O2 0.137007 0.141334 0.227088
O O3 0.234518 0.137153 0.177498
O O4 0.197376 0.000000 0.289333
O O5 0.806775 0.155671 0.317759
O O6 0.693830 0.141267 0.242731
O O7 0.757572 0.000000 0.346306
O O8 0.500000 0.637942 0.500000
O O9 0.456493 0.613116 0.736773
O O10 0.409617 0.710638 0.495004
O O11 0.512564 0.754432 0.722956
O O12 0.573309 0.500000 0.088902
O O13 0.554943 0.671657 0.988759
O O14 0.661639 0.175561 0.695244
O O15 0.613538 0.298830 0.802503
O O16 0.196216 0.500000 0.758689
O O17 0.192709 0.389119 0.972201
O O18 0.900912 0.330816 0.021331
O O19 0.637070 0.000000 0.083753
#
# Coordination Sequence:
#
# PCOD9193543 Si02
#       8
#     8   8   8   8   8   8   8   8
#     4   9  19  34  52  80 116 149 184 230 281 340
#     4  10  20  34  53  81 117 151 190 233 284 349
#     4  10  22  42  59  81 113 154 196 241 281 338
#     4  11  23  39  59  86 117 151 192 237 288 342
#     4  10  21  36  59  83 115 155 194 232 291 341
#     4   9  19  35  55  84 119 152 190 233 282 343
#     4  10  23  38  59  84 116 151 197 242 284 336
#     4   9  20  38  60  85 117 155 193 236 286 343
#
# _framework density 20.130237999999999
#
# number of rings (size 3 to 8) (size 9 to 14) (size 15 to 20)
#    0.000    2.250    1.250    0.375    3.500    4.250 
#    0.000    3.125    0.000    5.250    0.000    0.000 
#    0.000    0.000    0.000    0.000    0.000    0.000 
#
# Total GULP energy -178414.418288 kJ/mol
# GULP energy per Si atom -5575.450572 kJ/mol
# Density = 2.008442 g / cm^3
# Si number density = 20.130238 Si / 1000 Ang^3
#
#
#
# Elastic Constant Matrix: (Units=GPa)
#
#
# Indices 1 2 3 4 5 6 
#
# 1 78.5795 28.2084 31.0453 0.0000 2.3348 0.0000
# 2 28.2084 47.9555 35.6769 0.0000 5.5657 0.0000
# 3 31.0453 35.6769 89.7129 0.0000 15.2738 0.0000
# 4 0.0000 0.0000 0.0000 15.3824 0.0000 -5.1998
# 5 2.3348 5.5657 15.2738 0.0000 36.0898 0.0000
# 6 0.0000 0.0000 0.0000 -5.1998 0.0000 7.6094
#
#
#
# Elastic Compliance Matrix: (Units=1/GPa)
#
#
# Indices 1 2 3 4 5 6 
#
# 1 0.016621 -0.007787 -0.002884 0.000000 0.001346 0.000000
# 2 -0.007787 0.033270 -0.010505 0.000000 -0.000181 0.000000
# 3 -0.002884 -0.010505 0.017258 0.000000 -0.005497 0.000000
# 4 0.000000 0.000000 0.000000 0.084537 0.000000 0.057767
# 5 0.001346 -0.000181 -0.005497 0.000000 0.029976 0.000000
# 6 0.000000 0.000000 0.000000 0.057767 0.000000 0.170890
#
#
# Mechanical properties :
#
#
# Convention : Reuss Voigt Hill
#
# Bulk Modulus (GPa) = 40.32906 45.12324 42.72615
# Shear Modulus (GPa) = 12.40173 19.90414 16.15294
#
# Velocity S-wave (km/s) = 2.48478 3.14788 2.83578
# Velocity P-wave (km/s) = 5.32069 5.97298 5.65625
#
# Compressibility (1/GPa) = 0.02479602
#
# Stress axis : x y z
#
# Youngs Moduli (GPa) = 60.16528 30.05744 57.94339
#
# Poissons Ratio (x) = 0.23407 0.16711
# Poissons Ratio (y) = 0.46853 0.60869
# Poissons Ratio (z) = 0.17352 0.31575
#
# Static dielectric constant tensor:
#      x y z
#    x 1.746790 0.000000 0.005530 
#    y 0.000000 1.709970 0.000000 
#    z 0.005530 0.000000 1.738380 
# 
# From -- ./inp_files/104693.got.cif
#   From: 2010.05.17/outbox.cif.g08.bks.cpg/sg12_53_cif.got.tgz:104693.got - 2010.06.03 13:09:07.
