data_PCOD9193012
_publ_section_title
;
Structure prediction by ZEFSAII (Michael W. Deem and Ramdas Pophale) SiO2 
 PCOD9193012
Probable space group: C 2/M
;
_chemical_formula_sum "Si O2"
_cell_formula_units_Z 56
_cell_length_a 8.272484
_cell_length_b 11.564686
_cell_length_c 31.619139
_cell_angle_alpha 90.000000
_cell_angle_beta 64.639893
_cell_angle_gamma 90.000000
_cell_volume 2733.457040
_symmetry_space_group_name_H-M "C 2/M"
_symmetry_group_IT_number 12
_symmetry_cell_setting 'monoclinic'
loop_
_space_group_symop_operation_xyz
x,y,z
-x,y,-z
-x,-y,-z
x,-y,z
1/2+x,1/2+y,z
1/2-x,1/2+y,-z
1/2-x,1/2-y,-z
1/2+x,1/2-y,z
loop_
_atom_site_type_symbol
_atom_site_label
_atom_site_fract_x
_atom_site_fract_y
_atom_site_fract_z
Si Si1 0.407509 0.299741 0.389484
Si Si2 0.698765 0.125790 0.667510
Si Si3 0.992672 0.131202 0.801211
Si Si4 0.719879 0.123966 0.908483
Si Si5 0.014215 0.630582 0.449934
Si Si6 0.300516 0.131901 0.231580
Si Si7 0.571469 0.685289 0.035090
O O1 0.400316 0.224445 0.347451
O O2 0.592721 0.367938 0.368860
O O3 0.223031 0.368005 0.413525
O O4 0.414456 0.212757 0.428407
O O5 0.691714 0.138166 0.718695
O O6 0.623594 0.000000 0.664448
O O7 0.830924 0.137844 0.853151
O O8 0.897704 0.134566 0.766089
O O9 0.106470 0.248530 0.794373
O O10 0.074320 0.000000 0.797146
O O11 0.579189 0.224340 0.932981
O O12 0.863043 0.121099 0.930559
O O13 0.623512 0.000000 0.918317
O O14 0.943485 0.500000 0.455801
O O15 0.000000 0.670536 0.500000
O O16 0.370281 0.000000 0.212150
O O17 0.500000 0.627052 0.000000
O O18 0.750000 0.750000 0.000000
#
# Coordination Sequence:
#
# PCOD9193012 Si02
#       7
#     8   8   8   8   8   8   8
#     4  10  20  34  53  76 103 136 173 214 260 313
#     4  10  20  35  54  77 105 137 174 216 264 316
#     4  10  21  37  57  82 111 145 184 224 270 326
#     4  10  20  36  56  76 106 143 176 218 269 318
#     4  10  20  34  52  75 103 135 172 214 260 310
#     4  10  21  37  57  81 110 143 180 225 273 322
#     4   9  19  34  53  79 106 135 176 218 259 316
#
# _framework density 20.486878000000001
#
# number of rings (size 3 to 8) (size 9 to 14) (size 15 to 20)
#    0.000    2.143    0.000    3.000    0.000    3.429 
#    0.000    6.429    0.000    6.857    0.000    0.000 
#    0.000    0.000    0.000    0.000    0.000    0.000 
#
# Total GULP energy -156040.842981 kJ/mol
# GULP energy per Si atom -5572.887249 kJ/mol
# Density = 2.044025 g / cm^3
# Si number density = 20.486878 Si / 1000 Ang^3
#
#
#
# Elastic Constant Matrix: (Units=GPa)
#
#
# Indices 1 2 3 4 5 6 
#
# 1 41.1163 20.7509 -9.5099 0.0000 8.9079 0.0000
# 2 20.7509 122.0360 14.9795 0.0000 -7.7940 0.0000
# 3 -9.5099 14.9795 48.9545 0.0000 14.7190 0.0000
# 4 0.0000 0.0000 0.0000 8.1741 0.0000 0.3431
# 5 8.9079 -7.7940 14.7190 0.0000 31.5142 0.0000
# 6 0.0000 0.0000 0.0000 0.3431 0.0000 2.6008
#
#
#
# Elastic Compliance Matrix: (Units=1/GPa)
#
#
# Indices 1 2 3 4 5 6 
#
# 1 0.037540 -0.009733 0.016502 0.000000 -0.020726 0.000000
# 2 -0.009733 0.011462 -0.008234 0.000000 0.009431 0.000000
# 3 0.016502 -0.008234 0.032769 0.000000 -0.022006 0.000000
# 4 0.000000 0.000000 0.000000 0.123019 0.000000 -0.016228
# 5 -0.020726 0.009431 -0.022006 0.000000 0.050201 0.000000
# 6 0.000000 0.000000 0.000000 -0.016228 0.000000 0.386640
#
#
# Mechanical properties :
#
#
# Convention : Reuss Voigt Hill
#
# Bulk Modulus (GPa) = 12.68342 29.39420 21.03881
# Shear Modulus (GPa) = 7.45334 20.85024 14.15179
#
# Velocity S-wave (km/s) = 1.90945 3.19366 2.63111
# Velocity P-wave (km/s) = 3.32653 5.28945 4.41837
#
# Compressibility (1/GPa) = 0.07884307
#
# Stress axis : x y z
#
# Youngs Moduli (GPa) = 26.63802 87.24294 30.51694
#
# Poissons Ratio (x) = 0.84910 -0.50360
# Poissons Ratio (y) = 0.25926 0.25127
# Poissons Ratio (z) = -0.43959 0.71833
#
# Static dielectric constant tensor:
#      x y z
#    x 1.706780 0.000000 0.027640 
#    y 0.000000 1.760270 0.000000 
#    z 0.027640 0.000000 1.727310 
# 
# From -- ./inp_files/355765.got.cif
#   From: 2010.05.17/outbox.cif.g08.bks.cpg/sg12_178_cif.got.tgz:355765.got - 2010.06.03 13:09:07.
