data_PCOD9193876
_publ_section_title
;
Structure prediction by ZEFSAII (Michael W. Deem and Ramdas Pophale) SiO2 
 PCOD9193876
Probable space group: C 2/M
;
_chemical_formula_sum "Si O2"
_cell_formula_units_Z 64
_cell_length_a 28.506103
_cell_length_b 14.341079
_cell_length_c 9.980478
_cell_angle_alpha 90.000000
_cell_angle_beta 62.698015
_cell_angle_gamma 90.000000
_cell_volume 3625.584110
_symmetry_space_group_name_H-M "C 2/M"
_symmetry_group_IT_number 12
_symmetry_cell_setting 'monoclinic'
loop_
_space_group_symop_operation_xyz
x,y,z
-x,y,-z
-x,-y,-z
x,-y,z
1/2+x,1/2+y,z
1/2-x,1/2+y,-z
1/2-x,1/2-y,-z
1/2+x,1/2-y,z
loop_
_atom_site_type_symbol
_atom_site_label
_atom_site_fract_x
_atom_site_fract_y
_atom_site_fract_z
Si Si1 0.804718 0.110981 0.341822
Si Si2 0.529333 0.391446 0.093872
Si Si3 0.820361 0.603436 0.106902
Si Si4 0.783872 0.176392 0.869983
Si Si5 0.044230 0.106605 0.552536
Si Si6 0.853508 0.780740 0.527368
Si Si7 0.642396 0.306098 0.993784
Si Si8 0.682683 0.107223 0.566963
O O1 0.833135 0.151011 0.436167
O O2 0.827591 0.159582 0.179563
O O3 0.742396 0.129379 0.441553
O O4 0.812642 0.000000 0.322597
O O5 0.544856 0.500000 0.050222
O O6 0.486499 0.389745 0.267163
O O7 0.500000 0.356023 0.000000
O O8 0.581821 0.335653 0.061666
O O9 0.842290 0.500000 0.048995
O O10 0.760477 0.607319 0.128966
O O11 0.850336 0.693768 0.009020
O O12 0.818944 0.615767 0.269866
O O13 0.812579 0.219482 0.703647
O O14 0.750000 0.250000 0.000000
O O15 0.828974 0.146281 0.915931
O O16 0.091799 0.178617 0.490922
O O17 0.000000 0.125716 0.500000
O O18 0.063928 0.000000 0.505919
O O19 0.855209 0.679849 0.456356
O O20 0.671361 0.000000 0.547689
#
# Coordination Sequence:
#
# PCOD9193876 Si02
#       8
#     8   8   8   8   8   8   8   8
#     4  11  21  33  55  86 114 147 191 232 274 329
#     4  10  21  37  55  78 110 142 181 235 288 330
#     4  10  20  35  54  81 115 149 184 224 272 332
#     4  10  22  35  54  83 116 151 183 219 278 335
#     4  10  22  38  57  83 110 142 186 233 283 336
#     4  12  20  36  60  80 110 149 191 232 271 335
#     4  11  21  37  56  82 114 152 187 230 284 340
#     4  10  20  34  54  82 112 143 184 231 272 321
#
# _framework density 17.652327
#
# number of rings (size 3 to 8) (size 9 to 14) (size 15 to 20)
#    0.000    1.500    2.500    4.125    0.000    2.500 
#    0.000    3.750    0.000    1.500    0.000    0.000 
#    0.000    0.000    0.000    0.000    0.000    0.000 
#
# Total GULP energy -178624.997102 kJ/mol
# GULP energy per Si atom -5582.031159 kJ/mol
# Density = 1.761215 g / cm^3
# Si number density = 17.652327 Si / 1000 Ang^3
#
#
#
# Elastic Constant Matrix: (Units=GPa)
#
#
# Indices 1 2 3 4 5 6 
#
# 1 78.2471 41.3646 13.5493 0.0000 5.8785 0.0000
# 2 41.3646 91.4554 11.9443 0.0000 -4.3304 0.0000
# 3 13.5493 11.9443 49.0934 0.0000 21.5359 0.0000
# 4 0.0000 0.0000 0.0000 8.1580 0.0000 -12.7396
# 5 5.8785 -4.3304 21.5359 0.0000 27.0903 0.0000
# 6 0.0000 0.0000 0.0000 -12.7396 0.0000 23.2578
#
#
#
# Elastic Compliance Matrix: (Units=1/GPa)
#
#
# Indices 1 2 3 4 5 6 
#
# 1 0.017496 -0.007983 -0.001015 0.000000 -0.004265 0.000000
# 2 -0.007983 0.015639 -0.005310 0.000000 0.008453 0.000000
# 3 -0.001015 -0.005310 0.034114 0.000000 -0.027748 0.000000
# 4 0.000000 0.000000 0.000000 0.847611 0.000000 0.464283
# 5 -0.004265 0.008453 -0.027748 0.000000 0.061249 0.000000
# 6 0.000000 0.000000 0.000000 0.464283 0.000000 0.297310
#
#
# Mechanical properties :
#
#
# Convention : Reuss Voigt Hill
#
# Bulk Modulus (GPa) = 25.88513 39.16803 32.52658
# Shear Modulus (GPa) = 3.80254 21.83040 12.81647
#
# Velocity S-wave (km/s) = 1.46929 3.52047 2.69745
# Velocity P-wave (km/s) = 4.19215 6.22589 5.30734
#
# Compressibility (1/GPa) = 0.03863222
#
# Stress axis : x y z
#
# Youngs Moduli (GPa) = 57.15469 63.94425 29.31381
#
# Poissons Ratio (x) = 0.51046 0.02977
# Poissons Ratio (y) = 0.45626 0.15565
# Poissons Ratio (z) = 0.05804 0.33954
#
# Static dielectric constant tensor:
#      x y z
#    x 1.603310 0.000000 0.014770 
#    y 0.000000 1.614350 0.000000 
#    z 0.014770 0.000000 1.588440 
# 
# From -- ./inp_files/104499.got.cif
#   From: 2010.05.17/outbox.cif.g08.bks.cpg/sg12_53_cif.got.tgz:104499.got - 2010.06.03 13:09:07.
