data_PCOD9193308
_publ_section_title
;
Structure prediction by ZEFSAII (Michael W. Deem and Ramdas Pophale) SiO2 
 PCOD9193308
Probable space group: C 2/M
;
_chemical_formula_sum "Si O2"
_cell_formula_units_Z 58
_cell_length_a 14.738833
_cell_length_b 8.048560
_cell_length_c 23.140907
_cell_angle_alpha 90.000000
_cell_angle_beta 88.628407
_cell_angle_gamma 90.000000
_cell_volume 2744.335536
_symmetry_space_group_name_H-M "C 2/M"
_symmetry_group_IT_number 12
_symmetry_cell_setting 'monoclinic'
loop_
_space_group_symop_operation_xyz
x,y,z
-x,y,-z
-x,-y,-z
x,-y,z
1/2+x,1/2+y,z
1/2-x,1/2+y,-z
1/2-x,1/2-y,-z
1/2+x,1/2-y,z
loop_
_atom_site_type_symbol
_atom_site_label
_atom_site_fract_x
_atom_site_fract_y
_atom_site_fract_z
Si Si1 0.867119 0.301459 0.154328
Si Si2 0.117409 0.194562 0.533923
Si Si3 0.979340 0.799198 0.934619
Si Si4 0.776002 0.799754 0.934826
Si Si5 0.773756 0.693883 0.618614
Si Si6 0.524792 0.314863 0.356919
Si Si7 0.370134 0.193335 0.284549
Si Si8 0.500000 0.000000 0.500000
O O1 0.855269 0.500000 0.159346
O O2 0.788309 0.232505 0.114247
O O3 0.869751 0.237093 0.219597
O O4 0.955645 0.268794 0.115241
O O5 0.213114 0.240652 0.563368
O O6 0.041587 0.189834 0.586515
O O7 0.079527 0.350399 0.498176
O O8 0.120774 0.000000 0.511563
O O9 0.877950 0.747286 0.922498
O O10 0.986306 0.000000 0.934455
O O11 0.000000 0.743838 0.000000
O O12 0.771932 0.000000 0.933386
O O13 0.750000 0.750000 0.000000
O O14 0.791252 0.500000 0.613769
O O15 0.871633 0.775198 0.628279
O O16 0.704354 0.723107 0.672930
O O17 0.522723 0.500000 0.332946
O O18 0.470372 0.205621 0.311307
O O19 0.344928 0.000000 0.283920
#
# Coordination Sequence:
#
# PCOD9193308 Si02
#       8
#     8   8   8   8   8   8   8   2
#     4  10  22  37  54  80 113 143 184 239 290 349
#     4   9  22  40  60  93 129 168 216 259 304 368
#     4  10  20  34  53  77 104 142 186 227 280 346
#     4  10  20  35  53  74 103 140 184 224 279 342
#     4  10  21  38  64  90 121 157 204 252 302 365
#     4  10  21  38  64  89 119 157 205 252 304 365
#     4  10  21  37  57  86 118 152 196 249 305 359
#     4  12  22  36  72  86 132 178 214 252 326 336
#
# _framework density 21.134443000000001
#
# number of rings (size 3 to 8) (size 9 to 14) (size 15 to 20)
#    0.000    2.069    1.379    2.276    5.793    3.034 
#    0.000    2.069    0.000    0.000    0.000    0.000 
#    0.000    0.000    0.000    0.000    0.000    0.000 
#
# Total GULP energy -161588.115613 kJ/mol
# GULP energy per Si atom -5572.003987 kJ/mol
# Density = 2.108634 g / cm^3
# Si number density = 21.134443 Si / 1000 Ang^3
#
#
#
# Elastic Constant Matrix: (Units=GPa)
#
#
# Indices 1 2 3 4 5 6 
#
# 1 145.1203 15.9827 41.7991 0.0000 8.1462 0.0000
# 2 15.9827 49.9397 26.1032 0.0000 9.4616 0.0000
# 3 41.7991 26.1032 114.2238 0.0000 3.7198 0.0000
# 4 0.0000 0.0000 0.0000 22.8597 0.0000 -0.2970
# 5 8.1462 9.4616 3.7198 0.0000 19.8563 0.0000
# 6 0.0000 0.0000 0.0000 -0.2970 0.0000 29.7484
#
#
#
# Elastic Compliance Matrix: (Units=1/GPa)
#
#
# Indices 1 2 3 4 5 6 
#
# 1 0.007862 -0.000678 -0.002644 0.000000 -0.002407 0.000000
# 2 -0.000678 0.024924 -0.005101 0.000000 -0.010642 0.000000
# 3 -0.002644 -0.005101 0.010840 0.000000 0.001485 0.000000
# 4 0.000000 0.000000 0.000000 0.043751 0.000000 0.000437
# 5 -0.002407 -0.010642 0.001485 0.000000 0.056142 0.000000
# 6 0.000000 0.000000 0.000000 0.000437 0.000000 0.033620
#
#
# Mechanical properties :
#
#
# Convention : Reuss Voigt Hill
#
# Bulk Modulus (GPa) = 37.34191 53.00598 45.17395
# Shear Modulus (GPa) = 24.64140 29.51947 27.08043
#
# Velocity S-wave (km/s) = 3.41828 3.74136 3.58347
# Velocity P-wave (km/s) = 5.76946 6.61805 6.20827
#
# Compressibility (1/GPa) = 0.02677956
#
# Stress axis : x y z
#
# Youngs Moduli (GPa) = 127.19231 40.12226 92.25493
#
# Poissons Ratio (x) = 0.02722 0.24389
# Poissons Ratio (y) = 0.08628 0.47059
# Poissons Ratio (z) = 0.33625 0.20466
#
# Static dielectric constant tensor:
#      x y z
#    x 1.773520 0.000000 0.015260 
#    y 0.000000 1.799460 0.000000 
#    z 0.015260 0.000000 1.798880 
# 
# From -- ./inp_files/337944.got.cif
#   From: 2010.05.17/outbox.cif.g08.bks.cpg/sg12_169_cif.got.tgz:337944.got - 2010.06.03 13:09:07.
