data_PCOD9193440
_publ_section_title
;
Structure prediction by ZEFSAII (Michael W. Deem and Ramdas Pophale) SiO2 
 PCOD9193440
Probable space group: C 2/M
;
_chemical_formula_sum "Si O2"
_cell_formula_units_Z 52
_cell_length_a 29.011055
_cell_length_b 7.713157
_cell_length_c 11.441983
_cell_angle_alpha 90.000000
_cell_angle_beta 77.960367
_cell_angle_gamma 90.000000
_cell_volume 2504.017863
_symmetry_space_group_name_H-M "C 2/M"
_symmetry_group_IT_number 12
_symmetry_cell_setting 'monoclinic'
loop_
_space_group_symop_operation_xyz
x,y,z
-x,y,-z
-x,-y,-z
x,-y,z
1/2+x,1/2+y,z
1/2-x,1/2+y,-z
1/2-x,1/2-y,-z
1/2+x,1/2-y,z
loop_
_atom_site_type_symbol
_atom_site_label
_atom_site_fract_x
_atom_site_fract_y
_atom_site_fract_z
Si Si1 0.385902 0.710114 0.155866
Si Si2 0.690261 0.791374 0.427310
Si Si3 0.564854 0.708336 0.106369
Si Si4 0.405519 0.705692 0.652549
Si Si5 0.000000 0.248852 0.500000
Si Si6 0.292434 0.703826 0.315686
Si Si7 0.470838 0.800547 0.272925
O O1 0.384232 0.500000 0.152388
O O2 0.333440 0.776162 0.211442
O O3 0.421215 0.759113 0.241486
O O4 0.408900 0.772730 0.022827
O O5 0.644175 0.739370 0.380920
O O6 0.690025 0.723340 0.559983
O O7 0.739144 0.726032 0.343231
O O8 0.692226 0.000000 0.433098
O O9 0.561086 0.500000 0.098886
O O10 0.593123 0.747679 0.210639
O O11 0.512078 0.775909 0.155804
O O12 0.416938 0.500000 0.632968
O O13 0.448015 0.809596 0.569169
O O14 0.016206 0.186256 0.621065
O O15 0.288642 0.500000 0.290742
O O16 0.471997 0.000000 0.313056
#
# Coordination Sequence:
#
# PCOD9193440 Si02
#       7
#     8   8   8   8   4   8   8
#     4  10  20  36  56  75  99 135 177 214 248 295
#     4  10  20  34  53  79 108 134 164 209 263 306
#     4   9  20  37  54  73 100 137 177 211 247 299
#     4  10  20  35  55  76 101 135 173 211 251 300
#     4  10  22  36  52  76 106 138 172 206 246 304
#     4   9  19  35  55  77 102 135 173 210 250 304
#     4  11  22  34  51  77 108 137 166 208 260 306
#
# _framework density 20.766624
#
# number of rings (size 3 to 8) (size 9 to 14) (size 15 to 20)
#    0.000    2.154    0.000    2.769    0.000   11.077 
#    0.000    0.769    0.000    0.000    0.000    0.000 
#    0.000    0.000    0.000    0.000    0.000    0.000 
#
# Total GULP energy -144927.395046 kJ/mol
# GULP energy per Si atom -5574.130579 kJ/mol
# Density = 2.071936 g / cm^3
# Si number density = 20.766624 Si / 1000 Ang^3
#
#
#
# Elastic Constant Matrix: (Units=GPa)
#
#
# Indices 1 2 3 4 5 6 
#
# 1 148.3866 4.7073 59.4419 0.0000 -8.1557 0.0000
# 2 4.7073 52.6555 11.1149 0.0000 -6.2952 0.0000
# 3 59.4419 11.1149 110.9981 0.0000 -29.4962 0.0000
# 4 0.0000 0.0000 0.0000 -58.3903 0.0000 -196.6079
# 5 -8.1557 -6.2952 -29.4962 0.0000 29.2587 0.0000
# 6 0.0000 0.0000 0.0000 -196.6079 0.0000 -609.5551
#
#
#
# Elastic Compliance Matrix: (Units=1/GPa)
#
#
# Indices 1 2 3 4 5 6 
#
# 1 0.008785 0.000009 -0.005538 0.000000 -0.003132 0.000000
# 2 0.000009 0.019600 -0.001156 0.000000 0.003054 0.000000
# 3 -0.005538 -0.001156 0.015864 0.000000 0.014201 0.000000
# 4 0.000000 0.000000 0.000000 0.199035 0.000000 -0.064197
# 5 -0.003132 0.003054 0.014201 0.000000 0.048278 0.000000
# 6 0.000000 0.000000 0.000000 -0.064197 0.000000 0.019066
#
#
# Mechanical properties :
#
#
# Convention : Reuss Voigt Hill
#
# Bulk Modulus (GPa) = 32.38368 51.39650 41.89009
# Shear Modulus (GPa) = 14.95708 -111.95228 -48.49760
#
# Velocity S-wave (km/s) = 2.68665 -7.35029 -4.83780
# Velocity P-wave (km/s) = 5.02515 6.87258 3.31514
#
# Compressibility (1/GPa) = 0.03087975
#
# Stress axis : x y z
#
# Youngs Moduli (GPa) = 113.82905 51.02124 63.03520
#
# Poissons Ratio (x) = -0.00047 0.34908
# Poissons Ratio (y) = -0.00104 0.07286
# Poissons Ratio (z) = 0.63036 0.05898
#
# Static dielectric constant tensor:
#      x y z
#    x 1.714650 0.000000 -0.032150 
#    y 0.000000 1.860580 0.000000 
#    z -0.032150 0.000000 1.734890 
# 
# From -- ./inp_files/179895.got.cif
#   From: 2010.05.17/outbox.cif.g08.bks.cpg/sg12_90_cif.got.tgz:179895.got - 2010.06.03 13:09:07.
