data_PCOD9193791
_publ_section_title
;
Structure prediction by ZEFSAII (Michael W. Deem and Ramdas Pophale) SiO2 
 PCOD9193791
Probable space group: C 2/M
;
_chemical_formula_sum "Si O2"
_cell_formula_units_Z 32
_cell_length_a 13.249046
_cell_length_b 12.066883
_cell_length_c 14.177653
_cell_angle_alpha 90.000000
_cell_angle_beta 150.404800
_cell_angle_gamma 90.000000
_cell_volume 1119.427157
_symmetry_space_group_name_H-M "C 2/M"
_symmetry_group_IT_number 12
_symmetry_cell_setting 'monoclinic'
loop_
_space_group_symop_operation_xyz
x,y,z
-x,y,-z
-x,-y,-z
x,-y,z
1/2+x,1/2+y,z
1/2-x,1/2+y,-z
1/2-x,1/2-y,-z
1/2+x,1/2-y,z
loop_
_atom_site_type_symbol
_atom_site_label
_atom_site_fract_x
_atom_site_fract_y
_atom_site_fract_z
Si Si1 0.834515 0.622103 0.965026
Si Si2 0.708673 0.662744 0.615164
Si Si3 0.734666 0.882640 0.553099
Si Si4 0.746437 0.125280 0.882126
O O1 0.767942 0.500000 0.872506
O O2 0.736072 0.627692 0.989693
O O3 0.079989 0.612087 0.178285
O O4 0.800406 0.746731 0.895427
O O5 0.500000 0.640265 0.500000
O O6 0.767803 0.791570 0.657657
O O7 0.670347 0.635938 0.473099
O O8 0.493855 0.879833 0.336989
O O9 0.797149 0.000000 0.641327
O O10 0.819642 0.000000 0.912264
#
# Coordination Sequence:
#
# PCOD9193791 Si02
#       4
#     8   8   8   8
#     4   9  17  30  51  79 107 138 180 226 271 323
#     4  10  20  34  54  80 112 144 179 224 277 328
#     4   9  19  36  56  79 108 143 184 227 272 327
#     4   8  15  31  53  75 103 140 181 225 271 320
#
# _framework density 28.586048999999999
#
# number of rings (size 3 to 8) (size 9 to 14) (size 15 to 20)
#    0.000    3.000    0.000    2.250    0.000    3.500 
#    0.000   15.000    0.000    4.500    0.000    0.000 
#    0.000    0.000    0.000    0.000    0.000    0.000 
#
# Total GULP energy -89464.193054 kJ/mol
# GULP energy per Si atom -5591.512066 kJ/mol
# Density = 2.852099 g / cm^3
# Si number density = 28.586049 Si / 1000 Ang^3
#
#
#
# Elastic Constant Matrix: (Units=GPa)
#
#
# Indices 1 2 3 4 5 6 
#
# 1 137.3273 49.4346 49.3785 0.0003 24.3714 -0.0001
# 2 49.4346 338.2190 53.0044 0.0036 1.3007 0.0010
# 3 49.3785 53.0044 103.8967 0.0093 18.7469 0.0026
# 4 0.0003 0.0036 0.0093 36.3107 0.0018 4.6163
# 5 24.3714 1.3007 18.7469 0.0018 44.7606 -0.0001
# 6 -0.0001 0.0010 0.0026 4.6163 -0.0001 -10.9720
#
#
#
# Elastic Compliance Matrix: (Units=1/GPa)
#
#
# Indices 1 2 3 4 5 6 
#
# 1 0.009464 -0.000836 -0.003403 0.000001 -0.003703 0.000000
# 2 -0.000836 0.003305 -0.001464 0.000000 0.000972 0.000000
# 3 -0.003403 -0.001464 0.012599 -0.000003 -0.003381 0.000002
# 4 0.000001 0.000000 -0.000003 0.026142 0.000000 0.010999
# 5 -0.003703 0.000972 -0.003381 0.000000 0.025745 -0.000001
# 6 0.000000 0.000000 0.000002 0.010999 -0.000001 -0.086513
#
#
# Mechanical properties :
#
#
# Convention : Reuss Voigt Hill
#
# Bulk Modulus (GPa) = 71.62496 98.11978 84.87237
# Shear Modulus (GPa) = 735.17452 42.52823 388.85137
#
# Velocity S-wave (km/s) = 16.05421 3.86129 11.67577
# Velocity P-wave (km/s) = 19.20314 7.36738 14.54371
#
# Compressibility (1/GPa) = 0.01396161
#
# Stress axis : x y z
#
# Youngs Moduli (GPa) = 105.66859 302.61644 79.36853
#
# Poissons Ratio (x) = 0.25287 0.27011
# Poissons Ratio (y) = 0.08830 0.11620
# Poissons Ratio (z) = 0.35961 0.44307
#
# Static dielectric constant tensor:
#      x y z
#    x 2.194770 0.000000 -0.014460 
#    y 0.000000 2.254710 0.000000 
#    z -0.014460 0.000000 2.177890 
# 
# From -- ./inp_files/110288.got.cif
#   From: 2010.05.17/outbox.cif.g08.bks.cpg/sg12_56_cif.got.tgz:110288.got - 2010.06.03 13:09:07.
