data_PCOD9193321
_publ_section_title
;
Structure prediction by ZEFSAII (Michael W. Deem and Ramdas Pophale) SiO2 
 PCOD9193321
Probable space group: C 2/M
;
_chemical_formula_sum "Si O2"
_cell_formula_units_Z 56
_cell_length_a 22.451960
_cell_length_b 7.487509
_cell_length_c 20.595678
_cell_angle_alpha 90.000000
_cell_angle_beta 46.754470
_cell_angle_gamma 90.000000
_cell_volume 2522.041387
_symmetry_space_group_name_H-M "C 2/M"
_symmetry_group_IT_number 12
_symmetry_cell_setting 'monoclinic'
loop_
_space_group_symop_operation_xyz
x,y,z
-x,y,-z
-x,-y,-z
x,-y,z
1/2+x,1/2+y,z
1/2-x,1/2+y,-z
1/2-x,1/2-y,-z
1/2+x,1/2-y,z
loop_
_atom_site_type_symbol
_atom_site_label
_atom_site_fract_x
_atom_site_fract_y
_atom_site_fract_z
Si Si1 0.323223 0.211485 0.895045
Si Si2 0.606682 0.283700 0.723447
Si Si3 0.842467 0.294695 0.453548
Si Si4 0.053111 0.796821 0.093428
Si Si5 0.912892 0.718898 0.537292
Si Si6 0.243156 0.782942 0.716449
Si Si7 0.805593 0.781284 0.107633
O O1 0.400253 0.298741 0.871978
O O2 0.281094 0.271868 0.860051
O O3 0.339190 0.000000 0.879683
O O4 0.250000 0.250000 0.000000
O O5 0.603479 0.500000 0.726496
O O6 0.603056 0.228911 0.651491
O O7 0.534009 0.215638 0.823990
O O8 0.692081 0.226975 0.691654
O O9 0.835542 0.500000 0.475840
O O10 0.750000 0.250000 0.500000
O O11 0.885315 0.215822 0.485875
O O12 0.038091 0.000000 0.082589
O O13 0.117073 0.718391 0.993292
O O14 0.916926 0.500000 0.533497
O O15 0.837058 0.770424 0.640109
O O16 0.000000 0.779966 0.500000
O O17 0.197322 0.725571 0.815943
O O18 0.242194 0.000000 0.718197
O O19 0.807399 0.000000 0.102408
#
# Coordination Sequence:
#
# PCOD9193321 Si02
#       7
#     8   8   8   8   8   8   8
#     4   9  16  28  47  71  99 133 175 217 264 316
#     4  10  20  34  53  77 105 139 179 220 268 326
#     4  11  21  36  59  83 108 141 180 221 273 329
#     4   9  18  31  47  73 105 135 174 220 266 317
#     4   9  18  32  52  81 110 134 171 226 276 318
#     4   9  16  29  49  73 102 135 173 218 270 316
#     4   8  15  27  46  72 100 133 171 218 265 307
#
# _framework density 22.204235000000001
#
# number of rings (size 3 to 8) (size 9 to 14) (size 15 to 20)
#    0.000    2.714    1.429    1.714    0.000    2.286 
#    0.000    5.714    0.000    6.000    0.000    5.000 
#    0.000    0.000    0.000    0.000    0.000    0.000 
#
# Total GULP energy -156038.682642 kJ/mol
# GULP energy per Si atom -5572.810094 kJ/mol
# Density = 2.215370 g / cm^3
# Si number density = 22.204235 Si / 1000 Ang^3
#
#
#
# Elastic Constant Matrix: (Units=GPa)
#
#
# Indices 1 2 3 4 5 6 
#
# 1 120.1393 3.2110 71.4655 0.0004 -4.4052 -0.0006
# 2 3.2110 60.2150 -4.7407 0.0009 -2.5361 -0.0064
# 3 71.4655 -4.7407 126.5976 0.0012 -3.1271 -0.0002
# 4 0.0004 0.0009 0.0012 9.0408 -0.0003 2.9776
# 5 -4.4052 -2.5361 -3.1271 -0.0003 43.5056 0.0004
# 6 -0.0006 -0.0064 -0.0002 2.9776 0.0004 11.3738
#
#
#
# Elastic Compliance Matrix: (Units=1/GPa)
#
#
# Indices 1 2 3 4 5 6 
#
# 1 0.012644 -0.001209 -0.007166 0.000001 0.000695 0.000000
# 2 -0.001209 0.016817 0.001336 -0.000005 0.000954 0.000011
# 3 -0.007166 0.001336 0.012000 -0.000002 0.000215 0.000001
# 4 0.000001 -0.000005 -0.000002 0.121047 0.000001 -0.031690
# 5 0.000695 0.000954 0.000215 0.000001 0.023127 0.000000
# 6 0.000000 0.000011 0.000001 -0.031690 0.000000 0.096218
#
#
# Mechanical properties :
#
#
# Convention : Reuss Voigt Hill
#
# Bulk Modulus (GPa) = 36.51976 49.64706 43.08341
# Shear Modulus (GPa) = 16.39034 28.58510 22.48772
#
# Velocity S-wave (km/s) = 2.71986 3.59189 3.18585
# Velocity P-wave (km/s) = 5.13288 6.29365 5.74267
#
# Compressibility (1/GPa) = 0.02738244
#
# Stress axis : x y z
#
# Youngs Moduli (GPa) = 79.08830 59.46370 83.33648
#
# Poissons Ratio (x) = 0.07190 0.59717
# Poissons Ratio (y) = 0.09563 -0.11133
# Poissons Ratio (z) = 0.56673 -0.07944
#
# Static dielectric constant tensor:
#      x y z
#    x 1.865200 0.000000 0.003780 
#    y 0.000000 1.901800 0.000000 
#    z 0.003780 0.000000 1.800880 
# 
# From -- ./inp_files/319710.got.cif
#   From: 2010.05.17/outbox.cif.g08.bks.cpg/sg12_160_cif.got.tgz:319710.got - 2010.06.03 13:09:07.
