data_PCOD9193895
_publ_section_title
;
Structure prediction by ZEFSAII (Michael W. Deem and Ramdas Pophale) SiO2 
 PCOD9193895
Probable space group: C 2/M
;
_chemical_formula_sum "Si O2"
_cell_formula_units_Z 56
_cell_length_a 14.951023
_cell_length_b 8.495329
_cell_length_c 26.670699
_cell_angle_alpha 90.000000
_cell_angle_beta 114.330511
_cell_angle_gamma 90.000000
_cell_volume 3086.679940
_symmetry_space_group_name_H-M "C 2/M"
_symmetry_group_IT_number 12
_symmetry_cell_setting 'monoclinic'
loop_
_space_group_symop_operation_xyz
x,y,z
-x,y,-z
-x,-y,-z
x,-y,z
1/2+x,1/2+y,z
1/2-x,1/2+y,-z
1/2-x,1/2-y,-z
1/2+x,1/2-y,z
loop_
_atom_site_type_symbol
_atom_site_label
_atom_site_fract_x
_atom_site_fract_y
_atom_site_fract_z
Si Si1 0.779853 0.310065 0.349961
Si Si2 0.574408 0.187916 0.267744
Si Si3 0.509587 0.809577 0.644544
Si Si4 0.225885 0.311336 0.938801
Si Si5 0.569534 0.309062 0.061266
Si Si6 0.980825 0.187947 0.144676
Si Si7 0.803473 0.188789 0.561708
O O1 0.781622 0.500000 0.349665
O O2 0.684775 0.255039 0.296886
O O3 0.755539 0.259901 0.401579
O O4 0.885018 0.255394 0.352622
O O5 0.513816 0.240151 0.303445
O O6 0.520880 0.239671 0.204944
O O7 0.580537 0.000000 0.271036
O O8 0.414954 0.750774 0.591910
O O9 0.510029 0.000000 0.643313
O O10 0.213849 0.500000 0.937905
O O11 0.319684 0.272437 0.926779
O O12 0.130510 0.232850 0.893434
O O13 0.250000 0.250000 0.000000
O O14 0.559312 0.500000 0.059403
O O15 0.538990 0.253008 0.108903
O O16 0.500000 0.251178 0.000000
O O17 0.990838 0.000000 0.150285
O O18 0.750000 0.250000 0.500000
O O19 0.805510 0.000000 0.561864
#
# Coordination Sequence:
#
# PCOD9193895 Si02
#       7
#     8   8   8   8   8   8   8
#     4   9  19  37  59  80 105 146 190 224 264 322
#     4  10  21  37  56  81 110 138 176 229 278 320
#     4   9  19  37  59  79 107 147 187 225 272 323
#     4  11  21  36  57  80 106 136 174 216 263 319
#     4   9  18  35  56  76 102 139 175 205 255 324
#     4  11  22  38  58  79 107 143 180 219 266 325
#     4  10  20  34  54  82 116 148 185 228 270 317
#
# _framework density 18.142469999999999
#
# number of rings (size 3 to 8) (size 9 to 14) (size 15 to 20)
#    0.000    2.143    1.429    1.714    0.000    3.429 
#    0.000   12.143    0.000    0.000    0.000    0.000 
#    0.000    0.000    0.000    0.000    0.000    0.000 
#
# Total GULP energy -156244.531773 kJ/mol
# GULP energy per Si atom -5580.161849 kJ/mol
# Density = 1.810118 g / cm^3
# Si number density = 18.142470 Si / 1000 Ang^3
#
#
#
# Elastic Constant Matrix: (Units=GPa)
#
#
# Indices 1 2 3 4 5 6 
#
# 1 140.1549 15.9688 69.3863 0.0000 7.9081 0.0000
# 2 15.9688 9.2755 8.0833 0.0000 -0.6269 0.0000
# 3 69.3863 8.0833 157.2177 0.0000 6.9025 0.0000
# 4 0.0000 0.0000 0.0000 35.2833 0.0000 6.0668
# 5 7.9081 -0.6269 6.9025 0.0000 14.4999 0.0000
# 6 0.0000 0.0000 0.0000 6.0668 0.0000 25.2438
#
#
#
# Elastic Compliance Matrix: (Units=1/GPa)
#
#
# Indices 1 2 3 4 5 6 
#
# 1 0.011184 -0.016203 -0.003886 0.000000 -0.004951 0.000000
# 2 -0.016203 0.137214 -0.000564 0.000000 0.015038 0.000000
# 3 -0.003886 -0.000564 0.008184 0.000000 -0.001801 0.000000
# 4 0.000000 0.000000 0.000000 0.029564 0.000000 -0.007105
# 5 -0.004951 0.015038 -0.001801 0.000000 0.073173 0.000000
# 6 0.000000 0.000000 0.000000 -0.007105 0.000000 0.041321
#
#
# Mechanical properties :
#
#
# Convention : Reuss Voigt Hill
#
# Bulk Modulus (GPa) = 8.67482 54.83608 31.75545
# Shear Modulus (GPa) = 13.14511 29.21939 21.18225
#
# Velocity S-wave (km/s) = 2.69467 4.01752 3.42065
# Velocity P-wave (km/s) = 3.80441 7.19802 5.75695
#
# Compressibility (1/GPa) = 0.11527614
#
# Stress axis : x y z
#
# Youngs Moduli (GPa) = 89.41355 7.28791 122.19705
#
# Poissons Ratio (x) = 0.11809 0.47480
# Poissons Ratio (y) = 1.44876 0.06892
# Poissons Ratio (z) = 0.34742 0.00411
#
# Static dielectric constant tensor:
#      x y z
#    x 1.624850 0.000000 -0.025110 
#    y 0.000000 1.626570 0.000000 
#    z -0.025110 0.000000 1.590860 
# 
# From -- ./inp_files/360021.got.cif
#   From: 2010.05.17/outbox.cif.g08.bks.cpg/sg12_181_cif.got.tgz:360021.got - 2010.06.03 13:09:07.
