data_PCOD9193598
_publ_section_title
;
Structure prediction by ZEFSAII (Michael W. Deem and Ramdas Pophale) SiO2 
 PCOD9193598
Probable space group: C 2/M
;
_chemical_formula_sum "Si O2"
_cell_formula_units_Z 64
_cell_length_a 29.533016
_cell_length_b 7.602264
_cell_length_c 15.759497
_cell_angle_alpha 90.000000
_cell_angle_beta 130.117797
_cell_angle_gamma 90.000000
_cell_volume 2705.803661
_symmetry_space_group_name_H-M "C 2/M"
_symmetry_group_IT_number 12
_symmetry_cell_setting 'monoclinic'
loop_
_space_group_symop_operation_xyz
x,y,z
-x,y,-z
-x,-y,-z
x,-y,z
1/2+x,1/2+y,z
1/2-x,1/2+y,-z
1/2-x,1/2-y,-z
1/2+x,1/2-y,z
loop_
_atom_site_type_symbol
_atom_site_label
_atom_site_fract_x
_atom_site_fract_y
_atom_site_fract_z
Si Si1 0.565437 0.715034 0.602533
Si Si2 0.712432 0.290545 0.083695
Si Si3 0.960820 0.294253 0.110783
Si Si4 0.128230 0.206836 0.131269
Si Si5 0.625861 0.298992 0.845834
Si Si6 0.598202 0.713124 0.278924
Si Si7 0.296567 0.289146 0.482614
Si Si8 0.686273 0.289170 0.679053
O O1 0.500000 0.777934 0.500000
O O2 0.561805 0.500000 0.601657
O O3 0.591814 0.778969 0.724266
O O4 0.617413 0.761230 0.599604
O O5 0.702133 0.500000 0.066986
O O6 0.674372 0.218641 0.118129
O O7 0.779272 0.264374 0.194146
O O8 0.683903 0.218633 0.962297
O O9 0.947903 0.500000 0.102000
O O10 0.922530 0.200050 0.136974
O O11 0.030239 0.265195 0.203958
O O12 0.935527 0.229388 0.990237
O O13 0.125480 0.279601 0.222644
O O14 0.141395 0.000000 0.154514
O O15 0.640844 0.500000 0.839208
O O16 0.599652 0.500000 0.278554
O O17 0.639930 0.772200 0.405773
O O18 0.298688 0.500000 0.478338
O O19 0.250000 0.250000 0.500000
O O20 0.284921 0.220614 0.373600
O O21 0.688781 0.500000 0.681722
#
# Coordination Sequence:
#
# PCOD9193598 Si02
#       8
#     8   8   8   8   8   8   8   8
#     4   9  19  36  62  89 111 142 188 241 285 331
#     4   9  18  34  56  82 112 149 187 223 275 339
#     4  11  22  33  50  80 114 145 182 233 289 336
#     4   9  18  34  54  77 107 147 193 231 272 334
#     4   9  19  37  60  82 108 147 191 230 274 338
#     4  10  20  34  54  76 104 148 194 234 277 338
#     4  10  22  38  57  82 113 147 188 234 281 334
#     4  10  21  36  57  89 116 142 188 240 286 330
#
# _framework density 23.652861999999999
#
# number of rings (size 3 to 8) (size 9 to 14) (size 15 to 20)
#    0.000    2.375    0.000    3.000    1.750    6.500 
#    0.000    0.625    0.000    0.750    0.000    0.000 
#    0.000    0.000    0.000    0.000    0.000    0.000 
#
# Total GULP energy -178736.916419 kJ/mol
# GULP energy per Si atom -5585.528638 kJ/mol
# Density = 2.359903 g / cm^3
# Si number density = 23.652862 Si / 1000 Ang^3
#
#
#
# Elastic Constant Matrix: (Units=GPa)
#
#
# Indices 1 2 3 4 5 6 
#
# 1 74.5502 -0.6869 61.8916 0.0000 8.0856 0.0000
# 2 -0.6869 56.9531 -0.2546 0.0000 -6.2083 0.0000
# 3 61.8916 -0.2546 178.7422 0.0000 2.7592 0.0000
# 4 0.0000 0.0000 0.0000 10.6142 0.0000 5.6606
# 5 8.0856 -6.2083 2.7592 0.0000 45.3811 0.0000
# 6 0.0000 0.0000 0.0000 5.6606 0.0000 7.5722
#
#
#
# Elastic Compliance Matrix: (Units=1/GPa)
#
#
# Indices 1 2 3 4 5 6 
#
# 1 0.019232 -0.000129 -0.006613 0.000000 -0.003042 0.000000
# 2 -0.000129 0.017825 0.000032 0.000000 0.002460 0.000000
# 3 -0.006613 0.000032 0.007874 0.000000 0.000704 0.000000
# 4 0.000000 0.000000 0.000000 0.156673 0.000000 -0.117120
# 5 -0.003042 0.002460 0.000704 0.000000 0.022871 0.000000
# 6 0.000000 0.000000 0.000000 -0.117120 0.000000 0.219614
#
#
# Mechanical properties :
#
#
# Convention : Reuss Voigt Hill
#
# Bulk Modulus (GPa) = 31.73445 48.01619 39.87532
# Shear Modulus (GPa) = 10.68346 29.33320 20.00833
#
# Velocity S-wave (km/s) = 2.12758 3.52540 2.91162
# Velocity P-wave (km/s) = 4.41376 6.07583 5.31023
#
# Compressibility (1/GPa) = 0.03151150
#
# Stress axis : x y z
#
# Youngs Moduli (GPa) = 51.99564 56.10095 127.00770
#
# Poissons Ratio (x) = 0.00725 0.83986
# Poissons Ratio (y) = 0.00672 -0.00409
# Poissons Ratio (z) = 0.34383 -0.00180
#
# Static dielectric constant tensor:
#      x y z
#    x 1.913610 0.000000 -0.010400 
#    y 0.000000 1.907030 0.000000 
#    z -0.010400 0.000000 1.928120 
# 
# From -- ./inp_files/250133.got.cif
#   From: 2010.05.17/outbox.cif.g08.bks.cpg/sg12_126_cif.got.tgz:250133.got - 2010.06.03 13:09:07.
