data_PCOD9193945
_publ_section_title
;
Structure prediction by ZEFSAII (Michael W. Deem and Ramdas Pophale) SiO2 
 PCOD9193945
Probable space group: C 2/M
;
_chemical_formula_sum "Si O2"
_cell_formula_units_Z 40
_cell_length_a 12.127990
_cell_length_b 31.743352
_cell_length_c 5.238398
_cell_angle_alpha 90.000000
_cell_angle_beta 76.395058
_cell_angle_gamma 90.000000
_cell_volume 1960.107464
_symmetry_space_group_name_H-M "C 2/M"
_symmetry_group_IT_number 12
_symmetry_cell_setting 'monoclinic'
loop_
_space_group_symop_operation_xyz
x,y,z
-x,y,-z
-x,-y,-z
x,-y,z
1/2+x,1/2+y,z
1/2-x,1/2+y,-z
1/2-x,1/2-y,-z
1/2+x,1/2-y,z
loop_
_atom_site_type_symbol
_atom_site_label
_atom_site_fract_x
_atom_site_fract_y
_atom_site_fract_z
Si Si1 0.098145 0.300332 0.115819
Si Si2 0.137401 0.047821 0.924215
Si Si3 0.536077 0.712112 0.735624
Si Si4 0.265063 0.814060 0.458064
Si Si5 0.862182 0.098264 0.575812
O O1 0.140506 0.316307 0.367713
O O2 0.040802 0.254469 0.205891
O O3 0.195720 0.299490 0.845974
O O4 0.000000 0.323331 0.000000
O O5 0.169605 0.065734 0.631351
O O6 0.177215 0.000000 0.945044
O O7 0.171978 0.079328 0.131591
O O8 0.000000 0.046630 0.000000
O O9 0.500000 0.690344 0.500000
O O10 0.669354 0.716519 0.632963
O O11 0.500000 0.686011 0.000000
O O12 0.204022 0.858795 0.451194
O O13 0.000000 0.101465 0.500000
#
# Coordination Sequence:
#
# PCOD9193945 Si02
#       5
#     8   8   8   8   8
#     4  11  25  41  58  80 106 144 197 246 295 342
#     4   9  17  31  53  82 118 153 180 212 263 337
#     4  11  24  39  57  80 106 143 192 239 288 337
#     4  12  24  40  59  80 114 149 190 246 290 332
#     4  10  20  34  54  83 117 152 185 220 274 335
#
# _framework density 20.407043999999999
#
# number of rings (size 3 to 8) (size 9 to 14) (size 15 to 20)
#    0.000    1.400    0.000    6.600    0.000   16.000 
#    0.000    0.000    0.000    0.000    0.000    0.000 
#    0.000   56.000    0.000    0.000    0.000    0.000 
#
# Total GULP energy -111536.393758 kJ/mol
# GULP energy per Si atom -5576.819688 kJ/mol
# Density = 2.036060 g / cm^3
# Si number density = 20.407044 Si / 1000 Ang^3
#
#
#
# Elastic Constant Matrix: (Units=GPa)
#
#
# Indices 1 2 3 4 5 6 
#
# 1 83.1599 32.5369 38.0203 0.0000 20.4316 0.0000
# 2 32.5369 92.9179 21.8627 0.0000 12.4064 0.0000
# 3 38.0203 21.8627 151.0048 0.0000 21.4413 0.0000
# 4 0.0000 0.0000 0.0000 204.5929 0.0000 6.4488
# 5 20.4316 12.4064 21.4413 0.0000 50.0301 0.0000
# 6 0.0000 0.0000 0.0000 6.4488 0.0000 16.2060
#
#
#
# Elastic Compliance Matrix: (Units=1/GPa)
#
#
# Indices 1 2 3 4 5 6 
#
# 1 0.016079 -0.004400 -0.002805 0.000000 -0.004273 0.000000
# 2 -0.004400 0.012579 -0.000560 0.000000 -0.001083 0.000000
# 3 -0.002805 -0.000560 0.007695 0.000000 -0.002014 0.000000
# 4 0.000000 0.000000 0.000000 0.004950 0.000000 -0.001970
# 5 -0.004273 -0.001083 -0.002014 0.000000 0.022865 0.000000
# 6 0.000000 0.000000 0.000000 -0.001970 0.000000 0.062489
#
#
# Mechanical properties :
#
#
# Convention : Reuss Voigt Hill
#
# Bulk Modulus (GPa) = 48.01894 56.88026 52.44960
# Shear Modulus (GPa) = 33.52854 69.80998 51.66926
#
# Velocity S-wave (km/s) = 4.05778 5.85517 5.03729
# Velocity P-wave (km/s) = 6.74802 8.58161 7.71945
#
# Compressibility (1/GPa) = 0.02082512
#
# Stress axis : x y z
#
# Youngs Moduli (GPa) = 62.19447 79.49688 129.94739
#
# Poissons Ratio (x) = 0.34977 0.36444
# Poissons Ratio (y) = 0.27364 0.07273
# Poissons Ratio (z) = 0.17443 0.04450
#
# Static dielectric constant tensor:
#      x y z
#    x 1.831490 0.000000 0.003320 
#    y 0.000000 1.723120 0.000000 
#    z 0.003320 0.000000 1.852210 
# 
# From -- ./inp_files/8325.got.cif
#   From: 2010.05.17/outbox.cif.g08.bks.cpg/sg12_5_cif.got.tgz:8325.got - 2010.06.03 13:09:07.
