data_PCOD9193178
_publ_section_title
;
Structure prediction by ZEFSAII (Michael W. Deem and Ramdas Pophale) SiO2 
 PCOD9193178
Probable space group: C 2/M
;
_chemical_formula_sum "Si O2"
_cell_formula_units_Z 58
_cell_length_a 26.998510
_cell_length_b 7.588152
_cell_length_c 28.732385
_cell_angle_alpha 90.000000
_cell_angle_beta 26.572792
_cell_angle_gamma 90.000000
_cell_volume 2633.175603
_symmetry_space_group_name_H-M "C 2/M"
_symmetry_group_IT_number 12
_symmetry_cell_setting 'monoclinic'
loop_
_space_group_symop_operation_xyz
x,y,z
-x,y,-z
-x,-y,-z
x,-y,z
1/2+x,1/2+y,z
1/2-x,1/2+y,-z
1/2-x,1/2-y,-z
1/2+x,1/2-y,z
loop_
_atom_site_type_symbol
_atom_site_label
_atom_site_fract_x
_atom_site_fract_y
_atom_site_fract_z
Si Si1 0.340802 0.703406 0.161592
Si Si2 0.449943 0.784384 0.166019
Si Si3 0.500000 0.000000 0.000000
Si Si4 0.015405 0.203652 0.719320
Si Si5 0.091032 0.703812 0.387980
Si Si6 0.034513 0.785894 0.599568
Si Si7 0.137477 0.693417 0.070542
Si Si8 0.712041 0.211962 0.612524
O O1 0.334880 0.500000 0.149481
O O2 0.411199 0.708039 0.150153
O O3 0.216883 0.770237 0.279029
O O4 0.403743 0.843900 0.076877
O O5 0.567254 0.718294 0.088120
O O6 0.358162 0.743457 0.282378
O O7 0.453600 0.000000 0.157368
O O8 0.995922 0.266435 0.683542
O O9 0.144087 0.214463 0.625781
O O10 0.949794 0.307608 0.813697
O O11 0.980298 0.000000 0.752445
O O12 0.104387 0.500000 0.391279
O O13 0.000000 0.784116 0.500000
O O14 0.038015 0.715950 0.381512
O O15 0.162240 0.728673 0.488080
O O16 0.032254 0.000000 0.599635
O O17 0.160835 0.500000 0.032591
O O18 0.250000 0.750000 0.000000
O O19 0.712362 0.000000 0.607792
#
# Coordination Sequence:
#
# PCOD9193178 Si02
#       8
#     8   8   2   8   8   8   8   8
#     4  11  24  44  69  97 127 169 219 271 327 394
#     4   9  18  36  61  88 117 155 203 257 311 364
#     4  12  26  48  70  90 132 168 222 278 332 370
#     4  10  20  34  52  81 119 156 198 243 292 355
#     4  10  23  42  64  95 129 158 206 268 325 388
#     4  10  21  35  55  87 121 162 200 234 300 377
#     4  10  21  38  59  85 116 151 198 249 302 363
#     4   9  18  33  56  86 121 157 201 242 290 370
#
# _framework density 22.026636
#
# number of rings (size 3 to 8) (size 9 to 14) (size 15 to 20)
#    0.000    2.069    0.690    3.103    0.966    4.690 
#    2.483    0.000    0.000    0.000    0.000    0.000 
#    0.000    0.000    0.000    0.000    0.000    0.000 
#
# Total GULP energy -161578.317996 kJ/mol
# GULP energy per Si atom -5571.666138 kJ/mol
# Density = 2.197650 g / cm^3
# Si number density = 22.026636 Si / 1000 Ang^3
#
#
#
# Elastic Constant Matrix: (Units=GPa)
#
#
# Indices 1 2 3 4 5 6 
#
# 1 104.5271 -3.8156 18.2177 0.0123 -24.2711 -0.0055
# 2 -3.8156 68.4911 17.2062 0.0433 0.4151 -0.0072
# 3 18.2177 17.2062 90.0997 0.0162 -36.2120 -0.0146
# 4 0.0123 0.0433 0.0162 38.9152 -0.0232 -7.3682
# 5 -24.2711 0.4151 -36.2120 -0.0232 35.5844 0.0055
# 6 -0.0055 -0.0072 -0.0146 -7.3682 0.0055 24.9310
#
#
#
# Elastic Compliance Matrix: (Units=1/GPa)
#
#
# Indices 1 2 3 4 5 6 
#
# 1 0.011474 0.000254 0.001313 0.000001 0.009159 0.000002
# 2 0.000254 0.015967 -0.005255 -0.000019 -0.005361 -0.000003
# 3 0.001313 -0.005255 0.020679 0.000012 0.022001 0.000010
# 4 0.000001 -0.000019 0.000012 0.027220 0.000030 0.008045
# 5 0.009159 -0.005361 0.022001 0.000030 0.056800 0.000010
# 6 0.000002 -0.000003 0.000010 0.008045 0.000010 0.042488
#
#
# Mechanical properties :
#
#
# Convention : Reuss Voigt Hill
#
# Bulk Modulus (GPa) = 24.54398 36.25941 30.40170
# Shear Modulus (GPa) = 25.56398 35.32010 30.44204
#
# Velocity S-wave (km/s) = 3.41044 4.00874 3.72163
# Velocity P-wave (km/s) = 5.16481 6.15825 5.68328
#
# Compressibility (1/GPa) = 0.04074318
#
# Stress axis : x y z
#
# Youngs Moduli (GPa) = 87.15294 62.62802 48.35763
#
# Poissons Ratio (x) = -0.01591 -0.06347
# Poissons Ratio (y) = -0.02213 0.25413
# Poissons Ratio (z) = -0.11439 0.32912
#
# Static dielectric constant tensor:
#      x y z
#    x 1.803040 -0.000010 -0.002700 
#    y -0.000010 1.839740 0.000010 
#    z -0.002700 0.000010 1.840880 
# 
# From -- ./inp_files/367506.got.cif
#   From: 2010.05.17/outbox.cif.g08.bks.cpg/sg12_184_cif.got.tgz:367506.got - 2010.06.03 13:09:07.
