data_PCOD9193655
_publ_section_title
;
Structure prediction by ZEFSAII (Michael W. Deem and Ramdas Pophale) SiO2 
 PCOD9193655
Probable space group: C 2/M
;
_chemical_formula_sum "Si O2"
_cell_formula_units_Z 64
_cell_length_a 18.398696
_cell_length_b 8.347630
_cell_length_c 21.253629
_cell_angle_alpha 90.000000
_cell_angle_beta 89.818881
_cell_angle_gamma 90.000000
_cell_volume 3264.233070
_symmetry_space_group_name_H-M "C 2/M"
_symmetry_group_IT_number 12
_symmetry_cell_setting 'monoclinic'
loop_
_space_group_symop_operation_xyz
x,y,z
-x,y,-z
-x,-y,-z
x,-y,z
1/2+x,1/2+y,z
1/2-x,1/2+y,-z
1/2-x,1/2-y,-z
1/2+x,1/2-y,z
loop_
_atom_site_type_symbol
_atom_site_label
_atom_site_fract_x
_atom_site_fract_y
_atom_site_fract_z
Si Si1 0.958209 0.308047 0.186268
Si Si2 0.458679 0.306278 0.437053
Si Si3 0.040620 0.306311 0.312125
Si Si4 0.292574 0.306157 0.186402
Si Si5 0.707691 0.807957 0.061694
Si Si6 0.208241 0.695672 0.312017
Si Si7 0.291227 0.693663 0.437727
Si Si8 0.457869 0.308056 0.937563
O O1 0.959150 0.500000 0.186537
O O2 0.875387 0.250136 0.185364
O O3 0.998485 0.251085 0.249691
O O4 0.000932 0.249781 0.124766
O O5 0.500000 0.251672 0.500000
O O6 0.458610 0.500000 0.437214
O O7 0.500024 0.249814 0.374801
O O8 0.374939 0.251760 0.437260
O O9 0.040971 0.500000 0.311596
O O10 0.124456 0.252120 0.311425
O O11 0.292480 0.500000 0.186355
O O12 0.249554 0.251813 0.124376
O O13 0.251196 0.252336 0.249608
O O14 0.624975 0.749661 0.061709
O O15 0.707680 0.000000 0.062270
O O16 0.750000 0.750000 0.000000
O O17 0.208246 0.500000 0.311868
O O18 0.249257 0.748151 0.375120
O O19 0.291493 0.500000 0.437312
O O20 0.250000 0.750000 0.500000
O O21 0.458406 0.500000 0.938262
O O22 0.500000 0.250601 0.000000
#
# Coordination Sequence:
#
# PCOD9193655 Si02
#       8
#     8   8   8   8   8   8   8   8
#     4  11  23  38  58  86 117 148 188 239 290 340
#     4  10  21  36  54  80 113 146 183 231 285 338
#     4  10  21  37  57  82 111 145 187 232 279 336
#     4  10  21  39  61  83 112 151 190 229 280 341
#     4  11  23  39  61  88 118 152 190 236 287 340
#     4   9  18  35  57  78 104 142 185 225 270 328
#     4  10  20  34  54  78 105 140 180 222 271 327
#     4  11  24  41  61  86 116 153 196 237 284 344
#
# _framework density 19.606442000000001
#
# number of rings (size 3 to 8) (size 9 to 14) (size 15 to 20)
#    0.000    1.750    0.000    4.125    0.000    9.750 
#    0.000    1.250    0.000    0.000    0.000    0.000 
#    0.000    0.000    0.000    0.000    0.000    0.000 
#
# Total GULP energy -178901.989837 kJ/mol
# GULP energy per Si atom -5590.687182 kJ/mol
# Density = 1.956182 g / cm^3
# Si number density = 19.606442 Si / 1000 Ang^3
#
#
#
# Elastic Constant Matrix: (Units=GPa)
#
#
# Indices 1 2 3 4 5 6 
#
# 1 246.8047 25.1957 152.7107 0.0000 0.8047 0.0000
# 2 25.1957 13.5268 26.4064 0.0000 3.3958 0.0000
# 3 152.7107 26.4064 247.3586 0.0000 2.2688 0.0000
# 4 0.0000 0.0000 0.0000 25.8998 0.0000 -8.3188
# 5 0.8047 3.3958 2.2688 0.0000 47.5663 0.0000
# 6 0.0000 0.0000 0.0000 -8.3188 0.0000 26.5034
#
#
#
# Elastic Compliance Matrix: (Units=1/GPa)
#
#
# Indices 1 2 3 4 5 6 
#
# 1 0.006900 -0.005871 -0.003638 0.000000 0.000476 0.000000
# 2 -0.005871 0.100246 -0.007015 0.000000 -0.006723 0.000000
# 3 -0.003638 -0.007015 0.007035 0.000000 0.000227 0.000000
# 4 0.000000 0.000000 0.000000 0.042939 0.000000 0.013478
# 5 0.000476 -0.006723 0.000227 0.000000 0.021484 0.000000
# 6 0.000000 0.000000 0.000000 0.013478 0.000000 0.041961
#
#
# Mechanical properties :
#
#
# Convention : Reuss Voigt Hill
#
# Bulk Modulus (GPa) = 12.32541 101.81286 57.06914
# Shear Modulus (GPa) = 17.81521 40.21906 29.01713
#
# Velocity S-wave (km/s) = 3.01764 4.53406 3.85122
# Velocity P-wave (km/s) = 4.29436 8.91355 6.99617
#
# Compressibility (1/GPa) = 0.08113317
#
# Stress axis : x y z
#
# Youngs Moduli (GPa) = 144.91839 9.97549 142.14016
#
# Poissons Ratio (x) = 0.05857 0.51706
# Poissons Ratio (y) = 0.85085 0.99714
# Poissons Ratio (z) = 0.52717 0.06998
#
# Static dielectric constant tensor:
#      x y z
#    x 1.645340 0.000000 0.025860 
#    y 0.000000 1.682660 0.000000 
#    z 0.025860 0.000000 1.655030 
# 
# From -- ./inp_files/314103.got.cif
#   From: 2010.05.17/outbox.cif.g08.bks.cpg/sg12_158_cif.got.tgz:314103.got - 2010.06.03 13:09:07.
