data_PCOD9193436
_publ_section_title
;
Structure prediction by ZEFSAII (Michael W. Deem and Ramdas Pophale) SiO2 
 PCOD9193436
Probable space group: C 2/M
;
_chemical_formula_sum "Si O2"
_cell_formula_units_Z 40
_cell_length_a 25.486124
_cell_length_b 21.484725
_cell_length_c 8.243172
_cell_angle_alpha 90.000000
_cell_angle_beta 150.589053
_cell_angle_gamma 90.000000
_cell_volume 2216.519380
_symmetry_space_group_name_H-M "C 2/M"
_symmetry_group_IT_number 12
_symmetry_cell_setting 'monoclinic'
loop_
_space_group_symop_operation_xyz
x,y,z
-x,y,-z
-x,-y,-z
x,-y,z
1/2+x,1/2+y,z
1/2-x,1/2+y,-z
1/2-x,1/2-y,-z
1/2+x,1/2-y,z
loop_
_atom_site_type_symbol
_atom_site_label
_atom_site_fract_x
_atom_site_fract_y
_atom_site_fract_z
Si Si1 0.944982 0.636042 0.683530
Si Si2 0.627266 0.431227 0.840933
Si Si3 0.843851 0.318692 0.913534
Si Si4 0.799844 0.570082 0.042557
Si Si5 0.760584 0.187359 0.717497
O O1 0.886907 0.583872 0.418849
O O2 0.850429 0.682651 0.482500
O O3 0.000000 0.613624 0.000000
O O4 0.035625 0.669336 0.821690
O O5 0.500000 0.428378 0.500000
O O6 0.659021 0.500000 0.989806
O O7 0.684363 0.426442 0.819073
O O8 0.673311 0.373955 0.063622
O O9 0.823657 0.250140 0.930534
O O10 0.770838 0.317557 0.555704
O O11 0.813213 0.375089 0.949104
O O12 0.815021 0.500000 0.018968
#
# Coordination Sequence:
#
# PCOD9193436 Si02
#       5
#     8   8   8   8   8
#     4   9  19  35  53  76 107 139 171 209 259 313
#     4   9  19  36  55  75 101 135 173 210 256 312
#     4  10  20  34  53  79 106 133 173 217 255 302
#     4  10  21  35  53  79 106 134 174 218 256 302
#     4   9  20  36  53  75 105 139 171 209 259 311
#
# _framework density 18.046310999999999
#
# number of rings (size 3 to 8) (size 9 to 14) (size 15 to 20)
#    0.000    2.600    0.000    0.600    0.000    9.200 
#    0.000    7.000    0.000    3.600    0.000    0.000 
#    0.000    0.000    0.000    0.000    0.000    0.000 
#
# Total GULP energy -111441.974849 kJ/mol
# GULP energy per Si atom -5572.098742 kJ/mol
# Density = 1.800524 g / cm^3
# Si number density = 18.046311 Si / 1000 Ang^3
#
#
#
# Elastic Constant Matrix: (Units=GPa)
#
#
# Indices 1 2 3 4 5 6 
#
# 1 79.7758 75.2191 47.6044 0.0000 14.1110 0.0000
# 2 75.2191 173.1494 55.7069 0.0000 7.5383 0.0000
# 3 47.6044 55.7069 64.2096 0.0000 21.4554 0.0000
# 4 0.0000 0.0000 0.0000 21.5662 0.0000 -9.7583
# 5 14.1110 7.5383 21.4554 0.0000 19.8873 0.0000
# 6 0.0000 0.0000 0.0000 -9.7583 0.0000 26.4500
#
#
#
# Elastic Compliance Matrix: (Units=1/GPa)
#
#
# Indices 1 2 3 4 5 6 
#
# 1 0.028458 -0.007994 -0.013179 0.000000 -0.002944 0.000000
# 2 -0.007994 0.010928 -0.006357 0.000000 0.008388 0.000000
# 3 -0.013179 -0.006357 0.042111 0.000000 -0.033671 0.000000
# 4 0.000000 0.000000 0.000000 0.055661 0.000000 0.020535
# 5 -0.002944 0.008388 -0.033671 0.000000 0.085518 0.000000
# 6 0.000000 0.000000 0.000000 0.020535 0.000000 0.045383
#
#
# Mechanical properties :
#
#
# Convention : Reuss Voigt Hill
#
# Bulk Modulus (GPa) = 37.82693 74.91061 56.36877
# Shear Modulus (GPa) = 15.06326 22.82098 18.94212
#
# Velocity S-wave (km/s) = 2.89225 3.55995 3.24333
# Velocity P-wave (km/s) = 5.67098 7.64840 6.73268
#
# Compressibility (1/GPa) = 0.02643620
#
# Stress axis : x y z
#
# Youngs Moduli (GPa) = 35.13972 91.50533 23.74661
#
# Poissons Ratio (x) = 0.73153 0.31296
# Poissons Ratio (y) = 0.28092 0.15096
# Poissons Ratio (z) = 0.46311 0.58172
#
# Static dielectric constant tensor:
#      x y z
#    x 1.637550 0.000000 -0.002700 
#    y 0.000000 1.611430 0.000000 
#    z -0.002700 0.000000 1.612970 
# 
# From -- ./inp_files/48476.got.cif
#   From: 2010.05.17/outbox.cif.g08.bks.cpg/sg12_25_cif.got.tgz:48476.got - 2010.06.03 13:09:07.
