data_PCOD9193582
_publ_section_title
;
Structure prediction by ZEFSAII (Michael W. Deem and Ramdas Pophale) SiO2 
 PCOD9193582
Probable space group: C 2/M
;
_chemical_formula_sum "Si O2"
_cell_formula_units_Z 44
_cell_length_a 29.678715
_cell_length_b 7.295427
_cell_length_c 8.009926
_cell_angle_alpha 90.000000
_cell_angle_beta 78.444822
_cell_angle_gamma 90.000000
_cell_volume 1699.149993
_symmetry_space_group_name_H-M "C 2/M"
_symmetry_group_IT_number 12
_symmetry_cell_setting 'monoclinic'
loop_
_space_group_symop_operation_xyz
x,y,z
-x,y,-z
-x,-y,-z
x,-y,z
1/2+x,1/2+y,z
1/2-x,1/2+y,-z
1/2-x,1/2-y,-z
1/2+x,1/2-y,z
loop_
_atom_site_type_symbol
_atom_site_label
_atom_site_fract_x
_atom_site_fract_y
_atom_site_fract_z
Si Si1 0.811940 0.775994 0.369023
Si Si2 0.500000 0.245818 0.000000
Si Si3 0.036305 0.723598 0.328912
Si Si4 0.728571 0.794191 0.242636
Si Si5 0.135058 0.278866 0.172682
Si Si6 0.595919 0.712302 0.838383
O O1 0.779179 0.714583 0.239598
O O2 0.791304 0.700590 0.554267
O O3 0.864810 0.721699 0.314579
O O4 0.810327 0.000000 0.373185
O O5 0.521597 0.308460 0.161864
O O6 0.451533 0.181711 0.113767
O O7 0.034505 0.500000 0.308106
O O8 0.090073 0.773061 0.316879
O O9 0.000000 0.771639 0.500000
O O10 0.685674 0.706775 0.179282
O O11 0.735416 0.000000 0.171030
O O12 0.137860 0.500000 0.180198
O O13 0.121136 0.222675 0.997643
O O14 0.583712 0.500000 0.812712
#
# Coordination Sequence:
#
# PCOD9193582 Si02
#       6
#     8   4   8   8   8   8
#     4   9  19  34  52  76 104 137 173 210 262 315
#     4  10  20  34  54  74 107 144 185 220 263 314
#     4   9  18  32  51  78 108 139 177 223 272 317
#     4   9  18  34  54  77 105 133 169 218 260 311
#     4   9  19  34  52  76 104 132 172 218 263 313
#     4  10  21  36  53  74 105 141 175 214 263 312
#
# _framework density 25.895301
#
# number of rings (size 3 to 8) (size 9 to 14) (size 15 to 20)
#    0.000    2.727    0.000    0.545    2.545    2.909 
#    0.000    0.000    0.000    2.727    0.000    0.000 
#    0.000    0.000    0.000    0.000    0.000    0.000 
#
# Total GULP energy -122595.449275 kJ/mol
# GULP energy per Si atom -5572.520422 kJ/mol
# Density = 2.583636 g / cm^3
# Si number density = 25.895301 Si / 1000 Ang^3
#
#
#
# Elastic Constant Matrix: (Units=GPa)
#
#
# Indices 1 2 3 4 5 6 
#
# 1 171.2346 18.9431 24.6092 0.0000 -6.8988 0.0000
# 2 18.9431 131.4151 -5.0099 0.0000 -7.4269 0.0000
# 3 24.6092 -5.0099 68.7407 0.0000 -15.9870 0.0000
# 4 0.0000 0.0000 0.0000 -2.1188 0.0000 1.5097
# 5 -6.8988 -7.4269 -15.9870 0.0000 58.3389 0.0000
# 6 0.0000 0.0000 0.0000 1.5097 0.0000 -98.0966
#
#
#
# Elastic Compliance Matrix: (Units=1/GPa)
#
#
# Indices 1 2 3 4 5 6 
#
# 1 0.006284 -0.000996 -0.002327 0.000000 -0.000021 0.000000
# 2 -0.000996 0.007868 0.001213 0.000000 0.001216 0.000000
# 3 -0.002327 0.001213 0.016492 0.000000 0.004399 0.000000
# 4 0.000000 0.000000 0.000000 -0.477191 0.000000 -0.007344
# 5 -0.000021 0.001216 0.004399 0.000000 0.018499 0.000000
# 6 0.000000 0.000000 0.000000 -0.007344 0.000000 -0.010307
#
#
# Mechanical properties :
#
#
# Convention : Reuss Voigt Hill
#
# Bulk Modulus (GPa) = 37.84521 49.83060 43.83790
# Shear Modulus (GPa) = -11.75563 13.81454 1.02945
#
# Velocity S-wave (km/s) = -2.13296 2.31222 0.63120
# Velocity P-wave (km/s) = 2.92923 5.13939 4.18293
#
# Compressibility (1/GPa) = 0.02642342
#
# Stress axis : x y z
#
# Youngs Moduli (GPa) = 159.14258 127.09759 60.63582
#
# Poissons Ratio (x) = 0.12655 0.14111
# Poissons Ratio (y) = 0.15846 -0.07354
# Poissons Ratio (z) = 0.37034 -0.15414
#
# Static dielectric constant tensor:
#      x y z
#    x 2.033390 0.000000 -0.013050 
#    y 0.000000 2.061620 0.000000 
#    z -0.013050 0.000000 1.996180 
# 
# From -- ./inp_files/108016.got.cif
#   From: 2010.05.17/outbox.cif.g08.bks.cpg/sg12_55_cif.got.tgz:108016.got - 2010.06.03 13:09:07.
