data_PCOD9193313
_publ_section_title
;
Structure prediction by ZEFSAII (Michael W. Deem and Ramdas Pophale) SiO2 
 PCOD9193313
Probable space group: C 2/M
;
_chemical_formula_sum "Si O2"
_cell_formula_units_Z 48
_cell_length_a 17.800346
_cell_length_b 9.155949
_cell_length_c 17.727815
_cell_angle_alpha 90.000000
_cell_angle_beta 129.451177
_cell_angle_gamma 90.000000
_cell_volume 2230.991289
_symmetry_space_group_name_H-M "C 2/M"
_symmetry_group_IT_number 12
_symmetry_cell_setting 'monoclinic'
loop_
_space_group_symop_operation_xyz
x,y,z
-x,y,-z
-x,-y,-z
x,-y,z
1/2+x,1/2+y,z
1/2-x,1/2+y,-z
1/2-x,1/2-y,-z
1/2+x,1/2-y,z
loop_
_atom_site_type_symbol
_atom_site_label
_atom_site_fract_x
_atom_site_fract_y
_atom_site_fract_z
Si Si1 0.487957 0.335786 0.821768
Si Si2 0.112803 0.665186 0.602742
Si Si3 0.304362 0.335211 0.967639
Si Si4 0.486804 0.826504 0.315243
Si Si5 0.892909 0.331476 0.890669
Si Si6 0.327357 0.671950 0.496642
O O1 0.459036 0.500000 0.778714
O O2 0.519017 0.232372 0.772678
O O3 0.407909 0.260273 0.823793
O O4 0.584894 0.350313 0.933225
O O5 0.147871 0.500000 0.612702
O O6 0.173630 0.774198 0.590416
O O7 0.000000 0.668094 0.500000
O O8 0.103798 0.694430 0.685947
O O9 0.264185 0.500000 0.930957
O O10 0.316705 0.243620 0.898869
O O11 0.250000 0.250000 0.000000
O O12 0.571318 0.729215 0.405395
O O13 0.509783 0.000000 0.331666
O O14 0.867938 0.500000 0.859870
O O15 0.000000 0.332399 0.000000
O O16 0.317523 0.500000 0.494464
O O17 0.250000 0.750000 0.500000
#
# Coordination Sequence:
#
# PCOD9193313 Si02
#       6
#     8   8   8   8   8   8
#     4  10  20  34  53  78 106 135 170 213 257 304
#     4   8  16  32  52  74 101 133 170 209 251 303
#     4  10  20  34  53  77 105 136 173 215 259 307
#     4  10  20  35  55  78 105 136 170 210 256 307
#     4   9  17  31  52  75 100 134 174 211 252 306
#     4  11  21  34  54  78 105 136 173 214 256 304
#
# _framework density 21.515101000000001
#
# number of rings (size 3 to 8) (size 9 to 14) (size 15 to 20)
#    0.000    2.333    0.000    4.500    0.000    7.667 
#    0.000    1.667    0.000    4.000    0.000    0.000 
#    0.000    0.000    0.000    0.000    0.000    0.000 
#
# Total GULP energy -133971.710467 kJ/mol
# GULP energy per Si atom -5582.154603 kJ/mol
# Density = 2.146613 g / cm^3
# Si number density = 21.515101 Si / 1000 Ang^3
#
#
#
# Elastic Constant Matrix: (Units=GPa)
#
#
# Indices 1 2 3 4 5 6 
#
# 1 126.5549 109.1867 26.1063 0.0000 -43.9276 0.0000
# 2 109.1867 214.2836 26.9630 0.0000 -39.3958 0.0000
# 3 26.1063 26.9630 33.6537 0.0000 -22.6394 0.0000
# 4 0.0000 0.0000 0.0000 25.5971 0.0000 -11.5893
# 5 -43.9276 -39.3958 -22.6394 0.0000 39.6234 0.0000
# 6 0.0000 0.0000 0.0000 -11.5893 0.0000 35.6423
#
#
#
# Elastic Compliance Matrix: (Units=1/GPa)
#
#
# Indices 1 2 3 4 5 6 
#
# 1 0.018752 -0.007031 0.000599 0.000000 0.014142 0.000000
# 2 -0.007031 0.008378 -0.001459 0.000000 -0.000298 0.000000
# 3 0.000599 -0.001459 0.048551 0.000000 0.026954 0.000000
# 4 0.000000 0.000000 0.000000 0.045811 0.000000 0.014896
# 5 0.014142 -0.000298 0.026954 0.000000 0.056019 0.000000
# 6 0.000000 0.000000 0.000000 0.014896 0.000000 0.032900
#
#
# Mechanical properties :
#
#
# Convention : Reuss Voigt Hill
#
# Bulk Modulus (GPa) = 16.69433 77.66713 47.18073
# Shear Modulus (GPa) = 20.31204 34.32165 27.31684
#
# Velocity S-wave (km/s) = 3.07593 3.99837 3.56709
# Velocity P-wave (km/s) = 4.51567 7.58243 6.24037
#
# Compressibility (1/GPa) = 0.05990059
#
# Stress axis : x y z
#
# Youngs Moduli (GPa) = 53.32631 119.36172 20.59695
#
# Poissons Ratio (x) = 0.83919 -0.01234
# Poissons Ratio (y) = 0.37492 0.03005
# Poissons Ratio (z) = -0.03196 0.17415
#
# Static dielectric constant tensor:
#      x y z
#    x 1.507150 0.000000 -0.331960 
#    y 0.000000 1.749590 0.000000 
#    z -0.331960 0.000000 1.445280 
# 
# From -- ./inp_files/274575.got.cif
#   From: 2010.05.17/outbox.cif.g08.bks.cpg/sg12_138_cif.got.tgz:274575.got - 2010.06.03 13:09:07.
