data_PCOD9193099
_publ_section_title
;
Structure prediction by ZEFSAII (Michael W. Deem and Ramdas Pophale) SiO2 
 PCOD9193099
Probable space group: C 2/M
;
_chemical_formula_sum "Si O2"
_cell_formula_units_Z 56
_cell_length_a 30.540028
_cell_length_b 8.972190
_cell_length_c 10.089818
_cell_angle_alpha 90.000000
_cell_angle_beta 114.215404
_cell_angle_gamma 90.000000
_cell_volume 2521.452355
_symmetry_space_group_name_H-M "C 2/M"
_symmetry_group_IT_number 12
_symmetry_cell_setting 'monoclinic'
loop_
_space_group_symop_operation_xyz
x,y,z
-x,y,-z
-x,-y,-z
x,-y,z
1/2+x,1/2+y,z
1/2-x,1/2+y,-z
1/2-x,1/2-y,-z
1/2+x,1/2-y,z
loop_
_atom_site_type_symbol
_atom_site_label
_atom_site_fract_x
_atom_site_fract_y
_atom_site_fract_z
Si Si1 0.839871 0.832249 0.206172
Si Si2 0.203240 0.666933 0.493287
Si Si3 0.854847 0.170395 0.922310
Si Si4 0.991267 0.321096 0.643562
Si Si5 0.249834 0.831505 0.163887
Si Si6 0.110690 0.821389 0.461693
Si Si7 0.542504 0.319023 0.950648
O O1 0.863866 0.833691 0.092695
O O2 0.789100 0.750686 0.122950
O O3 0.873938 0.779920 0.367192
O O4 0.827282 0.000000 0.232139
O O5 0.197666 0.500000 0.431620
O O6 0.250000 0.750000 0.500000
O O7 0.217159 0.654430 0.664687
O O8 0.154365 0.761183 0.425566
O O9 0.905019 0.233228 0.932475
O O10 0.850067 0.000000 0.865649
O O11 0.801044 0.236805 0.849237
O O12 0.992051 0.500000 0.652611
O O13 0.939761 0.256894 0.624110
O O14 0.000000 0.278832 0.500000
O O15 0.029188 0.251705 0.792897
O O16 0.239209 0.000000 0.102542
O O17 0.106089 0.000000 0.443278
O O18 0.544617 0.500000 0.941919
O O19 0.500000 0.282162 0.000000
#
# Coordination Sequence:
#
# PCOD9193099 Si02
#       7
#     8   8   8   8   8   8   8
#     4   9  17  30  51  79 109 138 173 221 275 335
#     4  10  20  34  52  77 110 147 187 230 280 342
#     4   9  17  32  53  77 106 140 178 222 274 334
#     4  11  24  41  62  89 120 155 199 253 310 365
#     4   9  18  31  49  74 106 140 174 218 271 331
#     4  10  20  35  57  83 111 146 189 240 296 351
#     4  10  22  40  62  87 116 154 200 247 296 355
#
# _framework density 22.209423999999999
#
# number of rings (size 3 to 8) (size 9 to 14) (size 15 to 20)
#    0.000    2.286    0.000    2.571    0.000    4.857 
#    0.000    4.286    0.000    0.000    0.000    0.000 
#    0.000    0.000    0.000    0.000    0.000    0.000 
#
# Total GULP energy -156144.166317 kJ/mol
# GULP energy per Si atom -5576.577368 kJ/mol
# Density = 2.215887 g / cm^3
# Si number density = 22.209424 Si / 1000 Ang^3
#
#
#
# Elastic Constant Matrix: (Units=GPa)
#
#
# Indices 1 2 3 4 5 6 
#
# 1 148.2381 35.3532 12.7807 0.0000 29.7382 0.0000
# 2 35.3532 40.0820 9.4361 0.0000 4.0193 0.0000
# 3 12.7807 9.4361 62.9816 0.0000 23.1848 0.0000
# 4 0.0000 0.0000 0.0000 21.1606 0.0000 1.2833
# 5 29.7382 4.0193 23.1848 0.0000 40.4114 0.0000
# 6 0.0000 0.0000 0.0000 1.2833 0.0000 26.9989
#
#
#
# Elastic Compliance Matrix: (Units=1/GPa)
#
#
# Indices 1 2 3 4 5 6 
#
# 1 0.010225 -0.008731 0.002134 0.000000 -0.007880 0.000000
# 2 -0.008731 0.033322 -0.005535 0.000000 0.006286 0.000000
# 3 0.002134 -0.005535 0.021107 0.000000 -0.013129 0.000000
# 4 0.000000 0.000000 0.000000 0.047394 0.000000 -0.002253
# 5 -0.007880 0.006286 -0.013129 0.000000 0.037452 0.000000
# 6 0.000000 0.000000 0.000000 -0.002253 0.000000 0.037146
#
#
# Mechanical properties :
#
#
# Convention : Reuss Voigt Hill
#
# Bulk Modulus (GPa) = 24.75779 40.71575 32.73677
# Shear Modulus (GPa) = 22.28432 30.62963 26.45698
#
# Velocity S-wave (km/s) = 3.17104 3.71769 3.45519
# Velocity P-wave (km/s) = 4.95772 6.06636 5.53984
#
# Compressibility (1/GPa) = 0.04039132
#
# Stress axis : x y z
#
# Youngs Moduli (GPa) = 97.79921 30.00997 47.37758
#
# Poissons Ratio (x) = 0.26201 -0.10111
# Poissons Ratio (y) = 0.85387 0.26222
# Poissons Ratio (z) = -0.20871 0.16610
#
# Static dielectric constant tensor:
#      x y z
#    x 1.851980 0.000000 -0.053850 
#    y 0.000000 1.842630 0.000000 
#    z -0.053850 0.000000 1.910740 
# 
# From -- ./inp_files/187754.got.cif
#   From: 2010.05.17/outbox.cif.g08.bks.cpg/sg12_94_cif.got.tgz:187754.got - 2010.06.03 13:09:07.
