data_PCOD9193116
_publ_section_title
;
Structure prediction by ZEFSAII (Michael W. Deem and Ramdas Pophale) SiO2 
 PCOD9193116
Probable space group: C 2/M
;
_chemical_formula_sum "Si O2"
_cell_formula_units_Z 56
_cell_length_a 25.838993
_cell_length_b 8.581155
_cell_length_c 15.475410
_cell_angle_alpha 90.000000
_cell_angle_beta 74.978997
_cell_angle_gamma 90.000000
_cell_volume 3314.092181
_symmetry_space_group_name_H-M "C 2/M"
_symmetry_group_IT_number 12
_symmetry_cell_setting 'monoclinic'
loop_
_space_group_symop_operation_xyz
x,y,z
-x,y,-z
-x,-y,-z
x,-y,z
1/2+x,1/2+y,z
1/2-x,1/2+y,-z
1/2-x,1/2-y,-z
1/2+x,1/2-y,z
loop_
_atom_site_type_symbol
_atom_site_label
_atom_site_fract_x
_atom_site_fract_y
_atom_site_fract_z
Si Si1 0.853469 0.312446 0.772507
Si Si2 0.743171 0.687045 0.905891
Si Si3 0.460617 0.310505 0.393995
Si Si4 0.627891 0.813437 0.908732
Si Si5 0.448090 0.686968 0.204779
Si Si6 0.435007 0.811501 0.889682
Si Si7 0.078736 0.812091 0.406684
O O1 0.853778 0.500000 0.771148
O O2 0.794550 0.260976 0.827645
O O3 0.896350 0.263289 0.827399
O O4 0.873617 0.251866 0.671929
O O5 0.743578 0.500000 0.908996
O O6 0.687123 0.744852 0.892286
O O7 0.750000 0.750000 0.000000
O O8 0.460500 0.500000 0.393903
O O9 0.443407 0.258891 0.306546
O O10 0.522011 0.263793 0.387658
O O11 0.425144 0.261343 0.491598
O O12 0.596844 0.756617 0.837761
O O13 0.631317 0.000000 0.907845
O O14 0.593313 0.766760 0.008302
O O15 0.444908 0.500000 0.204276
O O16 0.506598 0.738928 0.146442
O O17 0.439908 0.000000 0.886193
O O18 0.080424 0.000000 0.404433
#
# Coordination Sequence:
#
# PCOD9193116 Si02
#       7
#     8   8   8   8   8   8   8
#     4  10  20  34  52  78 110 137 167 215 269 308
#     4  11  22  38  57  78 105 140 179 222 264 308
#     4   8  16  30  50  76 108 136 169 214 262 308
#     4  11  23  39  54  74 106 146 182 219 263 312
#     4  11  21  34  53  80 108 141 179 218 259 314
#     4  10  20  35  51  73 109 146 172 208 264 315
#     4   9  16  31  53  77 103 138 174 211 258 315
#
# _framework density 16.897538000000001
#
# number of rings (size 3 to 8) (size 9 to 14) (size 15 to 20)
#    0.000    2.000    2.857    2.571    0.000    4.000 
#    0.000    2.857    0.000    0.857    0.000    0.000 
#    0.000    0.000    0.000    0.000    0.000    0.000 
#
# Total GULP energy -156270.106827 kJ/mol
# GULP energy per Si atom -5581.075244 kJ/mol
# Density = 1.685908 g / cm^3
# Si number density = 16.897538 Si / 1000 Ang^3
#
#
#
# Elastic Constant Matrix: (Units=GPa)
#
#
# Indices 1 2 3 4 5 6 
#
# 1 136.6495 30.2312 86.0667 0.0000 -5.4459 0.0000
# 2 30.2312 24.2030 28.5129 0.0000 -3.3972 0.0000
# 3 86.0667 28.5129 157.0385 0.0000 -16.7045 0.0000
# 4 0.0000 0.0000 0.0000 26.4709 0.0000 -2.5158
# 5 -5.4459 -3.3972 -16.7045 0.0000 22.5737 0.0000
# 6 0.0000 0.0000 0.0000 -2.5158 0.0000 26.7804
#
#
#
# Elastic Compliance Matrix: (Units=1/GPa)
#
#
# Indices 1 2 3 4 5 6 
#
# 1 0.012903 -0.009951 -0.005528 0.000000 -0.002476 0.000000
# 2 -0.009951 0.060253 -0.005185 0.000000 0.002830 0.000000
# 3 -0.005528 -0.005185 0.010978 0.000000 0.006010 0.000000
# 4 0.000000 0.000000 0.000000 0.038118 0.000000 0.003581
# 5 -0.002476 0.002830 0.006010 0.000000 0.048575 0.000000
# 6 0.000000 0.000000 0.000000 0.003581 0.000000 0.037677
#
#
# Mechanical properties :
#
#
# Convention : Reuss Voigt Hill
#
# Bulk Modulus (GPa) = 23.36173 67.50142 45.43158
# Shear Modulus (GPa) = 18.93222 26.70366 22.81794
#
# Velocity S-wave (km/s) = 3.35089 3.97965 3.67873
# Velocity P-wave (km/s) = 5.36906 7.81991 6.70738
#
# Compressibility (1/GPa) = 0.04280505
#
# Stress axis : x y z
#
# Youngs Moduli (GPa) = 77.50397 16.59681 91.09002
#
# Poissons Ratio (x) = 0.16516 0.50353
# Poissons Ratio (y) = 0.77127 0.47228
# Poissons Ratio (z) = 0.42843 0.08605
#
# Static dielectric constant tensor:
#      x y z
#    x 1.539980 0.000000 0.001240 
#    y 0.000000 1.577160 0.000000 
#    z 0.001240 0.000000 1.578720 
# 
# From -- ./inp_files/237304.got.cif
#   From: 2010.05.17/outbox.cif.g08.bks.cpg/sg12_119_cif.got.tgz:237304.got - 2010.06.03 13:09:07.
