data_PCOD9193555
_publ_section_title
;
Structure prediction by ZEFSAII (Michael W. Deem and Ramdas Pophale) SiO2 
 PCOD9193555
Probable space group: C 2/M
;
_chemical_formula_sum "Si O2"
_cell_formula_units_Z 52
_cell_length_a 17.481006
_cell_length_b 20.758979
_cell_length_c 11.437978
_cell_angle_alpha 90.000000
_cell_angle_beta 36.426432
_cell_angle_gamma 90.000000
_cell_volume 2464.646575
_symmetry_space_group_name_H-M "C 2/M"
_symmetry_group_IT_number 12
_symmetry_cell_setting 'monoclinic'
loop_
_space_group_symop_operation_xyz
x,y,z
-x,y,-z
-x,-y,-z
x,-y,z
1/2+x,1/2+y,z
1/2-x,1/2+y,-z
1/2-x,1/2-y,-z
1/2+x,1/2-y,z
loop_
_atom_site_type_symbol
_atom_site_label
_atom_site_fract_x
_atom_site_fract_y
_atom_site_fract_z
Si Si1 0.757804 0.682171 0.842331
Si Si2 0.109775 0.698514 0.068499
Si Si3 0.779998 0.135912 0.458171
Si Si4 0.000000 0.387870 0.500000
Si Si5 0.118817 0.738987 0.766535
Si Si6 0.462074 0.573995 0.908809
Si Si7 0.010488 0.428765 0.745597
O O1 0.819568 0.691180 0.894927
O O2 0.877878 0.656574 0.622408
O O3 0.699281 0.752233 0.885506
O O4 0.647876 0.627250 0.978270
O O5 0.968904 0.732489 0.246036
O O6 0.072354 0.625160 0.084423
O O7 0.823313 0.189777 0.308859
O O8 0.722178 0.182272 0.629850
O O9 0.661053 0.090521 0.569784
O O10 0.908577 0.094741 0.319068
O O11 0.024682 0.425861 0.349709
O O12 0.000000 0.727996 0.000000
O O13 0.423083 0.500000 0.930628
O O14 0.500000 0.575866 0.000000
O O15 0.988770 0.500000 0.817335
#
# Coordination Sequence:
#
# PCOD9193555 Si02
#       7
#     8   8   8   4   8   8   8
#     4  10  20  36  52  80 119 152 197 238 286 358
#     4   9  20  36  54  76 108 155 196 240 283 338
#     4  10  20  34  55  84 117 149 186 241 300 351
#     4  10  21  32  54  82 115 154 188 242 297 360
#     4  10  20  35  58  84 111 148 198 245 295 347
#     4  11  22  35  58  92 127 160 190 237 305 372
#     4  10  20  34  53  82 116 150 191 236 294 358
#
# _framework density 21.098358999999999
#
# number of rings (size 3 to 8) (size 9 to 14) (size 15 to 20)
#    0.000    2.000    1.538    2.077    2.154    4.308 
#    0.000    0.000    0.000   11.538    0.000    1.615 
#    0.000    0.000    0.000    0.000    0.000    0.000 
#
# Total GULP energy -144866.883836 kJ/mol
# GULP energy per Si atom -5571.803224 kJ/mol
# Density = 2.105034 g / cm^3
# Si number density = 21.098359 Si / 1000 Ang^3
#
#
#
# Elastic Constant Matrix: (Units=GPa)
#
#
# Indices 1 2 3 4 5 6 
#
# 1 34.2571 18.0045 16.0147 0.0001 -21.1827 -0.0001
# 2 18.0045 170.7072 59.3160 0.0001 -12.8860 -0.0001
# 3 16.0147 59.3160 109.8404 0.0001 -13.7654 -0.0001
# 4 0.0001 0.0001 0.0001 27.0693 -0.0001 -0.6023
# 5 -21.1827 -12.8860 -13.7654 -0.0001 33.6942 0.0001
# 6 -0.0001 -0.0001 -0.0001 -0.6023 0.0001 24.8401
#
#
#
# Elastic Compliance Matrix: (Units=1/GPa)
#
#
# Indices 1 2 3 4 5 6 
#
# 1 0.049624 -0.002192 -0.002368 0.000000 0.029392 0.000000
# 2 -0.002192 0.007357 -0.003661 0.000000 -0.000060 0.000000
# 3 -0.002368 -0.003661 0.011661 0.000000 0.001876 0.000000
# 4 0.000000 0.000000 0.000000 0.036962 0.000000 0.000896
# 5 0.029392 -0.000060 0.001876 0.000000 0.048900 0.000000
# 6 0.000000 0.000000 0.000000 0.000896 0.000000 0.040279
#
#
# Mechanical properties :
#
#
# Convention : Reuss Voigt Hill
#
# Bulk Modulus (GPa) = 19.15692 55.71948 37.43820
# Shear Modulus (GPa) = 21.86984 31.88536 26.87760
#
# Velocity S-wave (km/s) = 3.22307 3.89173 3.57307
# Velocity P-wave (km/s) = 4.79066 6.83087 5.89963
#
# Compressibility (1/GPa) = 0.05220045
#
# Stress axis : x y z
#
# Youngs Moduli (GPa) = 20.15134 135.93166 85.75444
#
# Poissons Ratio (x) = 0.29803 0.20305
# Poissons Ratio (y) = 0.04418 0.31392
# Poissons Ratio (z) = 0.04771 0.49760
#
# Static dielectric constant tensor:
#      x y z
#    x 1.956590 0.000000 0.052540 
#    y 0.000000 1.782240 0.000000 
#    z 0.052540 0.000000 1.769600 
# 
# From -- ./inp_files/234444.got.cif
#   From: 2010.05.17/outbox.cif.g08.bks.cpg/sg12_118_cif.got.tgz:234444.got - 2010.06.03 13:09:07.
