data_PCOD9193652
_publ_section_title
;
Structure prediction by ZEFSAII (Michael W. Deem and Ramdas Pophale) SiO2 
 PCOD9193652
Probable space group: C 2/M
;
_chemical_formula_sum "Si O2"
_cell_formula_units_Z 64
_cell_length_a 8.694215
_cell_length_b 11.453256
_cell_length_c 33.431649
_cell_angle_alpha 90.000000
_cell_angle_beta 97.457410
_cell_angle_gamma 90.000000
_cell_volume 3300.867467
_symmetry_space_group_name_H-M "C 2/M"
_symmetry_group_IT_number 12
_symmetry_cell_setting 'monoclinic'
loop_
_space_group_symop_operation_xyz
x,y,z
-x,y,-z
-x,-y,-z
x,-y,z
1/2+x,1/2+y,z
1/2-x,1/2+y,-z
1/2-x,1/2-y,-z
1/2+x,1/2-y,z
loop_
_atom_site_type_symbol
_atom_site_label
_atom_site_fract_x
_atom_site_fract_y
_atom_site_fract_z
Si Si1 0.179311 0.130491 0.388735
Si Si2 0.611188 0.811364 0.970717
Si Si3 0.594734 0.749670 0.660479
Si Si4 0.098644 0.133246 0.170250
Si Si5 0.550119 0.135368 0.799021
Si Si6 0.878486 0.126409 0.923862
Si Si7 0.130187 0.368889 0.290211
Si Si8 0.662975 0.367007 0.482564
O O1 0.311472 0.213141 0.375594
O O2 0.144551 0.146770 0.434185
O O3 0.025653 0.151364 0.357363
O O4 0.236406 0.000000 0.384762
O O5 0.709853 0.871132 0.939010
O O6 0.494436 0.721117 0.945786
O O7 0.500000 0.872203 0.000000
O O8 0.750000 0.750000 0.000000
O O9 0.722818 0.712578 0.697095
O O10 0.489011 0.847490 0.677487
O O11 0.263859 0.139792 0.198215
O O12 0.000668 0.249018 0.177881
O O13 0.134296 0.139430 0.124088
O O14 0.033538 0.000000 0.175518
O O15 0.461296 0.148699 0.754025
O O16 0.515641 0.000000 0.812616
O O17 0.949642 0.000000 0.935151
O O18 0.189261 0.500000 0.292982
O O19 0.500000 0.367890 0.500000
O O20 0.731625 0.500000 0.491321
O O21 0.750000 0.250000 0.500000
#
# Coordination Sequence:
#
# PCOD9193652 Si02
#       8
#     8   8   8   8   8   8   8   8
#     4  10  20  35  54  77 106 139 178 223 269 320
#     4   9  19  34  53  79 106 135 176 219 262 321
#     4  10  20  34  54  78 105 139 179 219 268 325
#     4  10  21  37  57  82 112 148 187 227 274 326
#     4  10  21  37  57  82 113 145 182 229 275 324
#     4  10  20  36  56  77 108 144 178 222 271 320
#     4  10  20  35  54  78 108 141 177 221 272 322
#     4  10  21  37  56  80 110 143 181 226 274 325
#
# _framework density 19.388842
#
# number of rings (size 3 to 8) (size 9 to 14) (size 15 to 20)
#    0.000    2.125    0.000    3.000    0.000    3.250 
#    0.000    8.750    0.000    0.000    0.000    0.000 
#    0.000    0.000    0.000    0.000    0.000    0.000 
#
# Total GULP energy -178136.581220 kJ/mol
# GULP energy per Si atom -5566.768163 kJ/mol
# Density = 1.934471 g / cm^3
# Si number density = 19.388842 Si / 1000 Ang^3
#
#
#
# Elastic Constant Matrix: (Units=GPa)
#
#
# Indices 1 2 3 4 5 6 
#
# 1 53.9685 20.8463 -5.7751 0.0000 0.5633 0.0000
# 2 20.8463 107.5030 17.8059 0.0000 -2.9412 0.0000
# 3 -5.7751 17.8059 40.2281 0.0000 -3.3367 0.0000
# 4 0.0000 0.0000 0.0000 46.4294 0.0000 -4.1054
# 5 0.5633 -2.9412 -3.3367 0.0000 33.2546 0.0000
# 6 0.0000 0.0000 0.0000 -4.1054 0.0000 22.0276
#
#
#
# Elastic Compliance Matrix: (Units=1/GPa)
#
#
# Indices 1 2 3 4 5 6 
#
# 1 0.020992 -0.004935 0.005176 0.000000 -0.000273 0.000000
# 2 -0.004935 0.011205 -0.005626 0.000000 0.000510 0.000000
# 3 0.005176 -0.005626 0.028278 0.000000 0.002252 0.000000
# 4 0.000000 0.000000 0.000000 0.021899 0.000000 0.004081
# 5 -0.000273 0.000510 0.002252 0.000000 0.030347 0.000000
# 6 0.000000 0.000000 0.000000 0.004081 0.000000 0.046158
#
#
# Mechanical properties :
#
#
# Convention : Reuss Voigt Hill
#
# Bulk Modulus (GPa) = 20.11903 29.71708 24.91806
# Shear Modulus (GPa) = 26.85015 31.59714 29.22364
#
# Velocity S-wave (km/s) = 3.72536 4.04128 3.88653
# Velocity P-wave (km/s) = 5.37620 6.09394 5.74629
#
# Compressibility (1/GPa) = 0.04970419
#
# Stress axis : x y z
#
# Youngs Moduli (GPa) = 47.63631 89.24695 35.36300
#
# Poissons Ratio (x) = 0.44047 -0.18302
# Poissons Ratio (y) = 0.23510 0.19894
# Poissons Ratio (z) = -0.24654 0.50208
#
# Static dielectric constant tensor:
#      x y z
#    x 1.643500 0.000000 -0.011190 
#    y 0.000000 1.710210 0.000000 
#    z -0.011190 0.000000 1.678910 
# 
# From -- ./inp_files/372178.got.cif
#   From: 2010.05.17/outbox.cif.g08.bks.cpg/sg12_187_cif.got.tgz:372178.got - 2010.06.03 13:09:07.
