data_PCOD9193583
_publ_section_title
;
Structure prediction by ZEFSAII (Michael W. Deem and Ramdas Pophale) SiO2 
 PCOD9193583
Probable space group: C 2/M
;
_chemical_formula_sum "Si O2"
_cell_formula_units_Z 64
_cell_length_a 14.034441
_cell_length_b 10.698173
_cell_length_c 21.232038
_cell_angle_alpha 90.000000
_cell_angle_beta 82.833359
_cell_angle_gamma 90.000000
_cell_volume 3162.934309
_symmetry_space_group_name_H-M "C 2/M"
_symmetry_group_IT_number 12
_symmetry_cell_setting 'monoclinic'
loop_
_space_group_symop_operation_xyz
x,y,z
-x,y,-z
-x,-y,-z
x,-y,z
1/2+x,1/2+y,z
1/2-x,1/2+y,-z
1/2-x,1/2-y,-z
1/2+x,1/2-y,z
loop_
_atom_site_type_symbol
_atom_site_label
_atom_site_fract_x
_atom_site_fract_y
_atom_site_fract_z
Si Si1 0.682448 0.850673 0.250121
Si Si2 0.842487 0.642031 0.555610
Si Si3 0.308024 0.853655 0.409204
Si Si4 0.989764 0.352878 0.644735
Si Si5 0.591132 0.693760 0.028114
Si Si6 0.960596 0.645725 0.848908
Si Si7 0.711429 0.131983 0.928795
Si Si8 0.666141 0.144648 0.785034
O O1 0.594899 0.809609 0.302758
O O2 0.635855 0.840194 0.184232
O O3 0.769267 0.753302 0.250649
O O4 0.704264 0.000000 0.258540
O O5 0.811288 0.500000 0.576596
O O6 0.775772 0.752264 0.587761
O O7 0.838195 0.646734 0.480660
O O8 0.946262 0.659645 0.578269
O O9 0.401241 0.808102 0.362771
O O10 0.284068 0.000000 0.396555
O O11 0.998439 0.500000 0.657974
O O12 0.545618 0.782565 0.085260
O O13 0.677372 0.630024 0.059756
O O14 0.500000 0.633724 0.000000
O O15 0.652724 0.762193 0.969032
O O16 0.973330 0.500000 0.861480
O O17 0.053568 0.679522 0.798993
O O18 0.699856 0.141538 0.855233
O O19 0.667740 0.000000 0.953376
O O20 0.676115 0.000000 0.760289
#
# Coordination Sequence:
#
# PCOD9193583 Si02
#       8
#     8   8   8   8   8   8   8   8
#     4  10  21  38  55  75 102 136 178 218 254 299
#     4   9  17  31  52  79 109 139 171 212 259 305
#     4   9  17  31  53  80 107 138 175 213 255 303
#     4   9  18  33  54  75 102 141 179 212 250 307
#     4  11  20  33  53  76 101 127 166 206 256 312
#     4  10  20  34  54  75 100 132 170 209 253 310
#     4  10  21  34  51  75 103 130 161 207 259 312
#     4  10  20  37  56  76 102 134 170 213 263 308
#
# _framework density 20.234375
#
# number of rings (size 3 to 8) (size 9 to 14) (size 15 to 20)
#    0.000    2.250    2.500    0.750    0.000    3.250 
#    0.000    4.375    0.000    3.000    0.000    0.000 
#    0.000    0.000    0.000    0.000    0.000    0.000 
#
# Total GULP energy -178290.220663 kJ/mol
# GULP energy per Si atom -5571.569396 kJ/mol
# Density = 2.018832 g / cm^3
# Si number density = 20.234375 Si / 1000 Ang^3
#
#
#
# Elastic Constant Matrix: (Units=GPa)
#
#
# Indices 1 2 3 4 5 6 
#
# 1 111.5642 56.3470 13.3174 0.0000 -12.1964 0.0000
# 2 56.3470 85.2516 17.3299 0.0000 -20.1294 0.0000
# 3 13.3174 17.3299 57.3909 0.0000 -2.8023 0.0000
# 4 0.0000 0.0000 0.0000 18.2244 0.0000 -8.7754
# 5 -12.1964 -20.1294 -2.8023 0.0000 39.1726 0.0000
# 6 0.0000 0.0000 0.0000 -8.7754 0.0000 21.9382
#
#
#
# Elastic Compliance Matrix: (Units=1/GPa)
#
#
# Indices 1 2 3 4 5 6 
#
# 1 0.013473 -0.008910 -0.000456 0.000000 -0.000417 0.000000
# 2 -0.008910 0.020079 -0.003640 0.000000 0.007283 0.000000
# 3 -0.000456 -0.003640 0.018596 0.000000 -0.000682 0.000000
# 4 0.000000 0.000000 0.000000 0.067961 0.000000 0.027185
# 5 -0.000417 0.007283 -0.000682 0.000000 0.029092 0.000000
# 6 0.000000 0.000000 0.000000 0.027185 0.000000 0.056457
#
#
# Mechanical properties :
#
#
# Convention : Reuss Voigt Hill
#
# Bulk Modulus (GPa) = 38.26288 47.57727 42.92007
# Shear Modulus (GPa) = 20.80024 27.01454 23.90739
#
# Velocity S-wave (km/s) = 3.20967 3.65784 3.44106
# Velocity P-wave (km/s) = 5.71724 6.43458 6.08649
#
# Compressibility (1/GPa) = 0.02613499
#
# Stress axis : x y z
#
# Youngs Moduli (GPa) = 74.22433 49.80346 53.77512
#
# Poissons Ratio (x) = 0.44377 0.02452
# Poissons Ratio (y) = 0.66137 0.19573
# Poissons Ratio (z) = 0.03385 0.18128
#
# Static dielectric constant tensor:
#      x y z
#    x 1.735990 0.000000 0.011260 
#    y 0.000000 1.717830 0.000000 
#    z 0.011260 0.000000 1.765160 
# 
# From -- ./inp_files/335219.got.cif
#   From: 2010.05.17/outbox.cif.g08.bks.cpg/sg12_168_cif.got.tgz:335219.got - 2010.06.03 13:09:07.
