data_PCOD9193005
_publ_section_title
;
Structure prediction by ZEFSAII (Michael W. Deem and Ramdas Pophale) SiO2 
 PCOD9193005
Probable space group: C 2/M
;
_chemical_formula_sum "Si O2"
_cell_formula_units_Z 64
_cell_length_a 8.409716
_cell_length_b 11.881283
_cell_length_c 33.558802
_cell_angle_alpha 90.000000
_cell_angle_beta 89.831237
_cell_angle_gamma 90.000000
_cell_volume 3353.121073
_symmetry_space_group_name_H-M "C 2/M"
_symmetry_group_IT_number 12
_symmetry_cell_setting 'monoclinic'
loop_
_space_group_symop_operation_xyz
x,y,z
-x,y,-z
-x,-y,-z
x,-y,z
1/2+x,1/2+y,z
1/2-x,1/2+y,-z
1/2-x,1/2-y,-z
1/2+x,1/2-y,z
loop_
_atom_site_type_symbol
_atom_site_label
_atom_site_fract_x
_atom_site_fract_y
_atom_site_fract_z
Si Si1 0.194050 0.877575 0.389592
Si Si2 0.058639 0.372186 0.044357
Si Si3 0.508038 0.189553 0.656316
Si Si4 0.460535 0.626548 0.763943
Si Si5 0.267113 0.793749 0.094406
Si Si6 0.745229 0.191356 0.284433
Si Si7 0.524558 0.627835 0.855440
Si Si8 0.181267 0.871232 0.484927
O O1 0.375640 0.873932 0.373905
O O2 0.091630 0.780898 0.368723
O O3 0.189586 0.865706 0.437041
O O4 0.125776 0.000000 0.378628
O O5 0.120645 0.500000 0.044083
O O6 0.187078 0.285499 0.061044
O O7 0.906996 0.363487 0.073731
O O8 0.000000 0.344276 0.000000
O O9 0.382022 0.131441 0.686320
O O10 0.631923 0.249492 0.685704
O O11 0.394578 0.500000 0.759946
O O12 0.352257 0.715228 0.740453
O O13 0.638516 0.627099 0.745535
O O14 0.473607 0.655801 0.810467
O O15 0.346701 0.713395 0.127405
O O16 0.128042 0.862907 0.115641
O O17 0.585698 0.500000 0.855426
O O18 0.250000 0.750000 0.500000
O O19 0.000000 0.872653 0.500000
O O20 0.246046 0.000000 0.495825
#
# Coordination Sequence:
#
# PCOD9193005 Si02
#       8
#     8   8   8   8   8   8   8   8
#     4  10  20  36  56  78 107 141 176 219 267 316
#     4  10  20  34  52  75 103 135 170 207 252 306
#     4   9  19  34  53  77 104 134 173 214 255 311
#     4  10  20  35  54  74 102 137 170 211 260 307
#     4  10  20  34  53  75 103 133 167 213 257 300
#     4   9  19  34  52  77 104 133 172 212 255 312
#     4  10  20  34  53  76 100 132 172 211 256 307
#     4  10  21  37  58  83 113 148 187 230 278 330
#
# _framework density 19.086694999999999
#
# number of rings (size 3 to 8) (size 9 to 14) (size 15 to 20)
#    0.000    2.250    0.000    2.625    0.000    5.250 
#    0.000    4.375    0.000   16.500    0.000    0.000 
#    0.000    0.000    0.000    0.000    0.000    0.000 
#
# Total GULP energy -178277.644763 kJ/mol
# GULP energy per Si atom -5571.176399 kJ/mol
# Density = 1.904325 g / cm^3
# Si number density = 19.086695 Si / 1000 Ang^3
#
#
#
# Elastic Constant Matrix: (Units=GPa)
#
#
# Indices 1 2 3 4 5 6 
#
# 1 46.9658 18.4217 4.7761 0.0000 -1.1586 0.0000
# 2 18.4217 105.5628 36.1888 0.0000 18.7166 0.0000
# 3 4.7761 36.1888 79.3478 0.0000 -2.5924 0.0000
# 4 0.0000 0.0000 0.0000 85.5316 0.0000 3.9991
# 5 -1.1586 18.7166 -2.5924 0.0000 23.9991 0.0000
# 6 0.0000 0.0000 0.0000 3.9991 0.0000 16.2331
#
#
#
# Elastic Compliance Matrix: (Units=1/GPa)
#
#
# Indices 1 2 3 4 5 6 
#
# 1 0.023467 -0.005528 0.001291 0.000000 0.005583 0.000000
# 2 -0.005528 0.015095 -0.006970 0.000000 -0.012792 0.000000
# 3 0.001291 -0.006970 0.015940 0.000000 0.007220 0.000000
# 4 0.000000 0.000000 0.000000 0.011828 0.000000 -0.002914
# 5 0.005583 -0.012792 0.007220 0.000000 0.052694 0.000000
# 6 0.000000 0.000000 0.000000 -0.002914 0.000000 0.062320
#
#
# Mechanical properties :
#
#
# Convention : Reuss Voigt Hill
#
# Bulk Modulus (GPa) = 31.16378 38.96108 35.06243
# Shear Modulus (GPa) = 23.31513 36.65208 29.98360
#
# Velocity S-wave (km/s) = 3.49884 4.38687 3.96778
# Velocity P-wave (km/s) = 5.71712 6.79091 6.27702
#
# Compressibility (1/GPa) = 0.03208853
#
# Stress axis : x y z
#
# Youngs Moduli (GPa) = 42.61355 66.24649 62.73646
#
# Poissons Ratio (x) = 0.36619 -0.08099
# Poissons Ratio (y) = 0.23555 0.43726
# Poissons Ratio (z) = -0.05501 0.46172
#
# Static dielectric constant tensor:
#      x y z
#    x 1.648890 0.000000 -0.026150 
#    y 0.000000 1.663480 0.000000 
#    z -0.026150 0.000000 1.645330 
# 
# From -- ./inp_files/372170.got.cif
#   From: 2010.05.17/outbox.cif.g08.bks.cpg/sg12_187_cif.got.tgz:372170.got - 2010.06.03 13:09:07.
