data_PCOD9193259
_publ_section_title
;
Structure prediction by ZEFSAII (Michael W. Deem and Ramdas Pophale) SiO2 
 PCOD9193259
Probable space group: C 2/M
;
_chemical_formula_sum "Si O2"
_cell_formula_units_Z 56
_cell_length_a 19.056053
_cell_length_b 9.080763
_cell_length_c 24.953090
_cell_angle_alpha 90.000000
_cell_angle_beta 137.552749
_cell_angle_gamma 90.000000
_cell_volume 2914.246142
_symmetry_space_group_name_H-M "C 2/M"
_symmetry_group_IT_number 12
_symmetry_cell_setting 'monoclinic'
loop_
_space_group_symop_operation_xyz
x,y,z
-x,y,-z
-x,-y,-z
x,-y,z
1/2+x,1/2+y,z
1/2-x,1/2+y,-z
1/2-x,1/2-y,-z
1/2+x,1/2-y,z
loop_
_atom_site_type_symbol
_atom_site_label
_atom_site_fract_x
_atom_site_fract_y
_atom_site_fract_z
Si Si1 0.020845 0.825531 0.678244
Si Si2 0.550321 0.175686 0.584728
Si Si3 0.460102 0.175968 0.748732
Si Si4 0.581631 0.328370 0.999177
Si Si5 0.737419 0.171706 0.817736
Si Si6 0.296814 0.327415 0.733658
Si Si7 0.861027 0.674264 0.070957
O O1 0.003082 0.759090 0.609163
O O2 0.953281 0.752547 0.687231
O O3 0.139204 0.776898 0.758642
O O4 0.009763 0.000000 0.671993
O O5 0.500000 0.219064 0.500000
O O6 0.674691 0.201235 0.653610
O O7 0.535452 0.000000 0.583761
O O8 0.370967 0.230470 0.738839
O O9 0.570615 0.216478 0.838933
O O10 0.457397 0.000000 0.741644
O O11 0.570054 0.500000 0.976285
O O12 0.693681 0.311237 0.090781
O O13 0.500000 0.298644 0.000000
O O14 0.573352 0.224032 0.943884
O O15 0.806802 0.195123 0.803402
O O16 0.701452 0.000000 0.794816
O O17 0.318153 0.500000 0.734910
O O18 0.845937 0.500000 0.063976
O O19 0.750000 0.750000 0.000000
#
# Coordination Sequence:
#
# PCOD9193259 Si02
#       7
#     8   8   8   8   8   8   8
#     4  11  22  35  56  83 109 140 180 223 264 314
#     4   9  19  39  65  89 115 145 174 210 262 323
#     4  11  23  38  54  76 110 148 186 227 274 326
#     4  10  20  34  53  76 103 138 180 227 278 328
#     4   9  18  34  54  76 105 141 181 224 272 328
#     4   9  18  34  58  85 110 140 180 222 266 319
#     4  11  24  38  53  75 105 144 188 235 282 326
#
# _framework density 19.215948000000001
#
# number of rings (size 3 to 8) (size 9 to 14) (size 15 to 20)
#    0.000    2.000    0.000    4.714    0.000   10.286 
#    0.000    0.714    0.000    0.000    0.000    0.000 
#    0.000    0.000    0.000    0.000    0.000    0.000 
#
# Total GULP energy -156430.452988 kJ/mol
# GULP energy per Si atom -5586.801892 kJ/mol
# Density = 1.917221 g / cm^3
# Si number density = 19.215948 Si / 1000 Ang^3
#
#
#
# Elastic Constant Matrix: (Units=GPa)
#
#
# Indices 1 2 3 4 5 6 
#
# 1 83.2948 44.8153 26.4643 0.0000 -24.6453 0.0000
# 2 44.8153 64.2868 37.0415 0.0000 -20.2183 0.0000
# 3 26.4643 37.0415 80.6153 0.0000 -30.7869 0.0000
# 4 0.0000 0.0000 0.0000 20.1685 0.0000 -2.2473
# 5 -24.6453 -20.2183 -30.7869 0.0000 27.6120 0.0000
# 6 0.0000 0.0000 0.0000 -2.2473 0.0000 35.4504
#
#
#
# Elastic Compliance Matrix: (Units=1/GPa)
#
#
# Indices 1 2 3 4 5 6 
#
# 1 0.022247 -0.013409 0.004688 0.000000 0.015265 0.000000
# 2 -0.013409 0.030333 -0.009795 0.000000 -0.000679 0.000000
# 3 0.004688 -0.009795 0.024774 0.000000 0.024635 0.000000
# 4 0.000000 0.000000 0.000000 0.049935 0.000000 0.003166
# 5 0.015265 -0.000679 0.024635 0.000000 0.076812 0.000000
# 6 0.000000 0.000000 0.000000 0.003166 0.000000 0.028409
#
#
# Mechanical properties :
#
#
# Convention : Reuss Voigt Hill
#
# Bulk Modulus (GPa) = 24.79997 49.42655 37.11326
# Shear Modulus (GPa) = 17.66880 24.63791 21.15335
#
# Velocity S-wave (km/s) = 3.03559 3.58461 3.32146
# Velocity P-wave (km/s) = 5.02199 6.55058 5.83654
#
# Compressibility (1/GPa) = 0.04032263
#
# Stress axis : x y z
#
# Youngs Moduli (GPa) = 44.94908 32.96713 40.36416
#
# Poissons Ratio (x) = 0.44206 -0.18922
# Poissons Ratio (y) = 0.60272 0.39536
# Poissons Ratio (z) = -0.21071 0.32291
#
# Static dielectric constant tensor:
#      x y z
#    x 1.697750 0.000000 0.002790 
#    y 0.000000 1.637010 0.000000 
#    z 0.002790 0.000000 1.677410 
# 
# From -- ./inp_files/342302.got.cif
#   From: 2010.05.17/outbox.cif.g08.bks.cpg/sg12_172_cif.got.tgz:342302.got - 2010.06.03 13:09:07.
