data_PCOD9193356
_publ_section_title
;
Structure prediction by ZEFSAII (Michael W. Deem and Ramdas Pophale) SiO2 
 PCOD9193356
Probable space group: C 2/M
;
_chemical_formula_sum "Si O2"
_cell_formula_units_Z 56
_cell_length_a 12.621900
_cell_length_b 25.775287
_cell_length_c 10.936647
_cell_angle_alpha 90.000000
_cell_angle_beta 129.508575
_cell_angle_gamma 90.000000
_cell_volume 2745.142586
_symmetry_space_group_name_H-M "C 2/M"
_symmetry_group_IT_number 12
_symmetry_cell_setting 'monoclinic'
loop_
_space_group_symop_operation_xyz
x,y,z
-x,y,-z
-x,-y,-z
x,-y,z
1/2+x,1/2+y,z
1/2-x,1/2+y,-z
1/2-x,1/2-y,-z
1/2+x,1/2-y,z
loop_
_atom_site_type_symbol
_atom_site_label
_atom_site_fract_x
_atom_site_fract_y
_atom_site_fract_z
Si Si1 0.750860 0.796875 0.404196
Si Si2 0.958628 0.560790 0.600040
Si Si3 0.168364 0.914970 0.489596
Si Si4 0.330633 0.698696 0.198340
Si Si5 0.425076 0.940057 0.064130
Si Si6 0.635876 0.577966 0.748945
Si Si7 0.536791 0.227619 0.893211
O O1 0.750000 0.750000 0.500000
O O2 0.815445 0.851685 0.494360
O O3 0.821742 0.779029 0.329153
O O4 0.592317 0.805679 0.246577
O O5 0.998041 0.500000 0.623453
O O6 0.797128 0.565284 0.507908
O O7 0.000000 0.584569 0.500000
O O8 0.033277 0.583302 0.775103
O O9 0.174011 0.933283 0.635600
O O10 0.020923 0.936063 0.337208
O O11 0.368641 0.639724 0.243774
O O12 0.432566 0.729604 0.186359
O O13 0.180989 0.699480 0.024032
O O14 0.474285 0.000000 0.104117
O O15 0.500000 0.915667 0.000000
O O16 0.262410 0.940306 0.922955
O O17 0.500000 0.250402 0.000000
#
# Coordination Sequence:
#
# PCOD9193356 Si02
#       7
#     8   8   8   8   8   8   8
#     4  10  20  34  53  77 115 150 190 241 286 340
#     4  10  22  42  62  85 122 156 190 245 301 356
#     4  10  21  36  56  88 115 155 196 236 305 349
#     4   9  19  34  52  78 108 147 189 235 296 329
#     4  10  20  36  61  90 114 147 194 236 282 350
#     4  10  20  34  59  85 120 144 185 253 290 341
#     4   9  18  33  52  73 102 149 196 234 277 340
#
# _framework density 20.399668999999999
#
# number of rings (size 3 to 8) (size 9 to 14) (size 15 to 20)
#    0.000    2.286    1.429    0.857    2.000    2.857 
#    2.571    5.000    0.000    2.571    0.000    0.000 
#    0.000    0.000    0.000    0.000    0.000    0.000 
#
# Total GULP energy -156177.416689 kJ/mol
# GULP energy per Si atom -5577.764882 kJ/mol
# Density = 2.035324 g / cm^3
# Si number density = 20.399669 Si / 1000 Ang^3
#
#
#
# Elastic Constant Matrix: (Units=GPa)
#
#
# Indices 1 2 3 4 5 6 
#
# 1 119.8874 2.9462 67.1809 0.0000 2.3219 0.0000
# 2 2.9462 44.7800 16.1145 0.0000 -12.0708 0.0000
# 3 67.1809 16.1145 118.3039 0.0000 -9.0317 0.0000
# 4 0.0000 0.0000 0.0000 -0.4164 0.0000 -10.6627
# 5 2.3219 -12.0708 -9.0317 0.0000 32.0474 0.0000
# 6 0.0000 0.0000 0.0000 -10.6627 0.0000 -13.9176
#
#
#
# Elastic Compliance Matrix: (Units=1/GPa)
#
#
# Indices 1 2 3 4 5 6 
#
# 1 0.012558 0.001173 -0.007488 0.000000 -0.002578 0.000000
# 2 0.001173 0.025858 -0.003527 0.000000 0.008660 0.000000
# 3 -0.007488 -0.003527 0.013414 0.000000 0.002994 0.000000
# 4 0.000000 0.000000 0.000000 0.128990 0.000000 -0.098823
# 5 -0.002578 0.008660 0.002994 0.000000 0.035496 0.000000
# 6 0.000000 0.000000 0.000000 -0.098823 0.000000 0.003859
#
#
# Mechanical properties :
#
#
# Convention : Reuss Voigt Hill
#
# Bulk Modulus (GPa) = 31.10771 50.60607 40.85689
# Shear Modulus (GPa) = 19.95405 16.65798 18.30602
#
# Velocity S-wave (km/s) = 3.13094 2.86069 2.99886
# Velocity P-wave (km/s) = 5.32472 5.98101 5.66238
#
# Compressibility (1/GPa) = 0.03214637
#
# Stress axis : x y z
#
# Youngs Moduli (GPa) = 79.62824 38.67267 74.54818
#
# Poissons Ratio (x) = -0.04538 0.55823
# Poissons Ratio (y) = -0.09344 0.26296
# Poissons Ratio (z) = 0.59627 0.13641
#
# Static dielectric constant tensor:
#      x y z
#    x 1.743020 0.000000 0.016610 
#    y 0.000000 1.727970 0.000000 
#    z 0.016610 0.000000 1.763230 
# 
# From -- ./inp_files/54807.got.cif
#   From: 2010.05.17/outbox.cif.g08.bks.cpg/sg12_28_cif.got.tgz:54807.got - 2010.06.03 13:09:07.
