data_PCOD9193777
_publ_section_title
;
Structure prediction by ZEFSAII (Michael W. Deem and Ramdas Pophale) SiO2 
 PCOD9193777
Probable space group: C 2/M
;
_chemical_formula_sum "Si O2"
_cell_formula_units_Z 64
_cell_length_a 22.854447
_cell_length_b 8.534200
_cell_length_c 17.785536
_cell_angle_alpha 90.000000
_cell_angle_beta 79.102243
_cell_angle_gamma 90.000000
_cell_volume 3406.410582
_symmetry_space_group_name_H-M "C 2/M"
_symmetry_group_IT_number 12
_symmetry_cell_setting 'monoclinic'
loop_
_space_group_symop_operation_xyz
x,y,z
-x,y,-z
-x,-y,-z
x,-y,z
1/2+x,1/2+y,z
1/2-x,1/2+y,-z
1/2-x,1/2-y,-z
1/2+x,1/2-y,z
loop_
_atom_site_type_symbol
_atom_site_label
_atom_site_fract_x
_atom_site_fract_y
_atom_site_fract_z
Si Si1 0.469237 0.312554 0.206876
Si Si2 0.182852 0.312330 0.015872
Si Si3 0.851631 0.310310 0.674293
Si Si4 0.392131 0.189168 0.359565
Si Si5 0.357839 0.687915 0.132620
Si Si6 0.568834 0.191292 0.485764
Si Si7 0.898849 0.689266 0.825942
Si Si8 0.219127 0.312054 0.713988
O O1 0.470895 0.500000 0.207837
O O2 0.443930 0.251500 0.292509
O O3 0.420091 0.263958 0.156660
O O4 0.534472 0.247249 0.175878
O O5 0.184615 0.500000 0.016725
O O6 0.146248 0.257836 0.097969
O O7 0.250000 0.250000 0.000000
O O8 0.151129 0.256276 0.947545
O O9 0.850908 0.500000 0.674274
O O10 0.893833 0.257317 0.595796
O O11 0.876996 0.258425 0.748922
O O12 0.784517 0.250939 0.681616
O O13 0.401730 0.241042 0.442680
O O14 0.329454 0.236808 0.337190
O O15 0.394759 0.000000 0.357511
O O16 0.355601 0.500000 0.129892
O O17 0.305911 0.746666 0.201089
O O18 0.500000 0.241413 0.500000
O O19 0.568802 0.000000 0.484951
O O20 0.899270 0.500000 0.825725
O O21 0.219907 0.500000 0.717209
#
# Coordination Sequence:
#
# PCOD9193777 Si02
#       8
#     8   8   8   8   8   8   8   8
#     4  10  21  36  57  83 109 141 180 223 272 322
#     4  11  23  38  58  84 112 145 184 225 271 321
#     4  10  20  35  56  80 107 142 183 225 269 321
#     4   9  18  34  55  79 109 144 182 222 266 322
#     4  10  21  38  58  81 110 143 181 224 270 322
#     4   9  17  31  54  80 104 138 184 226 266 320
#     4  10  22  38  56  79 108 142 179 220 267 323
#     4  10  20  34  54  80 110 144 180 222 273 324
#
# _framework density 18.788104000000001
#
# number of rings (size 3 to 8) (size 9 to 14) (size 15 to 20)
#    0.000    2.125    0.000    3.000    0.000    7.500 
#    0.000    3.125    0.000    1.500    0.000    0.000 
#    0.000    0.000    0.000    0.000    0.000    0.000 
#
# Total GULP energy -178732.100160 kJ/mol
# GULP energy per Si atom -5585.378130 kJ/mol
# Density = 1.874534 g / cm^3
# Si number density = 18.788104 Si / 1000 Ang^3
#
#
#
# Elastic Constant Matrix: (Units=GPa)
#
#
# Indices 1 2 3 4 5 6 
#
# 1 151.3495 22.5853 98.8114 0.0000 -28.0653 0.0000
# 2 22.5853 16.3361 30.3442 0.0000 -3.1680 0.0000
# 3 98.8114 30.3442 194.4743 0.0000 -8.2827 0.0000
# 4 0.0000 0.0000 0.0000 15.0663 0.0000 -3.2896
# 5 -28.0653 -3.1680 -8.2827 0.0000 25.5052 0.0000
# 6 0.0000 0.0000 0.0000 -3.2896 0.0000 33.0555
#
#
#
# Elastic Compliance Matrix: (Units=1/GPa)
#
#
# Indices 1 2 3 4 5 6 
#
# 1 0.013161 -0.006187 -0.005210 0.000000 0.012022 0.000000
# 2 -0.006187 0.090157 -0.010887 0.000000 0.000854 0.000000
# 3 -0.005210 -0.010887 0.009315 0.000000 -0.004060 0.000000
# 4 0.000000 0.000000 0.000000 0.067847 0.000000 0.006752
# 5 0.012022 0.000854 -0.004060 0.000000 0.051224 0.000000
# 6 0.000000 0.000000 0.000000 0.006752 0.000000 0.030924
#
#
# Mechanical properties :
#
#
# Convention : Reuss Voigt Hill
#
# Bulk Modulus (GPa) = 14.69192 73.96019 44.32606
# Shear Modulus (GPa) = 15.15679 28.75333 21.95506
#
# Velocity S-wave (km/s) = 2.84337 3.91628 3.42213
# Velocity P-wave (km/s) = 4.31468 7.73954 6.26566
#
# Compressibility (1/GPa) = 0.06806461
#
# Stress axis : x y z
#
# Youngs Moduli (GPa) = 75.98240 11.09172 107.35532
#
# Poissons Ratio (x) = 0.06863 0.55927
# Poissons Ratio (y) = 0.47014 1.16880
# Poissons Ratio (z) = 0.39583 0.12076
#
# Static dielectric constant tensor:
#      x y z
#    x 1.625410 0.000000 0.014610 
#    y 0.000000 1.637750 0.000000 
#    z 0.014610 0.000000 1.637530 
# 
# From -- ./inp_files/281339.got.cif
#   From: 2010.05.17/outbox.cif.g08.bks.cpg/sg12_141_cif.got.tgz:281339.got - 2010.06.03 13:09:07.
