data_PCOD9193645
_publ_section_title
;
Structure prediction by ZEFSAII (Michael W. Deem and Ramdas Pophale) SiO2 
 PCOD9193645
Probable space group: C 2/M
;
_chemical_formula_sum "Si O2"
_cell_formula_units_Z 56
_cell_length_a 18.408366
_cell_length_b 7.628424
_cell_length_c 19.108064
_cell_angle_alpha 90.000000
_cell_angle_beta 77.003854
_cell_angle_gamma 90.000000
_cell_volume 2614.552866
_symmetry_space_group_name_H-M "C 2/M"
_symmetry_group_IT_number 12
_symmetry_cell_setting 'monoclinic'
loop_
_space_group_symop_operation_xyz
x,y,z
-x,y,-z
-x,-y,-z
x,-y,z
1/2+x,1/2+y,z
1/2-x,1/2+y,-z
1/2-x,1/2-y,-z
1/2+x,1/2-y,z
loop_
_atom_site_type_symbol
_atom_site_label
_atom_site_fract_x
_atom_site_fract_y
_atom_site_fract_z
Si Si1 0.156663 0.789897 0.709672
Si Si2 0.011501 0.215228 0.283172
Si Si3 0.795404 0.710961 0.142962
Si Si4 0.946279 0.206312 0.571724
Si Si5 0.630087 0.711428 0.141836
Si Si6 0.722327 0.209016 0.428096
Si Si7 0.416713 0.209619 0.005905
O O1 0.072973 0.726269 0.712888
O O2 0.181099 0.751451 0.783219
O O3 0.217721 0.722259 0.641276
O O4 0.154260 0.000000 0.701610
O O5 0.038423 0.275783 0.353773
O O6 0.068077 0.273798 0.210395
O O7 0.012216 0.000000 0.281902
O O8 0.793049 0.500000 0.136535
O O9 0.712492 0.776703 0.143729
O O10 0.856589 0.778710 0.074631
O O11 0.860409 0.222604 0.568760
O O12 0.000000 0.282173 0.500000
O O13 0.964540 0.000000 0.572522
O O14 0.631318 0.500000 0.146166
O O15 0.609144 0.758082 0.067401
O O16 0.750000 0.250000 0.500000
O O17 0.718365 0.000000 0.421518
O O18 0.420094 0.000000 0.015789
O O19 0.500000 0.280080 0.000000
#
# Coordination Sequence:
#
# PCOD9193645 Si02
#       7
#     8   8   8   8   8   8   8
#     4  10  21  37  57  81 108 141 182 224 267 322
#     4   9  18  34  55  79 107 139 179 225 272 325
#     4  10  21  36  54  79 109 140 177 223 274 324
#     4  10  20  37  61  84 111 149 186 225 278 332
#     4  10  20  34  54  78 104 138 180 223 266 319
#     4  11  23  38  57  83 114 147 186 230 276 329
#     4  10  21  36  53  76 108 142 176 219 272 327
#
# _framework density 21.418576000000002
#
# number of rings (size 3 to 8) (size 9 to 14) (size 15 to 20)
#    0.000    2.000    0.000    3.429    0.000    6.286 
#    0.000    1.429    0.000    0.000    0.000    0.000 
#    0.000    0.000    0.000    0.000    0.000    0.000 
#
# Total GULP energy -156533.736144 kJ/mol
# GULP energy per Si atom -5590.490577 kJ/mol
# Density = 2.136983 g / cm^3
# Si number density = 21.418576 Si / 1000 Ang^3
#
#
#
# Elastic Constant Matrix: (Units=GPa)
#
#
# Indices 1 2 3 4 5 6 
#
# 1 211.1625 -16.2903 131.5755 0.0000 -8.3453 0.0000
# 2 -16.2903 36.8534 -11.2288 0.0000 -10.2111 0.0000
# 3 131.5755 -11.2288 240.6692 0.0000 -12.8545 0.0000
# 4 0.0000 0.0000 0.0000 5.1139 0.0000 8.8558
# 5 -8.3453 -10.2111 -12.8545 0.0000 48.7346 0.0000
# 6 0.0000 0.0000 0.0000 8.8558 0.0000 5.4566
#
#
#
# Elastic Compliance Matrix: (Units=1/GPa)
#
#
# Indices 1 2 3 4 5 6 
#
# 1 0.007354 0.002267 -0.003877 0.000000 0.000712 0.000000
# 2 0.002267 0.030200 0.000536 0.000000 0.006857 0.000000
# 3 -0.003877 0.000536 0.006360 0.000000 0.001126 0.000000
# 4 0.000000 0.000000 0.000000 -0.108006 0.000000 0.175290
# 5 0.000712 0.006857 0.001126 0.000000 0.022375 0.000000
# 6 0.000000 0.000000 0.000000 0.175290 0.000000 -0.101224
#
#
# Mechanical properties :
#
#
# Convention : Reuss Voigt Hill
#
# Bulk Modulus (GPa) = 23.94310 77.42201 50.68255
# Shear Modulus (GPa) = -39.41018 37.50293 -0.95363
#
# Velocity S-wave (km/s) = -4.29418 4.18898 -0.66798
# Velocity P-wave (km/s) = 3.65837 7.72155 4.80826
#
# Compressibility (1/GPa) = 0.04176569
#
# Stress axis : x y z
#
# Youngs Moduli (GPa) = 135.97279 33.11282 157.23840
#
# Poissons Ratio (x) = -0.07506 0.60960
# Poissons Ratio (y) = -0.30822 -0.08428
# Poissons Ratio (z) = 0.52716 -0.01775
#
# Static dielectric constant tensor:
#      x y z
#    x 1.724330 0.000000 -0.029890 
#    y 0.000000 1.807890 0.000000 
#    z -0.029890 0.000000 1.734750 
# 
# From -- ./inp_files/275080.got.cif
#   From: 2010.05.17/outbox.cif.g08.bks.cpg/sg12_138_cif.got.tgz:275080.got - 2010.06.03 13:09:07.
