data_PCOD9193764
_publ_section_title
;
Structure prediction by ZEFSAII (Michael W. Deem and Ramdas Pophale) SiO2 
 PCOD9193764
Probable space group: C 2/M
;
_chemical_formula_sum "Si O2"
_cell_formula_units_Z 56
_cell_length_a 21.055319
_cell_length_b 7.676452
_cell_length_c 28.864272
_cell_angle_alpha 90.000000
_cell_angle_beta 145.233103
_cell_angle_gamma 90.000000
_cell_volume 2660.357039
_symmetry_space_group_name_H-M "C 2/M"
_symmetry_group_IT_number 12
_symmetry_cell_setting 'monoclinic'
loop_
_space_group_symop_operation_xyz
x,y,z
-x,y,-z
-x,-y,-z
x,-y,z
1/2+x,1/2+y,z
1/2-x,1/2+y,-z
1/2-x,1/2-y,-z
1/2+x,1/2-y,z
loop_
_atom_site_type_symbol
_atom_site_label
_atom_site_fract_x
_atom_site_fract_y
_atom_site_fract_z
Si Si1 0.686203 0.209592 0.723969
Si Si2 0.800621 0.710411 0.162628
Si Si3 0.017205 0.293134 0.458607
Si Si4 0.418597 0.209096 0.816967
Si Si5 0.466427 0.213810 0.741692
Si Si6 0.557081 0.792335 0.987204
Si Si7 0.247028 0.292786 0.443976
O O1 0.703220 0.275026 0.786516
O O2 0.574111 0.276516 0.632331
O O3 0.792690 0.251926 0.756593
O O4 0.678151 0.000000 0.722712
O O5 0.802795 0.500000 0.164953
O O6 0.688373 0.762312 0.069182
O O7 0.914264 0.769496 0.206510
O O8 0.995882 0.500000 0.448671
O O9 0.141478 0.270062 0.514483
O O10 0.000000 0.220654 0.500000
O O11 0.446455 0.273246 0.782315
O O12 0.431084 0.000000 0.822724
O O13 0.498676 0.277257 0.905865
O O14 0.364809 0.272670 0.648138
O O15 0.466099 0.000000 0.741131
O O16 0.537539 0.000000 0.975457
O O17 0.500000 0.721385 0.000000
O O18 0.245927 0.500000 0.438959
O O19 0.250000 0.250000 0.500000
#
# Coordination Sequence:
#
# PCOD9193764 Si02
#       7
#     8   8   8   8   8   8   8
#     4  10  20  34  54  80 109 142 180 226 273 321
#     4  10  20  35  56  78 105 141 183 222 262 323
#     4  10  21  37  57  83 116 149 185 235 288 332
#     4  10  20  36  58  79 108 146 181 222 273 327
#     4   9  20  38  57  80 109 144 182 224 273 323
#     4  10  20  35  54  81 113 140 173 223 276 320
#     4  11  22  38  60  83 113 150 191 234 280 337
#
# _framework density 21.049807999999999
#
# number of rings (size 3 to 8) (size 9 to 14) (size 15 to 20)
#    0.000    2.000    1.429    2.143    0.000    4.571 
#    0.000    4.286    0.000    0.000    0.000    0.000 
#    0.000    0.000    0.000    0.000    0.000    0.000 
#
# Total GULP energy -156468.368391 kJ/mol
# GULP energy per Si atom -5588.156014 kJ/mol
# Density = 2.100190 g / cm^3
# Si number density = 21.049808 Si / 1000 Ang^3
#
#
#
# Elastic Constant Matrix: (Units=GPa)
#
#
# Indices 1 2 3 4 5 6 
#
# 1 139.3198 -12.1412 61.9620 0.0001 6.7579 0.0008
# 2 -12.1412 29.2373 -7.3520 0.0001 -13.0068 0.0032
# 3 61.9620 -7.3520 165.0230 0.0001 7.4768 0.0000
# 4 0.0001 0.0001 0.0001 18.7080 -0.0001 10.1218
# 5 6.7579 -13.0068 7.4768 -0.0001 33.6588 0.0000
# 6 0.0008 0.0032 0.0000 10.1218 0.0000 20.6230
#
#
#
# Elastic Compliance Matrix: (Units=1/GPa)
#
#
# Indices 1 2 3 4 5 6 
#
# 1 0.008849 0.002894 -0.003196 0.000000 0.000052 -0.000001
# 2 0.002894 0.042459 0.000089 0.000005 0.015807 -0.000009
# 3 -0.003196 0.000089 0.007307 0.000000 -0.000947 0.000000
# 4 0.000000 0.000005 0.000000 0.072779 0.000002 -0.035720
# 5 0.000052 0.015807 -0.000947 0.000002 0.036018 -0.000004
# 6 -0.000001 -0.000009 0.000000 -0.035720 -0.000004 0.066021
#
#
# Mechanical properties :
#
#
# Convention : Reuss Voigt Hill
#
# Bulk Modulus (GPa) = 17.18570 46.50195 31.84383
# Shear Modulus (GPa) = 19.74292 34.00538 26.87415
#
# Velocity S-wave (km/s) = 3.06586 4.02365 3.57696
# Velocity P-wave (km/s) = 4.55134 6.61254 5.67629
#
# Compressibility (1/GPa) = 0.05818791
#
# Stress axis : x y z
#
# Youngs Moduli (GPa) = 113.00977 23.55223 136.86239
#
# Poissons Ratio (x) = -0.06816 0.43740
# Poissons Ratio (y) = -0.32704 -0.01216
# Poissons Ratio (z) = 0.36117 -0.00209
#
# Static dielectric constant tensor:
#      x y z
#    x 1.771070 0.000000 -0.022620 
#    y 0.000000 1.796940 0.000000 
#    z -0.022620 0.000000 1.737820 
# 
# From -- ./inp_files/362882.got.cif
#   From: 2010.05.17/outbox.cif.g08.bks.cpg/sg12_182_cif.got.tgz:362882.got - 2010.06.03 13:09:07.
