data_PCOD9193094
_publ_section_title
;
Structure prediction by ZEFSAII (Michael W. Deem and Ramdas Pophale) SiO2 
 PCOD9193094
Probable space group: C 2/M
;
_chemical_formula_sum "Si O2"
_cell_formula_units_Z 48
_cell_length_a 18.234220
_cell_length_b 14.896216
_cell_length_c 7.970612
_cell_angle_alpha 90.000000
_cell_angle_beta 77.388471
_cell_angle_gamma 90.000000
_cell_volume 2112.749729
_symmetry_space_group_name_H-M "C 2/M"
_symmetry_group_IT_number 12
_symmetry_cell_setting 'monoclinic'
loop_
_space_group_symop_operation_xyz
x,y,z
-x,y,-z
-x,-y,-z
x,-y,z
1/2+x,1/2+y,z
1/2-x,1/2+y,-z
1/2-x,1/2-y,-z
1/2+x,1/2-y,z
loop_
_atom_site_type_symbol
_atom_site_label
_atom_site_fract_x
_atom_site_fract_y
_atom_site_fract_z
Si Si1 0.424578 0.272747 0.479264
Si Si2 0.301039 0.601335 0.435300
Si Si3 0.279267 0.149327 0.020289
Si Si4 0.370547 0.402540 0.020188
Si Si5 0.356453 0.898328 0.636154
Si Si6 0.576298 0.216118 0.902862
O O1 0.500000 0.322004 0.500000
O O2 0.349308 0.331679 0.522788
O O3 0.414675 0.181714 0.588753
O O4 0.432928 0.244610 0.283055
O O5 0.307692 0.500000 0.494105
O O6 0.335433 0.601891 0.227614
O O7 0.213375 0.622458 0.454269
O O8 0.199948 0.099278 0.072453
O O9 0.320820 0.108459 0.838100
O O10 0.250000 0.250000 0.000000
O O11 0.346362 0.160491 0.118828
O O12 0.409142 0.500000 0.984368
O O13 0.415009 0.308496 0.990585
O O14 0.382772 0.000000 0.592329
O O15 0.500000 0.168762 0.000000
#
# Coordination Sequence:
#
# PCOD9193094 Si02
#       6
#     8   8   8   8   8   8
#     4  11  22  35  55  80 112 152 187 224 273 329
#     4   8  16  32  55  82 109 139 176 222 276 329
#     4   9  17  32  56  80 103 134 174 221 269 319
#     4   8  15  30  53  79 105 133 168 214 271 330
#     4  10  20  37  60  82 109 145 184 227 276 329
#     4  10  20  34  52  77 108 142 181 224 270 319
#
# _framework density 22.719207999999998
#
# number of rings (size 3 to 8) (size 9 to 14) (size 15 to 20)
#    0.000    2.667    0.000    4.000    0.000    1.000 
#    0.000    1.667    0.000   16.500    0.000    0.000 
#    0.000    0.000    0.000    0.000    0.000    0.000 
#
# Total GULP energy -133875.095878 kJ/mol
# GULP energy per Si atom -5578.128995 kJ/mol
# Density = 2.266750 g / cm^3
# Si number density = 22.719208 Si / 1000 Ang^3
#
#
#
# Elastic Constant Matrix: (Units=GPa)
#
#
# Indices 1 2 3 4 5 6 
#
# 1 69.6684 10.0213 17.9605 0.0000 26.0234 0.0000
# 2 10.0213 82.8099 -4.3166 0.0000 7.5813 0.0000
# 3 17.9605 -4.3166 48.6629 0.0000 11.9772 0.0000
# 4 0.0000 0.0000 0.0000 17.4253 0.0000 -0.7109
# 5 26.0234 7.5813 11.9772 0.0000 29.8449 0.0000
# 6 0.0000 0.0000 0.0000 -0.7109 0.0000 10.9906
#
#
#
# Elastic Compliance Matrix: (Units=1/GPa)
#
#
# Indices 1 2 3 4 5 6 
#
# 1 0.022019 -0.001292 -0.003991 0.000000 -0.017270 0.000000
# 2 -0.001292 0.012631 0.002341 0.000000 -0.003022 0.000000
# 3 -0.003991 0.002341 0.023879 0.000000 -0.006698 0.000000
# 4 0.000000 0.000000 0.000000 0.057540 0.000000 0.003722
# 5 -0.017270 -0.003022 -0.006698 0.000000 0.052021 0.000000
# 6 0.000000 0.000000 0.000000 0.003722 0.000000 0.091227
#
#
# Mechanical properties :
#
#
# Convention : Reuss Voigt Hill
#
# Bulk Modulus (GPa) = 18.99498 27.60794 23.30146
# Shear Modulus (GPa) = 17.68358 23.48390 20.58374
#
# Velocity S-wave (km/s) = 2.79293 3.21854 3.01326
# Velocity P-wave (km/s) = 4.33353 5.09806 4.73126
#
# Compressibility (1/GPa) = 0.05264549
#
# Stress axis : x y z
#
# Youngs Moduli (GPa) = 45.41464 79.17142 41.87856
#
# Poissons Ratio (x) = 0.10226 0.16713
# Poissons Ratio (y) = 0.05866 -0.09803
# Poissons Ratio (z) = 0.18124 -0.18533
#
# Static dielectric constant tensor:
#      x y z
#    x 1.873130 0.000000 0.008220 
#    y 0.000000 1.895450 0.000000 
#    z 0.008220 0.000000 1.870250 
# 
# From -- ./inp_files/73622.got.cif
#   From: 2010.05.17/outbox.cif.g08.bks.cpg/sg12_37_cif.got.tgz:73622.got - 2010.06.03 13:09:07.
