data_PCOD9193113
_publ_section_title
;
Structure prediction by ZEFSAII (Michael W. Deem and Ramdas Pophale) SiO2 
 PCOD9193113
Probable space group: C 2/M
;
_chemical_formula_sum "Si O2"
_cell_formula_units_Z 48
_cell_length_a 15.790825
_cell_length_b 10.904044
_cell_length_c 13.489171
_cell_angle_alpha 90.000000
_cell_angle_beta 72.784569
_cell_angle_gamma 90.000000
_cell_volume 2218.561095
_symmetry_space_group_name_H-M "C 2/M"
_symmetry_group_IT_number 12
_symmetry_cell_setting 'monoclinic'
loop_
_space_group_symop_operation_xyz
x,y,z
-x,y,-z
-x,-y,-z
x,-y,z
1/2+x,1/2+y,z
1/2-x,1/2+y,-z
1/2-x,1/2-y,-z
1/2+x,1/2-y,z
loop_
_atom_site_type_symbol
_atom_site_label
_atom_site_fract_x
_atom_site_fract_y
_atom_site_fract_z
Si Si1 0.981331 0.358532 0.224065
Si Si2 0.124516 0.635275 0.021890
Si Si3 0.087973 0.860869 0.288052
Si Si4 0.316430 0.713120 0.330121
Si Si5 0.840807 0.865895 0.530201
Si Si6 0.249722 0.787368 0.846440
O O1 0.996137 0.500000 0.250065
O O2 0.026465 0.346109 0.100330
O O3 0.030619 0.252614 0.269100
O O4 0.879174 0.322454 0.269809
O O5 0.130233 0.500000 0.974796
O O6 0.188400 0.640120 0.097868
O O7 0.166345 0.736037 0.936379
O O8 0.087103 0.861514 0.407798
O O9 0.187017 0.824351 0.214449
O O10 0.066096 0.000000 0.261759
O O11 0.227438 0.762955 0.411197
O O12 0.364539 0.648710 0.406535
O O13 0.285569 0.646533 0.240401
O O14 0.797484 0.000000 0.554087
#
# Coordination Sequence:
#
# PCOD9193113 Si02
#       6
#     8   8   8   8   8   8
#     4  10  21  35  52  80 114 141 170 216 271 318
#     4   9  18  33  53  76 103 139 178 214 260 318
#     4   9  18  35  57  78 104 142 184 219 255 308
#     4  10  20  34  52  78 108 136 170 219 271 314
#     4   9  19  36  56  76 100 138 184 221 259 313
#     4   9  18  33  54  78 104 137 179 220 258 309
#
# _framework density 21.635646000000001
#
# number of rings (size 3 to 8) (size 9 to 14) (size 15 to 20)
#    0.000    2.667    0.000    1.000    0.000    4.667 
#    0.000   13.333    0.000    0.000    0.000    8.167 
#    0.000    0.000    0.000    0.000    0.000    0.000 
#
# Total GULP energy -133638.430569 kJ/mol
# GULP energy per Si atom -5568.267940 kJ/mol
# Density = 2.158640 g / cm^3
# Si number density = 21.635646 Si / 1000 Ang^3
#
#
#
# Elastic Constant Matrix: (Units=GPa)
#
#
# Indices 1 2 3 4 5 6 
#
# 1 38.8267 18.4581 20.1334 0.0000 -2.6414 0.0000
# 2 18.4581 91.6294 19.4168 0.0000 11.2267 0.0000
# 3 20.1334 19.4168 102.9753 0.0000 19.5794 0.0000
# 4 0.0000 0.0000 0.0000 17.0209 0.0000 0.1113
# 5 -2.6414 11.2267 19.5794 0.0000 40.7416 0.0000
# 6 0.0000 0.0000 0.0000 0.1113 0.0000 10.8214
#
#
#
# Elastic Compliance Matrix: (Units=1/GPa)
#
#
# Indices 1 2 3 4 5 6 
#
# 1 0.032461 -0.006001 -0.006526 0.000000 0.006895 0.000000
# 2 -0.006001 0.012679 -0.000527 0.000000 -0.003629 0.000000
# 3 -0.006526 -0.000527 0.012259 0.000000 -0.006169 0.000000
# 4 0.000000 0.000000 0.000000 0.058755 0.000000 -0.000604
# 5 0.006895 -0.003629 -0.006169 0.000000 0.028957 0.000000
# 6 0.000000 0.000000 0.000000 -0.000604 0.000000 0.092416
#
#
# Mechanical properties :
#
#
# Convention : Reuss Voigt Hill
#
# Bulk Modulus (GPa) = 31.95812 38.82754 35.39283
# Shear Modulus (GPa) = 18.24374 25.41166 21.82770
#
# Velocity S-wave (km/s) = 2.90699 3.43086 3.17973
# Velocity P-wave (km/s) = 5.10593 5.80340 5.46580
#
# Compressibility (1/GPa) = 0.03129095
#
# Stress axis : x y z
#
# Youngs Moduli (GPa) = 30.80581 78.87176 81.56940
#
# Poissons Ratio (x) = 0.47330 0.53233
# Poissons Ratio (y) = 0.18486 0.04301
# Poissons Ratio (z) = 0.20104 0.04159
#
# Static dielectric constant tensor:
#      x y z
#    x 1.868470 0.000000 0.045650 
#    y 0.000000 1.750560 0.000000 
#    z 0.045650 0.000000 1.817720 
# 
# From -- ./inp_files/154181.got.cif
#   From: 2010.05.17/outbox.cif.g08.bks.cpg/sg12_78_cif.got.tgz:154181.got - 2010.06.03 13:09:07.
