data_PCOD9193227
_publ_section_title
;
Structure prediction by ZEFSAII (Michael W. Deem and Ramdas Pophale) SiO2 
 PCOD9193227
Probable space group: C 2/M
;
_chemical_formula_sum "Si O2"
_cell_formula_units_Z 64
_cell_length_a 21.001751
_cell_length_b 7.895911
_cell_length_c 26.237401
_cell_angle_alpha 90.000000
_cell_angle_beta 51.152095
_cell_angle_gamma 90.000000
_cell_volume 3388.536708
_symmetry_space_group_name_H-M "C 2/M"
_symmetry_group_IT_number 12
_symmetry_cell_setting 'monoclinic'
loop_
_space_group_symop_operation_xyz
x,y,z
-x,y,-z
-x,-y,-z
x,-y,z
1/2+x,1/2+y,z
1/2-x,1/2+y,-z
1/2-x,1/2-y,-z
1/2+x,1/2-y,z
loop_
_atom_site_type_symbol
_atom_site_label
_atom_site_fract_x
_atom_site_fract_y
_atom_site_fract_z
Si Si1 0.828826 0.700582 0.427105
Si Si2 0.377431 0.706848 0.591334
Si Si3 0.457636 0.703541 0.444086
Si Si4 0.871522 0.796244 0.909840
Si Si5 0.054648 0.204212 0.825013
Si Si6 0.580281 0.707036 0.927551
Si Si7 0.194911 0.704368 0.675542
Si Si8 0.790878 0.203536 0.056475
O O1 0.826500 0.500000 0.423851
O O2 0.750000 0.750000 0.500000
O O3 0.910148 0.746827 0.417277
O O4 0.823134 0.770106 0.372560
O O5 0.377399 0.500000 0.592042
O O6 0.406006 0.757906 0.520012
O O7 0.449328 0.762921 0.593495
O O8 0.285224 0.764595 0.646989
O O9 0.458941 0.500000 0.444945
O O10 0.803742 0.749487 0.902249
O O11 0.963728 0.735073 0.855508
O O12 0.873763 0.000000 0.911404
O O13 0.837156 0.734373 0.981939
O O14 0.074624 0.265170 0.872224
O O15 0.124036 0.250694 0.750238
O O16 0.051142 0.000000 0.829044
O O17 0.580471 0.500000 0.926520
O O18 0.660130 0.763652 0.918646
O O19 0.500000 0.756372 0.000000
O O20 0.198952 0.500000 0.671161
O O21 0.796488 0.000000 0.053167
#
# Coordination Sequence:
#
# PCOD9193227 Si02
#       8
#     8   8   8   8   8   8   8   8
#     4  11  21  34  54  79 106 135 172 217 259 303
#     4   8  15  31  54  76 101 137 171 201 251 313
#     4   9  16  31  56  80 102 131 172 214 253 304
#     4   9  17  30  48  73 104 132 164 208 253 299
#     4  10  20  34  53  76 101 134 174 212 251 300
#     4   9  15  29  53  77  99 127 168 212 252 295
#     4  10  21  37  53  73 105 142 172 204 255 311
#     4   9  16  28  51  77  99 129 166 207 255 303
#
# _framework density 18.887208999999999
#
# number of rings (size 3 to 8) (size 9 to 14) (size 15 to 20)
#    0.000    2.625    2.500    1.125    0.000    1.500 
#    0.000    3.750    0.000    6.750    0.000    0.000 
#    0.000    0.000    0.000    0.000    0.000    0.000 
#
# Total GULP energy -178424.854594 kJ/mol
# GULP energy per Si atom -5575.776706 kJ/mol
# Density = 1.884422 g / cm^3
# Si number density = 18.887209 Si / 1000 Ang^3
#
#
#
# Elastic Constant Matrix: (Units=GPa)
#
#
# Indices 1 2 3 4 5 6 
#
# 1 210.8940 12.3921 105.6819 -0.0004 -20.7290 -0.0013
# 2 12.3921 15.1923 5.3930 -0.0042 -1.9245 -0.0070
# 3 105.6819 5.3930 133.5995 0.0002 -13.5237 -0.0001
# 4 -0.0004 -0.0042 0.0002 19.7039 0.0002 -2.9804
# 5 -20.7290 -1.9245 -13.5237 0.0002 29.3773 -0.0002
# 6 -0.0013 -0.0070 -0.0001 -2.9804 -0.0002 23.1937
#
#
#
# Elastic Compliance Matrix: (Units=1/GPa)
#
#
# Indices 1 2 3 4 5 6 
#
# 1 0.008348 -0.004274 -0.006149 -0.000001 0.002779 -0.000001
# 2 -0.004274 0.069272 0.000775 0.000018 0.001879 0.000023
# 3 -0.006149 0.000775 0.012465 0.000000 0.001450 0.000000
# 4 -0.000001 0.000018 0.000000 0.051757 0.000000 0.006651
# 5 0.002779 0.001879 0.001450 0.000000 0.036792 0.000001
# 6 -0.000001 0.000023 0.000000 0.006651 0.000001 0.043970
#
#
# Mechanical properties :
#
#
# Convention : Reuss Voigt Hill
#
# Bulk Modulus (GPa) = 14.12687 67.40222 40.76455
# Shear Modulus (GPa) = 18.83268 30.20289 24.51778
#
# Velocity S-wave (km/s) = 3.16114 4.00324 3.60685
# Velocity P-wave (km/s) = 4.56284 7.55857 6.24306
#
# Compressibility (1/GPa) = 0.07078710
#
# Stress axis : x y z
#
# Youngs Moduli (GPa) = 119.79536 14.43589 80.22525
#
# Poissons Ratio (x) = 0.06170 0.49333
# Poissons Ratio (y) = 0.51200 -0.06215
# Poissons Ratio (z) = 0.73666 -0.01118
#
# Static dielectric constant tensor:
#      x y z
#    x 1.681220 0.000000 -0.004040 
#    y 0.000000 1.696290 0.000000 
#    z -0.004040 0.000000 1.620950 
# 
# From -- ./inp_files/365171.got.cif
#   From: 2010.05.17/outbox.cif.g08.bks.cpg/sg12_183_cif.got.tgz:365171.got - 2010.06.03 13:09:07.
