data_PCOD9193869
_publ_section_title
;
Structure prediction by ZEFSAII (Michael W. Deem and Ramdas Pophale) SiO2 
 PCOD9193869
Probable space group: C 2/M
;
_chemical_formula_sum "Si O2"
_cell_formula_units_Z 64
_cell_length_a 29.257594
_cell_length_b 7.641300
_cell_length_c 14.470868
_cell_angle_alpha 90.000000
_cell_angle_beta 112.356788
_cell_angle_gamma 90.000000
_cell_volume 2992.015504
_symmetry_space_group_name_H-M "C 2/M"
_symmetry_group_IT_number 12
_symmetry_cell_setting 'monoclinic'
loop_
_space_group_symop_operation_xyz
x,y,z
-x,y,-z
-x,-y,-z
x,-y,z
1/2+x,1/2+y,z
1/2-x,1/2+y,-z
1/2-x,1/2-y,-z
1/2+x,1/2-y,z
loop_
_atom_site_type_symbol
_atom_site_label
_atom_site_fract_x
_atom_site_fract_y
_atom_site_fract_z
Si Si1 0.532034 0.285551 0.435597
Si Si2 0.218716 0.791807 0.066591
Si Si3 0.606863 0.291122 0.974014
Si Si4 0.261471 0.292625 0.297565
Si Si5 0.926238 0.290365 0.845468
Si Si6 0.143641 0.204782 0.533976
Si Si7 0.482621 0.705613 0.209307
Si Si8 0.330812 0.787318 0.653277
O O1 0.500000 0.238750 0.500000
O O2 0.533694 0.500000 0.431750
O O3 0.588313 0.220948 0.488628
O O4 0.506432 0.221735 0.321477
O O5 0.245428 0.728290 0.179769
O O6 0.215117 0.000000 0.072750
O O7 0.250000 0.750000 0.000000
O O8 0.162701 0.720416 0.016385
O O9 0.610193 0.500000 0.961869
O O10 0.568816 0.219323 0.868440
O O11 0.583608 0.262870 0.057129
O O12 0.263822 0.500000 0.318450
O O13 0.315175 0.219407 0.365437
O O14 0.217681 0.224171 0.329722
O O15 0.928292 0.500000 0.843634
O O16 0.976428 0.221458 0.839357
O O17 0.879634 0.231989 0.747353
O O18 0.165693 0.220991 0.448085
O O19 0.137356 0.000000 0.552784
O O20 0.474139 0.500000 0.220284
O O21 0.330596 0.000000 0.651074
#
# Coordination Sequence:
#
# PCOD9193869 Si02
#       8
#     8   8   8   8   8   8   8   8
#     4   9  18  33  54  80 107 139 181 229 276 320
#     4  11  24  41  61  84 112 149 193 238 285 334
#     4  10  22  38  58  84 111 147 189 233 279 331
#     4  10  21  38  58  84 115 147 187 233 281 336
#     4  11  21  34  56  84 115 151 184 224 281 342
#     4  10  20  34  58  86 110 145 189 231 278 335
#     4  10  20  36  58  83 113 145 185 234 280 331
#     4  10  20  34  54  81 116 151 181 225 283 337
#
# _framework density 21.390263000000001
#
# number of rings (size 3 to 8) (size 9 to 14) (size 15 to 20)
#    0.000    1.875    2.500    1.500    0.000    5.000 
#    0.000    3.750    0.000    1.500    0.000    0.000 
#    0.000    0.000    0.000    0.000    0.000    0.000 
#
# Total GULP energy -178804.505192 kJ/mol
# GULP energy per Si atom -5587.640787 kJ/mol
# Density = 2.134158 g / cm^3
# Si number density = 21.390263 Si / 1000 Ang^3
#
#
#
# Elastic Constant Matrix: (Units=GPa)
#
#
# Indices 1 2 3 4 5 6 
#
# 1 164.8251 -11.9241 114.8168 0.0000 17.3264 0.0000
# 2 -11.9241 38.9435 -6.4225 0.0000 12.2224 0.0000
# 3 114.8168 -6.4225 169.8184 0.0000 41.7125 0.0000
# 4 0.0000 0.0000 0.0000 12.6778 0.0000 -1.8240
# 5 17.3264 12.2224 41.7125 0.0000 41.6102 0.0000
# 6 0.0000 0.0000 0.0000 -1.8240 0.0000 13.1770
#
#
#
# Elastic Compliance Matrix: (Units=1/GPa)
#
#
# Indices 1 2 3 4 5 6 
#
# 1 0.012021 0.001030 -0.009001 0.000000 0.003715 0.000000
# 2 0.001030 0.030736 0.003700 0.000000 -0.013166 0.000000
# 3 -0.009001 0.003700 0.015205 0.000000 -0.012581 0.000000
# 4 0.000000 0.000000 0.000000 0.080481 0.000000 0.011140
# 5 0.003715 -0.013166 -0.012581 0.000000 0.038965 0.000000
# 6 0.000000 0.000000 0.000000 0.011140 0.000000 0.077432
#
#
# Mechanical properties :
#
#
# Convention : Reuss Voigt Hill
#
# Bulk Modulus (GPa) = 20.23490 62.94749 41.59120
# Shear Modulus (GPa) = 17.86639 31.96747 24.91693
#
# Velocity S-wave (km/s) = 2.89322 3.87005 3.41673
# Velocity P-wave (km/s) = 4.54328 7.03290 5.92043
#
# Compressibility (1/GPa) = 0.04941957
#
# Stress axis : x y z
#
# Youngs Moduli (GPa) = 83.18475 32.53510 65.76866
#
# Poissons Ratio (x) = -0.03352 0.59202
# Poissons Ratio (y) = -0.08570 -0.24333
# Poissons Ratio (z) = 0.74879 -0.12037
#
# Static dielectric constant tensor:
#      x y z
#    x 1.749960 0.000000 0.051010 
#    y 0.000000 1.893550 0.000000 
#    z 0.051010 0.000000 1.756400 
# 
# From -- ./inp_files/249167.got.cif
#   From: 2010.05.17/outbox.cif.g08.bks.cpg/sg12_125_cif.got.tgz:249167.got - 2010.06.03 13:09:07.
