data_PCOD9193616
_publ_section_title
;
Structure prediction by ZEFSAII (Michael W. Deem and Ramdas Pophale) SiO2 
 PCOD9193616
Probable space group: C 2/M
;
_chemical_formula_sum "Si O2"
_cell_formula_units_Z 52
_cell_length_a 23.279097
_cell_length_b 12.865460
_cell_length_c 22.864898
_cell_angle_alpha 90.000000
_cell_angle_beta 26.366010
_cell_angle_gamma 90.000000
_cell_volume 3041.201102
_symmetry_space_group_name_H-M "C 2/M"
_symmetry_group_IT_number 12
_symmetry_cell_setting 'monoclinic'
loop_
_space_group_symop_operation_xyz
x,y,z
-x,y,-z
-x,-y,-z
x,-y,z
1/2+x,1/2+y,z
1/2-x,1/2+y,-z
1/2-x,1/2-y,-z
1/2+x,1/2-y,z
loop_
_atom_site_type_symbol
_atom_site_label
_atom_site_fract_x
_atom_site_fract_y
_atom_site_fract_z
Si Si1 0.000000 0.263581 0.000000
Si Si2 0.699703 0.735468 0.452634
Si Si3 0.502152 0.118545 0.567985
Si Si4 0.869851 0.221753 0.931795
Si Si5 0.607529 0.377392 0.649051
Si Si6 0.206936 0.877542 0.874995
Si Si7 0.942152 0.375993 0.174329
O O1 0.881943 0.189915 0.087373
O O2 0.963476 0.333046 0.089324
O O3 0.602075 0.797908 0.500931
O O4 0.622628 0.667008 0.570058
O O5 0.782500 0.820493 0.413114
O O6 0.804036 0.665672 0.323324
O O7 0.500000 0.122322 0.500000
O O8 0.357926 0.138256 0.723349
O O9 0.539055 0.000000 0.551607
O O10 0.972085 0.155106 0.801339
O O11 0.948721 0.321832 0.884318
O O12 0.750000 0.250000 0.000000
O O13 0.824515 0.159241 0.030581
O O14 0.624692 0.500000 0.634250
O O15 0.178442 0.000000 0.894234
O O16 0.949383 0.500000 0.170146
#
# Coordination Sequence:
#
# PCOD9193616 Si02
#       7
#     4   8   8   8   8   8   8
#     4  10  20  36  56  78 108 138 176 220 256 310
#     4  10  20  35  54  77 106 135 173 218 256 308
#     4  10  20  34  54  79 107 138 171 213 265 314
#     4  10  21  36  53  78 109 137 172 216 260 311
#     4  10  20  34  54  77 102 136 172 210 258 306
#     4  10  20  34  55  81 107 138 173 214 265 314
#     4  10  21  36  56  78 103 141 179 215 261 309
#
# _framework density 17.098507000000001
#
# number of rings (size 3 to 8) (size 9 to 14) (size 15 to 20)
#    0.000    2.000    0.000    3.692    0.000    1.231 
#    0.000    8.462    0.000   11.077    0.000    0.000 
#    0.000    0.000    0.000    0.000    0.000    0.000 
#
# Total GULP energy -145164.626711 kJ/mol
# GULP energy per Si atom -5583.254873 kJ/mol
# Density = 1.705959 g / cm^3
# Si number density = 17.098507 Si / 1000 Ang^3
#
#
#
# Elastic Constant Matrix: (Units=GPa)
#
#
# Indices 1 2 3 4 5 6 
#
# 1 86.6292 56.0729 49.1794 -0.0001 2.6257 0.0000
# 2 56.0729 151.3000 68.0639 -0.0003 0.5748 0.0000
# 3 49.1794 68.0639 126.4374 -0.0005 13.7043 0.0000
# 4 -0.0001 -0.0003 -0.0005 8.4807 0.0002 -1.8865
# 5 2.6257 0.5748 13.7043 0.0002 23.9282 0.0000
# 6 0.0000 0.0000 0.0000 -1.8865 0.0000 17.0750
#
#
#
# Elastic Compliance Matrix: (Units=1/GPa)
#
#
# Indices 1 2 3 4 5 6 
#
# 1 0.016717 -0.004273 -0.004280 0.000000 0.000720 0.000000
# 2 -0.004273 0.009973 -0.003979 0.000000 0.002508 0.000000
# 3 -0.004280 -0.003979 0.012426 0.000001 -0.006551 0.000000
# 4 0.000000 0.000000 0.000001 0.120886 -0.000001 0.013356
# 5 0.000720 0.002508 -0.006551 -0.000001 0.045405 0.000000
# 6 0.000000 0.000000 0.000000 0.013356 0.000000 0.060041
#
#
# Mechanical properties :
#
#
# Convention : Reuss Voigt Hill
#
# Bulk Modulus (GPa) = 71.15999 78.99990 75.07994
# Shear Modulus (GPa) = 16.93796 22.63346 19.78571
#
# Velocity S-wave (km/s) = 3.15081 3.64223 3.40540
# Velocity P-wave (km/s) = 7.41248 7.99943 7.71154
#
# Compressibility (1/GPa) = 0.01405284
#
# Stress axis : x y z
#
# Youngs Moduli (GPa) = 59.81872 100.26848 80.47761
#
# Poissons Ratio (x) = 0.42842 0.34447
# Poissons Ratio (y) = 0.25559 0.32020
# Poissons Ratio (z) = 0.25604 0.39894
#
# Static dielectric constant tensor:
#      x y z
#    x 1.552500 0.000000 0.006220 
#    y 0.000000 1.549090 0.000000 
#    z 0.006220 0.000000 1.568540 
# 
# From -- ./inp_files/321554.got.cif
#   From: 2010.05.17/outbox.cif.g08.bks.cpg/sg12_161_cif.got.tgz:321554.got - 2010.06.03 13:09:07.
