data_PCOD9193441
_publ_section_title
;
Structure prediction by ZEFSAII (Michael W. Deem and Ramdas Pophale) SiO2 
 PCOD9193441
Probable space group: C 2/M
;
_chemical_formula_sum "Si O2"
_cell_formula_units_Z 64
_cell_length_a 26.255736
_cell_length_b 7.567423
_cell_length_c 21.957973
_cell_angle_alpha 90.000000
_cell_angle_beta 137.200513
_cell_angle_gamma 90.000000
_cell_volume 2964.232058
_symmetry_space_group_name_H-M "C 2/M"
_symmetry_group_IT_number 12
_symmetry_cell_setting 'monoclinic'
loop_
_space_group_symop_operation_xyz
x,y,z
-x,y,-z
-x,-y,-z
x,-y,z
1/2+x,1/2+y,z
1/2-x,1/2+y,-z
1/2-x,1/2-y,-z
1/2+x,1/2-y,z
loop_
_atom_site_type_symbol
_atom_site_label
_atom_site_fract_x
_atom_site_fract_y
_atom_site_fract_z
Si Si1 0.565660 0.703599 0.098097
Si Si2 0.904990 0.286208 0.628439
Si Si3 0.649779 0.291464 0.285030
Si Si4 0.717872 0.709383 0.905701
Si Si5 0.784784 0.286496 0.840051
Si Si6 0.624071 0.793545 0.642318
Si Si7 0.180262 0.283175 0.567054
Si Si8 0.440051 0.792309 0.289552
O O1 0.542355 0.500000 0.089397
O O2 0.590250 0.783784 0.184439
O O3 0.641366 0.709813 0.125159
O O4 0.500000 0.786687 0.000000
O O5 0.905251 0.500000 0.630671
O O6 0.877008 0.226907 0.669526
O O7 0.850712 0.231044 0.525802
O O8 0.987934 0.221781 0.682636
O O9 0.655390 0.500000 0.275966
O O10 0.734090 0.220896 0.350433
O O11 0.711151 0.500000 0.894324
O O12 0.773378 0.767796 0.900290
O O13 0.635474 0.779570 0.816599
O O14 0.750000 0.750000 0.000000
O O15 0.787637 0.500000 0.838337
O O16 0.710172 0.221365 0.740420
O O17 0.627563 0.722126 0.576696
O O18 0.576865 0.716742 0.657578
O O19 0.603339 0.000000 0.619112
O O20 0.180288 0.500000 0.568844
O O21 0.454929 0.000000 0.312239
#
# Coordination Sequence:
#
# PCOD9193441 Si02
#       8
#     8   8   8   8   8   8   8   8
#     4  10  21  37  57  80 105 138 182 225 269 325
#     4  10  21  35  52  80 114 146 181 226 274 323
#     4  10  20  36  55  77 107 144 186 226 269 329
#     4  10  21  36  56  81 108 141 181 222 267 323
#     4  10  20  34  53  79 108 135 170 221 273 319
#     4   9  16  32  57  78 103 141 178 220 266 318
#     4   9  17  32  56  81 106 139 185 230 270 321
#     4   9  19  34  53  79 111 144 180 221 272 326
#
# _framework density 21.590754
#
# number of rings (size 3 to 8) (size 9 to 14) (size 15 to 20)
#    0.000    2.375    1.250    1.125    0.000    4.250 
#    0.000    5.625    0.000    0.000    0.000    4.375 
#    0.000    0.000    0.000    0.000    0.000    0.000 
#
# Total GULP energy -178601.415896 kJ/mol
# GULP energy per Si atom -5581.294247 kJ/mol
# Density = 2.154161 g / cm^3
# Si number density = 21.590754 Si / 1000 Ang^3
#
#
#
# Elastic Constant Matrix: (Units=GPa)
#
#
# Indices 1 2 3 4 5 6 
#
# 1 96.5132 -6.6934 38.5420 0.0000 -25.8928 0.0000
# 2 -6.6934 52.9677 -2.8458 0.0001 0.6663 0.0002
# 3 38.5420 -2.8458 111.5713 0.0000 -32.3069 0.0000
# 4 0.0000 0.0001 0.0000 -7.3121 0.0000 -8.2340
# 5 -25.8928 0.6663 -32.3069 0.0000 37.7490 0.0000
# 6 0.0000 0.0002 0.0000 -8.2340 0.0000 18.4618
#
#
#
# Elastic Compliance Matrix: (Units=1/GPa)
#
#
# Indices 1 2 3 4 5 6 
#
# 1 0.013347 0.001462 -0.002566 0.000000 0.006934 0.000000
# 2 0.001462 0.019066 0.000232 0.000000 0.000864 0.000000
# 3 -0.002566 0.000232 0.012423 0.000000 0.008868 0.000000
# 4 0.000000 0.000000 0.000000 -0.091037 0.000000 -0.040603
# 5 0.006934 0.000864 0.008868 0.000000 0.038821 0.000000
# 6 0.000000 0.000000 0.000000 -0.040603 0.000000 0.036057
#
#
# Mechanical properties :
#
#
# Convention : Reuss Voigt Hill
#
# Bulk Modulus (GPa) = 23.20673 35.45086 29.32880
# Shear Modulus (GPa) = 111.64307 25.24969 68.44638
#
# Velocity S-wave (km/s) = 7.19868 3.42346 5.63654
# Velocity P-wave (km/s) = 8.93680 5.66409 7.48159
#
# Compressibility (1/GPa) = 0.04309094
#
# Stress axis : x y z
#
# Youngs Moduli (GPa) = 74.92069 52.45023 80.49594
#
# Poissons Ratio (x) = -0.07666 0.20654
# Poissons Ratio (y) = -0.10951 -0.01865
# Poissons Ratio (z) = 0.19224 -0.01215
#
# Static dielectric constant tensor:
#      x y z
#    x 1.772370 0.000000 -0.022480 
#    y 0.000000 1.888020 0.000000 
#    z -0.022480 0.000000 1.759310 
# 
# From -- ./inp_files/324313.got.cif
#   From: 2010.05.17/outbox.cif.g08.bks.cpg/sg12_163_cif.got.tgz:324313.got - 2010.06.03 13:09:07.
