data_PCOD9193634
_publ_section_title
;
Structure prediction by ZEFSAII (Michael W. Deem and Ramdas Pophale) SiO2 
 PCOD9193634
Probable space group: C 2/M
;
_chemical_formula_sum "Si O2"
_cell_formula_units_Z 36
_cell_length_a 10.965889
_cell_length_b 14.201041
_cell_length_c 14.753745
_cell_angle_alpha 90.000000
_cell_angle_beta 42.980543
_cell_angle_gamma 90.000000
_cell_volume 1566.359414
_symmetry_space_group_name_H-M "C 2/M"
_symmetry_group_IT_number 12
_symmetry_cell_setting 'monoclinic'
loop_
_space_group_symop_operation_xyz
x,y,z
-x,y,-z
-x,-y,-z
x,-y,z
1/2+x,1/2+y,z
1/2-x,1/2+y,-z
1/2-x,1/2-y,-z
1/2+x,1/2-y,z
loop_
_atom_site_type_symbol
_atom_site_label
_atom_site_fract_x
_atom_site_fract_y
_atom_site_fract_z
Si Si1 0.475351 0.885072 0.363527
Si Si2 0.000000 0.743910 0.000000
Si Si3 0.722650 0.386608 0.660150
Si Si4 0.138925 0.893570 0.057177
Si Si5 0.946224 0.393410 0.170889
O O1 0.317289 0.853060 0.516932
O O2 0.657775 0.858023 0.317426
O O3 0.443717 0.859125 0.276190
O O4 0.479722 0.000000 0.357093
O O5 0.122160 0.814225 0.991032
O O6 0.881606 0.681436 0.133290
O O7 0.739648 0.500000 0.646995
O O8 0.513700 0.367998 0.787539
O O9 0.094594 0.000000 0.048069
O O10 0.344597 0.898081 0.971577
O O11 0.872268 0.500000 0.204515
#
# Coordination Sequence:
#
# PCOD9193634 Si02
#       5
#     8   4   8   8   8
#     4   8  14  27  49  76 102 131 167 208 255 304
#     4  12  22  34  52  78 108 140 170 208 254 306
#     4   8  14  27  50  77 102 128 165 213 259 299
#     4  10  20  34  54  78 102 132 172 217 257 296
#     4  10  21  36  54  76 104 138 174 209 251 304
#
# _framework density 22.983229999999999
#
# number of rings (size 3 to 8) (size 9 to 14) (size 15 to 20)
#    0.000    2.667    0.000    4.000    0.000    3.556 
#    0.000    1.111    0.000    4.000    0.000    7.778 
#    0.000    0.000    0.000    7.333    0.000    0.667 
#
# Total GULP energy -100428.949340 kJ/mol
# GULP energy per Si atom -5579.386074 kJ/mol
# Density = 2.293092 g / cm^3
# Si number density = 22.983230 Si / 1000 Ang^3
#
#
#
# Elastic Constant Matrix: (Units=GPa)
#
#
# Indices 1 2 3 4 5 6 
#
# 1 24.3681 18.7973 37.4512 -0.0026 17.8609 0.0025
# 2 18.7973 104.7364 28.8002 -0.0015 24.2200 0.0015
# 3 37.4512 28.8002 150.3688 -0.0027 17.9729 0.0026
# 4 -0.0026 -0.0015 -0.0027 -142.5143 0.0025 184.9931
# 5 17.8609 24.2200 17.9729 0.0025 41.9566 -0.0024
# 6 0.0025 0.0015 0.0026 184.9931 -0.0024 -153.9010
#
#
#
# Elastic Compliance Matrix: (Units=1/GPa)
#
#
# Indices 1 2 3 4 5 6 
#
# 1 0.097118 -0.005097 -0.019627 -0.000001 -0.029993 0.000001
# 2 -0.005097 0.011583 -0.000431 0.000000 -0.004332 0.000000
# 3 -0.019627 -0.000431 0.011165 0.000000 0.003822 0.000000
# 4 -0.000001 0.000000 0.000000 0.012523 0.000000 0.015053
# 5 -0.029993 -0.004332 0.003822 0.000000 0.037466 -0.000001
# 6 0.000001 0.000000 0.000000 0.015053 -0.000001 0.011597
#
#
# Mechanical properties :
#
#
# Convention : Reuss Voigt Hill
#
# Bulk Modulus (GPa) = 14.37731 49.95231 32.16481
# Shear Modulus (GPa) = 19.61198 -37.93008 -9.15905
#
# Velocity S-wave (km/s) = 2.92433 -4.06684 -1.99844
# Velocity P-wave (km/s) = 4.20374 0.52042 2.94962
#
# Compressibility (1/GPa) = 0.06955403
#
# Stress axis : x y z
#
# Youngs Moduli (GPa) = 10.29678 86.33447 89.56950
#
# Poissons Ratio (x) = 0.44006 1.75800
# Poissons Ratio (y) = 0.05248 0.03862
# Poissons Ratio (z) = 0.20210 0.03723
#
# Static dielectric constant tensor:
#      x y z
#    x 1.870850 0.000000 0.018330 
#    y 0.000000 1.953050 0.000000 
#    z 0.018330 0.000000 1.881300 
# 
# From -- ./inp_files/203763.got.cif
#   From: 2010.05.17/outbox.cif.g08.bks.cpg/sg12_102_cif.got.tgz:203763.got - 2010.06.03 13:09:07.
