data_PCOD9193783
_publ_section_title
;
Structure prediction by ZEFSAII (Michael W. Deem and Ramdas Pophale) SiO2 
 PCOD9193783
Probable space group: C 2/M
;
_chemical_formula_sum "Si O2"
_cell_formula_units_Z 48
_cell_length_a 19.193149
_cell_length_b 8.444028
_cell_length_c 18.614319
_cell_angle_alpha 90.000000
_cell_angle_beta 58.716991
_cell_angle_gamma 90.000000
_cell_volume 2578.175477
_symmetry_space_group_name_H-M "C 2/M"
_symmetry_group_IT_number 12
_symmetry_cell_setting 'monoclinic'
loop_
_space_group_symop_operation_xyz
x,y,z
-x,y,-z
-x,-y,-z
x,-y,z
1/2+x,1/2+y,z
1/2-x,1/2+y,-z
1/2-x,1/2-y,-z
1/2+x,1/2-y,z
loop_
_atom_site_type_symbol
_atom_site_label
_atom_site_fract_x
_atom_site_fract_y
_atom_site_fract_z
Si Si1 0.745410 0.189442 0.921076
Si Si2 0.073169 0.307434 0.762706
Si Si3 0.414045 0.806337 0.080632
Si Si4 0.495009 0.689658 0.420299
Si Si5 0.164334 0.309935 0.574425
Si Si6 0.411331 0.189571 0.763722
O O1 0.663590 0.246331 0.924260
O O2 0.826038 0.241698 0.835438
O O3 0.742190 0.000000 0.924703
O O4 0.750000 0.250000 0.000000
O O5 0.071479 0.500000 0.765399
O O6 0.088664 0.252671 0.835151
O O7 0.141963 0.261330 0.668110
O O8 0.985695 0.257781 0.776552
O O9 0.412915 0.000000 0.081440
O O10 0.500000 0.758097 0.000000
O O11 0.500000 0.743310 0.500000
O O12 0.501778 0.500000 0.415003
O O13 0.408461 0.742067 0.434716
O O14 0.562548 0.759411 0.330232
O O15 0.161841 0.500000 0.572818
O O16 0.250000 0.250000 0.500000
O O17 0.407799 0.000000 0.769051
#
# Coordination Sequence:
#
# PCOD9193783 Si02
#       6
#     8   8   8   8   8   8
#     4  11  22  35  55  81 109 142 179 222 271 325
#     4   8  16  32  53  76 101 133 175 220 264 313
#     4   9  17  31  53  78 101 131 174 217 259 314
#     4  10  21  37  57  81 111 148 189 231 276 331
#     4  10  20  34  54  80 111 146 184 229 279 330
#     4  10  20  36  58  81 108 141 178 225 278 330
#
# _framework density 18.617816999999999
#
# number of rings (size 3 to 8) (size 9 to 14) (size 15 to 20)
#    0.000    2.333    0.000    4.000    0.000    5.333 
#    0.000    3.333    0.000   18.000    0.000    0.000 
#    0.000    0.000    0.000    0.000    0.000    0.000 
#
# Total GULP energy -133953.999713 kJ/mol
# GULP energy per Si atom -5581.416655 kJ/mol
# Density = 1.857544 g / cm^3
# Si number density = 18.617817 Si / 1000 Ang^3
#
#
#
# Elastic Constant Matrix: (Units=GPa)
#
#
# Indices 1 2 3 4 5 6 
#
# 1 136.4626 22.2319 127.9637 0.0000 1.8759 0.0000
# 2 22.2319 26.5441 19.0755 0.0000 2.4786 -0.0003
# 3 127.9637 19.0755 191.7862 0.0000 5.2600 0.0000
# 4 0.0000 0.0000 0.0000 30.7024 0.0000 -3.5380
# 5 1.8759 2.4786 5.2600 0.0000 42.5705 0.0000
# 6 0.0000 -0.0003 0.0000 -3.5380 0.0000 25.8398
#
#
#
# Elastic Compliance Matrix: (Units=1/GPa)
#
#
# Indices 1 2 3 4 5 6 
#
# 1 0.021149 -0.008250 -0.013323 0.000000 0.001195 0.000000
# 2 -0.008250 0.043941 0.001199 0.000000 -0.002343 0.000001
# 3 -0.013323 0.001199 0.014018 0.000000 -0.001215 0.000000
# 4 0.000000 0.000000 0.000000 0.033093 0.000000 0.004531
# 5 0.001195 -0.002343 -0.001215 0.000000 0.023724 0.000000
# 6 0.000000 0.000001 0.000000 0.004531 0.000000 0.039320
#
#
# Mechanical properties :
#
#
# Convention : Reuss Voigt Hill
#
# Bulk Modulus (GPa) = 26.07048 77.03722 51.55385
# Shear Modulus (GPa) = 21.85486 32.19066 27.02276
#
# Velocity S-wave (km/s) = 3.42989 4.16267 3.81392
# Velocity P-wave (km/s) = 5.45151 8.03566 6.86625
#
# Compressibility (1/GPa) = 0.03835756
#
# Stress axis : x y z
#
# Youngs Moduli (GPa) = 47.28262 22.75794 71.33719
#
# Poissons Ratio (x) = 0.18776 0.95046
# Poissons Ratio (y) = 0.39010 -0.08551
# Poissons Ratio (z) = 0.62997 -0.02728
#
# Static dielectric constant tensor:
#      x y z
#    x 1.619210 0.000000 0.010850 
#    y 0.000000 1.645760 0.000000 
#    z 0.010850 0.000000 1.630720 
# 
# From -- ./inp_files/274097.got.cif
#   From: 2010.05.17/outbox.cif.g08.bks.cpg/sg12_138_cif.got.tgz:274097.got - 2010.06.03 13:09:07.
