data_PCOD9193286
_publ_section_title
;
Structure prediction by ZEFSAII (Michael W. Deem and Ramdas Pophale) SiO2 
 PCOD9193286
Probable space group: C 2/M
;
_chemical_formula_sum "Si O2"
_cell_formula_units_Z 64
_cell_length_a 27.262571
_cell_length_b 14.415190
_cell_length_c 20.129834
_cell_angle_alpha 90.000000
_cell_angle_beta 29.258217
_cell_angle_gamma 90.000000
_cell_volume 3866.436785
_symmetry_space_group_name_H-M "C 2/M"
_symmetry_group_IT_number 12
_symmetry_cell_setting 'monoclinic'
loop_
_space_group_symop_operation_xyz
x,y,z
-x,y,-z
-x,-y,-z
x,-y,z
1/2+x,1/2+y,z
1/2-x,1/2+y,-z
1/2-x,1/2-y,-z
1/2+x,1/2-y,z
loop_
_atom_site_type_symbol
_atom_site_label
_atom_site_fract_x
_atom_site_fract_y
_atom_site_fract_z
Si Si1 0.674231 0.733463 0.724843
Si Si2 0.914427 0.611581 0.775441
Si Si3 0.393826 0.102918 0.279803
Si Si4 0.991275 0.104917 0.929751
Si Si5 0.140438 0.393652 0.523848
Si Si6 0.696315 0.269951 0.850310
Si Si7 0.115776 0.610577 0.340084
Si Si8 0.368886 0.111185 0.977232
O O1 0.668966 0.824783 0.687646
O O2 0.585029 0.669107 0.801915
O O3 0.773756 0.673260 0.601755
O O4 0.662290 0.758520 0.816340
O O5 0.921096 0.500000 0.773763
O O6 0.870230 0.630508 0.755361
O O7 0.030161 0.642530 0.635832
O O8 0.863906 0.639911 0.904820
O O9 0.358892 0.103380 0.397229
O O10 0.381141 0.000000 0.267189
O O11 0.513713 0.121954 0.140496
O O12 0.998021 0.000000 0.896418
O O13 0.888603 0.154380 0.029551
O O14 0.000000 0.099889 0.000000
O O15 0.153133 0.500000 0.483955
O O16 0.802573 0.323302 0.722298
O O17 0.692610 0.181822 0.903800
O O18 0.134833 0.500000 0.328846
O O19 0.000000 0.626530 0.500000
O O20 0.345121 0.000000 0.011287
#
# Coordination Sequence:
#
# PCOD9193286 Si02
#       8
#     8   8   8   8   8   8   8   8
#     4  11  19  29  46  71 100 135 165 197 242 293
#     4   8  16  32  52  73  97 126 162 205 247 285
#     4   9  18  32  49  70  98 130 169 211 240 276
#     4   9  18  30  42  63  98 133 160 190 235 291
#     4   9  17  30  50  74  98 129 165 201 245 293
#     4  11  21  31  48  73 100 130 166 198 241 295
#     4  10  20  34  53  77 101 123 155 203 251 296
#     4   9  18  34  52  71  97 129 168 207 241 284
#
# _framework density 16.552707999999999
#
# number of rings (size 3 to 8) (size 9 to 14) (size 15 to 20)
#    0.000    2.500    1.250    3.375    0.000    3.500 
#    0.000    1.250    0.000    0.375    0.000    0.875 
#    0.000    0.000    0.000    0.000    0.000    0.000 
#
# Total GULP energy -178202.344918 kJ/mol
# GULP energy per Si atom -5568.823279 kJ/mol
# Density = 1.651503 g / cm^3
# Si number density = 16.552708 Si / 1000 Ang^3
#
#
#
# Elastic Constant Matrix: (Units=GPa)
#
#
# Indices 1 2 3 4 5 6 
#
# 1 52.2071 24.7615 11.3120 0.0000 0.5519 0.0000
# 2 24.7615 68.3170 23.1080 0.0000 2.8754 0.0000
# 3 11.3120 23.1080 46.7494 0.0000 -2.7674 0.0000
# 4 0.0000 0.0000 0.0000 22.6945 0.0000 6.6994
# 5 0.5519 2.8754 -2.7674 0.0000 12.9652 0.0000
# 6 0.0000 0.0000 0.0000 6.6994 0.0000 12.7103
#
#
#
# Elastic Compliance Matrix: (Units=1/GPa)
#
#
# Indices 1 2 3 4 5 6 
#
# 1 0.023252 -0.007863 -0.001717 0.000000 0.000388 0.000000
# 2 -0.007863 0.020681 -0.008681 0.000000 -0.006105 0.000000
# 3 -0.001717 -0.008681 0.026551 0.000000 0.007666 0.000000
# 4 0.000000 0.000000 0.000000 0.052183 0.000000 -0.027505
# 5 0.000388 -0.006105 0.007666 0.000000 0.080103 0.000000
# 6 0.000000 0.000000 0.000000 -0.027505 0.000000 0.093174
#
#
# Mechanical properties :
#
#
# Convention : Reuss Voigt Hill
#
# Bulk Modulus (GPa) = 29.44502 31.73738 30.59120
# Shear Modulus (GPa) = 14.54393 16.88014 15.71204
#
# Velocity S-wave (km/s) = 2.96741 3.19687 3.08427
# Velocity P-wave (km/s) = 5.43764 5.73077 5.58613
#
# Compressibility (1/GPa) = 0.03396160
#
# Stress axis : x y z
#
# Youngs Moduli (GPa) = 43.00731 48.35350 37.66353
#
# Poissons Ratio (x) = 0.38022 0.06465
# Poissons Ratio (y) = 0.33818 0.32696
# Poissons Ratio (z) = 0.07382 0.41977
#
# Static dielectric constant tensor:
#      x y z
#    x 1.581990 0.000000 0.011270 
#    y 0.000000 1.549950 0.000000 
#    z 0.011270 0.000000 1.572520 
# 
# From -- ./inp_files/246368.got.cif
#   From: 2010.05.17/outbox.cif.g08.bks.cpg/sg12_124_cif.got.tgz:246368.got - 2010.06.03 13:09:07.
