data_PCOD9193509
_publ_section_title
;
Structure prediction by ZEFSAII (Michael W. Deem and Ramdas Pophale) SiO2 
 PCOD9193509
Probable space group: C 2/M
;
_chemical_formula_sum "Si O2"
_cell_formula_units_Z 42
_cell_length_a 14.718673
_cell_length_b 7.548937
_cell_length_c 21.466295
_cell_angle_alpha 90.000000
_cell_angle_beta 139.337467
_cell_angle_gamma 90.000000
_cell_volume 1554.154876
_symmetry_space_group_name_H-M "C 2/M"
_symmetry_group_IT_number 12
_symmetry_cell_setting 'monoclinic'
loop_
_space_group_symop_operation_xyz
x,y,z
-x,y,-z
-x,-y,-z
x,-y,z
1/2+x,1/2+y,z
1/2-x,1/2+y,-z
1/2-x,1/2-y,-z
1/2+x,1/2-y,z
loop_
_atom_site_type_symbol
_atom_site_label
_atom_site_fract_x
_atom_site_fract_y
_atom_site_fract_z
Si Si1 0.500000 0.500000 0.000000
Si Si2 0.766116 0.709326 0.285285
Si Si3 0.193973 0.282850 0.559411
Si Si4 0.474932 0.699976 0.651352
Si Si5 0.288833 0.801824 0.914234
Si Si6 0.950870 0.784759 0.122077
O O1 0.379122 0.654312 0.926834
O O2 0.749992 0.500000 0.284668
O O3 0.838984 0.769788 0.387408
O O4 0.609231 0.778901 0.202745
O O5 0.869285 0.736916 0.281399
O O6 0.185181 0.500000 0.549236
O O7 0.353621 0.220794 0.630874
O O8 0.101017 0.209258 0.455685
O O9 0.487590 0.500000 0.679683
O O10 0.131440 0.757814 0.855905
O O11 0.296991 0.000000 0.892137
O O12 0.366667 0.803146 0.022396
O O13 0.947691 0.000000 0.106390
#
# Coordination Sequence:
#
# PCOD9193509 Si02
#       6
#     2   8   8   8   8   8
#     4  12  22  40  64  98 120 150 206 256 288 366
#     4  10  20  36  58  82 111 152 193 234 294 353
#     4   9  19  36  55  75 108 152 193 235 292 352
#     4  10  20  34  53  80 113 146 191 245 291 343
#     4  10  21  39  65  89 122 160 198 242 303 356
#     4   9  19  39  60  84 117 159 197 243 297 365
#
# _framework density 27.024332999999999
#
# number of rings (size 3 to 8) (size 9 to 14) (size 15 to 20)
#    0.000    2.286    0.952    1.429    1.333    4.571 
#    3.429    0.000    0.000    0.000    0.000    0.000 
#    0.000    0.000    0.000    0.000    0.000    0.000 
#
# Total GULP energy -117304.110064 kJ/mol
# GULP energy per Si atom -5585.910003 kJ/mol
# Density = 2.696282 g / cm^3
# Si number density = 27.024333 Si / 1000 Ang^3
#
#
#
# Elastic Constant Matrix: (Units=GPa)
#
#
# Indices 1 2 3 4 5 6 
#
# 1 138.1283 19.7711 34.9549 0.0000 23.3779 0.0000
# 2 19.7711 107.5346 8.3888 0.0000 15.6303 0.0000
# 3 34.9549 8.3888 91.2440 0.0000 35.9471 0.0000
# 4 0.0000 0.0000 0.0000 27.7748 0.0000 8.4749
# 5 23.3779 15.6303 35.9471 0.0000 60.8453 0.0000
# 6 0.0000 0.0000 0.0000 8.4749 0.0000 32.5987
#
#
#
# Elastic Compliance Matrix: (Units=1/GPa)
#
#
# Indices 1 2 3 4 5 6 
#
# 1 0.008274 -0.001121 -0.002512 0.000000 -0.001407 0.000000
# 2 -0.001121 0.009813 0.000457 0.000000 -0.002360 0.000000
# 3 -0.002512 0.000457 0.015049 0.000000 -0.008043 0.000000
# 4 0.000000 0.000000 0.000000 0.039106 0.000000 -0.010167
# 5 -0.001407 -0.002360 -0.008043 0.000000 0.022334 0.000000
# 6 0.000000 0.000000 0.000000 -0.010167 0.000000 0.033319
#
#
# Mechanical properties :
#
#
# Convention : Reuss Voigt Hill
#
# Bulk Modulus (GPa) = 37.33702 51.45962 44.39832
# Shear Modulus (GPa) = 34.92250 42.49657 38.70954
#
# Velocity S-wave (km/s) = 3.59870 3.96982 3.78881
# Velocity P-wave (km/s) = 5.57796 6.33213 5.96697
#
# Compressibility (1/GPa) = 0.02678307
#
# Stress axis : x y z
#
# Youngs Moduli (GPa) = 120.86113 101.90773 66.45099
#
# Poissons Ratio (x) = 0.11421 0.16695
# Poissons Ratio (y) = 0.13546 -0.03037
# Poissons Ratio (z) = 0.30365 -0.04657
#
# Static dielectric constant tensor:
#      x y z
#    x 2.216230 0.000000 -0.037800 
#    y 0.000000 1.978930 0.000000 
#    z -0.037800 0.000000 2.186760 
# 
# From -- ./inp_files/221181.got.cif
#   From: 2010.05.17/outbox.cif.g08.bks.cpg/sg12_111_cif.got.tgz:221181.got - 2010.06.03 13:09:07.
