data_PCOD9193254
_publ_section_title
;
Structure prediction by ZEFSAII (Michael W. Deem and Ramdas Pophale) SiO2 
 PCOD9193254
Probable space group: C 2/M
;
_chemical_formula_sum "Si O2"
_cell_formula_units_Z 56
_cell_length_a 12.388889
_cell_length_b 12.852034
_cell_length_c 20.215515
_cell_angle_alpha 90.000000
_cell_angle_beta 76.490159
_cell_angle_gamma 90.000000
_cell_volume 3129.699482
_symmetry_space_group_name_H-M "C 2/M"
_symmetry_group_IT_number 12
_symmetry_cell_setting 'monoclinic'
loop_
_space_group_symop_operation_xyz
x,y,z
-x,y,-z
-x,-y,-z
x,-y,z
1/2+x,1/2+y,z
1/2-x,1/2+y,-z
1/2-x,1/2-y,-z
1/2+x,1/2-y,z
loop_
_atom_site_type_symbol
_atom_site_label
_atom_site_fract_x
_atom_site_fract_y
_atom_site_fract_z
Si Si1 0.924774 0.692286 0.449508
Si Si2 0.959112 0.878236 0.787350
Si Si3 0.818452 0.881488 0.538960
Si Si4 0.204635 0.732043 0.112289
Si Si5 0.222418 0.122308 0.763660
Si Si6 0.886888 0.769233 0.664177
Si Si7 0.868188 0.621620 0.010985
O O1 0.880145 0.806438 0.478117
O O2 0.813682 0.627707 0.453525
O O3 0.000000 0.653197 0.500000
O O4 0.004531 0.706276 0.375582
O O5 0.895300 0.805738 0.848687
O O6 0.917326 0.842621 0.721178
O O7 0.091133 0.862937 0.772713
O O8 0.935041 0.000000 0.802008
O O9 0.846613 0.834714 0.606766
O O10 0.854434 0.000000 0.527790
O O11 0.243557 0.663669 0.168813
O O12 0.167509 0.660665 0.056502
O O13 0.302606 0.806874 0.072337
O O14 0.292357 0.189701 0.701467
O O15 0.247333 0.000000 0.753649
O O16 0.840456 0.500000 0.023734
O O17 0.000000 0.633963 0.000000
#
# Coordination Sequence:
#
# PCOD9193254 Si02
#       7
#     8   8   8   8   8   8   8
#     4   9  20  36  52  76 106 133 168 213 258 307
#     4  10  20  34  53  76 103 136 173 213 256 302
#     4  10  20  35  55  77 102 134 171 211 257 308
#     4  10  20  35  54  77 106 137 172 213 254 302
#     4  10  21  36  54  76 104 138 173 210 255 305
#     4  10  20  35  53  76 104 134 171 213 256 305
#     4  10  20  34  54  79 106 137 172 211 256 303
#
# _framework density 17.893093
#
# number of rings (size 3 to 8) (size 9 to 14) (size 15 to 20)
#    0.000    2.143    0.000    3.000    0.000    4.000 
#    0.000    8.571    0.000   16.286    0.000    0.000 
#    0.000    0.000    0.000    0.000    0.000    0.000 
#
# Total GULP energy -156345.357226 kJ/mol
# GULP energy per Si atom -5583.762758 kJ/mol
# Density = 1.785237 g / cm^3
# Si number density = 17.893093 Si / 1000 Ang^3
#
#
#
# Elastic Constant Matrix: (Units=GPa)
#
#
# Indices 1 2 3 4 5 6 
#
# 1 76.6199 32.4946 1.0938 0.0000 -9.5573 0.0000
# 2 32.4946 97.7941 16.5196 0.0000 -3.5325 0.0000
# 3 1.0938 16.5196 44.4324 0.0000 -9.4743 0.0000
# 4 0.0000 0.0000 0.0000 7.3414 0.0000 61.9174
# 5 -9.5573 -3.5325 -9.4743 0.0000 18.6717 0.0000
# 6 0.0000 0.0000 0.0000 61.9174 0.0000 -482.5353
#
#
#
# Elastic Compliance Matrix: (Units=1/GPa)
#
#
# Indices 1 2 3 4 5 6 
#
# 1 0.016627 -0.005820 0.003739 0.000000 0.009307 0.000000
# 2 -0.005820 0.012948 -0.005364 0.000000 -0.003251 0.000000
# 3 0.003739 -0.005364 0.027585 0.000000 0.014896 0.000000
# 4 0.000000 0.000000 0.000000 0.065417 0.000000 0.008394
# 5 0.009307 -0.003251 0.014896 0.000000 0.065264 0.000000
# 6 0.000000 0.000000 0.000000 0.008394 0.000000 -0.000995
#
#
# Mechanical properties :
#
#
# Convention : Reuss Voigt Hill
#
# Bulk Modulus (GPa) = 23.65751 35.45137 29.55444
# Shear Modulus (GPa) = 23.16673 -80.05522 -28.44425
#
# Velocity S-wave (km/s) = 3.60214 -6.69612 -3.99140
# Velocity P-wave (km/s) = 5.52728 6.31887 2.16532
#
# Compressibility (1/GPa) = 0.04226988
#
# Stress axis : x y z
#
# Youngs Moduli (GPa) = 60.14178 77.23110 36.25207
#
# Poissons Ratio (x) = 0.44951 -0.13555
# Poissons Ratio (y) = 0.35004 0.19446
# Poissons Ratio (z) = -0.22488 0.41427
#
# Static dielectric constant tensor:
#      x y z
#    x 1.600120 0.000000 -0.001570 
#    y 0.000000 1.585730 0.000000 
#    z -0.001570 0.000000 1.585790 
# 
# From -- ./inp_files/304153.got.cif
#   From: 2010.05.17/outbox.cif.g08.bks.cpg/sg12_153_cif.got.tgz:304153.got - 2010.06.03 13:09:07.
