data_PCOD9193962
_publ_section_title
;
Structure prediction by ZEFSAII (Michael W. Deem and Ramdas Pophale) SiO2 
 PCOD9193962
Probable space group: C 2/M
;
_chemical_formula_sum "Si O2"
_cell_formula_units_Z 48
_cell_length_a 9.110624
_cell_length_b 26.572007
_cell_length_c 14.935298
_cell_angle_alpha 90.000000
_cell_angle_beta 41.728539
_cell_angle_gamma 90.000000
_cell_volume 2406.584441
_symmetry_space_group_name_H-M "C 2/M"
_symmetry_group_IT_number 12
_symmetry_cell_setting 'monoclinic'
loop_
_space_group_symop_operation_xyz
x,y,z
-x,y,-z
-x,-y,-z
x,-y,z
1/2+x,1/2+y,z
1/2-x,1/2+y,-z
1/2-x,1/2-y,-z
1/2+x,1/2-y,z
loop_
_atom_site_type_symbol
_atom_site_label
_atom_site_fract_x
_atom_site_fract_y
_atom_site_fract_z
Si Si1 0.216967 0.100765 0.455409
Si Si2 0.283688 0.800840 0.538404
Si Si3 0.080210 0.559034 0.155312
Si Si4 0.000000 0.604677 0.000000
Si Si5 0.474108 0.649929 0.817012
Si Si6 0.500000 0.630403 0.000000
Si Si7 0.736362 0.443890 0.628709
O O1 0.304800 0.151300 0.462822
O O2 0.393116 0.074836 0.311130
O O3 0.153149 0.063460 0.565349
O O4 0.000000 0.114503 0.500000
O O5 0.500000 0.797923 0.500000
O O6 0.250000 0.750000 0.500000
O O7 0.081291 0.812376 0.697444
O O8 0.130652 0.500000 0.139944
O O9 0.289864 0.594006 0.081938
O O10 0.000272 0.571955 0.090815
O O11 0.222555 0.637570 0.906207
O O12 0.614665 0.598093 0.741417
O O13 0.505296 0.663052 0.906836
O O14 0.696977 0.500000 0.680836
O O15 0.000000 0.435979 0.500000
#
# Coordination Sequence:
#
# PCOD9193962 Si02
#       7
#     8   8   8   4   8   4   8
#     4  11  22  36  57  85 116 151 193 247 302 347
#     4  11  23  42  69  93 114 142 186 245 304 356
#     4  11  21  34  53  80 116 159 204 239 278 335
#     4  10  23  36  54  81 122 164 196 235 281 338
#     4  10  21  39  60  86 118 156 196 236 286 347
#     4  10  21  36  56  81 116 158 196 231 275 336
#     4  10  20  34  54  83 121 162 206 257 302 339
#
# _framework density 19.945278999999999
#
# number of rings (size 3 to 8) (size 9 to 14) (size 15 to 20)
#    0.000    1.500    0.000    7.500    0.000    8.000 
#    0.000    0.000    0.000   17.000    0.000    0.000 
#    0.000    0.000    0.000    0.000    0.000    0.000 
#
# Total GULP energy -134164.392409 kJ/mol
# GULP energy per Si atom -5590.183017 kJ/mol
# Density = 1.989988 g / cm^3
# Si number density = 19.945279 Si / 1000 Ang^3
#
#
#
# Elastic Constant Matrix: (Units=GPa)
#
#
# Indices 1 2 3 4 5 6 
#
# 1 112.3086 17.2533 14.9963 0.0000 1.9534 0.0000
# 2 17.2533 72.5712 15.8591 0.0000 0.7322 0.0000
# 3 14.9963 15.8591 78.8569 0.0000 11.5091 0.0000
# 4 0.0000 0.0000 0.0000 -4.4107 0.0000 6.0345
# 5 1.9534 0.7322 11.5091 0.0000 37.7164 0.0000
# 6 0.0000 0.0000 0.0000 6.0345 0.0000 -0.1814
#
#
#
# Elastic Compliance Matrix: (Units=1/GPa)
#
#
# Indices 1 2 3 4 5 6 
#
# 1 0.009387 -0.001927 -0.001394 0.000000 -0.000023 0.000000
# 2 -0.001927 0.014823 -0.002708 0.000000 0.000638 0.000000
# 3 -0.001394 -0.002708 0.014101 0.000000 -0.004178 0.000000
# 4 0.000000 0.000000 0.000000 0.005094 0.000000 0.169436
# 5 -0.000023 0.000638 -0.004178 0.000000 0.027777 0.000000
# 6 0.000000 0.000000 0.000000 0.169436 0.000000 0.123842
#
#
# Mechanical properties :
#
#
# Convention : Reuss Voigt Hill
#
# Bulk Modulus (GPa) = 38.09117 39.99492 39.04304
# Shear Modulus (GPa) = 23.16618 21.00005 22.08312
#
# Velocity S-wave (km/s) = 3.41176 3.24834 3.33105
# Velocity P-wave (km/s) = 5.88722 5.84506 5.86618
#
# Compressibility (1/GPa) = 0.02625280
#
# Stress axis : x y z
#
# Youngs Moduli (GPa) = 106.53500 67.46300 70.91846
#
# Poissons Ratio (x) = 0.12998 0.09887
# Poissons Ratio (y) = 0.20526 0.19204
# Poissons Ratio (z) = 0.14853 0.18268
#
# Static dielectric constant tensor:
#      x y z
#    x 1.746270 0.000000 -0.002620 
#    y 0.000000 1.674620 0.000000 
#    z -0.002620 0.000000 1.715190 
# 
# From -- ./inp_files/200164.got.cif
#   From: 2010.05.17/outbox.cif.g08.bks.cpg/sg12_101_cif.got.tgz:200164.got - 2010.06.03 13:09:07.
