data_PCOD9193461
_publ_section_title
;
Structure prediction by ZEFSAII (Michael W. Deem and Ramdas Pophale) SiO2 
 PCOD9193461
Probable space group: C 2/M
;
_chemical_formula_sum "Si O2"
_cell_formula_units_Z 48
_cell_length_a 15.394665
_cell_length_b 14.049730
_cell_length_c 10.158821
_cell_angle_alpha 90.000000
_cell_angle_beta 116.689619
_cell_angle_gamma 90.000000
_cell_volume 1963.148420
_symmetry_space_group_name_H-M "C 2/M"
_symmetry_group_IT_number 12
_symmetry_cell_setting 'monoclinic'
loop_
_space_group_symop_operation_xyz
x,y,z
-x,y,-z
-x,-y,-z
x,-y,z
1/2+x,1/2+y,z
1/2-x,1/2+y,-z
1/2-x,1/2-y,-z
1/2+x,1/2-y,z
loop_
_atom_site_type_symbol
_atom_site_label
_atom_site_fract_x
_atom_site_fract_y
_atom_site_fract_z
Si Si1 0.965312 0.114943 0.259057
Si Si2 0.358042 0.116220 0.611208
Si Si3 0.442111 0.890763 0.131759
Si Si4 0.298524 0.889538 0.285507
Si Si5 0.353505 0.615654 0.448533
Si Si6 0.658353 0.727125 0.032823
O O1 0.896959 0.143478 0.336917
O O2 0.919377 0.163553 0.100349
O O3 0.072953 0.141480 0.383377
O O4 0.961596 0.000000 0.242003
O O5 0.455581 0.147788 0.747717
O O6 0.352260 0.143277 0.453787
O O7 0.256311 0.146751 0.604627
O O8 0.362228 0.000000 0.617952
O O9 0.372018 0.887122 0.212411
O O10 0.393407 0.828021 0.985835
O O11 0.448504 0.000000 0.096013
O O12 0.269509 0.000000 0.285505
O O13 0.204049 0.829083 0.184433
O O14 0.353845 0.500000 0.447578
O O15 0.750000 0.750000 0.000000
#
# Coordination Sequence:
#
# PCOD9193461 Si02
#       6
#     8   8   8   8   8   8
#     4   9  17  34  58  81 108 141 182 228 274 326
#     4   9  16  31  57  86 113 141 180 229 282 330
#     4   9  18  33  55  81 110 147 189 230 270 321
#     4   9  17  31  54  84 116 147 178 222 279 335
#     4   8  16  32  57  85 107 138 182 226 276 329
#     4  10  20  34  53  79 110 147 190 222 271 332
#
# _framework density 24.450519
#
# number of rings (size 3 to 8) (size 9 to 14) (size 15 to 20)
#    0.000    3.000    0.000    2.000    0.000    2.667 
#   12.000    1.667    3.667    7.000    0.000   19.833 
#    0.000    1.333    0.000    0.000    0.000    0.000 
#
# Total GULP energy -134378.390537 kJ/mol
# GULP energy per Si atom -5599.099606 kJ/mol
# Density = 2.439487 g / cm^3
# Si number density = 24.450519 Si / 1000 Ang^3
#
#
#
# Elastic Constant Matrix: (Units=GPa)
#
#
# Indices 1 2 3 4 5 6 
#
# 1 66.5663 29.5239 51.0839 0.0000 19.2715 0.0000
# 2 29.5239 103.6372 65.2445 0.0000 16.9081 0.0000
# 3 51.0839 65.2445 140.2899 0.0000 25.8662 0.0000
# 4 0.0000 0.0000 0.0000 41.8948 0.0000 15.0860
# 5 19.2715 16.9081 25.8662 0.0000 39.8003 0.0000
# 6 0.0000 0.0000 0.0000 15.0860 0.0000 5.7548
#
#
#
# Elastic Compliance Matrix: (Units=1/GPa)
#
#
# Indices 1 2 3 4 5 6 
#
# 1 0.022258 -0.001347 -0.006359 0.000000 -0.006073 0.000000
# 2 -0.001347 0.013853 -0.005666 0.000000 -0.001550 0.000000
# 3 -0.006359 -0.005666 0.012574 0.000000 -0.002686 0.000000
# 4 0.000000 0.000000 0.000000 0.426095 0.000000 -1.117004
# 5 -0.006073 -0.001550 -0.002686 0.000000 0.030470 0.000000
# 6 0.000000 0.000000 0.000000 -1.117004 0.000000 3.101984
#
#
# Mechanical properties :
#
#
# Convention : Reuss Voigt Hill
#
# Bulk Modulus (GPa) = 45.57714 66.91090 56.24402
# Shear Modulus (GPa) = 1.37314 28.46605 14.91959
#
# Velocity S-wave (km/s) = 0.75021 3.41578 2.47289
# Velocity P-wave (km/s) = 4.40811 6.55607 5.58630
#
# Compressibility (1/GPa) = 0.02194083
#
# Stress axis : x y z
#
# Youngs Moduli (GPa) = 44.92800 72.18730 79.52996
#
# Poissons Ratio (x) = 0.09723 0.50571
# Poissons Ratio (y) = 0.06051 0.45064
# Poissons Ratio (z) = 0.28568 0.40903
#
# Static dielectric constant tensor:
#      x y z
#    x 1.921150 0.000000 -0.011190 
#    y 0.000000 1.973770 0.000000 
#    z -0.011190 0.000000 1.869870 
# 
# From -- ./inp_files/143897.got.cif
#   From: 2010.05.17/outbox.cif.g08.bks.cpg/sg12_72_cif.got.tgz:143897.got - 2010.06.03 13:09:07.
