data_PCOD9193863
_publ_section_title
;
Structure prediction by ZEFSAII (Michael W. Deem and Ramdas Pophale) SiO2 
 PCOD9193863
Probable space group: C 2/M
;
_chemical_formula_sum "Si O2"
_cell_formula_units_Z 56
_cell_length_a 14.462818
_cell_length_b 9.136781
_cell_length_c 25.435155
_cell_angle_alpha 90.000000
_cell_angle_beta 110.234698
_cell_angle_gamma 90.000000
_cell_volume 3153.658879
_symmetry_space_group_name_H-M "C 2/M"
_symmetry_group_IT_number 12
_symmetry_cell_setting 'monoclinic'
loop_
_space_group_symop_operation_xyz
x,y,z
-x,y,-z
-x,-y,-z
x,-y,z
1/2+x,1/2+y,z
1/2-x,1/2+y,-z
1/2-x,1/2-y,-z
1/2+x,1/2-y,z
loop_
_atom_site_type_symbol
_atom_site_label
_atom_site_fract_x
_atom_site_fract_y
_atom_site_fract_z
Si Si1 0.379325 0.326137 0.237320
Si Si2 0.673358 0.825268 0.138857
Si Si3 0.471991 0.174612 0.157472
Si Si4 0.188213 0.670721 0.560622
Si Si5 0.234056 0.325946 0.941136
Si Si6 0.596833 0.328573 0.446684
Si Si7 0.415054 0.826155 0.355252
O O1 0.393462 0.500000 0.243540
O O2 0.268278 0.298022 0.194480
O O3 0.451561 0.258578 0.207600
O O4 0.395723 0.252814 0.296675
O O5 0.572645 0.782734 0.148132
O O6 0.693763 0.740786 0.088810
O O7 0.669507 0.000000 0.127564
O O8 0.377001 0.201763 0.101872
O O9 0.475958 0.000000 0.168636
O O10 0.161489 0.500000 0.546308
O O11 0.300894 0.689098 0.565251
O O12 0.121305 0.769513 0.509643
O O13 0.169480 0.702649 0.617876
O O14 0.247627 0.500000 0.947923
O O15 0.250000 0.250000 0.000000
O O16 0.571007 0.500000 0.442832
O O17 0.513171 0.235717 0.401905
O O18 0.422591 0.000000 0.348664
#
# Coordination Sequence:
#
# PCOD9193863 Si02
#       7
#     8   8   8   8   8   8   8
#     4  10  21  36  54  78 105 132 171 222 264 304
#     4   9  19  37  58  78 104 139 178 218 261 309
#     4   9  19  37  58  78 104 142 179 212 260 315
#     4   9  20  37  54  75 105 139 171 208 261 319
#     4  10  20  34  54  81 113 144 177 217 259 307
#     4  10  20  35  55  79 105 133 171 217 261 309
#     4  11  22  36  54  75 104 140 174 210 258 316
#
# _framework density 17.757152000000001
#
# number of rings (size 3 to 8) (size 9 to 14) (size 15 to 20)
#    0.000    2.286    0.000    2.143    0.000    6.857 
#    0.000    5.714    0.000    0.000    0.000    0.000 
#    0.000    0.000    0.000    0.000    0.000    0.000 
#
# Total GULP energy -156324.492860 kJ/mol
# GULP energy per Si atom -5583.017602 kJ/mol
# Density = 1.771674 g / cm^3
# Si number density = 17.757152 Si / 1000 Ang^3
#
#
#
# Elastic Constant Matrix: (Units=GPa)
#
#
# Indices 1 2 3 4 5 6 
#
# 1 123.1364 52.4338 53.7505 0.0000 -27.3394 0.0000
# 2 52.4338 57.7229 57.7462 0.0000 -19.8914 0.0000
# 3 53.7505 57.7462 111.9102 0.0000 -38.1075 0.0000
# 4 0.0000 0.0000 0.0000 37.6277 0.0000 -4.3688
# 5 -27.3394 -19.8914 -38.1075 0.0000 20.7258 0.0000
# 6 0.0000 0.0000 0.0000 -4.3688 0.0000 27.5696
#
#
#
# Elastic Compliance Matrix: (Units=1/GPa)
#
#
# Indices 1 2 3 4 5 6 
#
# 1 0.015290 -0.013381 0.005498 0.000000 0.017436 0.000000
# 2 -0.013381 0.047528 -0.022935 0.000000 -0.014206 0.000000
# 3 0.005498 -0.022935 0.035046 0.000000 0.049678 0.000000
# 4 0.000000 0.000000 0.000000 0.027074 0.000000 0.004290
# 5 0.017436 -0.014206 0.049678 0.000000 0.148954 0.000000
# 6 0.000000 0.000000 0.000000 0.004290 0.000000 0.036952
#
#
# Mechanical properties :
#
#
# Convention : Reuss Voigt Hill
#
# Bulk Modulus (GPa) = 27.60310 68.95896 48.28103
# Shear Modulus (GPa) = 13.00198 25.77390 19.38794
#
# Velocity S-wave (km/s) = 2.70888 3.81394 3.30788
# Velocity P-wave (km/s) = 5.03612 7.63634 6.46824
#
# Compressibility (1/GPa) = 0.03622781
#
# Stress axis : x y z
#
# Youngs Moduli (GPa) = 65.40138 21.04021 28.53400
#
# Poissons Ratio (x) = 0.28154 -0.15688
# Poissons Ratio (y) = 0.87513 0.65443
# Poissons Ratio (z) = -0.35958 0.48256
#
# Static dielectric constant tensor:
#      x y z
#    x 1.606370 0.000000 -0.000860 
#    y 0.000000 1.592020 0.000000 
#    z -0.000860 0.000000 1.566860 
# 
# From -- ./inp_files/337863.got.cif
#   From: 2010.05.17/outbox.cif.g08.bks.cpg/sg12_169_cif.got.tgz:337863.got - 2010.06.03 13:09:07.
