data_PCOD9193568
_publ_section_title
;
Structure prediction by ZEFSAII (Michael W. Deem and Ramdas Pophale) SiO2 
 PCOD9193568
Probable space group: C 2/M
;
_chemical_formula_sum "Si O2"
_cell_formula_units_Z 48
_cell_length_a 17.462231
_cell_length_b 11.992287
_cell_length_c 25.597997
_cell_angle_alpha 90.000000
_cell_angle_beta 149.190796
_cell_angle_gamma 90.000000
_cell_volume 2745.560739
_symmetry_space_group_name_H-M "C 2/M"
_symmetry_group_IT_number 12
_symmetry_cell_setting 'monoclinic'
loop_
_space_group_symop_operation_xyz
x,y,z
-x,y,-z
-x,-y,-z
x,-y,z
1/2+x,1/2+y,z
1/2-x,1/2+y,-z
1/2-x,1/2-y,-z
1/2+x,1/2-y,z
loop_
_atom_site_type_symbol
_atom_site_label
_atom_site_fract_x
_atom_site_fract_y
_atom_site_fract_z
Si Si1 0.301274 0.369405 0.743624
Si Si2 0.577310 0.222962 0.888436
Si Si3 0.300246 0.872581 0.425184
Si Si4 0.008005 0.500000 0.912651
Si Si5 0.984369 0.368774 0.357723
Si Si6 0.256365 0.000000 0.853268
Si Si7 0.525235 0.301729 0.740404
O O1 0.329649 0.500000 0.749721
O O2 0.458557 0.310108 0.843001
O O3 0.213815 0.322760 0.641117
O O4 0.186743 0.360629 0.723675
O O5 0.557632 0.241358 0.814690
O O6 0.532298 0.106565 0.889219
O O7 0.750000 0.250000 0.000000
O O8 0.409431 0.825530 0.533104
O O9 0.130290 0.867867 0.345132
O O10 0.352649 0.000000 0.449288
O O11 0.853532 0.500000 0.856319
O O12 0.132999 0.500000 0.031784
O O13 0.018747 0.500000 0.368771
O O14 0.000952 0.293319 0.317341
O O15 0.153174 0.110346 0.798779
#
# Coordination Sequence:
#
# PCOD9193568 Si02
#       7
#     8   8   8   4   8   4   8
#     4   9  19  35  57  81 111 143 182 226 277 330
#     4  11  23  37  59  81 109 146 186 233 283 333
#     4   9  17  32  57  82 106 144 185 224 271 323
#     4  11  24  40  58  83 112 150 191 233 284 335
#     4  10  20  34  53  84 115 142 178 228 277 333
#     4  11  22  40  62  81 108 150 198 235 269 333
#     4  11  21  36  58  83 112 147 188 230 277 327
#
# _framework density 17.482766999999999
#
# number of rings (size 3 to 8) (size 9 to 14) (size 15 to 20)
#    0.000    1.833    2.500    2.000    3.500    2.000 
#    0.000    0.000    0.000    2.000    0.000    7.000 
#    0.000    0.000    0.000    0.000    0.000    0.000 
#
# Total GULP energy -133710.531042 kJ/mol
# GULP energy per Si atom -5571.272127 kJ/mol
# Density = 1.744298 g / cm^3
# Si number density = 17.482767 Si / 1000 Ang^3
#
#
#
# Elastic Constant Matrix: (Units=GPa)
#
#
# Indices 1 2 3 4 5 6 
#
# 1 93.0965 47.9272 32.9503 0.0004 6.7587 -0.0001
# 2 47.9272 71.7632 27.8444 0.0001 -7.2905 0.0000
# 3 32.9503 27.8444 82.2939 0.0008 9.5393 0.0000
# 4 0.0004 0.0001 0.0008 24.6423 0.0001 -1.3506
# 5 6.7587 -7.2905 9.5393 0.0001 15.7856 0.0000
# 6 -0.0001 0.0000 0.0000 -1.3506 0.0000 24.3668
#
#
#
# Elastic Compliance Matrix: (Units=1/GPa)
#
#
# Indices 1 2 3 4 5 6 
#
# 1 0.019332 -0.013716 -0.001512 0.000000 -0.013699 0.000000
# 2 -0.013716 0.027978 -0.006617 0.000000 0.022793 0.000000
# 3 -0.001512 -0.006617 0.016425 0.000000 -0.012334 0.000000
# 4 0.000000 0.000000 0.000000 0.040704 0.000000 0.002256
# 5 -0.013699 0.022793 -0.012334 0.000000 0.087194 0.000000
# 6 0.000000 0.000000 0.000000 0.002256 0.000000 0.041165
#
#
# Mechanical properties :
#
#
# Convention : Reuss Voigt Hill
#
# Bulk Modulus (GPa) = 49.88393 51.62194 50.75293
# Shear Modulus (GPa) = 17.65720 22.18772 19.92246
#
# Velocity S-wave (km/s) = 3.18146 3.56634 3.37938
# Velocity P-wave (km/s) = 6.48774 6.82274 6.65735
#
# Compressibility (1/GPa) = 0.02004654
#
# Stress axis : x y z
#
# Youngs Moduli (GPa) = 51.72641 35.74234 60.88137
#
# Poissons Ratio (x) = 0.49025 0.09204
# Poissons Ratio (y) = 0.70950 0.40282
# Poissons Ratio (z) = 0.07820 0.23649
#
# Static dielectric constant tensor:
#      x y z
#    x 1.609460 0.000000 -0.003230 
#    y 0.000000 1.588460 0.000000 
#    z -0.003230 0.000000 1.602210 
# 
# From -- ./inp_files/154228.got.cif
#   From: 2010.05.17/outbox.cif.g08.bks.cpg/sg12_78_cif.got.tgz:154228.got - 2010.06.03 13:09:07.
