data_PCOD9193835
_publ_section_title
;
Structure prediction by ZEFSAII (Michael W. Deem and Ramdas Pophale) SiO2 
 PCOD9193835
Probable space group: C 2/M
;
_chemical_formula_sum "Si O2"
_cell_formula_units_Z 64
_cell_length_a 18.679298
_cell_length_b 7.882833
_cell_length_c 21.500209
_cell_angle_alpha 90.000000
_cell_angle_beta 89.652833
_cell_angle_gamma 90.000000
_cell_volume 3165.757074
_symmetry_space_group_name_H-M "C 2/M"
_symmetry_group_IT_number 12
_symmetry_cell_setting 'monoclinic'
loop_
_space_group_symop_operation_xyz
x,y,z
-x,y,-z
-x,-y,-z
x,-y,z
1/2+x,1/2+y,z
1/2-x,1/2+y,-z
1/2-x,1/2-y,-z
1/2+x,1/2-y,z
loop_
_atom_site_type_symbol
_atom_site_label
_atom_site_fract_x
_atom_site_fract_y
_atom_site_fract_z
Si Si1 0.459380 0.792871 0.802816
Si Si2 0.207053 0.296565 0.061502
Si Si3 0.544000 0.205640 0.439420
Si Si4 0.289480 0.300452 0.563455
Si Si5 0.039698 0.701258 0.681195
Si Si6 0.957348 0.292581 0.940272
Si Si7 0.297508 0.301800 0.315816
Si Si8 0.292346 0.207320 0.801122
O O1 0.508474 0.730741 0.746334
O O2 0.483561 0.738981 0.871713
O O3 0.376036 0.744288 0.793731
O O4 0.460448 0.000000 0.803173
O O5 0.205969 0.500000 0.064900
O O6 0.125146 0.239398 0.054904
O O7 0.232814 0.237612 0.129739
O O8 0.250000 0.250000 0.000000
O O9 0.500000 0.264249 0.500000
O O10 0.626771 0.256380 0.440593
O O11 0.504079 0.269131 0.377654
O O12 0.541930 0.000000 0.439472
O O13 0.281385 0.500000 0.571789
O O14 0.250000 0.250000 0.500000
O O15 0.251711 0.216876 0.623162
O O16 0.025897 0.500000 0.682148
O O17 0.124304 0.724955 0.674411
O O18 0.959157 0.500000 0.941149
O O19 0.000000 0.231792 0.000000
O O20 0.309606 0.500000 0.304405
O O21 0.255954 0.231026 0.255616
O O22 0.291501 0.000000 0.799367
#
# Coordination Sequence:
#
# PCOD9193835 Si02
#       8
#     8   8   8   8   8   8   8   8
#     4   8  14  27  47  68  94 132 175 215 260 317
#     4   9  17  30  49  73 102 136 175 219 269 325
#     4  10  21  38  60  84 112 146 180 216 264 320
#     4  12  25  41  62  87 115 145 182 226 269 317
#     4  10  20  34  54  81 111 140 175 222 273 323
#     4   8  14  25  43  68  95 126 169 218 262 308
#     4  11  22  37  57  80 110 147 186 226 271 325
#     4   8  16  32  52  73 100 140 183 218 263 326
#
# _framework density 20.216332000000001
#
# number of rings (size 3 to 8) (size 9 to 14) (size 15 to 20)
#    0.000    2.500    0.000    4.500    0.000    4.750 
#    0.000    2.500    0.000    3.375    0.000    0.000 
#    0.000    0.000    0.000    0.000    0.000    0.000 
#
# Total GULP energy -178578.357730 kJ/mol
# GULP energy per Si atom -5580.573679 kJ/mol
# Density = 2.017032 g / cm^3
# Si number density = 20.216332 Si / 1000 Ang^3
#
#
#
# Elastic Constant Matrix: (Units=GPa)
#
#
# Indices 1 2 3 4 5 6 
#
# 1 115.2124 -10.4297 94.6375 0.0000 7.8142 0.0000
# 2 -10.4297 16.6711 -2.7111 0.0000 3.7031 0.0000
# 3 94.6375 -2.7111 194.9166 0.0000 12.2841 0.0000
# 4 0.0000 0.0000 0.0000 11.3760 0.0000 -6.1361
# 5 7.8142 3.7031 12.2841 0.0000 43.4564 0.0000
# 6 0.0000 0.0000 0.0000 -6.1361 0.0000 19.1852
#
#
#
# Elastic Compliance Matrix: (Units=1/GPa)
#
#
# Indices 1 2 3 4 5 6 
#
# 1 0.015651 0.008922 -0.007381 0.000000 -0.001488 0.000000
# 2 0.008922 0.066504 -0.003002 0.000000 -0.006423 0.000000
# 3 -0.007381 -0.003002 0.008728 0.000000 -0.000884 0.000000
# 4 0.000000 0.000000 0.000000 0.106231 0.000000 0.033976
# 5 -0.001488 -0.006423 -0.000884 0.000000 0.024076 0.000000
# 6 0.000000 0.000000 0.000000 0.033976 0.000000 0.062990
#
#
# Mechanical properties :
#
#
# Convention : Reuss Voigt Hill
#
# Bulk Modulus (GPa) = 11.36867 54.42151 32.89509
# Shear Modulus (GPa) = 15.80156 31.15708 23.47932
#
# Velocity S-wave (km/s) = 2.79879 3.93005 3.41163
# Velocity P-wave (km/s) = 4.00999 6.89723 5.64144
#
# Compressibility (1/GPa) = 0.08796103
#
# Stress axis : x y z
#
# Youngs Moduli (GPa) = 63.89236 15.03660 114.57135
#
# Poissons Ratio (x) = -0.13416 0.84568
# Poissons Ratio (y) = -0.57004 0.34395
# Poissons Ratio (z) = 0.47161 0.04514
#
# Static dielectric constant tensor:
#      x y z
#    x 1.606440 0.000000 0.126560 
#    y 0.000000 1.734230 0.000000 
#    z 0.126560 0.000000 1.517500 
# 
# From -- ./inp_files/314116.got.cif
#   From: 2010.05.17/outbox.cif.g08.bks.cpg/sg12_158_cif.got.tgz:314116.got - 2010.06.03 13:09:07.
