data_PCOD9193507
_publ_section_title
;
Structure prediction by ZEFSAII (Michael W. Deem and Ramdas Pophale) SiO2 
 PCOD9193507
Probable space group: C 2/M
;
_chemical_formula_sum "Si O2"
_cell_formula_units_Z 56
_cell_length_a 30.364325
_cell_length_b 8.223503
_cell_length_c 22.505258
_cell_angle_alpha 90.000000
_cell_angle_beta 30.375135
_cell_angle_gamma 90.000000
_cell_volume 2841.597570
_symmetry_space_group_name_H-M "C 2/M"
_symmetry_group_IT_number 12
_symmetry_cell_setting 'monoclinic'
loop_
_space_group_symop_operation_xyz
x,y,z
-x,y,-z
-x,-y,-z
x,-y,z
1/2+x,1/2+y,z
1/2-x,1/2+y,-z
1/2-x,1/2-y,-z
1/2+x,1/2-y,z
loop_
_atom_site_type_symbol
_atom_site_label
_atom_site_fract_x
_atom_site_fract_y
_atom_site_fract_z
Si Si1 0.415811 0.192324 0.357312
Si Si2 0.761927 0.305464 0.208020
Si Si3 0.723763 0.303141 0.123378
Si Si4 0.789815 0.192133 0.602670
Si Si5 0.459561 0.304399 0.982987
Si Si6 0.872822 0.192072 0.282680
Si Si7 0.112196 0.304271 0.145094
O O1 0.365488 0.224567 0.476847
O O2 0.366486 0.275179 0.359838
O O3 0.514979 0.254980 0.245531
O O4 0.417044 0.000000 0.344050
O O5 0.750919 0.500000 0.222076
O O6 0.719799 0.244589 0.195765
O O7 0.723955 0.242581 0.314488
O O8 0.864911 0.270609 0.085460
O O9 0.724164 0.500000 0.122950
O O10 0.647758 0.246112 0.168174
O O11 0.815001 0.247921 0.986988
O O12 0.700442 0.220071 0.670497
O O13 0.807672 0.000000 0.584334
O O14 0.450132 0.500000 0.992141
O O15 0.531085 0.255083 0.850977
O O16 0.500000 0.261102 0.000000
O O17 0.864198 0.000000 0.280733
O O18 0.110196 0.500000 0.144940
#
# Coordination Sequence:
#
# PCOD9193507 Si02
#       7
#     8   8   8   8   8   8   8
#     4  11  23  39  58  79 108 145 187 231 274 321
#     4  10  21  36  56  82 112 148 185 224 273 326
#     4   9  18  35  59  85 111 137 172 221 274 327
#     4  11  23  38  55  78 110 148 190 228 270 324
#     4  10  20  34  53  80 113 144 177 221 271 322
#     4  11  22  37  57  81 111 146 185 227 275 325
#     4   9  19  36  58  84 110 137 175 222 273 327
#
# _framework density 19.707225000000001
#
# number of rings (size 3 to 8) (size 9 to 14) (size 15 to 20)
#    0.000    1.857    1.429    2.571    0.000    4.857 
#    0.000    3.571    0.000    4.286    0.000    0.000 
#    0.000    0.000    0.000    0.000    0.000    0.000 
#
# Total GULP energy -156417.639467 kJ/mol
# GULP energy per Si atom -5586.344267 kJ/mol
# Density = 1.966237 g / cm^3
# Si number density = 19.707225 Si / 1000 Ang^3
#
#
#
# Elastic Constant Matrix: (Units=GPa)
#
#
# Indices 1 2 3 4 5 6 
#
# 1 108.7657 -4.3568 27.8288 -0.0019 27.1476 0.0008
# 2 -4.3568 9.8254 -1.6813 -0.0004 4.0931 0.0036
# 3 27.8288 -1.6813 57.9397 0.0002 13.9050 0.0010
# 4 -0.0019 -0.0004 0.0002 22.4925 -0.0019 -2.8428
# 5 27.1476 4.0931 13.9050 -0.0019 21.5284 -0.0011
# 6 0.0008 0.0036 0.0010 -2.8428 -0.0011 23.6666
#
#
#
# Elastic Compliance Matrix: (Units=1/GPa)
#
#
# Indices 1 2 3 4 5 6 
#
# 1 0.015670 0.015569 -0.001920 -0.000001 -0.021481 -0.000004
# 2 0.015569 0.130873 0.008288 -0.000004 -0.049868 -0.000024
# 3 -0.001920 0.008288 0.021561 -0.000002 -0.013081 -0.000003
# 4 -0.000001 -0.000004 -0.000002 0.045145 0.000007 0.005423
# 5 -0.021481 -0.049868 -0.013081 0.000007 0.091468 0.000014
# 6 -0.000004 -0.000024 -0.000003 0.005423 0.000014 0.042905
#
#
# Mechanical properties :
#
#
# Convention : Reuss Voigt Hill
#
# Bulk Modulus (GPa) = 4.71745 24.45691 14.58718
# Shear Modulus (GPa) = 13.35440 23.85348 18.60394
#
# Velocity S-wave (km/s) = 2.60598 3.48284 3.07582
# Velocity P-wave (km/s) = 3.38434 5.34889 4.47574
#
# Compressibility (1/GPa) = 0.21197875
#
# Stress axis : x y z
#
# Youngs Moduli (GPa) = 63.81465 7.64099 46.37946
#
# Poissons Ratio (x) = -0.11896 0.08903
# Poissons Ratio (y) = -0.99351 -0.38439
# Poissons Ratio (z) = 0.12250 -0.06333
#
# Static dielectric constant tensor:
#      x y z
#    x 1.678550 0.000000 0.022500 
#    y 0.000000 1.682190 0.000000 
#    z 0.022500 0.000000 1.696380 
# 
# From -- ./inp_files/248908.got.cif
#   From: 2010.05.17/outbox.cif.g08.bks.cpg/sg12_125_cif.got.tgz:248908.got - 2010.06.03 13:09:07.
