data_PCOD9193614
_publ_section_title
;
Structure prediction by ZEFSAII (Michael W. Deem and Ramdas Pophale) SiO2 
 PCOD9193614
Probable space group: C 2/M
;
_chemical_formula_sum "Si O2"
_cell_formula_units_Z 64
_cell_length_a 14.637186
_cell_length_b 9.198813
_cell_length_c 25.675153
_cell_angle_alpha 90.000000
_cell_angle_beta 72.704583
_cell_angle_gamma 90.000000
_cell_volume 3300.713428
_symmetry_space_group_name_H-M "C 2/M"
_symmetry_group_IT_number 12
_symmetry_cell_setting 'monoclinic'
loop_
_space_group_symop_operation_xyz
x,y,z
-x,y,-z
-x,-y,-z
x,-y,z
1/2+x,1/2+y,z
1/2-x,1/2+y,-z
1/2-x,1/2-y,-z
1/2+x,1/2-y,z
loop_
_atom_site_type_symbol
_atom_site_label
_atom_site_fract_x
_atom_site_fract_y
_atom_site_fract_z
Si Si1 0.586766 0.835017 0.128202
Si Si2 0.611861 0.825945 0.699434
Si Si3 0.431528 0.327449 0.765417
Si Si4 0.685949 0.661937 0.900834
Si Si5 0.800114 0.827429 0.413651
Si Si6 0.396450 0.172941 0.494044
Si Si7 0.294280 0.172504 0.205245
Si Si8 0.602542 0.836322 0.009126
O O1 0.548662 0.731841 0.179630
O O2 0.699555 0.848008 0.120316
O O3 0.583084 0.777310 0.070069
O O4 0.545291 0.000000 0.137603
O O5 0.505867 0.757381 0.716613
O O6 0.674351 0.755589 0.643377
O O7 0.657698 0.790596 0.748026
O O8 0.607829 0.000000 0.695043
O O9 0.446156 0.500000 0.759769
O O10 0.319866 0.296212 0.772370
O O11 0.644422 0.500000 0.907779
O O12 0.660195 0.748940 0.852759
O O13 0.662592 0.742120 0.958734
O O14 0.690400 0.803596 0.450504
O O15 0.867214 0.763520 0.448091
O O16 0.815020 0.000000 0.405475
O O17 0.500000 0.210863 0.500000
O O18 0.397413 0.000000 0.481219
O O19 0.303125 0.000000 0.195027
O O20 0.644001 0.000000 0.008299
O O21 0.500000 0.848949 0.000000
#
# Coordination Sequence:
#
# PCOD9193614 Si02
#       8
#     8   8   8   8   8   8   8   8
#     4   9  19  36  54  74 102 139 178 218 277 345
#     4  11  23  39  60  83 115 157 194 234 282 336
#     4  10  21  38  59  84 111 143 188 239 288 339
#     4  10  20  34  54  77 102 132 174 230 281 331
#     4  10  21  37  58  89 124 156 196 241 282 330
#     4   9  19  38  63  90 123 162 199 236 282 331
#     4   9  21  40  59  79 109 150 190 228 282 350
#     4  10  21  34  50  73 102 137 175 217 271 344
#
# _framework density 19.389745999999999
#
# number of rings (size 3 to 8) (size 9 to 14) (size 15 to 20)
#    0.000    2.250    0.000    1.875    1.750    4.500 
#    0.000    2.500    0.000    0.000    0.000    0.000 
#    0.000    0.000    0.000    0.000    0.000    0.000 
#
# Total GULP energy -178621.279034 kJ/mol
# GULP energy per Si atom -5581.914970 kJ/mol
# Density = 1.934561 g / cm^3
# Si number density = 19.389746 Si / 1000 Ang^3
#
#
#
# Elastic Constant Matrix: (Units=GPa)
#
#
# Indices 1 2 3 4 5 6 
#
# 1 83.6797 32.7582 30.6304 0.0000 -2.1246 0.0000
# 2 32.7582 67.9534 50.7901 0.0000 -6.5114 0.0000
# 3 30.6304 50.7901 91.8927 0.0000 -4.8796 0.0000
# 4 0.0000 0.0000 0.0000 51.2801 0.0000 16.0354
# 5 -2.1246 -6.5114 -4.8796 0.0000 15.9948 0.0000
# 6 0.0000 0.0000 0.0000 16.0354 0.0000 24.8036
#
#
#
# Elastic Compliance Matrix: (Units=1/GPa)
#
#
# Indices 1 2 3 4 5 6 
#
# 1 0.014899 -0.006007 -0.001698 0.000000 -0.000985 0.000000
# 2 -0.006007 0.028092 -0.013173 0.000000 0.006619 0.000000
# 3 -0.001698 -0.013173 0.018736 0.000000 0.000128 0.000000
# 4 0.000000 0.000000 0.000000 0.024442 0.000000 -0.015802
# 5 -0.000985 0.006619 0.000128 0.000000 0.065123 0.000000
# 6 0.000000 0.000000 0.000000 -0.015802 0.000000 0.050532
#
#
# Mechanical properties :
#
#
# Convention : Reuss Voigt Hill
#
# Bulk Modulus (GPa) = 50.07533 52.43146 51.25340
# Shear Modulus (GPa) = 19.98112 27.03885 23.50998
#
# Velocity S-wave (km/s) = 3.21362 3.73834 3.48587
# Velocity P-wave (km/s) = 6.29695 6.76263 6.53394
#
# Compressibility (1/GPa) = 0.01996991
#
# Stress axis : x y z
#
# Youngs Moduli (GPa) = 67.12043 35.59758 53.37376
#
# Poissons Ratio (x) = 0.21384 0.09064
# Poissons Ratio (y) = 0.40321 0.70308
# Poissons Ratio (z) = 0.11398 0.46892
#
# Static dielectric constant tensor:
#      x y z
#    x 1.699190 0.000000 -0.010790 
#    y 0.000000 1.684820 0.000000 
#    z -0.010790 0.000000 1.676200 
# 
# From -- ./inp_files/359776.got.cif
#   From: 2010.05.17/outbox.cif.g08.bks.cpg/sg12_180_cif.got.tgz:359776.got - 2010.06.03 13:09:07.
