data_PCOD9193999
_publ_section_title
;
Structure prediction by ZEFSAII (Michael W. Deem and Ramdas Pophale) SiO2 
 PCOD9193999
Probable space group: C 2/M
;
_chemical_formula_sum "Si O2"
_cell_formula_units_Z 58
_cell_length_a 19.875043
_cell_length_b 17.699754
_cell_length_c 9.687536
_cell_angle_alpha 90.000000
_cell_angle_beta 69.342054
_cell_angle_gamma 90.000000
_cell_volume 3188.796186
_symmetry_space_group_name_H-M "C 2/M"
_symmetry_group_IT_number 12
_symmetry_cell_setting 'monoclinic'
loop_
_space_group_symop_operation_xyz
x,y,z
-x,y,-z
-x,-y,-z
x,-y,z
1/2+x,1/2+y,z
1/2-x,1/2+y,-z
1/2-x,1/2-y,-z
1/2+x,1/2-y,z
loop_
_atom_site_type_symbol
_atom_site_label
_atom_site_fract_x
_atom_site_fract_y
_atom_site_fract_z
Si Si1 0.204792 0.085432 0.251833
Si Si2 0.106631 0.128714 0.805083
Si Si3 0.083373 0.301630 0.907043
Si Si4 0.775766 0.589518 0.698710
Si Si5 0.000000 0.000000 0.000000
Si Si6 0.291728 0.171130 0.967465
Si Si7 0.842118 0.413084 0.353751
Si Si8 0.424401 0.590371 0.479662
O O1 0.268627 0.086772 0.317405
O O2 0.136618 0.122510 0.374674
O O3 0.182701 0.000000 0.237826
O O4 0.236342 0.118143 0.090029
O O5 0.097106 0.213017 0.869497
O O6 0.191069 0.107492 0.741413
O O7 0.078669 0.126822 0.667736
O O8 0.060396 0.066648 0.920686
O O9 0.107346 0.352851 0.758973
O O10 0.135454 0.324436 0.996328
O O11 0.000000 0.313745 0.000000
O O12 0.783133 0.500000 0.721412
O O13 0.802903 0.638915 0.807154
O O14 0.818951 0.605896 0.526403
O O15 0.250000 0.250000 0.000000
O O16 0.869897 0.500000 0.329583
O O17 0.500000 0.597763 0.500000
O O18 0.411084 0.500000 0.465834
#
# Coordination Sequence:
#
# PCOD9193999 Si02
#       8
#     8   8   8   8   2   8   8   8
#     4   9  18  35  56  80 115 155 207 254 307 365
#     4  12  22  39  62  90 131 180 213 249 310 394
#     4  11  25  43  64  93 131 168 210 265 327 384
#     4  11  21  39  67  94 125 165 219 268 315 377
#     4  12  24  36  62  96 138 180 210 234 320 392
#     4  11  23  38  59  92 122 160 212 263 310 372
#     4   9  20  40  67  89 115 162 216 267 321 380
#     4  10  20  34  54  85 123 165 212 257 304 370
#
# _framework density 18.188682
#
# number of rings (size 3 to 8) (size 9 to 14) (size 15 to 20)
#    0.000    1.517    4.828    0.414    0.000    4.690 
#    2.483    0.690    0.000    1.655    0.000    0.000 
#    0.000    0.000    0.000    0.000    0.000    0.000 
#
# Total GULP energy -161577.005229 kJ/mol
# GULP energy per Si atom -5571.620870 kJ/mol
# Density = 1.814728 g / cm^3
# Si number density = 18.188682 Si / 1000 Ang^3
#
#
#
# Elastic Constant Matrix: (Units=GPa)
#
#
# Indices 1 2 3 4 5 6 
#
# 1 59.3922 29.9163 42.0701 0.0000 -12.1277 0.0000
# 2 29.9163 102.2230 72.6552 0.0000 -8.6324 0.0000
# 3 42.0701 72.6552 110.3916 0.0000 -2.6284 0.0000
# 4 0.0000 0.0000 0.0000 16.8536 0.0000 6.8225
# 5 -12.1277 -8.6324 -2.6284 0.0000 35.3327 0.0000
# 6 0.0000 0.0000 0.0000 6.8225 0.0000 18.3296
#
#
#
# Elastic Compliance Matrix: (Units=1/GPa)
#
#
# Indices 1 2 3 4 5 6 
#
# 1 0.025094 -0.000024 -0.009359 0.000000 0.007911 0.000000
# 2 -0.000024 0.018849 -0.012309 0.000000 0.003681 0.000000
# 3 -0.009359 -0.012309 0.020615 0.000000 -0.004686 0.000000
# 4 0.000000 0.000000 0.000000 0.069861 0.000000 -0.026003
# 5 0.007911 0.003681 -0.004686 0.000000 0.031569 0.000000
# 6 0.000000 0.000000 0.000000 -0.026003 0.000000 0.064235
#
#
# Mechanical properties :
#
#
# Convention : Reuss Voigt Hill
#
# Bulk Modulus (GPa) = 47.22698 62.36558 54.79628
# Shear Modulus (GPa) = 17.81481 22.59419 20.20450
#
# Velocity S-wave (km/s) = 3.13300 3.52833 3.33652
# Velocity P-wave (km/s) = 6.25372 7.13872 6.71083
#
# Compressibility (1/GPa) = 0.02117434
#
# Stress axis : x y z
#
# Youngs Moduli (GPa) = 39.84957 53.05336 48.50788
#
# Poissons Ratio (x) = 0.00126 0.45401
# Poissons Ratio (y) = 0.00094 0.59708
# Poissons Ratio (z) = 0.37297 0.65303
#
# Static dielectric constant tensor:
#      x y z
#    x 1.604030 0.000000 -0.000200 
#    y 0.000000 1.774970 0.000000 
#    z -0.000200 0.000000 1.653930 
# 
# From -- ./inp_files/88446.got.cif
#   From: 2010.05.17/outbox.cif.g08.bks.cpg/sg12_45_cif.got.tgz:88446.got - 2010.06.03 13:09:07.
