data_PCOD9193948
_publ_section_title
;
Structure prediction by ZEFSAII (Michael W. Deem and Ramdas Pophale) SiO2 
 PCOD9193948
Probable space group: C 2/M
;
_chemical_formula_sum "Si O2"
_cell_formula_units_Z 48
_cell_length_a 22.220770
_cell_length_b 10.754209
_cell_length_c 11.533504
_cell_angle_alpha 90.000000
_cell_angle_beta 74.840693
_cell_angle_gamma 90.000000
_cell_volume 2660.218256
_symmetry_space_group_name_H-M "C 2/M"
_symmetry_group_IT_number 12
_symmetry_cell_setting 'monoclinic'
loop_
_space_group_symop_operation_xyz
x,y,z
-x,y,-z
-x,-y,-z
x,-y,z
1/2+x,1/2+y,z
1/2-x,1/2+y,-z
1/2-x,1/2-y,-z
1/2+x,1/2-y,z
loop_
_atom_site_type_symbol
_atom_site_label
_atom_site_fract_x
_atom_site_fract_y
_atom_site_fract_z
Si Si1 0.477226 0.638595 0.143988
Si Si2 0.822140 0.363081 0.735821
Si Si3 0.797019 0.784526 0.080855
Si Si4 0.878935 0.359668 0.211993
Si Si5 0.115169 0.861980 0.158436
Si Si6 0.702289 0.862238 0.515636
O O1 0.450290 0.500000 0.180408
O O2 0.430298 0.751654 0.185614
O O3 0.541051 0.651411 0.184388
O O4 0.500000 0.640987 0.000000
O O5 0.843851 0.500000 0.764439
O O6 0.748557 0.353209 0.806031
O O7 0.856646 0.249791 0.780962
O O8 0.829473 0.354038 0.594274
O O9 0.829211 0.673298 0.135655
O O10 0.750000 0.750000 0.000000
O O11 0.852685 0.853789 0.985384
O O12 0.903280 0.500000 0.182002
O O13 0.844290 0.355234 0.352878
O O14 0.130029 0.000000 0.197510
O O15 0.750000 0.750000 0.500000
O O16 0.732515 0.000000 0.505654
#
# Coordination Sequence:
#
# PCOD9193948 Si02
#       6
#     8   8   8   8   8   8
#     4  10  21  39  59  82 113 152 191 234 285 339
#     4  10  21  36  58  85 115 150 188 232 285 337
#     4  10  20  34  54  83 118 148 178 228 282 341
#     4  11  23  38  59  87 116 149 192 238 280 335
#     4  10  21  37  58  83 114 150 189 233 283 340
#     4  10  21  38  58  84 115 150 191 233 281 335
#
# _framework density 18.043631000000001
#
# number of rings (size 3 to 8) (size 9 to 14) (size 15 to 20)
#    0.000    1.833    3.333    0.500    0.000    8.333 
#    0.000    0.833    0.000    5.000    0.000    0.000 
#    0.000    0.000    0.000    0.000    0.000    0.000 
#
# Total GULP energy -133743.228326 kJ/mol
# GULP energy per Si atom -5572.634514 kJ/mol
# Density = 1.800256 g / cm^3
# Si number density = 18.043631 Si / 1000 Ang^3
#
#
#
# Elastic Constant Matrix: (Units=GPa)
#
#
# Indices 1 2 3 4 5 6 
#
# 1 70.2388 71.3294 23.8311 0.0000 -1.2315 0.0000
# 2 71.3294 205.6130 50.4271 0.0000 0.7316 0.0000
# 3 23.8311 50.4271 77.2166 0.0000 6.9602 0.0000
# 4 0.0000 0.0000 0.0000 24.8141 0.0000 -0.2998
# 5 -1.2315 0.7316 6.9602 0.0000 14.8611 0.0000
# 6 0.0000 0.0000 0.0000 -0.2998 0.0000 36.1326
#
#
#
# Elastic Compliance Matrix: (Units=1/GPa)
#
#
# Indices 1 2 3 4 5 6 
#
# 1 0.022447 -0.007174 -0.002550 0.000000 0.003408 0.000000
# 2 -0.007174 0.008118 -0.003130 0.000000 0.000472 0.000000
# 3 -0.002550 -0.003130 0.016483 0.000000 -0.007777 0.000000
# 4 0.000000 0.000000 0.000000 0.040304 0.000000 0.000334
# 5 0.003408 0.000472 -0.007777 0.000000 0.071191 0.000000
# 6 0.000000 0.000000 0.000000 0.000334 0.000000 0.027679
#
#
# Mechanical properties :
#
#
# Convention : Reuss Voigt Hill
#
# Bulk Modulus (GPa) = 46.85994 71.58261 59.22128
# Shear Modulus (GPa) = 22.82650 28.99362 25.91006
#
# Velocity S-wave (km/s) = 3.56064 4.01292 3.79353
# Velocity P-wave (km/s) = 6.55217 7.82492 7.21666
#
# Compressibility (1/GPa) = 0.02134019
#
# Stress axis : x y z
#
# Youngs Moduli (GPa) = 44.54843 123.17929 60.66942
#
# Poissons Ratio (x) = 0.88369 0.15471
# Poissons Ratio (y) = 0.31959 0.18990
# Poissons Ratio (z) = 0.11360 0.38557
#
# Static dielectric constant tensor:
#      x y z
#    x 1.626440 0.000000 0.005690 
#    y 0.000000 1.640360 0.000000 
#    z 0.005690 0.000000 1.619210 
# 
# From -- ./inp_files/172440.got.cif
#   From: 2010.05.17/outbox.cif.g08.bks.cpg/sg12_87_cif.got.tgz:172440.got - 2010.06.03 13:09:07.
