data_PCOD9193270
_publ_section_title
;
Structure prediction by ZEFSAII (Michael W. Deem and Ramdas Pophale) SiO2 
 PCOD9193270
Probable space group: C 2/M
;
_chemical_formula_sum "Si O2"
_cell_formula_units_Z 64
_cell_length_a 14.503443
_cell_length_b 8.670515
_cell_length_c 30.081997
_cell_angle_alpha 90.000000
_cell_angle_beta 105.748674
_cell_angle_gamma 90.000000
_cell_volume 3640.877309
_symmetry_space_group_name_H-M "C 2/M"
_symmetry_group_IT_number 12
_symmetry_cell_setting 'monoclinic'
loop_
_space_group_symop_operation_xyz
x,y,z
-x,y,-z
-x,-y,-z
x,-y,z
1/2+x,1/2+y,z
1/2-x,1/2+y,-z
1/2-x,1/2-y,-z
1/2+x,1/2-y,z
loop_
_atom_site_type_symbol
_atom_site_label
_atom_site_fract_x
_atom_site_fract_y
_atom_site_fract_z
Si Si1 0.340933 0.314242 0.880196
Si Si2 0.152020 0.315449 0.800421
Si Si3 0.390668 0.683961 0.301763
Si Si4 0.217640 0.685510 0.628688
Si Si5 0.922438 0.685525 0.627713
Si Si6 0.735685 0.684101 0.949227
Si Si7 0.527745 0.187300 0.552425
Si Si8 0.046880 0.813661 0.869801
O O1 0.341117 0.500000 0.884224
O O2 0.254987 0.272100 0.835242
O O3 0.313795 0.244979 0.924331
O O4 0.443855 0.265803 0.875023
O O5 0.148681 0.500000 0.795377
O O6 0.135615 0.238160 0.750929
O O7 0.073974 0.260306 0.826234
O O8 0.392035 0.500000 0.304708
O O9 0.316070 0.750973 0.328037
O O10 0.494171 0.750260 0.329556
O O11 0.220195 0.500000 0.630873
O O12 0.319618 0.750044 0.627490
O O13 0.133395 0.732404 0.583183
O O14 0.922673 0.500000 0.630098
O O15 0.953982 0.731945 0.581777
O O16 0.739744 0.500000 0.951387
O O17 0.632306 0.728709 0.914966
O O18 0.750000 0.750000 0.000000
O O19 0.500000 0.244799 0.500000
O O20 0.527114 0.000000 0.550839
O O21 0.047236 0.000000 0.865085
#
# Coordination Sequence:
#
# PCOD9193270 Si02
#       8
#     8   8   8   8   8   8   8   8
#     4   9  19  36  56  76 102 135 171 211 256 307
#     4  10  20  35  55  79 106 134 169 216 265 314
#     4  11  22  37  56  77 106 142 180 221 265 316
#     4  10  20  35  55  79 109 142 178 220 267 319
#     4  10  20  35  55  79 108 140 178 222 267 317
#     4  10  20  34  53  76 105 137 173 215 258 307
#     4   8  16  32  53  77 107 142 178 218 263 313
#     4   9  19  36  55  76 103 138 176 213 257 312
#
# _framework density 17.578182000000002
#
# number of rings (size 3 to 8) (size 9 to 14) (size 15 to 20)
#    0.000    2.375    0.000    3.375    0.000    3.500 
#    0.000    6.250    0.000   12.750    0.000    0.000 
#    0.000    0.000    0.000    0.000    0.000    0.000 
#
# Total GULP energy -178589.114534 kJ/mol
# GULP energy per Si atom -5580.909829 kJ/mol
# Density = 1.753817 g / cm^3
# Si number density = 17.578182 Si / 1000 Ang^3
#
#
#
# Elastic Constant Matrix: (Units=GPa)
#
#
# Indices 1 2 3 4 5 6 
#
# 1 168.4891 45.8766 78.5381 0.0000 -17.9631 0.0000
# 2 45.8766 59.5059 48.6341 0.0000 -4.5254 0.0000
# 3 78.5381 48.6341 163.5663 0.0000 -9.6215 0.0000
# 4 0.0000 0.0000 0.0000 23.4248 0.0000 -3.0703
# 5 -17.9631 -4.5254 -9.6215 0.0000 7.6145 0.0000
# 6 0.0000 0.0000 0.0000 -3.0703 0.0000 26.4193
#
#
#
# Elastic Compliance Matrix: (Units=1/GPa)
#
#
# Indices 1 2 3 4 5 6 
#
# 1 0.010297 -0.004468 -0.002531 0.000000 0.018438 0.000000
# 2 -0.004468 0.024334 -0.005250 0.000000 -0.002711 0.000000
# 3 -0.002531 -0.005250 0.009026 0.000000 0.002314 0.000000
# 4 0.000000 0.000000 0.000000 0.043350 0.000000 0.005038
# 5 0.018438 -0.002711 0.002314 0.000000 0.176139 0.000000
# 6 0.000000 0.000000 0.000000 0.005038 0.000000 0.038437
#
#
# Mechanical properties :
#
#
# Convention : Reuss Voigt Hill
#
# Bulk Modulus (GPa) = 52.19203 81.96210 67.07706
# Shear Modulus (GPa) = 15.03912 26.05922 20.54917
#
# Velocity S-wave (km/s) = 2.92816 3.85447 3.42280
# Velocity P-wave (km/s) = 6.41779 8.15706 7.33913
#
# Compressibility (1/GPa) = 0.01916001
#
# Stress axis : x y z
#
# Youngs Moduli (GPa) = 97.11300 41.09521 110.78912
#
# Poissons Ratio (x) = 0.18360 0.28045
# Poissons Ratio (y) = 0.43387 0.58159
# Poissons Ratio (z) = 0.24583 0.21573
#
# Static dielectric constant tensor:
#      x y z
#    x 1.579510 0.000000 0.008350 
#    y 0.000000 1.589710 0.000000 
#    z 0.008350 0.000000 1.576710 
# 
# From -- ./inp_files/359874.got.cif
#   From: 2010.05.17/outbox.cif.g08.bks.cpg/sg12_180_cif.got.tgz:359874.got - 2010.06.03 13:09:07.
