data_PCOD9193929
_publ_section_title
;
Structure prediction by ZEFSAII (Michael W. Deem and Ramdas Pophale) SiO2 
 PCOD9193929
Probable space group: C 2/M
;
_chemical_formula_sum "Si O2"
_cell_formula_units_Z 40
_cell_length_a 15.811714
_cell_length_b 19.640196
_cell_length_c 9.535769
_cell_angle_alpha 90.000000
_cell_angle_beta 135.434236
_cell_angle_gamma 90.000000
_cell_volume 2078.016385
_symmetry_space_group_name_H-M "C 2/M"
_symmetry_group_IT_number 12
_symmetry_cell_setting 'monoclinic'
loop_
_space_group_symop_operation_xyz
x,y,z
-x,y,-z
-x,-y,-z
x,-y,z
1/2+x,1/2+y,z
1/2-x,1/2+y,-z
1/2-x,1/2-y,-z
1/2+x,1/2-y,z
loop_
_atom_site_type_symbol
_atom_site_label
_atom_site_fract_x
_atom_site_fract_y
_atom_site_fract_z
Si Si1 0.332962 0.238530 0.807184
Si Si2 0.895664 0.849336 0.098595
Si Si3 0.074017 0.255265 0.400201
Si Si4 0.629949 0.855427 0.897078
Si Si5 0.117694 0.500000 0.739271
Si Si6 0.395760 0.500000 0.997162
O O1 0.189424 0.249897 0.634093
O O2 0.375597 0.232346 0.698017
O O3 0.387601 0.305399 0.945997
O O4 0.371137 0.173286 0.944980
O O5 0.000811 0.814993 0.311731
O O6 0.764690 0.837127 0.008890
O O7 0.915956 0.928832 0.099986
O O8 0.975262 0.313735 0.305718
O O9 0.615170 0.933734 0.836375
O O10 0.246547 0.500000 0.803983
O O11 0.000000 0.500000 0.500000
O O12 0.500000 0.500000 0.000000
#
# Coordination Sequence:
#
# PCOD9193929 Si02
#       6
#     8   8   8   8   4   4
#     4  10  20  35  55  84 114 149 191 238 287 342
#     4  10  20  34  54  83 112 147 191 236 284 340
#     4  10  20  34  57  82 114 149 191 235 285 350
#     4  10  21  36  57  80 115 150 189 243 290 339
#     4  10  24  40  58  90 116 155 200 242 294 359
#     4  10  20  36  59  78 116 153 188 241 287 342
#
# _framework density 19.249124999999999
#
# number of rings (size 3 to 8) (size 9 to 14) (size 15 to 20)
#    0.000    2.000    0.000    6.000    5.600    2.400 
#    0.000    3.000    0.000    6.000    0.000    0.000 
#    0.000    0.000    0.000    0.000    0.000    0.000 
#
# Total GULP energy -111479.602889 kJ/mol
# GULP energy per Si atom -5573.980144 kJ/mol
# Density = 1.920531 g / cm^3
# Si number density = 19.249125 Si / 1000 Ang^3
#
#
#
# Elastic Constant Matrix: (Units=GPa)
#
#
# Indices 1 2 3 4 5 6 
#
# 1 96.4568 41.9478 23.3954 0.0000 15.7957 0.0000
# 2 41.9478 138.9981 44.6780 0.0000 9.3304 0.0000
# 3 23.3954 44.6780 101.7631 0.0000 22.2822 0.0000
# 4 0.0000 0.0000 0.0000 1.5827 0.0000 -9.5732
# 5 15.7957 9.3304 22.2822 0.0000 44.0308 0.0000
# 6 0.0000 0.0000 0.0000 -9.5732 0.0000 -4.3724
#
#
#
# Elastic Compliance Matrix: (Units=1/GPa)
#
#
# Indices 1 2 3 4 5 6 
#
# 1 0.012547 -0.003342 -0.000660 0.000000 -0.003459 0.000000
# 2 -0.003342 0.009267 -0.003523 0.000000 0.001018 0.000000
# 3 -0.000660 -0.003523 0.012719 0.000000 -0.005453 0.000000
# 4 0.000000 0.000000 0.000000 0.044360 0.000000 -0.097125
# 5 -0.003459 0.001018 -0.005453 0.000000 0.026496 0.000000
# 6 0.000000 0.000000 0.000000 -0.097125 0.000000 -0.016057
#
#
# Mechanical properties :
#
#
# Convention : Reuss Voigt Hill
#
# Bulk Modulus (GPa) = 51.32635 61.91782 56.62208
# Shear Modulus (GPa) = 45.09438 23.39466 34.24452
#
# Velocity S-wave (km/s) = 4.84537 3.48999 4.22242
# Velocity P-wave (km/s) = 7.61745 6.96250 7.29733
#
# Compressibility (1/GPa) = 0.01948317
#
# Stress axis : x y z
#
# Youngs Moduli (GPa) = 79.69795 107.90834 78.62034
#
# Poissons Ratio (x) = 0.36067 0.05187
# Poissons Ratio (y) = 0.26638 0.27699
# Poissons Ratio (z) = 0.05259 0.38018
#
# Static dielectric constant tensor:
#      x y z
#    x 1.757850 0.000000 0.001520 
#    y 0.000000 1.639690 0.000000 
#    z 0.001520 0.000000 1.674550 
# 
# From -- ./inp_files/63204.got.cif
#   From: 2010.05.17/outbox.cif.g08.bks.cpg/sg12_32_cif.got.tgz:63204.got - 2010.06.03 13:09:07.
