data_PCOD9193351
_publ_section_title
;
Structure prediction by ZEFSAII (Michael W. Deem and Ramdas Pophale) SiO2 
 PCOD9193351
Probable space group: C 2/M
;
_chemical_formula_sum "Si O2"
_cell_formula_units_Z 48
_cell_length_a 18.880631
_cell_length_b 19.198708
_cell_length_c 8.857633
_cell_angle_alpha 90.000000
_cell_angle_beta 129.174875
_cell_angle_gamma 90.000000
_cell_volume 2489.040923
_symmetry_space_group_name_H-M "C 2/M"
_symmetry_group_IT_number 12
_symmetry_cell_setting 'monoclinic'
loop_
_space_group_symop_operation_xyz
x,y,z
-x,y,-z
-x,-y,-z
x,-y,z
1/2+x,1/2+y,z
1/2-x,1/2+y,-z
1/2-x,1/2-y,-z
1/2+x,1/2-y,z
loop_
_atom_site_type_symbol
_atom_site_label
_atom_site_fract_x
_atom_site_fract_y
_atom_site_fract_z
Si Si1 0.996492 0.220300 0.174639
Si Si2 0.919495 0.316216 0.503211
Si Si3 0.256919 0.917896 0.742757
Si Si4 0.174617 0.307886 0.921069
Si Si5 0.929058 0.582216 0.776466
Si Si6 0.543044 0.419985 0.391078
O O1 0.910810 0.267380 0.115290
O O2 0.084656 0.255617 0.376935
O O3 0.996246 0.140517 0.230057
O O4 0.000000 0.223144 0.000000
O O5 0.844411 0.332367 0.276896
O O6 0.944574 0.382449 0.637184
O O7 0.000000 0.292688 0.500000
O O8 0.327341 0.903775 0.700823
O O9 0.151839 0.906816 0.555057
O O10 0.267159 0.000000 0.795773
O O11 0.289501 0.869357 0.923773
O O12 0.250000 0.250000 0.000000
O O13 0.942078 0.500000 0.780362
O O14 0.000000 0.607541 0.000000
O O15 0.500000 0.416029 0.500000
O O16 0.530529 0.500000 0.319298
#
# Coordination Sequence:
#
# PCOD9193351 Si02
#       6
#     8   8   8   8   8   8
#     4  11  22  37  57  82 114 149 189 236 284 337
#     4  10  20  34  53  77 110 147 185 230 279 335
#     4  10  21  38  60  85 116 153 190 231 285 344
#     4  11  22  36  57  84 113 146 190 238 283 334
#     4  10  20  35  55  81 115 152 188 228 279 339
#     4  10  21  40  63  84 112 150 192 238 287 339
#
# _framework density 19.284535999999999
#
# number of rings (size 3 to 8) (size 9 to 14) (size 15 to 20)
#    0.000    1.667    0.000    7.000    0.000    2.667 
#    0.000    3.333    0.000    6.000    0.000    0.000 
#    0.000    0.000    0.000    0.000    0.000    0.000 
#
# Total GULP energy -133774.475733 kJ/mol
# GULP energy per Si atom -5573.936489 kJ/mol
# Density = 1.924064 g / cm^3
# Si number density = 19.284536 Si / 1000 Ang^3
#
#
#
# Elastic Constant Matrix: (Units=GPa)
#
#
# Indices 1 2 3 4 5 6 
#
# 1 61.5100 25.8173 28.7925 0.0000 -4.0067 0.0000
# 2 25.8173 100.7833 39.6238 0.0000 -15.5516 0.0000
# 3 28.7925 39.6238 79.3592 0.0000 -33.3823 0.0000
# 4 0.0000 0.0000 0.0000 22.0915 0.0000 1.1699
# 5 -4.0067 -15.5516 -33.3823 0.0000 34.9989 0.0000
# 6 0.0000 0.0000 0.0000 1.1699 0.0000 19.5859
#
#
#
# Elastic Compliance Matrix: (Units=1/GPa)
#
#
# Indices 1 2 3 4 5 6 
#
# 1 0.021537 -0.002930 -0.009789 0.000000 -0.008173 0.000000
# 2 -0.002930 0.012753 -0.005114 0.000000 0.000454 0.000000
# 3 -0.009789 -0.005114 0.028856 0.000000 0.024131 0.000000
# 4 0.000000 0.000000 0.000000 0.045410 0.000000 -0.002713
# 5 -0.008173 0.000454 0.024131 0.000000 0.050854 0.000000
# 6 0.000000 0.000000 0.000000 -0.002713 0.000000 0.051219
#
#
# Mechanical properties :
#
#
# Convention : Reuss Voigt Hill
#
# Bulk Modulus (GPa) = 36.38835 47.79108 42.08972
# Shear Modulus (GPa) = 19.57283 25.16319 22.36801
#
# Velocity S-wave (km/s) = 3.18928 3.61617 3.40942
# Velocity P-wave (km/s) = 5.69844 6.50165 6.11325
#
# Compressibility (1/GPa) = 0.02748132
#
# Stress axis : x y z
#
# Youngs Moduli (GPa) = 46.43163 78.41082 34.65427
#
# Poissons Ratio (x) = 0.22971 0.33924
# Poissons Ratio (y) = 0.13602 0.17722
# Poissons Ratio (z) = 0.45453 0.40099
#
# Static dielectric constant tensor:
#      x y z
#    x 1.694540 0.000000 0.058730 
#    y 0.000000 1.673710 0.000000 
#    z 0.058730 0.000000 1.628950 
# 
# From -- ./inp_files/88148.got.cif
#   From: 2010.05.17/outbox.cif.g08.bks.cpg/sg12_45_cif.got.tgz:88148.got - 2010.06.03 13:09:07.
