data_PCOD9193906
_publ_section_title
;
Structure prediction by ZEFSAII (Michael W. Deem and Ramdas Pophale) SiO2 
 PCOD9193906
Probable space group: C 2/M
;
_chemical_formula_sum "Si O2"
_cell_formula_units_Z 56
_cell_length_a 13.784150
_cell_length_b 14.038129
_cell_length_c 20.366536
_cell_angle_alpha 90.000000
_cell_angle_beta 135.826055
_cell_angle_gamma 90.000000
_cell_volume 2746.242281
_symmetry_space_group_name_H-M "C 2/M"
_symmetry_group_IT_number 12
_symmetry_cell_setting 'monoclinic'
loop_
_space_group_symop_operation_xyz
x,y,z
-x,y,-z
-x,-y,-z
x,-y,z
1/2+x,1/2+y,z
1/2-x,1/2+y,-z
1/2-x,1/2-y,-z
1/2+x,1/2-y,z
loop_
_atom_site_type_symbol
_atom_site_label
_atom_site_fract_x
_atom_site_fract_y
_atom_site_fract_z
Si Si1 0.074136 0.711446 0.279757
Si Si2 0.394014 0.114761 0.305737
Si Si3 0.666736 0.159851 0.931906
Si Si4 0.569153 0.386054 0.730910
Si Si5 0.148260 0.604657 0.064632
Si Si6 0.855568 0.108448 0.903350
Si Si7 0.609051 0.707217 0.609514
O O1 0.234541 0.694855 0.341425
O O2 0.007617 0.645967 0.305615
O O3 0.981057 0.689755 0.170150
O O4 0.046494 0.819786 0.290881
O O5 0.240995 0.144693 0.202716
O O6 0.414426 0.183393 0.377680
O O7 0.397703 0.000000 0.317018
O O8 0.752810 0.112794 0.915356
O O9 0.750000 0.250000 0.000000
O O10 0.662332 0.096715 0.993962
O O11 0.550587 0.500000 0.730708
O O12 0.713559 0.353524 0.836505
O O13 0.583201 0.357055 0.661732
O O14 0.136204 0.500000 0.090393
O O15 0.000000 0.654025 0.000000
O O16 0.888236 0.000000 0.899968
O O17 0.000000 0.149744 0.000000
O O18 0.500000 0.683413 0.500000
#
# Coordination Sequence:
#
# PCOD9193906 Si02
#       7
#     8   8   8   8   8   8   8
#     4  10  22  41  60  88 123 157 195 245 293 349
#     4   9  21  40  62  89 121 156 196 242 297 354
#     4  11  20  31  53  85 114 151 186 221 277 345
#     4  10  22  41  61  88 121 156 198 245 296 353
#     4  10  20  34  54  82 117 154 191 233 279 340
#     4   9  19  34  53  80 117 154 188 227 273 339
#     4  11  25  43  63  87 115 152 202 255 305 353
#
# _framework density 20.391501000000002
#
# number of rings (size 3 to 8) (size 9 to 14) (size 15 to 20)
#    0.000    2.000    1.429    1.286    2.000    5.143 
#    0.000    1.429    0.000    0.000    0.000    0.000 
#    0.000    0.000    0.000    0.000    0.000    0.000 
#
# Total GULP energy -156117.672059 kJ/mol
# GULP energy per Si atom -5575.631145 kJ/mol
# Density = 2.034509 g / cm^3
# Si number density = 20.391501 Si / 1000 Ang^3
#
#
#
# Elastic Constant Matrix: (Units=GPa)
#
#
# Indices 1 2 3 4 5 6 
#
# 1 35.4048 -1.9294 56.0422 0.0000 -2.1499 0.0000
# 2 -1.9294 101.8461 3.7511 0.0000 4.7950 0.0000
# 3 56.0422 3.7511 137.3649 0.0000 3.1013 0.0000
# 4 0.0000 0.0000 0.0000 12.0430 0.0000 -5.0420
# 5 -2.1499 4.7950 3.1013 0.0000 24.2784 0.0000
# 6 0.0000 0.0000 0.0000 -5.0420 0.0000 15.7121
#
#
#
# Elastic Compliance Matrix: (Units=1/GPa)
#
#
# Indices 1 2 3 4 5 6 
#
# 1 0.083463 0.002314 -0.034370 0.000000 0.011324 0.000000
# 2 0.002314 0.009982 -0.001180 0.000000 -0.001616 0.000000
# 3 -0.034370 -0.001180 0.021460 0.000000 -0.005552 0.000000
# 4 0.000000 0.000000 0.000000 0.095923 0.000000 0.030781
# 5 0.011324 -0.001616 -0.005552 0.000000 0.043220 0.000000
# 6 0.000000 0.000000 0.000000 0.030781 0.000000 0.073523
#
#
# Mechanical properties :
#
#
# Convention : Reuss Voigt Hill
#
# Bulk Modulus (GPa) = 20.64751 43.37152 32.00951
# Shear Modulus (GPa) = 12.18959 24.85684 18.52321
#
# Velocity S-wave (km/s) = 2.44760 3.49518 3.01720
# Velocity P-wave (km/s) = 4.25854 6.13221 5.27916
#
# Compressibility (1/GPa) = 0.04843200
#
# Stress axis : x y z
#
# Youngs Moduli (GPa) = 11.98142 100.17918 46.59898
#
# Poissons Ratio (x) = -0.23180 1.60160
# Poissons Ratio (y) = -0.02772 0.05499
# Poissons Ratio (z) = 0.41180 0.11822
#
# Static dielectric constant tensor:
#      x y z
#    x 1.787320 0.000000 -0.004300 
#    y 0.000000 1.813410 0.000000 
#    z -0.004300 0.000000 1.728160 
# 
# From -- ./inp_files/214280.got.cif
#   From: 2010.05.17/outbox.cif.g08.bks.cpg/sg12_108_cif.got.tgz:214280.got - 2010.06.03 13:09:07.
