data_PCOD9193880
_publ_section_title
;
Structure prediction by ZEFSAII (Michael W. Deem and Ramdas Pophale) SiO2 
 PCOD9193880
Probable space group: C 2/M
;
_chemical_formula_sum "Si O2"
_cell_formula_units_Z 64
_cell_length_a 28.592039
_cell_length_b 18.301737
_cell_length_c 22.103921
_cell_angle_alpha 90.000000
_cell_angle_beta 18.406909
_cell_angle_gamma 90.000000
_cell_volume 3652.318325
_symmetry_space_group_name_H-M "C 2/M"
_symmetry_group_IT_number 12
_symmetry_cell_setting 'monoclinic'
loop_
_space_group_symop_operation_xyz
x,y,z
-x,y,-z
-x,-y,-z
x,-y,z
1/2+x,1/2+y,z
1/2-x,1/2+y,-z
1/2-x,1/2-y,-z
1/2+x,1/2-y,z
loop_
_atom_site_type_symbol
_atom_site_label
_atom_site_fract_x
_atom_site_fract_y
_atom_site_fract_z
Si Si1 0.964731 0.413098 0.324306
Si Si2 0.856117 0.815087 0.064018
Si Si3 0.830574 0.314983 0.590844
Si Si4 0.910110 0.776209 0.667746
Si Si5 0.096830 0.707480 0.822430
Si Si6 0.219729 0.834038 0.056095
Si Si7 0.457237 0.414222 0.832547
Si Si8 0.190564 0.414802 0.613657
O O1 0.975661 0.500000 0.319592
O O2 0.869437 0.375957 0.494335
O O3 0.888982 0.399076 0.352481
O O4 0.125449 0.375916 0.128300
O O5 0.776516 0.840646 0.223475
O O6 0.736678 0.763301 0.177050
O O7 0.901617 0.879130 0.963265
O O8 0.997844 0.766773 0.908100
O O9 0.744669 0.248104 0.664053
O O10 0.980735 0.283810 0.436337
O O11 0.863715 0.831458 0.777198
O O12 0.000000 0.807519 0.500000
O O13 0.133176 0.639727 0.735254
O O14 0.000000 0.686136 0.000000
O O15 0.121822 0.871936 0.124990
O O16 0.250000 0.750000 0.000000
O O17 0.422341 0.500000 0.872555
O O18 0.633708 0.405096 0.610545
O O19 0.163072 0.500000 0.662633
#
# Coordination Sequence:
#
# PCOD9193880 Si02
#       8
#     8   8   8   8   8   8   8   8
#     4  11  23  38  56  84 117 150 188 234 282 341
#     4  10  20  35  55  83 112 146 186 229 278 336
#     4  10  20  35  55  83 112 146 186 229 278 336
#     4  10  20  34  54  82 113 139 184 236 277 327
#     4  10  21  36  58  84 110 144 192 236 277 335
#     4  12  21  36  61  86 109 151 192 233 285 329
#     4  11  23  38  56  84 117 150 188 234 282 341
#     4  10  23  38  56  82 116 150 187 235 285 331
#
# _framework density 17.523116999999999
#
# number of rings (size 3 to 8) (size 9 to 14) (size 15 to 20)
#    0.000    1.500    2.500    2.625    0.000    1.750 
#    0.000    0.000    0.000   11.250    0.000    0.000 
#    0.000    0.000    0.000    0.000    0.000    0.000 
#
# Total GULP energy -178757.705636 kJ/mol
# GULP energy per Si atom -5586.178301 kJ/mol
# Density = 1.748323 g / cm^3
# Si number density = 17.523117 Si / 1000 Ang^3
#
#
#
# Elastic Constant Matrix: (Units=GPa)
#
#
# Indices 1 2 3 4 5 6 
#
# 1 126.2048 69.5995 48.1839 -0.0003 14.9617 -0.0011
# 2 69.5995 80.5507 44.0453 -0.0048 28.8947 -0.0011
# 3 48.1839 44.0453 59.2076 -0.0024 19.5156 -0.0035
# 4 -0.0003 -0.0048 -0.0024 16.4310 -0.0014 -0.5952
# 5 14.9617 28.8947 19.5156 -0.0014 44.1503 0.0008
# 6 -0.0011 -0.0011 -0.0035 -0.5952 0.0008 25.5418
#
#
#
# Elastic Compliance Matrix: (Units=1/GPa)
#
#
# Indices 1 2 3 4 5 6 
#
# 1 0.016814 -0.013555 -0.005438 -0.000004 0.005577 -0.000001
# 2 -0.013555 0.034566 -0.010231 0.000007 -0.013506 0.000000
# 3 -0.005438 -0.010231 0.030565 0.000001 -0.004972 0.000004
# 4 -0.000004 0.000007 0.000001 0.060912 -0.000002 0.001419
# 5 0.005577 -0.013506 -0.004972 -0.000002 0.031797 -0.000002
# 6 -0.000001 0.000000 0.000004 0.001419 -0.000002 0.039185
#
#
# Mechanical properties :
#
#
# Convention : Reuss Voigt Hill
#
# Bulk Modulus (GPa) = 42.55862 65.51338 54.03600
# Shear Modulus (GPa) = 17.84958 24.16691 21.00825
#
# Velocity S-wave (km/s) = 3.19506 3.71771 3.46625
# Velocity P-wave (km/s) = 6.16044 7.47640 6.85009
#
# Compressibility (1/GPa) = 0.02349700
#
# Stress axis : x y z
#
# Youngs Moduli (GPa) = 59.47403 28.93007 32.71745
#
# Poissons Ratio (x) = 0.39216 0.17791
# Poissons Ratio (y) = 0.80619 0.33473
# Poissons Ratio (z) = 0.32341 0.29598
#
# Static dielectric constant tensor:
#      x y z
#    x 1.595090 0.000000 0.005130 
#    y 0.000000 1.552290 0.000000 
#    z 0.005130 0.000000 1.591500 
# 
# From -- ./inp_files/87980.got.cif
#   From: 2010.05.17/outbox.cif.g08.bks.cpg/sg12_44_cif.got.tgz:87980.got - 2010.06.03 13:09:07.
