data_PCOD9193965
_publ_section_title
;
Structure prediction by ZEFSAII (Michael W. Deem and Ramdas Pophale) SiO2 
 PCOD9193965
Probable space group: C 2/M
;
_chemical_formula_sum "Si O2"
_cell_formula_units_Z 58
_cell_length_a 24.547782
_cell_length_b 9.403020
_cell_length_c 27.247358
_cell_angle_alpha 90.000000
_cell_angle_beta 25.816330
_cell_angle_gamma 90.000000
_cell_volume 2738.923438
_symmetry_space_group_name_H-M "C 2/M"
_symmetry_group_IT_number 12
_symmetry_cell_setting 'monoclinic'
loop_
_space_group_symop_operation_xyz
x,y,z
-x,y,-z
-x,-y,-z
x,-y,z
1/2+x,1/2+y,z
1/2-x,1/2+y,-z
1/2-x,1/2-y,-z
1/2+x,1/2-y,z
loop_
_atom_site_type_symbol
_atom_site_label
_atom_site_fract_x
_atom_site_fract_y
_atom_site_fract_z
Si Si1 0.502325 0.227783 0.567249
Si Si2 0.008683 0.170171 0.668122
Si Si3 0.766653 0.162800 0.319054
Si Si4 0.500000 0.500000 0.500000
Si Si5 0.391691 0.662575 0.311449
Si Si6 0.655780 0.338085 0.042684
Si Si7 0.208198 0.331523 0.906291
Si Si8 0.716693 0.661980 0.801472
O O1 0.544397 0.253170 0.589110
O O2 0.616990 0.159112 0.445094
O O3 0.481177 0.376932 0.557382
O O4 0.368203 0.154224 0.678967
O O5 0.084962 0.224551 0.653560
O O6 0.857898 0.187207 0.795410
O O7 0.029158 0.000000 0.647655
O O8 0.813612 0.234869 0.331058
O O9 0.810247 0.222479 0.231324
O O10 0.813462 0.000000 0.281045
O O11 0.343157 0.500000 0.357705
O O12 0.528459 0.653587 0.176338
O O13 0.699818 0.500000 0.997960
O O14 0.750000 0.250000 0.000000
O O15 0.640037 0.254812 0.004510
O O16 0.182382 0.500000 0.928052
O O17 0.179706 0.261858 0.876574
O O18 0.668689 0.500000 0.845643
#
# Coordination Sequence:
#
# PCOD9193965 Si02
#       8
#     8   8   8   2   8   8   8   8
#     4  11  20  31  55  77 112 145 189 230 273 327
#     4   9  17  31  50  78 105 139 180 225 267 323
#     4  10  20  35  54  76 107 147 185 229 276 329
#     4  12  20  32  50  88 104 154 194 228 280 340
#     4   9  19  35  55  78 106 143 186 225 277 333
#     4  11  20  35  60  85 111 144 185 232 279 334
#     4  10  20  34  58  84 111 142 180 231 285 334
#     4  10  20  34  54  84 109 139 185 235 279 322
#
# _framework density 21.176203000000001
#
# number of rings (size 3 to 8) (size 9 to 14) (size 15 to 20)
#    0.000    1.931    3.448    1.241    0.966    1.655 
#    0.000    0.690    3.034    4.138    0.000    0.000 
#    0.000    0.000    0.000    0.000    0.000    0.000 
#
# Total GULP energy -161452.617206 kJ/mol
# GULP energy per Si atom -5567.331628 kJ/mol
# Density = 2.112800 g / cm^3
# Si number density = 21.176203 Si / 1000 Ang^3
#
#
#
# Elastic Constant Matrix: (Units=GPa)
#
#
# Indices 1 2 3 4 5 6 
#
# 1 131.4307 25.2689 9.3316 0.0008 42.4546 -0.0006
# 2 25.2689 85.8524 6.6896 0.0013 17.1945 -0.0007
# 3 9.3316 6.6896 23.8716 0.0013 18.0790 -0.0003
# 4 0.0008 0.0013 0.0013 24.2274 -0.0007 9.1238
# 5 42.4546 17.1945 18.0790 -0.0007 42.3171 0.0003
# 6 -0.0006 -0.0007 -0.0003 9.1238 0.0003 20.3036
#
#
#
# Elastic Compliance Matrix: (Units=1/GPa)
#
#
# Indices 1 2 3 4 5 6 
#
# 1 0.012006 -0.001167 0.006500 -0.000002 -0.014348 0.000001
# 2 -0.001167 0.012797 -0.000116 -0.000001 -0.003980 0.000001
# 3 0.006500 -0.000116 0.065468 -0.000006 -0.034444 0.000005
# 4 -0.000002 -0.000001 -0.000006 0.049683 0.000006 -0.022326
# 5 -0.014348 -0.003980 -0.034444 0.000006 0.054358 -0.000004
# 6 0.000001 0.000001 0.000005 -0.022326 -0.000004 0.059285
#
#
# Mechanical properties :
#
#
# Convention : Reuss Voigt Hill
#
# Bulk Modulus (GPa) = 9.92986 35.97057 22.95021
# Shear Modulus (GPa) = 18.06802 30.69394 24.38098
#
# Velocity S-wave (km/s) = 2.92417 3.81130 3.39682
# Velocity P-wave (km/s) = 4.01252 6.03251 5.12306
#
# Compressibility (1/GPa) = 0.10070637
#
# Stress axis : x y z
#
# Youngs Moduli (GPa) = 83.29140 78.14083 15.27460
#
# Poissons Ratio (x) = 0.09116 -0.09929
# Poissons Ratio (y) = 0.09717 0.00177
# Poissons Ratio (z) = -0.54140 0.00907
#
# Static dielectric constant tensor:
#      x y z
#    x 1.857120 0.000000 -0.019190 
#    y 0.000000 1.739460 0.000000 
#    z -0.019190 0.000000 1.761830 
# 
# From -- ./inp_files/237556.got.cif
#   From: 2010.05.17/outbox.cif.g08.bks.cpg/sg12_119_cif.got.tgz:237556.got - 2010.06.03 13:09:07.
