data_PCOD9193486
_publ_section_title
;
Structure prediction by ZEFSAII (Michael W. Deem and Ramdas Pophale) SiO2 
 PCOD9193486
Probable space group: C 2/M
;
_chemical_formula_sum "Si O2"
_cell_formula_units_Z 64
_cell_length_a 18.603882
_cell_length_b 13.957648
_cell_length_c 12.036262
_cell_angle_alpha 90.000000
_cell_angle_beta 87.829276
_cell_angle_gamma 90.000000
_cell_volume 3123.170467
_symmetry_space_group_name_H-M "C 2/M"
_symmetry_group_IT_number 12
_symmetry_cell_setting 'monoclinic'
loop_
_space_group_symop_operation_xyz
x,y,z
-x,y,-z
-x,-y,-z
x,-y,z
1/2+x,1/2+y,z
1/2-x,1/2+y,-z
1/2-x,1/2-y,-z
1/2+x,1/2-y,z
loop_
_atom_site_type_symbol
_atom_site_label
_atom_site_fract_x
_atom_site_fract_y
_atom_site_fract_z
Si Si1 0.805963 0.807424 0.575567
Si Si2 0.119876 0.611661 0.124219
Si Si3 0.521004 0.892496 0.713779
Si Si4 0.463903 0.716512 0.607776
Si Si5 0.604778 0.211643 0.897248
Si Si6 0.030780 0.109577 0.793713
Si Si7 0.326411 0.599636 0.357689
Si Si8 0.245646 0.747892 0.208299
O O1 0.750000 0.750000 0.500000
O O2 0.882109 0.754439 0.588093
O O3 0.826089 0.891654 0.489754
O O4 0.780252 0.829262 0.702534
O O5 0.143293 0.500000 0.107000
O O6 0.182034 0.685037 0.159443
O O7 0.054928 0.609478 0.216040
O O8 0.089842 0.657398 0.012265
O O9 0.513100 0.809967 0.623851
O O10 0.580149 0.855990 0.797442
O O11 0.535068 0.000000 0.673457
O O12 0.500000 0.664698 0.500000
O O13 0.467736 0.656313 0.722733
O O14 0.561475 0.312363 0.880672
O O15 0.690932 0.226007 0.880195
O O16 0.094669 0.103669 0.699039
O O17 0.017237 0.000000 0.833820
O O18 0.291179 0.500000 0.327123
O O19 0.283950 0.679697 0.295350
#
# Coordination Sequence:
#
# PCOD9193486 Si02
#       8
#     8   8   8   8   8   8   8   8
#     4  10  20  34  53  79 115 150 182 226 284 344
#     4  11  21  37  63  90 113 147 198 249 290 341
#     4  10  22  39  60  87 117 151 194 242 288 342
#     4  11  20  35  59  86 115 150 190 236 284 338
#     4  10  21  37  60  84 113 152 192 240 294 340
#     4   9  19  34  57  84 110 143 189 235 277 333
#     4   9  17  32  53  79 107 144 186 226 271 331
#     4  10  20  36  55  82 116 151 184 236 290 347
#
# _framework density 20.491997999999999
#
# number of rings (size 3 to 8) (size 9 to 14) (size 15 to 20)
#    0.000    2.000    2.500    1.500    1.750    2.500 
#    0.000    1.250    0.000    6.750    0.000    0.000 
#    0.000    0.000    0.000    0.000    0.000    0.000 
#
# Total GULP energy -178136.855696 kJ/mol
# GULP energy per Si atom -5566.776741 kJ/mol
# Density = 2.044536 g / cm^3
# Si number density = 20.491998 Si / 1000 Ang^3
#
#
#
# Elastic Constant Matrix: (Units=GPa)
#
#
# Indices 1 2 3 4 5 6 
#
# 1 78.0436 -3.9876 4.3659 0.0000 18.4026 0.0000
# 2 -3.9876 55.2919 0.9021 0.0000 4.3085 0.0000
# 3 4.3659 0.9021 58.4160 0.0000 7.3895 0.0000
# 4 0.0000 0.0000 0.0000 -9.6897 0.0000 -22.2680
# 5 18.4026 4.3085 7.3895 0.0000 25.2127 0.0000
# 6 0.0000 0.0000 0.0000 -22.2680 0.0000 -0.5288
#
#
#
# Elastic Compliance Matrix: (Units=1/GPa)
#
#
# Indices 1 2 3 4 5 6 
#
# 1 0.015709 0.002056 0.000300 0.000000 -0.011905 0.000000
# 2 0.002056 0.018600 0.000157 0.000000 -0.004725 0.000000
# 3 0.000300 0.000157 0.017784 0.000000 -0.005458 0.000000
# 4 0.000000 0.000000 0.000000 0.001078 0.000000 -0.045376
# 5 -0.011905 -0.004725 -0.005458 0.000000 0.050759 0.000000
# 6 0.000000 0.000000 0.000000 -0.045376 0.000000 0.019745
#
#
# Mechanical properties :
#
#
# Convention : Reuss Voigt Hill
#
# Bulk Modulus (GPa) = 17.50760 21.59024 19.54892
# Shear Modulus (GPa) = 36.31389 15.69692 26.00541
#
# Velocity S-wave (km/s) = 4.21420 2.77068 3.56624
# Velocity P-wave (km/s) = 5.67816 4.56008 5.14955
#
# Compressibility (1/GPa) = 0.05711805
#
# Stress axis : x y z
#
# Youngs Moduli (GPa) = 63.65860 53.76429 56.22971
#
# Poissons Ratio (x) = -0.11052 -0.01688
# Poissons Ratio (y) = -0.13086 -0.00882
# Poissons Ratio (z) = -0.01911 -0.00843
#
# Static dielectric constant tensor:
#      x y z
#    x 1.829480 0.000000 -0.039390 
#    y 0.000000 1.781990 0.000000 
#    z -0.039390 0.000000 1.765410 
# 
# From -- ./inp_files/156616.got.cif
#   From: 2010.05.17/outbox.cif.g08.bks.cpg/sg12_79_cif.got.tgz:156616.got - 2010.06.03 13:09:07.
