data_PCOD9193462
_publ_section_title
;
Structure prediction by ZEFSAII (Michael W. Deem and Ramdas Pophale) SiO2 
 PCOD9193462
Probable space group: C 2/M
;
_chemical_formula_sum "Si O2"
_cell_formula_units_Z 56
_cell_length_a 25.627421
_cell_length_b 8.693052
_cell_length_c 26.122022
_cell_angle_alpha 90.000000
_cell_angle_beta 34.588335
_cell_angle_gamma 90.000000
_cell_volume 3303.578411
_symmetry_space_group_name_H-M "C 2/M"
_symmetry_group_IT_number 12
_symmetry_cell_setting 'monoclinic'
loop_
_space_group_symop_operation_xyz
x,y,z
-x,y,-z
-x,-y,-z
x,-y,z
1/2+x,1/2+y,z
1/2-x,1/2+y,-z
1/2-x,1/2-y,-z
1/2+x,1/2-y,z
loop_
_atom_site_type_symbol
_atom_site_label
_atom_site_fract_x
_atom_site_fract_y
_atom_site_fract_z
Si Si1 0.351376 0.185603 0.907880
Si Si2 0.824085 0.183574 0.112461
Si Si3 0.463815 0.814307 0.917158
Si Si4 0.477695 0.682938 0.595757
Si Si5 0.169782 0.316257 0.778521
Si Si6 0.360498 0.183208 0.596908
Si Si7 0.623088 0.815193 0.228342
O O1 0.418412 0.231712 0.899896
O O2 0.384255 0.232971 0.824829
O O3 0.345714 0.000000 0.912185
O O4 0.250000 0.250000 0.000000
O O5 0.829062 0.264899 0.163195
O O6 0.726560 0.219404 0.164269
O O7 0.828937 0.000000 0.115816
O O8 0.905304 0.239427 0.009968
O O9 0.570752 0.773641 0.835486
O O10 0.456611 0.000000 0.927792
O O11 0.474082 0.500000 0.593234
O O12 0.576987 0.744251 0.498071
O O13 0.406149 0.757293 0.613052
O O14 0.447122 0.734596 0.676562
O O15 0.180803 0.500000 0.766760
O O16 0.255631 0.236918 0.681578
O O17 0.367450 0.000000 0.589910
O O18 0.610937 0.000000 0.241601
#
# Coordination Sequence:
#
# PCOD9193462 Si02
#       7
#     8   8   8   8   8   8   8
#     4  10  20  36  56  77 104 140 181 224 267 309
#     4  11  21  33  52  79 110 145 179 217 265 319
#     4  10  22  37  54  76 107 145 184 223 266 313
#     4  11  21  34  55  82 109 140 174 216 266 320
#     4  11  22  36  53  77 109 145 181 220 264 319
#     4  11  21  35  55  79 109 141 174 218 266 319
#     4  10  20  34  53  79 111 142 175 220 268 313
#
# _framework density 16.951315999999998
#
# number of rings (size 3 to 8) (size 9 to 14) (size 15 to 20)
#    0.000    1.429    2.857    4.714    0.000    4.000 
#    0.000    0.000    0.000    0.857    0.000    0.000 
#    0.000    0.000    0.000    0.000    0.000    0.000 
#
# Total GULP energy -156444.266818 kJ/mol
# GULP energy per Si atom -5587.295244 kJ/mol
# Density = 1.691273 g / cm^3
# Si number density = 16.951316 Si / 1000 Ang^3
#
#
#
# Elastic Constant Matrix: (Units=GPa)
#
#
# Indices 1 2 3 4 5 6 
#
# 1 66.3171 21.3140 42.8508 0.0016 -9.4546 -0.0025
# 2 21.3140 53.7368 36.7365 -0.0027 -3.9762 0.0008
# 3 42.8508 36.7365 137.1975 0.0009 -1.3297 -0.0003
# 4 0.0016 -0.0027 0.0009 32.6485 -0.0001 -0.4847
# 5 -9.4546 -3.9762 -1.3297 -0.0001 23.4020 0.0003
# 6 -0.0025 0.0008 -0.0003 -0.4847 0.0003 14.4793
#
#
#
# Elastic Compliance Matrix: (Units=1/GPa)
#
#
# Indices 1 2 3 4 5 6 
#
# 1 0.020922 -0.004075 -0.005371 -0.000001 0.007455 0.000004
# 2 -0.004075 0.023867 -0.005098 0.000002 0.002119 -0.000002
# 3 -0.005371 -0.005098 0.010308 0.000000 -0.002450 0.000000
# 4 -0.000001 0.000002 0.000000 0.030644 0.000000 0.001026
# 5 0.007455 0.002119 -0.002450 0.000000 0.045964 0.000000
# 6 0.000004 -0.000002 0.000000 0.001026 0.000000 0.069098
#
#
# Mechanical properties :
#
#
# Convention : Reuss Voigt Hill
#
# Bulk Modulus (GPa) = 38.44737 51.00600 44.72669
# Shear Modulus (GPa) = 20.95899 24.52931 22.74415
#
# Velocity S-wave (km/s) = 3.52010 3.80813 3.66694
# Velocity P-wave (km/s) = 6.26512 7.03497 6.66118
#
# Compressibility (1/GPa) = 0.02600958
#
# Stress axis : x y z
#
# Youngs Moduli (GPa) = 47.79609 41.89860 97.01635
#
# Poissons Ratio (x) = 0.17073 0.52110
# Poissons Ratio (y) = 0.19476 0.49454
# Poissons Ratio (z) = 0.25673 0.21358
#
# Static dielectric constant tensor:
#      x y z
#    x 1.560360 0.000000 -0.000610 
#    y 0.000000 1.571690 0.000000 
#    z -0.000610 0.000000 1.560170 
# 
# From -- ./inp_files/348475.got.cif
#   From: 2010.05.17/outbox.cif.g08.bks.cpg/sg12_175_cif.got.tgz:348475.got - 2010.06.03 13:09:07.
