data_PCOD9193836
_publ_section_title
;
Structure prediction by ZEFSAII (Michael W. Deem and Ramdas Pophale) SiO2 
 PCOD9193836
Probable space group: C 2/M
;
_chemical_formula_sum "Si O2"
_cell_formula_units_Z 48
_cell_length_a 19.823644
_cell_length_b 8.601982
_cell_length_c 16.177477
_cell_angle_alpha 90.000000
_cell_angle_beta 102.939153
_cell_angle_gamma 90.000000
_cell_volume 2688.580005
_symmetry_space_group_name_H-M "C 2/M"
_symmetry_group_IT_number 12
_symmetry_cell_setting 'monoclinic'
loop_
_space_group_symop_operation_xyz
x,y,z
-x,y,-z
-x,-y,-z
x,-y,z
1/2+x,1/2+y,z
1/2-x,1/2+y,-z
1/2-x,1/2-y,-z
1/2+x,1/2-y,z
loop_
_atom_site_type_symbol
_atom_site_label
_atom_site_fract_x
_atom_site_fract_y
_atom_site_fract_z
Si Si1 0.770267 0.813738 0.594624
Si Si2 0.195907 0.186475 0.735269
Si Si3 0.441857 0.186361 0.223981
Si Si4 0.068776 0.310721 0.968773
Si Si5 0.409217 0.685920 0.723717
Si Si6 0.833069 0.312314 0.863338
O O1 0.750000 0.750000 0.500000
O O2 0.721894 0.745357 0.653546
O O3 0.848967 0.771602 0.642211
O O4 0.764897 0.000000 0.594103
O O5 0.122385 0.253400 0.740966
O O6 0.255708 0.237070 0.817186
O O7 0.193382 0.000000 0.734132
O O8 0.432816 0.241759 0.126211
O O9 0.515732 0.247119 0.275219
O O10 0.442481 0.000000 0.224231
O O11 0.068130 0.500000 0.967051
O O12 0.135414 0.261238 0.040506
O O13 0.000000 0.262368 0.000000
O O14 0.412584 0.500000 0.729912
O O15 0.383282 0.752524 0.804508
O O16 0.834786 0.500000 0.861844
#
# Coordination Sequence:
#
# PCOD9193836 Si02
#       6
#     8   8   8   8   8   8
#     4  10  21  39  63  87 109 137 174 217 267 328
#     4  10  21  36  55  80 113 145 179 225 274 322
#     4  11  21  34  54  78 110 150 187 225 271 319
#     4   9  16  29  51  77 105 142 191 233 264 309
#     4  10  20  34  54  81 111 140 176 222 270 319
#     4   9  17  33  54  75 103 147 191 224 266 319
#
# _framework density 17.853290999999999
#
# number of rings (size 3 to 8) (size 9 to 14) (size 15 to 20)
#    0.000    2.167    1.667    2.000    0.000    3.333 
#    0.000    3.333    0.000    5.000    0.000    0.000 
#    0.000    0.000    0.000    0.000    0.000    0.000 
#
# Total GULP energy -133939.945038 kJ/mol
# GULP energy per Si atom -5580.831043 kJ/mol
# Density = 1.781266 g / cm^3
# Si number density = 17.853291 Si / 1000 Ang^3
#
#
#
# Elastic Constant Matrix: (Units=GPa)
#
#
# Indices 1 2 3 4 5 6 
#
# 1 166.7646 35.7436 72.2885 0.0000 -0.0258 0.0000
# 2 35.7436 28.7992 26.8270 0.0000 3.8156 0.0000
# 3 72.2885 26.8270 119.6707 0.0000 15.2197 0.0000
# 4 0.0000 0.0000 0.0000 18.8404 0.0000 -2.2280
# 5 -0.0258 3.8156 15.2197 0.0000 18.7272 0.0000
# 6 0.0000 0.0000 0.0000 -2.2280 0.0000 27.3487
#
#
#
# Elastic Compliance Matrix: (Units=1/GPa)
#
#
# Indices 1 2 3 4 5 6 
#
# 1 0.009912 -0.008599 -0.004778 0.000000 0.005649 0.000000
# 2 -0.008599 0.051367 -0.005563 0.000000 -0.005956 0.000000
# 3 -0.004778 -0.005563 0.013769 0.000000 -0.010064 0.000000
# 4 0.000000 0.000000 0.000000 0.053594 0.000000 0.004366
# 5 0.005649 -0.005956 -0.010064 0.000000 0.062798 0.000000
# 6 0.000000 0.000000 0.000000 0.004366 0.000000 0.036920
#
#
# Mechanical properties :
#
#
# Convention : Reuss Voigt Hill
#
# Bulk Modulus (GPa) = 26.90505 64.99475 45.94990
# Shear Modulus (GPa) = 17.94488 25.00829 21.47658
#
# Velocity S-wave (km/s) = 3.17382 3.74674 3.47212
# Velocity P-wave (km/s) = 5.34169 7.42976 6.47051
#
# Compressibility (1/GPa) = 0.03716774
#
# Stress axis : x y z
#
# Youngs Moduli (GPa) = 100.89208 19.46757 72.62491
#
# Poissons Ratio (x) = 0.16741 0.34699
# Poissons Ratio (y) = 0.86760 0.40403
# Poissons Ratio (z) = 0.48205 0.10830
#
# Static dielectric constant tensor:
#      x y z
#    x 1.604190 0.000000 0.031280 
#    y 0.000000 1.601170 0.000000 
#    z 0.031280 0.000000 1.593060 
# 
# From -- ./inp_files/221634.got.cif
#   From: 2010.05.17/outbox.cif.g08.bks.cpg/sg12_111_cif.got.tgz:221634.got - 2010.06.03 13:09:07.
