data_PCOD9193391
_publ_section_title
;
Structure prediction by ZEFSAII (Michael W. Deem and Ramdas Pophale) SiO2 
 PCOD9193391
Probable space group: C 2/M
;
_chemical_formula_sum "Si O2"
_cell_formula_units_Z 40
_cell_length_a 27.590653
_cell_length_b 7.461801
_cell_length_c 13.282016
_cell_angle_alpha 90.000000
_cell_angle_beta 121.502434
_cell_angle_gamma 90.000000
_cell_volume 2331.439344
_symmetry_space_group_name_H-M "C 2/M"
_symmetry_group_IT_number 12
_symmetry_cell_setting 'monoclinic'
loop_
_space_group_symop_operation_xyz
x,y,z
-x,y,-z
-x,-y,-z
x,-y,z
1/2+x,1/2+y,z
1/2-x,1/2+y,-z
1/2-x,1/2-y,-z
1/2+x,1/2-y,z
loop_
_atom_site_type_symbol
_atom_site_label
_atom_site_fract_x
_atom_site_fract_y
_atom_site_fract_z
Si Si1 0.088836 0.216952 0.565462
Si Si2 0.980049 0.783783 0.314410
Si Si3 0.976192 0.500000 0.137522
Si Si4 0.592780 0.000000 0.138733
Si Si5 0.801393 0.782796 0.429057
Si Si6 0.173418 0.795130 0.314420
O O1 0.066437 0.268205 0.651178
O O2 0.150581 0.277756 0.596836
O O3 0.040651 0.264948 0.431351
O O4 0.089616 0.000000 0.566645
O O5 0.971839 0.673159 0.204517
O O6 0.978706 0.000000 0.298899
O O7 0.037282 0.500000 0.149301
O O8 0.929275 0.500000 0.999207
O O9 0.631300 0.829463 0.207557
O O10 0.820994 0.731638 0.563265
O O11 0.737875 0.714309 0.343253
O O12 0.798416 0.000000 0.424699
O O13 0.153668 0.000000 0.293916
#
# Coordination Sequence:
#
# PCOD9193391 Si02
#       6
#     8   8   4   4   8   8
#     4   8  15  29  54  83 113 139 163 210 271 318
#     4   9  18  35  53  80 112 137 171 215 261 316
#     4  11  24  37  56  76  98 147 184 213 267 293
#     4  11  24  40  52  74 108 137 182 227 249 310
#     4   9  16  30  53  83 111 138 165 207 269 322
#     4  10  20  34  53  78 108 140 172 212 265 312
#
# _framework density 17.156783999999998
#
# number of rings (size 3 to 8) (size 9 to 14) (size 15 to 20)
#    0.000    2.600    1.000    2.400    1.400    4.800 
#    3.600    2.000    0.000    1.200    0.000    0.000 
#    0.000    0.000    0.000    0.000    0.000    0.000 
#
# Total GULP energy -111598.947596 kJ/mol
# GULP energy per Si atom -5579.947380 kJ/mol
# Density = 1.711773 g / cm^3
# Si number density = 17.156784 Si / 1000 Ang^3
#
#
#
# Elastic Constant Matrix: (Units=GPa)
#
#
# Indices 1 2 3 4 5 6 
#
# 1 109.8003 26.3203 57.3097 0.0000 1.7140 0.0000
# 2 26.3203 86.2621 56.6400 0.0000 -0.8309 0.0000
# 3 57.3097 56.6400 129.0705 0.0000 -1.1889 0.0000
# 4 0.0000 0.0000 0.0000 31.1696 0.0000 -5.3877
# 5 1.7140 -0.8309 -1.1889 0.0000 19.8658 0.0000
# 6 0.0000 0.0000 0.0000 -5.3877 0.0000 17.4483
#
#
#
# Elastic Compliance Matrix: (Units=1/GPa)
#
#
# Indices 1 2 3 4 5 6 
#
# 1 0.011894 -0.000234 -0.005191 0.000000 -0.001347 0.000000
# 2 -0.000234 0.016291 -0.007043 0.000000 0.000280 0.000000
# 3 -0.005191 -0.007043 0.013152 0.000000 0.000940 0.000000
# 4 0.000000 0.000000 0.000000 0.033891 0.000000 0.010465
# 5 -0.001347 0.000280 0.000940 0.000000 0.050522 0.000000
# 6 0.000000 0.000000 0.000000 0.010465 0.000000 0.060544
#
#
# Mechanical properties :
#
#
# Convention : Reuss Voigt Hill
#
# Bulk Modulus (GPa) = 60.96806 67.29700 64.13253
# Shear Modulus (GPa) = 23.07392 26.02093 24.54742
#
# Velocity S-wave (km/s) = 3.67125 3.89865 3.78666
# Velocity P-wave (km/s) = 7.32009 7.71854 7.52195
#
# Compressibility (1/GPa) = 0.01640203
#
# Stress axis : x y z
#
# Youngs Moduli (GPa) = 84.07691 61.38466 76.03556
#
# Poissons Ratio (x) = 0.01434 0.39470
# Poissons Ratio (y) = 0.01964 0.53548
# Poissons Ratio (z) = 0.43644 0.43230
#
# Static dielectric constant tensor:
#      x y z
#    x 1.600510 0.000000 -0.002280 
#    y 0.000000 1.623980 0.000000 
#    z -0.002280 0.000000 1.528010 
# 
# From -- ./inp_files/179079.got.cif
#   From: 2010.05.17/outbox.cif.g08.bks.cpg/sg12_90_cif.got.tgz:179079.got - 2010.06.03 13:09:07.
