data_PCOD9193455
_publ_section_title
;
Structure prediction by ZEFSAII (Michael W. Deem and Ramdas Pophale) SiO2 
 PCOD9193455
Probable space group: C 2/M
;
_chemical_formula_sum "Si O2"
_cell_formula_units_Z 48
_cell_length_a 18.697656
_cell_length_b 8.244712
_cell_length_c 28.323359
_cell_angle_alpha 90.000000
_cell_angle_beta 34.274879
_cell_angle_gamma 90.000000
_cell_volume 2458.907210
_symmetry_space_group_name_H-M "C 2/M"
_symmetry_group_IT_number 12
_symmetry_cell_setting 'monoclinic'
loop_
_space_group_symop_operation_xyz
x,y,z
-x,y,-z
-x,-y,-z
x,-y,z
1/2+x,1/2+y,z
1/2-x,1/2+y,-z
1/2-x,1/2-y,-z
1/2+x,1/2-y,z
loop_
_atom_site_type_symbol
_atom_site_label
_atom_site_fract_x
_atom_site_fract_y
_atom_site_fract_z
Si Si1 0.718510 0.695893 0.590856
Si Si2 0.646040 0.303944 0.917766
Si Si3 0.949365 0.193665 0.406763
Si Si4 0.600623 0.301433 0.754086
Si Si5 0.763172 0.695172 0.755093
Si Si6 0.308666 0.694121 0.918558
O O1 0.718949 0.500000 0.590354
O O2 0.857339 0.753871 0.499486
O O3 0.620867 0.750933 0.603078
O O4 0.671140 0.750884 0.667790
O O5 0.644183 0.500000 0.917541
O O6 0.712462 0.244961 0.833365
O O7 0.724607 0.252873 0.920675
O O8 0.500000 0.248159 0.000000
O O9 0.090914 0.259678 0.332351
O O10 0.954819 0.000000 0.402260
O O11 0.600693 0.500000 0.754082
O O12 0.675316 0.246855 0.759933
O O13 0.454307 0.248279 0.834370
O O14 0.753983 0.500000 0.760777
O O15 0.310747 0.500000 0.916843
O O16 0.250000 0.750000 0.000000
#
# Coordination Sequence:
#
# PCOD9193455 Si02
#       6
#     8   8   8   8   8   8
#     4   9  18  35  57  77 101 139 184 223 265 323
#     4  10  21  38  59  83 113 147 184 228 277 328
#     4  10  20  34  53  79 110 140 175 225 278 322
#     4   9  19  36  57  79 105 142 185 226 268 321
#     4  10  20  35  56  79 106 143 183 221 268 327
#     4  11  22  38  60  85 114 146 184 228 275 327
#
# _framework density 19.520866000000002
#
# number of rings (size 3 to 8) (size 9 to 14) (size 15 to 20)
#    0.000    2.167    0.000    3.000    0.000    6.333 
#    0.000    9.167    0.000    0.000    0.000    0.000 
#    0.000    0.000    0.000    0.000    0.000    0.000 
#
# Total GULP energy -134060.788920 kJ/mol
# GULP energy per Si atom -5585.866205 kJ/mol
# Density = 1.947644 g / cm^3
# Si number density = 19.520866 Si / 1000 Ang^3
#
#
#
# Elastic Constant Matrix: (Units=GPa)
#
#
# Indices 1 2 3 4 5 6 
#
# 1 184.9461 15.9177 138.1166 0.0018 4.5950 -0.0083
# 2 15.9177 10.4735 16.4612 0.0016 1.0806 0.0011
# 3 138.1166 16.4612 208.6643 0.0003 0.5643 0.0001
# 4 0.0018 0.0016 0.0003 19.6644 0.0005 -0.8516
# 5 4.5950 1.0806 0.5643 0.0005 42.1896 0.0024
# 6 -0.0083 0.0011 0.0001 -0.8516 0.0024 25.0900
#
#
#
# Elastic Compliance Matrix: (Units=1/GPa)
#
#
# Indices 1 2 3 4 5 6 
#
# 1 0.011055 -0.005942 -0.006846 0.000000 -0.000960 0.000004
# 2 -0.005942 0.112491 -0.004935 -0.000009 -0.002168 -0.000007
# 3 -0.006846 -0.004935 0.009711 0.000001 0.000742 -0.000002
# 4 0.000000 -0.000009 0.000001 0.050928 0.000000 0.001729
# 5 -0.000960 -0.002168 0.000742 0.000000 0.023853 -0.000003
# 6 0.000004 -0.000007 -0.000002 0.001729 -0.000003 0.039915
#
#
# Mechanical properties :
#
#
# Convention : Reuss Voigt Hill
#
# Bulk Modulus (GPa) = 10.22389 82.78609 46.50499
# Shear Modulus (GPa) = 15.82265 32.96135 24.39200
#
# Velocity S-wave (km/s) = 2.85011 4.11362 3.53871
# Velocity P-wave (km/s) = 4.00994 8.06620 6.36958
#
# Compressibility (1/GPa) = 0.09781010
#
# Stress axis : x y z
#
# Youngs Moduli (GPa) = 90.45943 8.88961 102.97604
#
# Poissons Ratio (x) = 0.05282 0.70495
# Poissons Ratio (y) = 0.53754 0.50820
# Poissons Ratio (z) = 0.61927 0.04387
#
# Static dielectric constant tensor:
#      x y z
#    x 1.662450 0.000000 0.009600 
#    y 0.000000 1.687530 0.000000 
#    z 0.009600 0.000000 1.658450 
# 
# From -- ./inp_files/281806.got.cif
#   From: 2010.05.17/outbox.cif.g08.bks.cpg/sg12_141_cif.got.tgz:281806.got - 2010.06.03 13:09:07.
