data_PCOD9193826
_publ_section_title
;
Structure prediction by ZEFSAII (Michael W. Deem and Ramdas Pophale) SiO2 
 PCOD9193826
Probable space group: C 2/M
;
_chemical_formula_sum "Si O2"
_cell_formula_units_Z 56
_cell_length_a 28.413532
_cell_length_b 7.498066
_cell_length_c 19.523224
_cell_angle_alpha 90.000000
_cell_angle_beta 143.711411
_cell_angle_gamma 90.000000
_cell_volume 2461.725486
_symmetry_space_group_name_H-M "C 2/M"
_symmetry_group_IT_number 12
_symmetry_cell_setting 'monoclinic'
loop_
_space_group_symop_operation_xyz
x,y,z
-x,y,-z
-x,-y,-z
x,-y,z
1/2+x,1/2+y,z
1/2-x,1/2+y,-z
1/2-x,1/2-y,-z
1/2+x,1/2-y,z
loop_
_atom_site_type_symbol
_atom_site_label
_atom_site_fract_x
_atom_site_fract_y
_atom_site_fract_z
Si Si1 0.580992 0.715627 0.060410
Si Si2 0.366648 0.209034 0.030815
Si Si3 0.009668 0.719310 0.288963
Si Si4 0.695912 0.708710 0.788710
Si Si5 0.019430 0.702349 0.596045
Si Si6 0.318790 0.786813 0.526541
Si Si7 0.246336 0.284110 0.694545
O O1 0.579254 0.500000 0.057715
O O2 0.661029 0.770255 0.193959
O O3 0.500000 0.779504 0.000000
O O4 0.593060 0.775474 0.996585
O O5 0.429561 0.284015 0.158515
O O6 0.356401 0.000000 0.034256
O O7 0.277133 0.282182 0.917902
O O8 0.005649 0.500000 0.284031
O O9 0.092207 0.774260 0.350256
O O10 0.013288 0.779360 0.372032
O O11 0.688039 0.500000 0.796326
O O12 0.614588 0.800773 0.714371
O O13 0.707341 0.724304 0.720047
O O14 0.986649 0.500000 0.554103
O O15 0.000000 0.788227 0.500000
O O16 0.250000 0.750000 0.500000
O O17 0.294167 0.719661 0.422393
O O18 0.323819 0.000000 0.526639
O O19 0.243392 0.500000 0.691862
#
# Coordination Sequence:
#
# PCOD9193826 Si02
#       7
#     8   8   8   8   8   8   8
#     4   9  18  31  50  75 102 135 176 224 268 307
#     4   9  19  35  52  74 107 144 177 214 262 320
#     4   9  19  36  55  77 107 142 180 219 260 319
#     4  10  20  34  54  81 110 137 173 222 271 312
#     4  10  20  36  60  83 104 140 184 218 259 320
#     4  10  21  36  55  78 105 139 178 221 267 315
#     4   9  18  34  53  74 103 140 180 217 260 319
#
# _framework density 22.748272
#
# number of rings (size 3 to 8) (size 9 to 14) (size 15 to 20)
#    0.000    2.571    0.000    1.286    2.000    4.571 
#    0.000    1.429    0.000    0.000    0.000    0.000 
#    0.000    0.000    0.000    0.000    0.000    0.000 
#
# Total GULP energy -156380.891942 kJ/mol
# GULP energy per Si atom -5585.031855 kJ/mol
# Density = 2.269650 g / cm^3
# Si number density = 22.748272 Si / 1000 Ang^3
#
#
#
# Elastic Constant Matrix: (Units=GPa)
#
#
# Indices 1 2 3 4 5 6 
#
# 1 84.9876 -9.3628 42.9465 0.0000 25.2353 0.0000
# 2 -9.3628 65.0164 2.1995 0.0000 0.1399 0.0000
# 3 42.9465 2.1995 123.3724 0.0000 -5.0985 0.0000
# 4 0.0000 0.0000 0.0000 6.9736 0.0000 8.2823
# 5 25.2353 0.1399 -5.0985 0.0000 29.2949 0.0000
# 6 0.0000 0.0000 0.0000 8.2823 0.0000 17.4757
#
#
#
# Elastic Compliance Matrix: (Units=1/GPa)
#
#
# Indices 1 2 3 4 5 6 
#
# 1 0.023091 0.003676 -0.008991 0.000000 -0.021473 0.000000
# 2 0.003676 0.015976 -0.001711 0.000000 -0.003540 0.000000
# 3 -0.008991 -0.001711 0.011670 0.000000 0.009784 0.000000
# 4 0.000000 0.000000 0.000000 0.328044 0.000000 -0.155471
# 5 -0.021473 -0.003540 0.009784 0.000000 0.054353 0.000000
# 6 0.000000 0.000000 0.000000 -0.155471 0.000000 0.130906
#
#
# Mechanical properties :
#
#
# Convention : Reuss Voigt Hill
#
# Bulk Modulus (GPa) = 27.25942 38.32697 32.79320
# Shear Modulus (GPa) = 8.47000 26.58840 17.52920
#
# Velocity S-wave (km/s) = 1.93169 3.42249 2.77893
# Velocity P-wave (km/s) = 4.12121 5.70113 4.97429
#
# Compressibility (1/GPa) = 0.03668457
#
# Stress axis : x y z
#
# Youngs Moduli (GPa) = 43.30748 62.59569 85.68876
#
# Poissons Ratio (x) = -0.23008 0.77042
# Poissons Ratio (y) = -0.15918 0.14658
# Poissons Ratio (z) = 0.38937 0.10708
#
# Static dielectric constant tensor:
#      x y z
#    x 1.803540 0.000000 0.015480 
#    y 0.000000 1.896100 0.000000 
#    z 0.015480 0.000000 1.863720 
# 
# From -- ./inp_files/288201.got.cif
#   From: 2010.05.17/outbox.cif.g08.bks.cpg/sg12_145_cif.got.tgz:288201.got - 2010.06.03 13:09:07.
