data_PCOD9193156
_publ_section_title
;
Structure prediction by ZEFSAII (Michael W. Deem and Ramdas Pophale) SiO2 
 PCOD9193156
Probable space group: C 2/M
;
_chemical_formula_sum "Si O2"
_cell_formula_units_Z 56
_cell_length_a 8.778295
_cell_length_b 12.903822
_cell_length_c 28.185762
_cell_angle_alpha 90.000000
_cell_angle_beta 107.162012
_cell_angle_gamma 90.000000
_cell_volume 3050.543942
_symmetry_space_group_name_H-M "C 2/M"
_symmetry_group_IT_number 12
_symmetry_cell_setting 'monoclinic'
loop_
_space_group_symop_operation_xyz
x,y,z
-x,y,-z
-x,-y,-z
x,-y,z
1/2+x,1/2+y,z
1/2-x,1/2+y,-z
1/2-x,1/2-y,-z
1/2+x,1/2-y,z
loop_
_atom_site_type_symbol
_atom_site_label
_atom_site_fract_x
_atom_site_fract_y
_atom_site_fract_z
Si Si1 0.053557 0.220780 0.347814
Si Si2 0.723191 0.879788 0.707562
Si Si3 0.258651 0.500000 0.479251
Si Si4 0.867297 0.822693 0.418370
Si Si5 0.361743 0.233821 0.116644
Si Si6 0.146122 0.121098 0.173871
Si Si7 0.423340 0.878231 0.941054
Si Si8 0.000000 0.345492 0.500000
O O1 0.919855 0.300166 0.316370
O O2 0.975438 0.152822 0.382514
O O3 0.132590 0.152206 0.314019
O O4 0.195243 0.289050 0.383043
O O5 0.780226 0.869471 0.766944
O O6 0.676871 0.000000 0.694742
O O7 0.346922 0.411088 0.454843
O O8 0.151820 0.588685 0.497363
O O9 0.946493 0.724707 0.451167
O O10 0.270587 0.163537 0.146520
O O11 0.490224 0.307904 0.153924
O O12 0.453228 0.163099 0.087013
O O13 0.233226 0.307860 0.079260
O O14 0.109904 0.000000 0.162045
O O15 0.388342 0.000000 0.930581
O O16 0.500000 0.865770 0.000000
#
# Coordination Sequence:
#
# PCOD9193156 Si02
#       8
#     8   8   4   8   8   8   8   4
#     4  10  23  40  59  85 116 140 185 225 268 335
#     4  10  22  40  61  83 112 148 179 229 285 330
#     4  11  24  39  66  82 115 153 178 222 281 307
#     4  11  23  42  61  86 115 145 184 225 264 328
#     4  10  20  34  56  81 112 148 189 236 283 326
#     4  10  20  36  58  83 109 142 189 232 281 335
#     4  10  20  34  52  79 115 153 192 232 279 333
#     4  11  24  45  56  90 118 143 184 231 262 322
#
# _framework density 18.357382000000001
#
# number of rings (size 3 to 8) (size 9 to 14) (size 15 to 20)
#    0.000    1.714    1.429    2.571    2.000    0.286 
#    1.286    0.000    0.000   15.429    0.000    0.000 
#    0.000    0.000    0.000    0.000    0.000    0.000 
#
# Total GULP energy -155888.199361 kJ/mol
# GULP energy per Si atom -5567.435691 kJ/mol
# Density = 1.831560 g / cm^3
# Si number density = 18.357382 Si / 1000 Ang^3
#
#
#
# Elastic Constant Matrix: (Units=GPa)
#
#
# Indices 1 2 3 4 5 6 
#
# 1 31.6100 -16.3260 3.1722 0.0000 -1.9659 0.0000
# 2 -16.3260 61.4955 16.6181 0.0000 -4.0120 0.0000
# 3 3.1722 16.6181 61.0837 0.0000 -1.8798 0.0000
# 4 0.0000 0.0000 0.0000 61.1822 0.0000 -20.2950
# 5 -1.9659 -4.0120 -1.8798 0.0000 20.4725 0.0000
# 6 0.0000 0.0000 0.0000 -20.2950 0.0000 15.5423
#
#
#
# Elastic Compliance Matrix: (Units=1/GPa)
#
#
# Indices 1 2 3 4 5 6 
#
# 1 0.038706 0.012022 -0.005108 0.000000 0.005604 0.000000
# 2 0.012022 0.021472 -0.006319 0.000000 0.004782 0.000000
# 3 -0.005108 -0.006319 0.018354 0.000000 -0.000044 0.000000
# 4 0.000000 0.000000 0.000000 0.028834 0.000000 0.037651
# 5 0.005604 0.004782 -0.000044 0.000000 0.050317 0.000000
# 6 0.000000 0.000000 0.000000 0.037651 0.000000 0.113505
#
#
# Mechanical properties :
#
#
# Convention : Reuss Voigt Hill
#
# Bulk Modulus (GPa) = 12.54369 17.90199 15.22284
# Shear Modulus (GPa) = 16.85925 29.48773 23.17349
#
# Velocity S-wave (km/s) = 3.03378 4.01223 3.55681
# Velocity P-wave (km/s) = 4.37261 5.58902 5.01781
#
# Compressibility (1/GPa) = 0.07972135
#
# Stress axis : x y z
#
# Youngs Moduli (GPa) = 25.83604 46.57132 54.48407
#
# Poissons Ratio (x) = -0.55986 0.27831
# Poissons Ratio (y) = -0.31059 0.34428
# Poissons Ratio (z) = 0.13198 0.29428
#
# Static dielectric constant tensor:
#      x y z
#    x 1.629110 0.000000 0.008720 
#    y 0.000000 1.601680 0.000000 
#    z 0.008720 0.000000 1.615110 
# 
# From -- ./inp_files/372027.got.cif
#   From: 2010.05.17/outbox.cif.g08.bks.cpg/sg12_187_cif.got.tgz:372027.got - 2010.06.03 13:09:07.
