data_PCOD9193712
_publ_section_title
;
Structure prediction by ZEFSAII (Michael W. Deem and Ramdas Pophale) SiO2 
 PCOD9193712
Probable space group: C 2/M
;
_chemical_formula_sum "Si O2"
_cell_formula_units_Z 56
_cell_length_a 18.512428
_cell_length_b 9.006528
_cell_length_c 29.617509
_cell_angle_alpha 90.000000
_cell_angle_beta 141.350051
_cell_angle_gamma 90.000000
_cell_volume 3084.210041
_symmetry_space_group_name_H-M "C 2/M"
_symmetry_group_IT_number 12
_symmetry_cell_setting 'monoclinic'
loop_
_space_group_symop_operation_xyz
x,y,z
-x,y,-z
-x,-y,-z
x,-y,z
1/2+x,1/2+y,z
1/2-x,1/2+y,-z
1/2-x,1/2-y,-z
1/2+x,1/2-y,z
loop_
_atom_site_type_symbol
_atom_site_label
_atom_site_fract_x
_atom_site_fract_y
_atom_site_fract_z
Si Si1 0.595099 0.321940 0.637343
Si Si2 0.484753 0.321819 0.218836
Si Si3 0.321626 0.322515 0.494387
Si Si4 0.248565 0.321810 0.634681
Si Si5 0.369790 0.676585 0.928073
Si Si6 0.797568 0.675499 0.068242
Si Si7 0.679224 0.678396 0.777711
O O1 0.612188 0.500000 0.640651
O O2 0.458163 0.294111 0.567806
O O3 0.662494 0.238453 0.630775
O O4 0.642677 0.276201 0.709719
O O5 0.474756 0.500000 0.209301
O O6 0.619284 0.283607 0.287710
O O7 0.416419 0.245539 0.144632
O O8 0.418386 0.279114 0.232890
O O9 0.304346 0.500000 0.485578
O O10 0.250000 0.250000 0.500000
O O11 0.282150 0.252358 0.427920
O O12 0.240420 0.500000 0.626840
O O13 0.373974 0.500000 0.921215
O O14 0.295124 0.700411 0.936895
O O15 0.299480 0.754191 0.853685
O O16 0.500000 0.730122 0.000000
O O17 0.810983 0.500000 0.068258
O O18 0.750000 0.750000 0.000000
O O19 0.686778 0.500000 0.782045
#
# Coordination Sequence:
#
# PCOD9193712 Si02
#       7
#     8   8   8   8   8   8   8
#     4  10  22  39  57  82 116 149 181 225 280 330
#     4   9  19  37  57  77 106 144 184 227 274 325
#     4  11  23  40  62  85 113 149 187 228 276 332
#     4  11  23  38  58  85 115 147 186 231 278 329
#     4   9  19  35  53  75 105 138 174 219 269 319
#     4  10  20  34  54  79 107 141 181 225 273 328
#     4   9  18  35  57  77 102 139 182 223 266 322
#
# _framework density 18.157
#
# number of rings (size 3 to 8) (size 9 to 14) (size 15 to 20)
#    0.000    2.143    0.000    2.571    0.000    8.857 
#    0.000    7.143    0.000    0.000    0.000    0.000 
#    0.000    0.000    0.000    0.000    0.000    0.000 
#
# Total GULP energy -156372.066262 kJ/mol
# GULP energy per Si atom -5584.716652 kJ/mol
# Density = 1.811567 g / cm^3
# Si number density = 18.157000 Si / 1000 Ang^3
#
#
#
# Elastic Constant Matrix: (Units=GPa)
#
#
# Indices 1 2 3 4 5 6 
#
# 1 117.3569 64.8787 102.8678 0.0000 -0.0855 0.0000
# 2 64.8787 54.8286 87.1060 0.0000 -0.4277 0.0000
# 3 102.8678 87.1060 204.0563 0.0000 -6.5734 0.0000
# 4 0.0000 0.0000 0.0000 36.1754 0.0000 -0.8809
# 5 -0.0855 -0.4277 -6.5734 0.0000 37.5244 0.0000
# 6 0.0000 0.0000 0.0000 -0.8809 0.0000 30.1015
#
#
#
# Elastic Compliance Matrix: (Units=1/GPa)
#
#
# Indices 1 2 3 4 5 6 
#
# 1 0.024642 -0.029245 0.000053 0.000000 -0.000268 0.000000
# 2 -0.029245 0.091871 -0.024581 0.000000 -0.003326 0.000000
# 3 0.000053 -0.024581 0.015445 0.000000 0.002426 0.000000
# 4 0.000000 0.000000 0.000000 0.027663 0.000000 0.000810
# 5 -0.000268 -0.003326 0.002426 0.000000 0.027036 0.000000
# 6 0.000000 0.000000 0.000000 0.000810 0.000000 0.033245
#
#
# Mechanical properties :
#
#
# Convention : Reuss Voigt Hill
#
# Bulk Modulus (GPa) = 40.96516 98.43855 69.70186
# Shear Modulus (GPa) = 14.89928 28.85288 21.87608
#
# Velocity S-wave (km/s) = 2.86769 3.99065 3.47483
# Velocity P-wave (km/s) = 5.79443 8.69291 7.38722
#
# Compressibility (1/GPa) = 0.02441099
#
# Stress axis : x y z
#
# Youngs Moduli (GPa) = 40.58074 10.88480 64.74477
#
# Poissons Ratio (x) = 0.31833 -0.00342
# Poissons Ratio (y) = 1.18679 1.59152
# Poissons Ratio (z) = -0.00214 0.26756
#
# Static dielectric constant tensor:
#      x y z
#    x 1.602990 0.000000 0.006460 
#    y 0.000000 1.609080 0.000000 
#    z 0.006460 0.000000 1.598360 
# 
# From -- ./inp_files/363154.got.cif
#   From: 2010.05.17/outbox.cif.g08.bks.cpg/sg12_182_cif.got.tgz:363154.got - 2010.06.03 13:09:07.
