data_PCOD9193482
_publ_section_title
;
Structure prediction by ZEFSAII (Michael W. Deem and Ramdas Pophale) SiO2 
 PCOD9193482
Probable space group: C 2/M
;
_chemical_formula_sum "Si O2"
_cell_formula_units_Z 40
_cell_length_a 15.457076
_cell_length_b 7.742552
_cell_length_c 31.593034
_cell_angle_alpha 90.000000
_cell_angle_beta 29.342380
_cell_angle_gamma 90.000000
_cell_volume 1852.776947
_symmetry_space_group_name_H-M "C 2/M"
_symmetry_group_IT_number 12
_symmetry_cell_setting 'monoclinic'
loop_
_space_group_symop_operation_xyz
x,y,z
-x,y,-z
-x,-y,-z
x,-y,z
1/2+x,1/2+y,z
1/2-x,1/2+y,-z
1/2-x,1/2-y,-z
1/2+x,1/2-y,z
loop_
_atom_site_type_symbol
_atom_site_label
_atom_site_fract_x
_atom_site_fract_y
_atom_site_fract_z
Si Si1 0.728411 0.789813 0.279075
Si Si2 0.851026 0.701594 0.594122
Si Si3 0.546281 0.706086 0.091257
Si Si4 0.850084 0.694439 0.093293
Si Si5 0.979825 0.701968 0.716583
O O1 0.667476 0.723394 0.350636
O O2 0.609279 0.734579 0.289505
O O3 0.933923 0.749171 0.181044
O O4 0.719436 0.000000 0.283609
O O5 0.897865 0.500000 0.580257
O O6 0.661535 0.710912 0.652258
O O7 0.000000 0.779154 0.500000
O O8 0.524008 0.500000 0.093931
O O9 0.447778 0.806763 0.096380
O O10 0.750000 0.750000 0.000000
O O11 0.817240 0.500000 0.090817
O O12 0.663466 0.776784 0.184566
O O13 0.000000 0.779814 0.000000
O O14 0.015197 0.500000 0.695982
#
# Coordination Sequence:
#
# PCOD9193482 Si02
#       5
#     8   8   8   8   8
#     4   8  18  37  56  77 113 152 183 229 288 335
#     4  10  21  38  61  86 111 148 195 236 285 348
#     4  10  20  34  53  79 113 150 190 231 279 338
#     4  10  21  36  55  80 111 149 189 231 285 342
#     4  10  21  38  58  82 115 151 187 236 290 342
#
# _framework density 21.589214999999999
#
# number of rings (size 3 to 8) (size 9 to 14) (size 15 to 20)
#    0.000    2.400    0.000    3.000    2.800    2.800 
#    0.000    5.000    0.000    0.000    0.000    0.000 
#    0.000    0.000    0.000    0.000    0.000    0.000 
#
# Total GULP energy -111502.211255 kJ/mol
# GULP energy per Si atom -5575.110563 kJ/mol
# Density = 2.154008 g / cm^3
# Si number density = 21.589215 Si / 1000 Ang^3
#
#
#
# Elastic Constant Matrix: (Units=GPa)
#
#
# Indices 1 2 3 4 5 6 
#
# 1 75.3969 -7.9421 67.3847 -0.0383 19.0601 0.0084
# 2 -7.9421 43.7210 -1.5075 -0.0350 10.2297 0.0065
# 3 67.3847 -1.5075 186.0960 -0.2361 28.7784 0.0577
# 4 -0.0383 -0.0350 -0.2361 141.7772 0.0619 -36.7046
# 5 19.0601 10.2297 28.7784 0.0619 36.3634 -0.0137
# 6 0.0084 0.0065 0.0577 -36.7046 -0.0137 27.0515
#
#
#
# Elastic Compliance Matrix: (Units=1/GPa)
#
#
# Indices 1 2 3 4 5 6 
#
# 1 0.021711 0.005513 -0.006628 0.000000 -0.007685 0.000002
# 2 0.005513 0.026227 -0.000223 0.000013 -0.010091 0.000006
# 3 -0.006628 -0.000223 0.008232 0.000014 -0.002978 0.000001
# 4 0.000000 0.000013 0.000014 0.010873 -0.000028 0.014752
# 5 -0.007685 -0.010091 -0.002978 -0.000028 0.036724 -0.000008
# 6 0.000002 0.000006 0.000001 0.014752 -0.000008 0.056983
#
#
# Mechanical properties :
#
#
# Convention : Reuss Voigt Hill
#
# Bulk Modulus (GPa) = 18.69369 46.78711 32.74040
# Shear Modulus (GPa) = 27.58505 57.52370 42.55438
#
# Velocity S-wave (km/s) = 3.57840 5.16745 4.44452
# Velocity P-wave (km/s) = 5.07454 7.57112 6.44487
#
# Compressibility (1/GPa) = 0.05349399
#
# Stress axis : x y z
#
# Youngs Moduli (GPa) = 46.06064 38.12817 121.47176
#
# Poissons Ratio (x) = -0.21022 0.80514
# Poissons Ratio (y) = -0.25395 0.02713
# Poissons Ratio (z) = 0.30530 0.00852
#
# Static dielectric constant tensor:
#      x y z
#    x 1.761020 0.000000 0.042100 
#    y 0.000000 1.826960 0.000000 
#    z 0.042100 0.000000 1.825280 
# 
# From -- ./inp_files/211212.got.cif
#   From: 2010.05.17/outbox.cif.g08.bks.cpg/sg12_106_cif.got.tgz:211212.got - 2010.06.03 13:09:07.
