data_PCOD9193678
_publ_section_title
;
Structure prediction by ZEFSAII (Michael W. Deem and Ramdas Pophale) SiO2 
 PCOD9193678
Probable space group: C 2/M
;
_chemical_formula_sum "Si O2"
_cell_formula_units_Z 48
_cell_length_a 28.705802
_cell_length_b 7.445823
_cell_length_c 11.905637
_cell_angle_alpha 90.000000
_cell_angle_beta 56.107029
_cell_angle_gamma 90.000000
_cell_volume 2112.298777
_symmetry_space_group_name_H-M "C 2/M"
_symmetry_group_IT_number 12
_symmetry_cell_setting 'monoclinic'
loop_
_space_group_symop_operation_xyz
x,y,z
-x,y,-z
-x,-y,-z
x,-y,z
1/2+x,1/2+y,z
1/2-x,1/2+y,-z
1/2-x,1/2-y,-z
1/2+x,1/2-y,z
loop_
_atom_site_type_symbol
_atom_site_label
_atom_site_fract_x
_atom_site_fract_y
_atom_site_fract_z
Si Si1 0.886362 0.294462 0.375418
Si Si2 0.402362 0.218665 0.877540
Si Si3 0.726773 0.703667 0.360767
Si Si4 0.985073 0.719232 0.394656
Si Si5 0.803224 0.286400 0.849360
Si Si6 0.145410 0.720975 0.818491
O O1 0.905111 0.500000 0.336821
O O2 0.822180 0.294524 0.502855
O O3 0.886776 0.216746 0.249678
O O4 0.926843 0.217962 0.417273
O O5 0.464449 0.269548 0.756582
O O6 0.358027 0.276965 0.842320
O O7 0.400443 0.000000 0.881142
O O8 0.382044 0.278058 0.027429
O O9 0.729890 0.500000 0.398751
O O10 0.707292 0.704122 0.257631
O O11 0.789634 0.779331 0.277488
O O12 0.983151 0.500000 0.405316
O O13 0.000000 0.782149 0.500000
O O14 0.808652 0.500000 0.824516
O O15 0.750000 0.250000 0.000000
O O16 0.146254 0.500000 0.818264
#
# Coordination Sequence:
#
# PCOD9193678 Si02
#       6
#     8   8   8   8   8   8
#     4  10  20  34  54  79 104 138 184 224 265 319
#     4   9  17  31  52  78 110 139 167 219 274 311
#     4  11  21  35  53  76 110 145 179 221 268 316
#     4   9  17  30  50  78 107 135 174 222 270 318
#     4  11  20  33  55  81 110 140 174 217 266 317
#     4   9  18  32  50  77 109 138 177 224 268 316
#
# _framework density 22.724060000000001
#
# number of rings (size 3 to 8) (size 9 to 14) (size 15 to 20)
#    0.000    2.167    1.667    2.500    0.000    3.333 
#    0.000    4.167    0.000    5.500    0.000    1.167 
#    0.000    0.000    0.000    0.000    0.000    0.000 
#
# Total GULP energy -134124.166631 kJ/mol
# GULP energy per Si atom -5588.506943 kJ/mol
# Density = 2.267234 g / cm^3
# Si number density = 22.724060 Si / 1000 Ang^3
#
#
#
# Elastic Constant Matrix: (Units=GPa)
#
#
# Indices 1 2 3 4 5 6 
#
# 1 137.8794 9.4324 84.1676 0.0000 21.3209 0.0000
# 2 9.4324 70.0413 -6.5870 0.0000 0.3768 0.0000
# 3 84.1676 -6.5870 101.6384 0.0000 12.3313 0.0000
# 4 0.0000 0.0000 0.0000 10.0670 0.0000 -2.0705
# 5 21.3209 0.3768 12.3313 0.0000 42.1620 0.0000
# 6 0.0000 0.0000 0.0000 -2.0705 0.0000 3.8602
#
#
#
# Elastic Compliance Matrix: (Units=1/GPa)
#
#
# Indices 1 2 3 4 5 6 
#
# 1 0.016104 -0.003371 -0.013033 0.000000 -0.004302 0.000000
# 2 -0.003371 0.015078 0.003710 0.000000 0.000485 0.000000
# 3 -0.013033 0.003710 0.020815 0.000000 0.000470 0.000000
# 4 0.000000 0.000000 0.000000 0.111652 0.000000 0.059888
# 5 -0.004302 0.000485 0.000470 0.000000 0.025752 0.000000
# 6 0.000000 0.000000 0.000000 0.059888 0.000000 0.291179
#
#
# Mechanical properties :
#
#
# Convention : Reuss Voigt Hill
#
# Bulk Modulus (GPa) = 37.58135 53.73167 45.65651
# Shear Modulus (GPa) = 9.71182 26.05425 17.88304
#
# Velocity S-wave (km/s) = 2.06956 3.38975 2.80833
# Velocity P-wave (km/s) = 4.72068 6.24637 5.53633
#
# Compressibility (1/GPa) = 0.02660894
#
# Stress axis : x y z
#
# Youngs Moduli (GPa) = 62.09546 66.32362 48.04303
#
# Poissons Ratio (x) = 0.22359 0.62613
# Poissons Ratio (y) = 0.20934 -0.17824
# Poissons Ratio (z) = 0.80927 -0.24606
#
# Static dielectric constant tensor:
#      x y z
#    x 1.832960 0.000000 0.013280 
#    y 0.000000 1.879450 0.000000 
#    z 0.013280 0.000000 1.784640 
# 
# From -- ./inp_files/172099.got.cif
#   From: 2010.05.17/outbox.cif.g08.bks.cpg/sg12_87_cif.got.tgz:172099.got - 2010.06.03 13:09:07.
