data_PCOD9193799
_publ_section_title
;
Structure prediction by ZEFSAII (Michael W. Deem and Ramdas Pophale) SiO2 
 PCOD9193799
Probable space group: C 2/M
;
_chemical_formula_sum "Si O2"
_cell_formula_units_Z 56
_cell_length_a 29.347606
_cell_length_b 8.870168
_cell_length_c 14.808084
_cell_angle_alpha 90.000000
_cell_angle_beta 120.531366
_cell_angle_gamma 90.000000
_cell_volume 3320.348353
_symmetry_space_group_name_H-M "C 2/M"
_symmetry_group_IT_number 12
_symmetry_cell_setting 'monoclinic'
loop_
_space_group_symop_operation_xyz
x,y,z
-x,y,-z
-x,-y,-z
x,-y,z
1/2+x,1/2+y,z
1/2-x,1/2+y,-z
1/2-x,1/2-y,-z
1/2+x,1/2-y,z
loop_
_atom_site_type_symbol
_atom_site_label
_atom_site_fract_x
_atom_site_fract_y
_atom_site_fract_z
Si Si1 0.945088 0.180794 0.492462
Si Si2 0.240325 0.321057 0.089763
Si Si3 0.462867 0.824132 0.698357
Si Si4 0.856531 0.820912 0.258784
Si Si5 0.634416 0.677556 0.062943
Si Si6 0.413949 0.173353 0.152642
Si Si7 0.447586 0.182589 0.889216
O O1 0.939948 0.240775 0.588681
O O2 0.894177 0.219782 0.380305
O O3 0.000000 0.234886 0.500000
O O4 0.948479 0.000000 0.499348
O O5 0.231847 0.500000 0.069822
O O6 0.293758 0.299390 0.201999
O O7 0.190259 0.248309 0.088983
O O8 0.250000 0.250000 0.000000
O O9 0.526301 0.814273 0.753758
O O10 0.450742 0.769241 0.787673
O O11 0.447809 0.000000 0.678913
O O12 0.875652 0.722665 0.193783
O O13 0.865308 0.000000 0.248206
O O14 0.639734 0.500000 0.080837
O O15 0.604992 0.753561 0.117506
O O16 0.596186 0.716939 0.940592
O O17 0.405011 0.000000 0.114739
O O18 0.446871 0.000000 0.890452
O O19 0.500000 0.227905 0.000000
#
# Coordination Sequence:
#
# PCOD9193799 Si02
#       7
#     8   8   8   8   8   8   8
#     4  10  20  34  54  80 113 148 178 221 275 324
#     4  11  22  36  56  81 111 147 187 227 273 326
#     4  10  21  35  54  81 111 146 184 223 269 325
#     4  10  21  36  53  79 112 148 185 222 269 329
#     4  12  24  36  53  81 114 147 185 226 275 332
#     4  11  20  32  53  80 112 148 183 223 267 321
#     4  10  20  38  58  79 110 146 183 225 276 330
#
# _framework density 16.8657
#
# number of rings (size 3 to 8) (size 9 to 14) (size 15 to 20)
#    0.000    1.429    4.286    2.143    0.000    2.857 
#    0.000    0.000    0.000    0.857    0.000    0.000 
#    0.000    0.000    0.000    0.000    0.000    0.000 
#
# Total GULP energy -156245.319736 kJ/mol
# GULP energy per Si atom -5580.189991 kJ/mol
# Density = 1.682731 g / cm^3
# Si number density = 16.865700 Si / 1000 Ang^3
#
#
#
# Elastic Constant Matrix: (Units=GPa)
#
#
# Indices 1 2 3 4 5 6 
#
# 1 94.5707 26.3852 28.9680 0.0000 -1.7377 0.0000
# 2 26.3852 32.6746 18.8572 0.0000 1.8075 0.0000
# 3 28.9680 18.8572 89.3620 0.0000 -0.2236 0.0000
# 4 0.0000 0.0000 0.0000 27.1400 0.0000 -3.8641
# 5 -1.7377 1.8075 -0.2236 0.0000 26.4616 0.0000
# 6 0.0000 0.0000 0.0000 -3.8641 0.0000 24.0621
#
#
#
# Elastic Compliance Matrix: (Units=1/GPa)
#
#
# Indices 1 2 3 4 5 6 
#
# 1 0.014180 -0.010121 -0.002457 0.000000 0.001602 0.000000
# 2 -0.010121 0.042232 -0.005640 0.000000 -0.003597 0.000000
# 3 -0.002457 -0.005640 0.013178 0.000000 0.000335 0.000000
# 4 0.000000 0.000000 0.000000 0.037708 0.000000 0.006056
# 5 0.001602 -0.003597 0.000335 0.000000 0.038144 0.000000
# 6 0.000000 0.000000 0.000000 0.006056 0.000000 0.042532
#
#
# Mechanical properties :
#
#
# Convention : Reuss Voigt Hill
#
# Bulk Modulus (GPa) = 30.16252 40.55868 35.36060
# Shear Modulus (GPa) = 21.23501 25.02589 23.13045
#
# Velocity S-wave (km/s) = 3.55218 3.85624 3.70733
# Velocity P-wave (km/s) = 5.89464 6.62779 6.27194
#
# Compressibility (1/GPa) = 0.03315373
#
# Stress axis : x y z
#
# Youngs Moduli (GPa) = 70.52239 23.67888 75.88521
#
# Poissons Ratio (x) = 0.23966 0.18644
# Poissons Ratio (y) = 0.71377 0.42798
# Poissons Ratio (z) = 0.17326 0.13354
#
# Static dielectric constant tensor:
#      x y z
#    x 1.564500 0.000000 0.003530 
#    y 0.000000 1.573120 0.000000 
#    z 0.003530 0.000000 1.569380 
# 
# From -- ./inp_files/244316.got.cif
#   From: 2010.05.17/outbox.cif.g08.bks.cpg/sg12_123_cif.got.tgz:244316.got - 2010.06.03 13:09:07.
