data_PCOD9193662
_publ_section_title
;
Structure prediction by ZEFSAII (Michael W. Deem and Ramdas Pophale) SiO2 
 PCOD9193662
Probable space group: C 2/M
;
_chemical_formula_sum "Si O2"
_cell_formula_units_Z 64
_cell_length_a 20.760283
_cell_length_b 8.864495
_cell_length_c 19.941515
_cell_angle_alpha 90.000000
_cell_angle_beta 89.747121
_cell_angle_gamma 90.000000
_cell_volume 3669.789793
_symmetry_space_group_name_H-M "C 2/M"
_symmetry_group_IT_number 12
_symmetry_cell_setting 'monoclinic'
loop_
_space_group_symop_operation_xyz
x,y,z
-x,y,-z
-x,-y,-z
x,-y,z
1/2+x,1/2+y,z
1/2-x,1/2+y,-z
1/2-x,1/2-y,-z
1/2+x,1/2-y,z
loop_
_atom_site_type_symbol
_atom_site_label
_atom_site_fract_x
_atom_site_fract_y
_atom_site_fract_z
Si Si1 0.800771 0.680861 0.802584
Si Si2 0.058099 0.181115 0.547668
Si Si3 0.440573 0.180883 0.952496
Si Si4 0.195960 0.680017 0.547401
Si Si5 0.057875 0.820541 0.703974
Si Si6 0.802575 0.819738 0.950102
Si Si7 0.696090 0.180492 0.704277
Si Si8 0.948727 0.320450 0.795604
O O1 0.796094 0.500000 0.809703
O O2 0.791203 0.756320 0.875218
O O3 0.749027 0.742202 0.750597
O O4 0.874176 0.715907 0.779925
O O5 0.125567 0.257569 0.529310
O O6 0.044210 0.215501 0.625795
O O7 0.000000 0.229250 0.500000
O O8 0.065285 0.000000 0.541672
O O9 0.374347 0.265102 0.969662
O O10 0.457045 0.212877 0.874693
O O11 0.429296 0.000000 0.957679
O O12 0.500000 0.220732 0.000000
O O13 0.196658 0.500000 0.541789
O O14 0.250000 0.750000 0.500000
O O15 0.207003 0.719349 0.625777
O O16 0.124580 0.738555 0.722180
O O17 0.999561 0.766709 0.750363
O O18 0.066832 0.000000 0.709443
O O19 0.798916 0.000000 0.950390
O O20 0.750000 0.750000 0.000000
O O21 0.699075 0.000000 0.711400
O O22 0.957888 0.500000 0.786316
#
# Coordination Sequence:
#
# PCOD9193662 Si02
#       8
#     8   8   8   8   8   8   8   8
#     4  10  21  38  58  81 109 141 180 224 271 321
#     4   9  19  36  55  76 104 138 177 222 268 313
#     4   9  19  37  58  79 106 141 181 224 269 315
#     4  10  21  36  55  79 108 142 180 222 267 320
#     4  10  20  34  54  78 106 140 177 219 265 316
#     4  11  22  37  57  81 112 146 182 224 268 318
#     4  10  21  37  56  79 108 142 180 222 270 321
#     4   9  19  35  54  77 107 139 172 217 268 317
#
# _framework density 17.439691
#
# number of rings (size 3 to 8) (size 9 to 14) (size 15 to 20)
#    0.000    2.250    0.000    3.375    0.000    7.000 
#    0.000    7.500    0.000    0.000    0.000    0.000 
#    0.000    0.000    0.000    0.000    0.000    0.000 
#
# Total GULP energy -178652.690033 kJ/mol
# GULP energy per Si atom -5582.896564 kJ/mol
# Density = 1.740000 g / cm^3
# Si number density = 17.439691 Si / 1000 Ang^3
#
#
#
# Elastic Constant Matrix: (Units=GPa)
#
#
# Indices 1 2 3 4 5 6 
#
# 1 174.2302 80.3972 111.6600 0.0000 4.2522 0.0000
# 2 80.3972 74.5636 57.7101 0.0000 -2.5547 0.0000
# 3 111.6600 57.7101 87.1393 0.0000 3.1343 0.0000
# 4 0.0000 0.0000 0.0000 28.4404 0.0000 -3.0609
# 5 4.2522 -2.5547 3.1343 0.0000 42.6707 0.0000
# 6 0.0000 0.0000 0.0000 -3.0609 0.0000 38.0654
#
#
#
# Elastic Compliance Matrix: (Units=1/GPa)
#
#
# Indices 1 2 3 4 5 6 
#
# 1 0.033357 -0.006025 -0.038723 0.000000 -0.000840 0.000000
# 2 -0.006025 0.028990 -0.011594 0.000000 0.003188 0.000000
# 3 -0.038723 -0.011594 0.068841 0.000000 -0.001892 0.000000
# 4 0.000000 0.000000 0.000000 0.035468 0.000000 0.002852
# 5 -0.000840 0.003188 -0.001892 0.000000 0.023849 0.000000
# 6 0.000000 0.000000 0.000000 0.002852 0.000000 0.026500
#
#
# Mechanical properties :
#
#
# Convention : Reuss Voigt Hill
#
# Bulk Modulus (GPa) = 54.03851 92.82975 73.43413
# Shear Modulus (GPa) = 14.88732 27.57969 21.23351
#
# Velocity S-wave (km/s) = 2.92489 3.98104 3.49311
# Velocity P-wave (km/s) = 6.51612 8.62995 7.64644
#
# Compressibility (1/GPa) = 0.01850532
#
# Stress axis : x y z
#
# Youngs Moduli (GPa) = 29.97898 34.49463 14.52615
#
# Poissons Ratio (x) = 0.20783 0.56249
# Poissons Ratio (y) = 0.18062 0.16841
# Poissons Ratio (z) = 1.16087 0.39992
#
# Static dielectric constant tensor:
#      x y z
#    x 1.561840 0.000000 0.007290 
#    y 0.000000 1.581890 0.000000 
#    z 0.007290 0.000000 1.575700 
# 
# From -- ./inp_files/314215.got.cif
#   From: 2010.05.17/outbox.cif.g08.bks.cpg/sg12_158_cif.got.tgz:314215.got - 2010.06.03 13:09:07.
