data_PCOD9193215
_publ_section_title
;
Structure prediction by ZEFSAII (Michael W. Deem and Ramdas Pophale) SiO2 
 PCOD9193215
Probable space group: C 2/M
;
_chemical_formula_sum "Si O2"
_cell_formula_units_Z 56
_cell_length_a 19.141630
_cell_length_b 10.450805
_cell_length_c 23.597046
_cell_angle_alpha 90.000000
_cell_angle_beta 137.833623
_cell_angle_gamma 90.000000
_cell_volume 3168.791950
_symmetry_space_group_name_H-M "C 2/M"
_symmetry_group_IT_number 12
_symmetry_cell_setting 'monoclinic'
loop_
_space_group_symop_operation_xyz
x,y,z
-x,y,-z
-x,-y,-z
x,-y,z
1/2+x,1/2+y,z
1/2-x,1/2+y,-z
1/2-x,1/2-y,-z
1/2+x,1/2-y,z
loop_
_atom_site_type_symbol
_atom_site_label
_atom_site_fract_x
_atom_site_fract_y
_atom_site_fract_z
Si Si1 0.565662 0.848823 0.206028
Si Si2 0.116130 0.646421 0.545566
Si Si3 0.823028 0.348654 0.076731
Si Si4 0.862616 0.347517 0.230090
Si Si5 0.176642 0.866460 0.494954
Si Si6 0.903340 0.717464 0.644160
Si Si7 0.276122 0.348134 0.746885
O O1 0.441155 0.841745 0.124263
O O2 0.587721 0.801492 0.283505
O O3 0.629409 0.750109 0.205816
O O4 0.595422 0.000000 0.218896
O O5 0.122774 0.500000 0.528223
O O6 0.141283 0.749596 0.512866
O O7 0.198703 0.660519 0.646381
O O8 0.000000 0.664527 0.500000
O O9 0.791608 0.500000 0.054715
O O10 0.829123 0.307892 0.146708
O O11 0.750000 0.250000 0.000000
O O12 0.857472 0.500000 0.226353
O O13 0.788555 0.306352 0.236479
O O14 0.983708 0.316030 0.312094
O O15 0.127714 0.851032 0.403233
O O16 0.301409 0.862316 0.565603
O O17 0.143938 0.000000 0.501785
O O18 0.305636 0.500000 0.769649
#
# Coordination Sequence:
#
# PCOD9193215 Si02
#       7
#     8   8   8   8   8   8   8
#     4  10  20  37  59  81 109 149 183 218 277 337
#     4  10  21  35  51  73 106 149 191 233 281 329
#     4   9  19  37  63  89 111 139 176 218 267 328
#     4   9  18  36  59  79 106 145 185 217 265 332
#     4  11  22  33  51  78 106 140 188 241 285 320
#     4  10  20  34  53  75 105 144 188 227 274 327
#     4  10  20  34  54  81 107 140 187 233 270 316
#
# _framework density 17.672350000000002
#
# number of rings (size 3 to 8) (size 9 to 14) (size 15 to 20)
#    0.000    2.143    1.429    3.000    0.000    6.000 
#    0.000    5.714    0.000    4.286    0.000    0.000 
#    0.000    0.000    0.000    0.000    0.000    0.000 
#
# Total GULP energy -155978.411161 kJ/mol
# GULP energy per Si atom -5570.657541 kJ/mol
# Density = 1.763213 g / cm^3
# Si number density = 17.672350 Si / 1000 Ang^3
#
#
#
# Elastic Constant Matrix: (Units=GPa)
#
#
# Indices 1 2 3 4 5 6 
#
# 1 112.2447 73.4368 31.7873 0.0000 13.1395 0.0000
# 2 73.4368 120.7804 51.0471 0.0000 4.8459 0.0000
# 3 31.7873 51.0471 81.1590 0.0000 7.4576 0.0000
# 4 0.0000 0.0000 0.0000 -10.8326 0.0000 -13.4376
# 5 13.1395 4.8459 7.4576 0.0000 12.7781 0.0000
# 6 0.0000 0.0000 0.0000 -13.4376 0.0000 18.1660
#
#
#
# Elastic Compliance Matrix: (Units=1/GPa)
#
#
# Indices 1 2 3 4 5 6 
#
# 1 0.016919 -0.010172 0.001073 0.000000 -0.014166 0.000000
# 2 -0.010172 0.017393 -0.007725 0.000000 0.008372 0.000000
# 3 0.001073 -0.007725 0.017533 0.000000 -0.008406 0.000000
# 4 0.000000 0.000000 0.000000 -0.048140 0.000000 -0.035610
# 5 -0.014166 0.008372 -0.008406 0.000000 0.094557 0.000000
# 6 0.000000 0.000000 0.000000 -0.035610 0.000000 0.028707
#
#
# Mechanical properties :
#
#
# Convention : Reuss Voigt Hill
#
# Bulk Modulus (GPa) = 54.95608 69.63629 62.29618
# Shear Modulus (GPa) = 29.99736 14.54983 22.27360
#
# Velocity S-wave (km/s) = 4.12444 2.87245 3.55401
# Velocity P-wave (km/s) = 7.33799 7.10570 7.22278
#
# Compressibility (1/GPa) = 0.01819635
#
# Stress axis : x y z
#
# Youngs Moduli (GPa) = 59.10662 57.49290 57.03642
#
# Poissons Ratio (x) = 0.58482 -0.06121
# Poissons Ratio (y) = 0.60124 0.44063
# Poissons Ratio (z) = -0.06343 0.44415
#
# Static dielectric constant tensor:
#      x y z
#    x 1.629610 0.000000 -0.016770 
#    y 0.000000 1.627850 0.000000 
#    z -0.016770 0.000000 1.603630 
# 
# From -- ./inp_files/343103.got.cif
#   From: 2010.05.17/outbox.cif.g08.bks.cpg/sg12_172_cif.got.tgz:343103.got - 2010.06.03 13:09:07.
