data_PCOD9193120
_publ_section_title
;
Structure prediction by ZEFSAII (Michael W. Deem and Ramdas Pophale) SiO2 
 PCOD9193120
Probable space group: C 2/M
;
_chemical_formula_sum "Si O2"
_cell_formula_units_Z 56
_cell_length_a 20.169483
_cell_length_b 7.997991
_cell_length_c 20.811816
_cell_angle_alpha 90.000000
_cell_angle_beta 128.437948
_cell_angle_gamma 90.000000
_cell_volume 2629.685063
_symmetry_space_group_name_H-M "C 2/M"
_symmetry_group_IT_number 12
_symmetry_cell_setting 'monoclinic'
loop_
_space_group_symop_operation_xyz
x,y,z
-x,y,-z
-x,-y,-z
x,-y,z
1/2+x,1/2+y,z
1/2-x,1/2+y,-z
1/2-x,1/2-y,-z
1/2+x,1/2-y,z
loop_
_atom_site_type_symbol
_atom_site_label
_atom_site_fract_x
_atom_site_fract_y
_atom_site_fract_z
Si Si1 0.883864 0.695830 0.251105
Si Si2 0.320026 0.195405 0.414921
Si Si3 0.459212 0.204373 0.909181
Si Si4 0.344154 0.300251 0.618972
Si Si5 0.268629 0.194072 0.766852
Si Si6 0.464471 0.696703 0.576881
Si Si7 0.498766 0.201966 0.794595
O O1 0.866176 0.500000 0.232383
O O2 0.797350 0.788315 0.214745
O O3 0.948805 0.716609 0.350295
O O4 0.933583 0.759747 0.217875
O O5 0.248362 0.268833 0.420354
O O6 0.276447 0.215370 0.319734
O O7 0.411556 0.278016 0.479897
O O8 0.332265 0.000000 0.434845
O O9 0.361599 0.257038 0.841209
O O10 0.509493 0.253424 0.874841
O O11 0.458906 0.000000 0.910966
O O12 0.500000 0.263865 0.000000
O O13 0.335744 0.500000 0.607445
O O14 0.396331 0.237910 0.589039
O O15 0.406869 0.262249 0.715725
O O16 0.276786 0.000000 0.753039
O O17 0.478828 0.500000 0.594732
O O18 0.498399 0.000000 0.791511
#
# Coordination Sequence:
#
# PCOD9193120 Si02
#       7
#     8   8   8   8   8   8   8
#     4  10  21  37  56  79 113 151 187 227 274 326
#     4  11  21  33  51  78 113 149 186 230 281 325
#     4   9  18  35  61  90 113 137 178 228 275 328
#     4   9  18  31  50  77 111 146 182 229 276 323
#     4  11  22  37  58  82 110 146 186 229 276 329
#     4  10  20  34  52  78 110 148 193 232 269 319
#     4   9  17  33  58  83 108 145 186 224 269 326
#
# _framework density 21.295325999999999
#
# number of rings (size 3 to 8) (size 9 to 14) (size 15 to 20)
#    0.000    2.143    1.429    2.143    0.000    2.286 
#    0.000    3.571    0.000    3.857    0.000    0.000 
#    0.000    0.000    0.000    0.000    0.000    0.000 
#
# Total GULP energy -156347.393982 kJ/mol
# GULP energy per Si atom -5583.835499 kJ/mol
# Density = 2.124686 g / cm^3
# Si number density = 21.295326 Si / 1000 Ang^3
#
#
#
# Elastic Constant Matrix: (Units=GPa)
#
#
# Indices 1 2 3 4 5 6 
#
# 1 91.5925 -3.0488 31.4315 0.0000 7.1967 0.0000
# 2 -3.0488 34.1874 -1.3907 0.0000 4.1289 0.0000
# 3 31.4315 -1.3907 109.4706 0.0000 -12.3784 0.0000
# 4 0.0000 0.0000 0.0000 16.5501 0.0000 -1.0258
# 5 7.1967 4.1289 -12.3784 0.0000 21.0444 0.0000
# 6 0.0000 0.0000 0.0000 -1.0258 0.0000 17.0315
#
#
#
# Elastic Compliance Matrix: (Units=1/GPa)
#
#
# Indices 1 2 3 4 5 6 
#
# 1 0.013160 0.001902 -0.004612 0.000000 -0.007587 0.000000
# 2 0.001902 0.030245 -0.000971 0.000000 -0.007156 0.000000
# 3 -0.004612 -0.000971 0.011405 0.000000 0.008476 0.000000
# 4 0.000000 0.000000 0.000000 0.060649 0.000000 0.003653
# 5 -0.007587 -0.007156 0.008476 0.000000 0.056503 0.000000
# 6 0.000000 0.000000 0.000000 0.003653 0.000000 0.058935
#
#
# Mechanical properties :
#
#
# Convention : Reuss Voigt Hill
#
# Bulk Modulus (GPa) = 21.07566 32.13715 26.60640
# Shear Modulus (GPa) = 19.67923 24.80911 22.24417
#
# Velocity S-wave (km/s) = 3.04322 3.41692 3.23547
# Velocity P-wave (km/s) = 4.71874 5.53995 5.14575
#
# Compressibility (1/GPa) = 0.04744810
#
# Stress axis : x y z
#
# Youngs Moduli (GPa) = 75.98707 33.06345 87.67849
#
# Poissons Ratio (x) = -0.06289 0.40440
# Poissons Ratio (y) = -0.14455 0.08514
# Poissons Ratio (z) = 0.35047 0.03211
#
# Static dielectric constant tensor:
#      x y z
#    x 1.830120 0.000000 -0.052950 
#    y 0.000000 1.727120 0.000000 
#    z -0.052950 0.000000 1.779250 
# 
# From -- ./inp_files/320230.got.cif
#   From: 2010.05.17/outbox.cif.g08.bks.cpg/sg12_161_cif.got.tgz:320230.got - 2010.06.03 13:09:07.
