data_PCOD9193770
_publ_section_title
;
Structure prediction by ZEFSAII (Michael W. Deem and Ramdas Pophale) SiO2 
 PCOD9193770
Probable space group: C 2/M
;
_chemical_formula_sum "Si O2"
_cell_formula_units_Z 64
_cell_length_a 26.863280
_cell_length_b 7.536327
_cell_length_c 14.521554
_cell_angle_alpha 90.000000
_cell_angle_beta 86.977450
_cell_angle_gamma 90.000000
_cell_volume 2935.805514
_symmetry_space_group_name_H-M "C 2/M"
_symmetry_group_IT_number 12
_symmetry_cell_setting 'monoclinic'
loop_
_space_group_symop_operation_xyz
x,y,z
-x,y,-z
-x,-y,-z
x,-y,z
1/2+x,1/2+y,z
1/2-x,1/2+y,-z
1/2-x,1/2-y,-z
1/2+x,1/2-y,z
loop_
_atom_site_type_symbol
_atom_site_label
_atom_site_fract_x
_atom_site_fract_y
_atom_site_fract_z
Si Si1 0.653292 0.209257 0.388322
Si Si2 0.887472 0.714444 0.912019
Si Si3 0.439535 0.785612 0.722214
Si Si4 0.955566 0.791378 0.067003
Si Si5 0.274942 0.787875 0.900153
Si Si6 0.949093 0.790639 0.273797
Si Si7 0.645475 0.285040 0.603902
Si Si8 0.242373 0.217292 0.707118
O O1 0.604383 0.279402 0.340633
O O2 0.649035 0.231315 0.497531
O O3 0.706133 0.277939 0.345587
O O4 0.654200 0.000000 0.366347
O O5 0.887204 0.500000 0.911890
O O6 0.924857 0.772778 0.827215
O O7 0.831895 0.777773 0.894688
O O8 0.906612 0.774288 0.009317
O O9 0.495287 0.729366 0.692603
O O10 0.439514 0.000000 0.721469
O O11 0.949873 0.715051 0.169673
O O12 0.966967 0.000000 0.077790
O O13 0.000000 0.712973 0.000000
O O14 0.244991 0.725078 0.813390
O O15 0.277988 0.000000 0.890528
O O16 0.250000 0.750000 0.000000
O O17 0.905140 0.719915 0.342402
O O18 0.938584 0.000000 0.265930
O O19 0.645572 0.500000 0.604502
O O20 0.693738 0.223932 0.656555
O O21 0.241320 0.000000 0.705047
#
# Coordination Sequence:
#
# PCOD9193770 Si02
#       8
#     8   8   8   8   8   8   8   8
#     4  10  20  38  62  84 106 139 186 235 280 329
#     4  10  20  35  55  81 111 145 186 228 273 328
#     4  10  20  36  59  83 109 145 187 228 276 328
#     4  10  20  34  54  80 109 144 186 224 264 323
#     4  10  21  37  57  84 116 149 183 224 276 332
#     4  10  22  38  54  80 116 149 184 226 274 331
#     4  10  22  38  57  82 111 146 184 225 281 335
#     4   9  18  37  62  82 109 148 184 224 276 333
#
# _framework density 21.799810999999998
#
# number of rings (size 3 to 8) (size 9 to 14) (size 15 to 20)
#    0.000    2.125    2.500    0.375    1.750    2.750 
#    0.000    3.750    0.000    0.000    0.000    0.000 
#    0.000    0.000    0.000    0.000    0.000    0.000 
#
# Total GULP energy -178776.883188 kJ/mol
# GULP energy per Si atom -5586.777600 kJ/mol
# Density = 2.175019 g / cm^3
# Si number density = 21.799811 Si / 1000 Ang^3
#
#
#
# Elastic Constant Matrix: (Units=GPa)
#
#
# Indices 1 2 3 4 5 6 
#
# 1 142.0740 -13.1876 77.3241 0.0000 1.8070 0.0000
# 2 -13.1876 47.4934 -9.7846 0.0000 -3.3985 0.0000
# 3 77.3241 -9.7846 137.1618 0.0000 -7.6351 0.0000
# 4 0.0000 0.0000 0.0000 20.5424 0.0000 0.7478
# 5 1.8070 -3.3985 -7.6351 0.0000 35.5339 0.0000
# 6 0.0000 0.0000 0.0000 0.7478 0.0000 16.5878
#
#
#
# Elastic Compliance Matrix: (Units=1/GPa)
#
#
# Indices 1 2 3 4 5 6 
#
# 1 0.010377 0.001564 -0.005829 0.000000 -0.001631 0.000000
# 2 0.001564 0.021809 0.000795 0.000000 0.002177 0.000000
# 3 -0.005829 0.000795 0.010783 0.000000 0.002689 0.000000
# 4 0.000000 0.000000 0.000000 0.048760 0.000000 -0.002198
# 5 -0.001631 0.002177 0.002689 0.000000 0.029011 0.000000
# 6 0.000000 0.000000 0.000000 -0.002198 0.000000 0.060384
#
#
# Mechanical properties :
#
#
# Convention : Reuss Voigt Hill
#
# Bulk Modulus (GPa) = 27.75477 48.38144 38.06811
# Shear Modulus (GPa) = 24.99062 32.69131 28.84096
#
# Velocity S-wave (km/s) = 3.38948 3.87669 3.64124
# Velocity P-wave (km/s) = 5.29881 6.50230 5.93116
#
# Compressibility (1/GPa) = 0.03602984
#
# Stress axis : x y z
#
# Youngs Moduli (GPa) = 96.36663 45.85165 92.73609
#
# Poissons Ratio (x) = -0.07170 0.54058
# Poissons Ratio (y) = -0.15070 -0.07376
# Poissons Ratio (z) = 0.56174 -0.03647
#
# Static dielectric constant tensor:
#      x y z
#    x 1.785570 0.000000 0.000490 
#    y 0.000000 1.794800 0.000000 
#    z 0.000490 0.000000 1.763760 
# 
# From -- ./inp_files/238662.got.cif
#   From: 2010.05.17/outbox.cif.g08.bks.cpg/sg12_120_cif.got.tgz:238662.got - 2010.06.03 13:09:07.
