data_PCOD9193954
_publ_section_title
;
Structure prediction by ZEFSAII (Michael W. Deem and Ramdas Pophale) SiO2 
 PCOD9193954
Probable space group: C 2/M
;
_chemical_formula_sum "Si O2"
_cell_formula_units_Z 64
_cell_length_a 30.827597
_cell_length_b 8.941417
_cell_length_c 16.366056
_cell_angle_alpha 90.000000
_cell_angle_beta 134.454391
_cell_angle_gamma 90.000000
_cell_volume 3220.116374
_symmetry_space_group_name_H-M "C 2/M"
_symmetry_group_IT_number 12
_symmetry_cell_setting 'monoclinic'
loop_
_space_group_symop_operation_xyz
x,y,z
-x,y,-z
-x,-y,-z
x,-y,z
1/2+x,1/2+y,z
1/2-x,1/2+y,-z
1/2-x,1/2-y,-z
1/2+x,1/2-y,z
loop_
_atom_site_type_symbol
_atom_site_label
_atom_site_fract_x
_atom_site_fract_y
_atom_site_fract_z
Si Si1 0.639125 0.326448 0.082321
Si Si2 0.063305 0.825781 0.825003
Si Si3 0.568124 0.163331 0.561503
Si Si4 0.158700 0.669481 0.833835
Si Si5 0.063240 0.322532 0.311869
Si Si6 0.644613 0.672953 0.546110
Si Si7 0.439767 0.320610 0.870108
Si Si8 0.739254 0.322435 0.809813
O O1 0.659752 0.500000 0.107336
O O2 0.616224 0.289859 0.142651
O O3 0.692461 0.223220 0.119691
O O4 0.582472 0.316968 0.945413
O O5 0.121059 0.758937 0.852414
O O6 0.999686 0.739567 0.730917
O O7 0.055396 0.000000 0.792677
O O8 0.500000 0.175375 0.500000
O O9 0.610179 0.160779 0.696139
O O10 0.588146 0.299945 0.532550
O O11 0.576339 0.000000 0.530001
O O12 0.173643 0.500000 0.880606
O O13 0.215123 0.747163 0.861752
O O14 0.061124 0.500000 0.309155
O O15 0.122697 0.263544 0.438469
O O16 0.064788 0.260296 0.221951
O O17 0.653777 0.500000 0.537861
O O18 0.699818 0.726376 0.677477
O O19 0.442740 0.500000 0.860349
O O20 0.500000 0.277399 0.000000
O O21 0.731085 0.500000 0.806545
#
# Coordination Sequence:
#
# PCOD9193954 Si02
#       8
#     8   8   8   8   8   8   8   8
#     4  10  22  40  64  88 114 154 196 240 296 353
#     4  11  22  38  59  87 121 157 198 243 296 353
#     4   9  17  30  49  75 110 147 188 239 293 343
#     4  10  20  34  54  83 118 157 199 244 292 343
#     4  12  24  37  59  92 124 153 191 242 297 350
#     4  10  21  37  57  81 112 154 197 238 289 345
#     4  10  20  41  66  89 119 153 190 235 296 358
#     4  10  22  40  61  85 117 158 203 247 289 342
#
# _framework density 19.875057000000002
#
# number of rings (size 3 to 8) (size 9 to 14) (size 15 to 20)
#    0.000    1.750    1.250    3.375    0.000    5.500 
#    0.000    0.625    0.000    0.000    0.000    0.000 
#    0.000    0.000    0.000    0.000    0.000    0.000 
#
# Total GULP energy -178628.612100 kJ/mol
# GULP energy per Si atom -5582.144128 kJ/mol
# Density = 1.982982 g / cm^3
# Si number density = 19.875057 Si / 1000 Ang^3
#
#
#
# Elastic Constant Matrix: (Units=GPa)
#
#
# Indices 1 2 3 4 5 6 
#
# 1 58.5533 23.8836 10.4767 0.0000 -9.8825 0.0000
# 2 23.8836 73.9714 22.6484 0.0000 -8.7105 0.0000
# 3 10.4767 22.6484 75.1641 0.0000 -12.0179 0.0000
# 4 0.0000 0.0000 0.0000 15.5786 0.0000 -3.3667
# 5 -9.8825 -8.7105 -12.0179 0.0000 29.5454 0.0000
# 6 0.0000 0.0000 0.0000 -3.3667 0.0000 30.9244
#
#
#
# Elastic Compliance Matrix: (Units=1/GPa)
#
#
# Indices 1 2 3 4 5 6 
#
# 1 0.020376 -0.005913 -0.000265 0.000000 0.004964 0.000000
# 2 -0.005913 0.016820 -0.004029 0.000000 0.001342 0.000000
# 3 -0.000265 -0.004029 0.015349 0.000000 0.004967 0.000000
# 4 0.000000 0.000000 0.000000 0.065737 0.000000 0.007157
# 5 0.004964 0.001342 0.004967 0.000000 0.037923 0.000000
# 6 0.000000 0.000000 0.000000 0.007157 0.000000 0.033116
#
#
# Mechanical properties :
#
#
# Convention : Reuss Voigt Hill
#
# Bulk Modulus (GPa) = 31.12303 35.74516 33.43410
# Shear Modulus (GPa) = 22.68136 25.25500 23.96818
#
# Velocity S-wave (km/s) = 3.38183 3.56854 3.47644
# Velocity P-wave (km/s) = 5.56258 5.91636 5.74219
#
# Compressibility (1/GPa) = 0.03213054
#
# Stress axis : x y z
#
# Youngs Moduli (GPa) = 49.07816 59.45416 65.14909
#
# Poissons Ratio (x) = 0.35157 0.01723
# Poissons Ratio (y) = 0.29021 0.26251
# Poissons Ratio (z) = 0.01298 0.23956
#
# Static dielectric constant tensor:
#      x y z
#    x 1.697750 0.000000 -0.008570 
#    y 0.000000 1.711510 0.000000 
#    z -0.008570 0.000000 1.733820 
# 
# From -- ./inp_files/249155.got.cif
#   From: 2010.05.17/outbox.cif.g08.bks.cpg/sg12_125_cif.got.tgz:249155.got - 2010.06.03 13:09:07.
