data_PCOD9193031
_publ_section_title
;
Structure prediction by ZEFSAII (Michael W. Deem and Ramdas Pophale) SiO2 
 PCOD9193031
Probable space group: C 2/M
;
_chemical_formula_sum "Si O2"
_cell_formula_units_Z 56
_cell_length_a 15.878370
_cell_length_b 14.498806
_cell_length_c 32.888891
_cell_angle_alpha 90.000000
_cell_angle_beta 24.963566
_cell_angle_gamma 90.000000
_cell_volume 3195.530123
_symmetry_space_group_name_H-M "C 2/M"
_symmetry_group_IT_number 12
_symmetry_cell_setting 'monoclinic'
loop_
_space_group_symop_operation_xyz
x,y,z
-x,y,-z
-x,-y,-z
x,-y,z
1/2+x,1/2+y,z
1/2-x,1/2+y,-z
1/2-x,1/2-y,-z
1/2+x,1/2-y,z
loop_
_atom_site_type_symbol
_atom_site_label
_atom_site_fract_x
_atom_site_fract_y
_atom_site_fract_z
Si Si1 0.688477 0.109007 0.255718
Si Si2 0.749758 0.389838 0.432000
Si Si3 0.640816 0.902818 0.060806
Si Si4 0.550874 0.745495 0.804177
Si Si5 0.469742 0.638737 0.060096
Si Si6 0.806402 0.888660 0.639674
Si Si7 0.362245 0.838519 0.026567
O O1 0.460574 0.144711 0.356292
O O2 0.819417 0.167747 0.230065
O O3 0.772298 0.118473 0.172559
O O4 0.697199 0.000000 0.261688
O O5 0.757003 0.500000 0.433589
O O6 0.539654 0.362488 0.543874
O O7 0.735733 0.374343 0.389762
O O8 0.534490 0.811510 0.123084
O O9 0.538057 0.000000 0.116161
O O10 0.852567 0.901130 0.990492
O O11 0.667216 0.895508 0.001308
O O12 0.670091 0.817610 0.724001
O O13 0.358417 0.700228 0.865985
O O14 0.500000 0.606972 0.000000
O O15 0.507105 0.748046 0.041689
O O16 0.778993 0.000000 0.659742
O O17 0.500000 0.886032 0.000000
#
# Coordination Sequence:
#
# PCOD9193031 Si02
#       7
#     8   8   8   8   8   8   8
#     4  11  21  34  53  76 106 139 174 218 263 308
#     4   8  18  34  54  80 107 133 168 213 267 323
#     4  11  21  35  51  75 108 140 177 217 258 312
#     4  11  21  34  53  78 105 137 178 219 261 310
#     4  10  20  34  52  75 105 137 173 218 267 312
#     4   9  18  35  55  80 109 134 166 212 264 322
#     4  10  21  36  51  71 104 144 183 218 250 303
#
# _framework density 17.524477999999998
#
# number of rings (size 3 to 8) (size 9 to 14) (size 15 to 20)
#    0.000    2.000    2.857    2.571    6.000    2.000 
#    0.000    0.000    0.000    0.429    0.000    2.000 
#    0.000    0.000    0.000    0.000    0.000    0.000 
#
# Total GULP energy -155934.447263 kJ/mol
# GULP energy per Si atom -5569.087402 kJ/mol
# Density = 1.748459 g / cm^3
# Si number density = 17.524478 Si / 1000 Ang^3
#
#
#
# Elastic Constant Matrix: (Units=GPa)
#
#
# Indices 1 2 3 4 5 6 
#
# 1 115.7362 23.2325 44.8773 0.0039 -12.3228 0.0040
# 2 23.2325 63.5565 20.2945 -0.0034 -8.3063 0.0032
# 3 44.8773 20.2945 96.4334 -0.0023 -13.9895 0.0105
# 4 0.0039 -0.0034 -0.0023 30.0129 0.0024 7.7895
# 5 -12.3228 -8.3063 -13.9895 0.0024 29.7353 -0.0022
# 6 0.0040 0.0032 0.0105 7.7895 -0.0022 -12.4352
#
#
#
# Elastic Compliance Matrix: (Units=1/GPa)
#
#
# Indices 1 2 3 4 5 6 
#
# 1 0.011004 -0.002392 -0.004350 -0.000002 0.001845 -0.000002
# 2 -0.002392 0.017688 -0.002185 0.000001 0.002921 0.000002
# 3 -0.004350 -0.002185 0.013420 -0.000001 0.003901 0.000008
# 4 -0.000002 0.000001 -0.000001 0.028660 -0.000002 0.017953
# 5 0.001845 0.002921 0.003901 -0.000002 0.037046 -0.000003
# 6 -0.000002 0.000002 0.000008 0.017953 -0.000003 -0.069171
#
#
# Mechanical properties :
#
#
# Convention : Reuss Voigt Hill
#
# Bulk Modulus (GPa) = 41.22500 50.28165 45.75333
# Shear Modulus (GPa) = 77.41569 21.95069 49.68319
#
# Velocity S-wave (km/s) = 6.65369 3.54301 5.33032
# Velocity P-wave (km/s) = 9.08868 6.74476 8.00300
#
# Compressibility (1/GPa) = 0.02425712
#
# Stress axis : x y z
#
# Youngs Moduli (GPa) = 90.87921 56.53505 74.51674
#
# Poissons Ratio (x) = 0.13524 0.32412
# Poissons Ratio (y) = 0.21740 0.16285
# Poissons Ratio (z) = 0.39529 0.12355
#
# Static dielectric constant tensor:
#      x y z
#    x 1.623970 0.000000 -0.017860 
#    y 0.000000 1.611080 0.000010 
#    z -0.017860 0.000010 1.642260 
# 
# From -- ./inp_files/376358.got.cif
#   From: 2010.05.17/outbox.cif.g08.bks.cpg/sg12_189_cif.got.tgz:376358.got - 2010.06.03 13:09:07.
