data_PCOD9193477
_publ_section_title
;
Structure prediction by ZEFSAII (Michael W. Deem and Ramdas Pophale) SiO2 
 PCOD9193477
Probable space group: C 2/M
;
_chemical_formula_sum "Si O2"
_cell_formula_units_Z 64
_cell_length_a 33.026068
_cell_length_b 8.096774
_cell_length_c 16.450180
_cell_angle_alpha 90.000000
_cell_angle_beta 47.849366
_cell_angle_gamma 90.000000
_cell_volume 3261.235866
_symmetry_space_group_name_H-M "C 2/M"
_symmetry_group_IT_number 12
_symmetry_cell_setting 'monoclinic'
loop_
_space_group_symop_operation_xyz
x,y,z
-x,y,-z
-x,-y,-z
x,-y,z
1/2+x,1/2+y,z
1/2-x,1/2+y,-z
1/2-x,1/2-y,-z
1/2+x,1/2-y,z
loop_
_atom_site_type_symbol
_atom_site_label
_atom_site_fract_x
_atom_site_fract_y
_atom_site_fract_z
Si Si1 0.229375 0.807954 0.614250
Si Si2 0.924985 0.697295 0.358384
Si Si3 0.887124 0.689102 0.227831
Si Si4 0.824272 0.802157 0.604172
Si Si5 0.668270 0.300556 0.064707
Si Si6 0.223032 0.199046 0.159022
Si Si7 0.547730 0.299564 0.177146
Si Si8 0.956204 0.190643 0.000102
O O1 0.250000 0.750000 0.500000
O O2 0.177246 0.694479 0.695261
O O3 0.277447 0.779670 0.612901
O O4 0.213383 0.000000 0.634561
O O5 0.920680 0.500000 0.363231
O O6 0.906955 0.752402 0.290458
O O7 0.882384 0.760348 0.483835
O O8 0.988081 0.746157 0.289477
O O9 0.906271 0.500000 0.194365
O O10 0.905239 0.799030 0.127407
O O11 0.810140 0.749222 0.715735
O O12 0.818487 0.000000 0.608554
O O13 0.667138 0.500000 0.067038
O O14 0.692558 0.241155 0.118246
O O15 0.605623 0.243935 0.137115
O O16 0.713367 0.251485 0.935954
O O17 0.222601 0.000000 0.158438
O O18 0.548587 0.500000 0.178732
O O19 0.549504 0.238504 0.081175
O O20 0.972578 0.000000 0.964658
O O21 0.000000 0.274141 0.000000
#
# Coordination Sequence:
#
# PCOD9193477 Si02
#       8
#     8   8   8   8   8   8   8   8
#     4  12  24  38  57  81 113 151 193 237 282 338
#     4  11  23  38  57  81 114 155 197 240 286 339
#     4  11  23  37  53  77 112 153 193 236 283 333
#     4  11  23  39  60  85 115 153 194 240 290 344
#     4   9  19  38  63  89 117 149 187 234 291 350
#     4   9  20  39  62  89 117 147 187 236 291 348
#     4  10  21  37  58  84 114 153 195 237 289 346
#     4  10  20  34  53  79 112 149 191 232 279 338
#
# _framework density 19.624462999999999
#
# number of rings (size 3 to 8) (size 9 to 14) (size 15 to 20)
#    0.000    1.625    2.500    2.250    1.750    3.250 
#    0.000    0.625    0.000    3.750    0.000    0.000 
#    0.000    0.000    0.000    0.000    0.000    0.000 
#
# Total GULP energy -178355.903170 kJ/mol
# GULP energy per Si atom -5573.621974 kJ/mol
# Density = 1.957980 g / cm^3
# Si number density = 19.624463 Si / 1000 Ang^3
#
#
#
# Elastic Constant Matrix: (Units=GPa)
#
#
# Indices 1 2 3 4 5 6 
#
# 1 100.7284 9.7170 56.3029 -0.0001 -16.7815 -0.0001
# 2 9.7170 44.2565 7.5034 0.0003 3.1518 -0.0010
# 3 56.3029 7.5034 128.5548 0.0001 -8.6451 -0.0003
# 4 -0.0001 0.0003 0.0001 31.1490 0.0000 -15.3049
# 5 -16.7815 3.1518 -8.6451 0.0000 33.6183 -0.0002
# 6 -0.0001 -0.0010 -0.0003 -15.3049 -0.0002 58.3286
#
#
#
# Elastic Compliance Matrix: (Units=1/GPa)
#
#
# Indices 1 2 3 4 5 6 
#
# 1 0.014382 -0.002607 -0.005747 0.000000 0.005946 0.000000
# 2 -0.002607 0.023507 -0.000474 0.000000 -0.003627 0.000000
# 3 -0.005747 -0.000474 0.010312 0.000000 -0.000173 0.000000
# 4 0.000000 0.000000 0.000000 0.036855 0.000000 0.009670
# 5 0.005946 -0.003627 -0.000173 0.000000 0.033009 0.000000
# 6 0.000000 0.000000 0.000000 0.009670 0.000000 0.019682
#
#
# Mechanical properties :
#
#
# Convention : Reuss Voigt Hill
#
# Bulk Modulus (GPa) = 32.73904 46.73181 39.73543
# Shear Modulus (GPa) = 30.19616 37.95362 34.07489
#
# Velocity S-wave (km/s) = 3.92688 4.40249 4.17147
# Velocity P-wave (km/s) = 6.10570 7.05034 6.59495
#
# Compressibility (1/GPa) = 0.03054458
#
# Stress axis : x y z
#
# Youngs Moduli (GPa) = 69.53154 42.54127 96.97633
#
# Poissons Ratio (x) = 0.11090 0.55731
# Poissons Ratio (y) = 0.18126 0.04599
# Poissons Ratio (z) = 0.39959 0.02017
#
# Static dielectric constant tensor:
#      x y z
#    x 1.695740 0.000000 -0.042840 
#    y 0.000000 1.698310 0.000000 
#    z -0.042840 0.000000 1.864250 
# 
# From -- ./inp_files/249805.got.cif
#   From: 2010.05.17/outbox.cif.g08.bks.cpg/sg12_125_cif.got.tgz:249805.got - 2010.06.03 13:09:07.
