data_PCOD9193420
_publ_section_title
;
Structure prediction by ZEFSAII (Michael W. Deem and Ramdas Pophale) SiO2 
 PCOD9193420
Probable space group: C 2/M
;
_chemical_formula_sum "Si O2"
_cell_formula_units_Z 48
_cell_length_a 18.998207
_cell_length_b 8.871659
_cell_length_c 32.495017
_cell_angle_alpha 90.000000
_cell_angle_beta 28.915577
_cell_angle_gamma 90.000000
_cell_volume 2648.189178
_symmetry_space_group_name_H-M "C 2/M"
_symmetry_group_IT_number 12
_symmetry_cell_setting 'monoclinic'
loop_
_space_group_symop_operation_xyz
x,y,z
-x,y,-z
-x,-y,-z
x,-y,z
1/2+x,1/2+y,z
1/2-x,1/2+y,-z
1/2-x,1/2-y,-z
1/2+x,1/2-y,z
loop_
_atom_site_type_symbol
_atom_site_label
_atom_site_fract_x
_atom_site_fract_y
_atom_site_fract_z
Si Si1 0.901077 0.818147 0.266222
Si Si2 0.567629 0.819159 0.420736
Si Si3 0.451026 0.179769 0.729103
Si Si4 0.910713 0.180004 0.422241
Si Si5 0.815866 0.821469 0.925743
Si Si6 0.166693 0.820671 0.924148
O O1 0.738312 0.779919 0.335939
O O2 0.950603 0.740044 0.283323
O O3 0.019686 0.775768 0.170893
O O4 0.907987 0.000000 0.268822
O O5 0.500000 0.785092 0.500000
O O6 0.484431 0.736375 0.426676
O O7 0.554885 0.000000 0.420674
O O8 0.496317 0.261192 0.664168
O O9 0.283486 0.208995 0.828201
O O10 0.470573 0.000000 0.714793
O O11 0.750000 0.250000 0.500000
O O12 0.901261 0.000000 0.426512
O O13 0.720301 0.770840 0.935924
O O14 0.814699 0.000000 0.930839
O O15 0.750000 0.750000 0.000000
O O16 0.176319 0.000000 0.928189
O O17 0.000000 0.785007 0.000000
#
# Coordination Sequence:
#
# PCOD9193420 Si02
#       6
#     8   8   8   8   8   8
#     4   9  19  36  57  81 111 146 182 225 277 329
#     4  10  21  38  60  84 110 141 177 220 273 330
#     4  10  20  36  59  84 112 146 185 229 276 327
#     4  12  25  40  59  83 113 146 183 226 272 326
#     4  10  20  34  53  78 110 147 187 230 275 324
#     4   9  19  36  57  81 111 148 187 228 276 329
#
# _framework density 18.125592999999999
#
# number of rings (size 3 to 8) (size 9 to 14) (size 15 to 20)
#    0.000    2.000    0.000    3.500    0.000    5.333 
#    0.000    6.667    0.000    0.000    0.000    0.000 
#    0.000    0.000    0.000    0.000    0.000    0.000 
#
# Total GULP energy -134032.344843 kJ/mol
# GULP energy per Si atom -5584.681035 kJ/mol
# Density = 1.808434 g / cm^3
# Si number density = 18.125593 Si / 1000 Ang^3
#
#
#
# Elastic Constant Matrix: (Units=GPa)
#
#
# Indices 1 2 3 4 5 6 
#
# 1 124.3904 73.2729 107.0022 0.0002 1.1634 -0.0015
# 2 73.2729 78.9368 80.0081 0.0016 4.3525 -0.0012
# 3 107.0022 80.0081 154.7512 -0.0004 4.1265 0.0001
# 4 0.0002 0.0016 -0.0004 27.6522 -0.0001 4.6913
# 5 1.1634 4.3525 4.1265 -0.0001 37.6808 0.0001
# 6 -0.0015 -0.0012 0.0001 4.6913 0.0001 37.9443
#
#
#
# Elastic Compliance Matrix: (Units=1/GPa)
#
#
# Indices 1 2 3 4 5 6 
#
# 1 0.024024 -0.011583 -0.010670 0.000000 0.001765 0.000001
# 2 -0.011583 0.032293 -0.008622 -0.000002 -0.002428 0.000001
# 3 -0.010670 -0.008622 0.018316 0.000001 -0.000680 -0.000001
# 4 0.000000 -0.000002 0.000001 0.036938 0.000000 -0.004567
# 5 0.001765 -0.002428 -0.000680 0.000000 0.026839 0.000000
# 6 0.000001 0.000001 -0.000001 -0.004567 0.000000 0.026919
#
#
# Mechanical properties :
#
#
# Convention : Reuss Voigt Hill
#
# Bulk Modulus (GPa) = 77.62276 97.62720 87.62498
# Shear Modulus (GPa) = 21.61002 27.17515 24.39258
#
# Velocity S-wave (km/s) = 3.45663 3.87624 3.67243
# Velocity P-wave (km/s) = 7.67131 8.60303 8.15049
#
# Compressibility (1/GPa) = 0.01288282
#
# Stress axis : x y z
#
# Youngs Moduli (GPa) = 41.62502 30.96614 54.59790
#
# Poissons Ratio (x) = 0.35867 0.58256
# Poissons Ratio (y) = 0.48213 0.47077
# Poissons Ratio (z) = 0.44414 0.26700
#
# Static dielectric constant tensor:
#      x y z
#    x 1.573150 0.000000 -0.005350 
#    y 0.000000 1.610060 0.000000 
#    z -0.005350 0.000000 1.632550 
# 
# From -- ./inp_files/274045.got.cif
#   From: 2010.05.17/outbox.cif.g08.bks.cpg/sg12_138_cif.got.tgz:274045.got - 2010.06.03 13:09:07.
