data_PCOD9193661
_publ_section_title
;
Structure prediction by ZEFSAII (Michael W. Deem and Ramdas Pophale) SiO2 
 PCOD9193661
Probable space group: C 2/M
;
_chemical_formula_sum "Si O2"
_cell_formula_units_Z 56
_cell_length_a 21.586888
_cell_length_b 7.707916
_cell_length_c 29.950730
_cell_angle_alpha 90.000000
_cell_angle_beta 149.243797
_cell_angle_gamma 90.000000
_cell_volume 2548.492523
_symmetry_space_group_name_H-M "C 2/M"
_symmetry_group_IT_number 12
_symmetry_cell_setting 'monoclinic'
loop_
_space_group_symop_operation_xyz
x,y,z
-x,y,-z
-x,-y,-z
x,-y,z
1/2+x,1/2+y,z
1/2-x,1/2+y,-z
1/2-x,1/2-y,-z
1/2+x,1/2-y,z
loop_
_atom_site_type_symbol
_atom_site_label
_atom_site_fract_x
_atom_site_fract_y
_atom_site_fract_z
Si Si1 0.187944 0.708043 0.223577
Si Si2 0.248771 0.289465 0.568946
Si Si3 0.863185 0.709009 0.408987
Si Si4 0.440583 0.208981 0.112920
Si Si5 0.227617 0.791841 0.915266
Si Si6 0.048955 0.297712 0.373349
Si Si7 0.779449 0.798857 0.188672
O O1 0.175202 0.500000 0.212144
O O2 0.305150 0.742629 0.326155
O O3 0.205975 0.778391 0.184782
O O4 0.070388 0.774793 0.177079
O O5 0.254018 0.500000 0.570847
O O6 0.220595 0.231683 0.601644
O O7 0.136319 0.235168 0.467464
O O8 0.370502 0.222346 0.621377
O O9 0.866939 0.500000 0.413708
O O10 0.000000 0.772922 0.500000
O O11 0.396354 0.255755 0.134987
O O12 0.441885 0.000000 0.111712
O O13 0.337020 0.272849 0.014359
O O14 0.233000 0.721225 0.868442
O O15 0.238246 0.000000 0.919571
O O16 0.023731 0.500000 0.365827
O O17 0.920961 0.206354 0.289248
O O18 0.741645 0.000000 0.161660
#
# Coordination Sequence:
#
# PCOD9193661 Si02
#       7
#     8   8   8   8   8   8   8
#     4  10  22  37  55  82 114 145 182 231 277 322
#     4   9  19  35  53  75 104 142 183 225 273 326
#     4  10  21  37  56  77 107 147 187 225 269 326
#     4   9  19  37  58  83 112 140 180 229 274 325
#     4   9  19  36  59  82 108 146 183 221 273 330
#     4  10  20  34  54  78 106 139 181 229 274 320
#     4  10  21  36  54  79 111 146 182 222 272 329
#
# _framework density 21.973773000000001
#
# number of rings (size 3 to 8) (size 9 to 14) (size 15 to 20)
#    0.000    2.429    0.000    1.286    2.000    4.857 
#    0.000    2.857    0.000    0.000    0.000    6.000 
#    0.000    0.000    0.000    0.000    0.000    0.000 
#
# Total GULP energy -156396.332161 kJ/mol
# GULP energy per Si atom -5585.583291 kJ/mol
# Density = 2.192376 g / cm^3
# Si number density = 21.973773 Si / 1000 Ang^3
#
#
#
# Elastic Constant Matrix: (Units=GPa)
#
#
# Indices 1 2 3 4 5 6 
#
# 1 156.3687 1.4986 47.1870 0.0002 -22.0574 -0.0002
# 2 1.4986 36.6296 -3.5372 0.0005 -2.0149 -0.0022
# 3 47.1870 -3.5372 57.2608 0.0001 -0.6446 0.0000
# 4 0.0002 0.0005 0.0001 11.1128 0.0001 9.1555
# 5 -22.0574 -2.0149 -0.6446 0.0001 30.7364 -0.0001
# 6 -0.0002 -0.0022 0.0000 9.1555 -0.0001 4.7582
#
#
#
# Elastic Compliance Matrix: (Units=1/GPa)
#
#
# Indices 1 2 3 4 5 6 
#
# 1 0.009789 -0.000803 -0.008039 0.000000 0.006803 -0.000001
# 2 -0.000803 0.027634 0.002383 0.000020 0.001285 -0.000026
# 3 -0.008039 0.002383 0.024179 0.000001 -0.005106 -0.000002
# 4 0.000000 0.000020 0.000001 -0.153762 0.000003 0.295858
# 5 0.006803 0.001285 -0.005106 0.000003 0.037394 -0.000005
# 6 -0.000001 -0.000026 -0.000002 0.295858 -0.000005 -0.359109
#
#
# Mechanical properties :
#
#
# Convention : Reuss Voigt Hill
#
# Bulk Modulus (GPa) = 20.54101 37.83953 29.19027
# Shear Modulus (GPa) = -12.99615 22.99554 4.99970
#
# Velocity S-wave (km/s) = -2.43459 3.23847 1.51005
# Velocity P-wave (km/s) = 1.21049 5.58939 4.04392
#
# Compressibility (1/GPa) = 0.04868309
#
# Stress axis : x y z
#
# Youngs Moduli (GPa) = 102.15999 36.18730 41.35858
#
# Poissons Ratio (x) = 0.02904 0.33250
# Poissons Ratio (y) = 0.08199 -0.09856
# Poissons Ratio (z) = 0.82131 -0.08623
#
# Static dielectric constant tensor:
#      x y z
#    x 1.818760 0.000000 -0.006870 
#    y 0.000000 1.824380 0.000000 
#    z -0.006870 0.000000 1.780950 
# 
# From -- ./inp_files/380788.got.cif
#   From: 2010.05.17/outbox.cif.g08.bks.cpg/sg12_191_cif.got.tgz:380788.got - 2010.06.03 13:09:07.
