data_PCOD9193715
_publ_section_title
;
Structure prediction by ZEFSAII (Michael W. Deem and Ramdas Pophale) SiO2 
 PCOD9193715
Probable space group: C 2/M
;
_chemical_formula_sum "Si O2"
_cell_formula_units_Z 56
_cell_length_a 16.752612
_cell_length_b 7.643914
_cell_length_c 24.061498
_cell_angle_alpha 90.000000
_cell_angle_beta 59.103604
_cell_angle_gamma 90.000000
_cell_volume 2643.975779
_symmetry_space_group_name_H-M "C 2/M"
_symmetry_group_IT_number 12
_symmetry_cell_setting 'monoclinic'
loop_
_space_group_symop_operation_xyz
x,y,z
-x,y,-z
-x,-y,-z
x,-y,z
1/2+x,1/2+y,z
1/2-x,1/2+y,-z
1/2-x,1/2-y,-z
1/2+x,1/2-y,z
loop_
_atom_site_type_symbol
_atom_site_label
_atom_site_fract_x
_atom_site_fract_y
_atom_site_fract_z
Si Si1 0.563506 0.207166 0.927782
Si Si2 0.458484 0.298898 0.852063
Si Si3 0.769621 0.706877 0.429235
Si Si4 0.926576 0.300880 0.293027
Si Si5 0.223098 0.213145 0.153434
Si Si6 0.917356 0.211372 0.568070
Si Si7 0.396312 0.713058 0.701769
O O1 0.506035 0.224393 0.890653
O O2 0.670431 0.275380 0.891664
O O3 0.574120 0.000000 0.933681
O O4 0.500000 0.280988 0.000000
O O5 0.438349 0.500000 0.871758
O O6 0.537759 0.287400 0.775985
O O7 0.360992 0.227604 0.858908
O O8 0.788498 0.500000 0.422499
O O9 0.750000 0.750000 0.500000
O O10 0.850186 0.783444 0.361126
O O11 0.675543 0.746404 0.431535
O O12 0.898644 0.500000 0.287834
O O13 0.017429 0.298488 0.298393
O O14 0.191169 0.256296 0.227955
O O15 0.222283 0.000000 0.149932
O O16 0.902347 0.271710 0.636176
O O17 0.000000 0.280706 0.500000
O O18 0.930219 0.000000 0.567355
O O19 0.405495 0.500000 0.700027
#
# Coordination Sequence:
#
# PCOD9193715 Si02
#       7
#     8   8   8   8   8   8   8
#     4  10  21  37  59  87 117 149 186 233 286 337
#     4  10  21  38  59  83 112 151 193 230 275 335
#     4  10  21  34  51  75 103 139 179 221 273 327
#     4  10  20  34  54  79 108 139 176 227 282 328
#     4   8  17  34  56  80 110 149 187 224 277 339
#     4   9  17  29  48  73  97 131 177 216 256 317
#     4   9  17  32  55  75  99 138 180 222 266 324
#
# _framework density 21.180223999999999
#
# number of rings (size 3 to 8) (size 9 to 14) (size 15 to 20)
#    0.000    2.571    0.000    2.571    2.000    3.143 
#    0.000    4.286    0.000    2.571    0.000    0.000 
#    0.000    0.000    0.000    0.000    0.000    0.000 
#
# Total GULP energy -155935.917491 kJ/mol
# GULP energy per Si atom -5569.139910 kJ/mol
# Density = 2.113202 g / cm^3
# Si number density = 21.180224 Si / 1000 Ang^3
#
#
#
# Elastic Constant Matrix: (Units=GPa)
#
#
# Indices 1 2 3 4 5 6 
#
# 1 123.6223 -4.9006 109.0163 0.0002 -13.5714 0.0000
# 2 -4.9006 35.9850 0.4300 0.0004 -6.5868 0.0002
# 3 109.0163 0.4300 193.7687 0.0000 -15.8424 0.0000
# 4 0.0002 0.0004 0.0000 38.8362 0.0000 23.0397
# 5 -13.5714 -6.5868 -15.8424 0.0000 44.9392 0.0000
# 6 0.0000 0.0002 0.0000 23.0397 0.0000 31.7005
#
#
#
# Elastic Compliance Matrix: (Units=1/GPa)
#
#
# Indices 1 2 3 4 5 6 
#
# 1 0.016443 0.002744 -0.009080 0.000000 0.002167 0.000000
# 2 0.002744 0.029029 -0.001228 0.000000 0.004651 0.000000
# 3 -0.009080 -0.001228 0.010331 0.000000 0.000720 0.000000
# 4 0.000000 0.000000 0.000000 0.045267 0.000000 -0.032900
# 5 0.002167 0.004651 0.000720 0.000000 0.023842 0.000000
# 6 0.000000 0.000000 0.000000 -0.032900 0.000000 0.055457
#
#
# Mechanical properties :
#
#
# Convention : Reuss Voigt Hill
#
# Bulk Modulus (GPa) = 24.58488 62.49640 43.54064
# Shear Modulus (GPa) = 23.91717 39.68384 31.80051
#
# Velocity S-wave (km/s) = 3.36404 4.33324 3.87903
# Velocity P-wave (km/s) = 5.16930 7.38965 6.37686
#
# Compressibility (1/GPa) = 0.04067540
#
# Stress axis : x y z
#
# Youngs Moduli (GPa) = 60.81630 34.44827 96.79781
#
# Poissons Ratio (x) = -0.09454 0.87891
# Poissons Ratio (y) = -0.16691 0.11889
# Poissons Ratio (z) = 0.55221 0.04231
#
# Static dielectric constant tensor:
#      x y z
#    x 1.606420 0.000000 -0.161140 
#    y 0.000000 1.820650 0.000000 
#    z -0.161140 0.000000 1.837260 
# 
# From -- ./inp_files/338450.got.cif
#   From: 2010.05.17/outbox.cif.g08.bks.cpg/sg12_170_cif.got.tgz:338450.got - 2010.06.03 13:09:07.
