data_PCOD9193058
_publ_section_title
;
Structure prediction by ZEFSAII (Michael W. Deem and Ramdas Pophale) SiO2 
 PCOD9193058
Probable space group: C 2/M
;
_chemical_formula_sum "Si O2"
_cell_formula_units_Z 56
_cell_length_a 16.268482
_cell_length_b 8.189984
_cell_length_c 24.872759
_cell_angle_alpha 90.000000
_cell_angle_beta 43.205393
_cell_angle_gamma 90.000000
_cell_volume 2268.824545
_symmetry_space_group_name_H-M "C 2/M"
_symmetry_group_IT_number 12
_symmetry_cell_setting 'monoclinic'
loop_
_space_group_symop_operation_xyz
x,y,z
-x,y,-z
-x,-y,-z
x,-y,z
1/2+x,1/2+y,z
1/2-x,1/2+y,-z
1/2-x,1/2-y,-z
1/2+x,1/2-y,z
loop_
_atom_site_type_symbol
_atom_site_label
_atom_site_fract_x
_atom_site_fract_y
_atom_site_fract_z
Si Si1 0.326096 0.305194 0.765440
Si Si2 0.245003 0.191194 0.087304
Si Si3 0.163239 0.196128 0.471299
Si Si4 0.598892 0.310527 0.675229
Si Si5 0.402613 0.699480 0.619742
Si Si6 0.509470 0.186423 0.823826
Si Si7 0.513741 0.689719 0.053789
O O1 0.301152 0.500000 0.776138
O O2 0.255629 0.240764 0.850804
O O3 0.467139 0.285740 0.713290
O O4 0.321727 0.238329 0.707258
O O5 0.107944 0.207077 0.133674
O O6 0.277110 0.000000 0.071212
O O7 0.342618 0.288005 0.006793
O O8 0.295419 0.266367 0.416515
O O9 0.139155 0.240260 0.419989
O O10 0.041968 0.252274 0.558231
O O11 0.169007 0.000000 0.473440
O O12 0.610023 0.500000 0.683593
O O13 0.599713 0.212466 0.731161
O O14 0.403032 0.500000 0.622385
O O15 0.549703 0.226968 0.865190
O O16 0.470044 0.000000 0.842002
O O17 0.482073 0.500000 0.068248
O O18 0.500000 0.760351 0.000000
#
# Coordination Sequence:
#
# PCOD9193058 Si02
#       7
#     8   8   8   8   8   8   8
#     4   8  16  31  51  74 101 135 173 214 258 308
#     4  10  20  36  58  82 109 142 182 224 269 321
#     4   9  17  30  51  76 102 136 177 220 263 312
#     4  10  20  34  52  76 106 137 172 217 269 320
#     4   8  15  30  50  73 102 137 178 218 259 310
#     4  11  22  38  60  81 105 140 182 223 268 324
#     4  11  24  40  57  81 114 145 176 218 265 313
#
# _framework density 24.682383000000002
#
# number of rings (size 3 to 8) (size 9 to 14) (size 15 to 20)
#    0.000    2.429    0.000    4.714    0.000    2.857 
#    0.000    2.857    0.000    8.571    0.000    0.000 
#    0.000    0.000    0.000    0.000    0.000    0.000 
#
# Total GULP energy -156473.972183 kJ/mol
# GULP energy per Si atom -5588.356149 kJ/mol
# Density = 2.462621 g / cm^3
# Si number density = 24.682383 Si / 1000 Ang^3
#
#
#
# Elastic Constant Matrix: (Units=GPa)
#
#
# Indices 1 2 3 4 5 6 
#
# 1 43.5712 4.1927 -0.5921 0.0000 11.0584 0.0002
# 2 4.1927 40.6392 0.7305 0.0000 -0.0227 0.0006
# 3 -0.5921 0.7305 132.9564 0.0000 9.7387 0.0000
# 4 0.0000 0.0000 0.0000 23.1422 0.0000 -5.2282
# 5 11.0584 -0.0227 9.7387 0.0000 46.7627 0.0000
# 6 0.0002 0.0006 0.0000 -5.2282 0.0000 17.0846
#
#
#
# Elastic Compliance Matrix: (Units=1/GPa)
#
#
# Indices 1 2 3 4 5 6 
#
# 1 0.024719 -0.002564 0.000561 0.000000 -0.005964 0.000000
# 2 -0.002564 0.024875 -0.000196 0.000000 0.000659 -0.000001
# 3 0.000561 -0.000196 0.007651 0.000000 -0.001726 0.000000
# 4 0.000000 0.000000 0.000000 0.046420 0.000000 0.014205
# 5 -0.005964 0.000659 -0.001726 0.000000 0.023155 0.000000
# 6 0.000000 -0.000001 0.000000 0.014205 0.000000 0.062879
#
#
# Mechanical properties :
#
#
# Convention : Reuss Voigt Hill
#
# Bulk Modulus (GPa) = 18.92246 25.09210 22.00728
# Shear Modulus (GPa) = 23.61685 31.58696 27.60190
#
# Velocity S-wave (km/s) = 3.09662 3.58122 3.34770
# Velocity P-wave (km/s) = 4.52421 5.22382 4.88655
#
# Compressibility (1/GPa) = 0.05284726
#
# Stress axis : x y z
#
# Youngs Moduli (GPa) = 40.45505 40.20072 130.69714
#
# Poissons Ratio (x) = 0.10306 -0.07332
# Poissons Ratio (y) = 0.10371 0.02567
# Poissons Ratio (z) = -0.02269 0.00789
#
# Static dielectric constant tensor:
#      x y z
#    x 2.111700 0.000000 0.003030 
#    y 0.000000 1.839510 0.000000 
#    z 0.003030 0.000000 1.944870 
# 
# From -- ./inp_files/362969.got.cif
#   From: 2010.05.17/outbox.cif.g08.bks.cpg/sg12_182_cif.got.tgz:362969.got - 2010.06.03 13:09:07.
