data_PCOD9193314
_publ_section_title
;
Structure prediction by ZEFSAII (Michael W. Deem and Ramdas Pophale) SiO2 
 PCOD9193314
Probable space group: C 2/M
;
_chemical_formula_sum "Si O2"
_cell_formula_units_Z 56
_cell_length_a 16.101236
_cell_length_b 9.426675
_cell_length_c 19.116179
_cell_angle_alpha 90.000000
_cell_angle_beta 118.890920
_cell_angle_gamma 90.000000
_cell_volume 2540.360659
_symmetry_space_group_name_H-M "C 2/M"
_symmetry_group_IT_number 12
_symmetry_cell_setting 'monoclinic'
loop_
_space_group_symop_operation_xyz
x,y,z
-x,y,-z
-x,-y,-z
x,-y,z
1/2+x,1/2+y,z
1/2-x,1/2+y,-z
1/2-x,1/2-y,-z
1/2+x,1/2-y,z
loop_
_atom_site_type_symbol
_atom_site_label
_atom_site_fract_x
_atom_site_fract_y
_atom_site_fract_z
Si Si1 0.442571 0.662721 0.194319
Si Si2 0.612299 0.163862 0.484611
Si Si3 0.069839 0.832653 0.962788
Si Si4 0.441245 0.164982 0.331381
Si Si5 0.277773 0.836973 0.618887
Si Si6 0.786266 0.664151 0.895560
Si Si7 0.713570 0.665872 0.244968
O O1 0.470954 0.500000 0.217410
O O2 0.474814 0.708459 0.130124
O O3 0.468020 0.752467 0.272194
O O4 0.327362 0.668706 0.142650
O O5 0.504866 0.208820 0.423434
O O6 0.660563 0.164120 0.426783
O O7 0.677569 0.266762 0.556255
O O8 0.615945 0.000000 0.512760
O O9 0.095195 0.000000 0.967414
O O10 0.159997 0.738243 0.018805
O O11 0.000000 0.817330 0.000000
O O12 0.328785 0.176318 0.295850
O O13 0.463411 0.000000 0.329720
O O14 0.320702 0.743069 0.698845
O O15 0.266420 0.000000 0.637309
O O16 0.814475 0.500000 0.900542
O O17 0.811381 0.752157 0.836015
O O18 0.687394 0.500000 0.230763
#
# Coordination Sequence:
#
# PCOD9193314 Si02
#       7
#     8   8   8   8   8   8   8
#     4   9  19  35  54  76 103 135 170 210 256 305
#     4   9  19  36  54  74 103 138 175 212 253 304
#     4  10  21  36  53  77 108 138 170 209 255 307
#     4   9  19  35  55  77 100 132 174 215 254 301
#     4  10  20  34  53  77 105 137 173 213 256 305
#     4  10  20  35  55  77 102 134 173 214 254 301
#     4  10  20  35  55  77 103 135 170 211 259 308
#
# _framework density 22.044114
#
# number of rings (size 3 to 8) (size 9 to 14) (size 15 to 20)
#    0.000    2.429    0.000    1.714    0.000    4.857 
#    0.000    5.714    0.000    0.000    0.000    0.000 
#    0.000    0.000    0.000    0.000    0.000    0.000 
#
# Total GULP energy -156559.052363 kJ/mol
# GULP energy per Si atom -5591.394727 kJ/mol
# Density = 2.199394 g / cm^3
# Si number density = 22.044114 Si / 1000 Ang^3
#
#
#
# Elastic Constant Matrix: (Units=GPa)
#
#
# Indices 1 2 3 4 5 6 
#
# 1 64.7809 24.8876 8.5758 0.0000 -6.9531 0.0000
# 2 24.8876 85.2556 48.5473 0.0000 -13.7176 0.0000
# 3 8.5758 48.5473 107.2819 0.0000 -19.4706 0.0000
# 4 0.0000 0.0000 0.0000 40.8776 0.0000 -5.5349
# 5 -6.9531 -13.7176 -19.4706 0.0000 43.9366 0.0000
# 6 0.0000 0.0000 0.0000 -5.5349 0.0000 16.2848
#
#
#
# Elastic Compliance Matrix: (Units=1/GPa)
#
#
# Indices 1 2 3 4 5 6 
#
# 1 0.017616 -0.005719 0.001481 0.000000 0.001658 0.000000
# 2 -0.005719 0.017808 -0.007347 0.000000 0.001399 0.000000
# 3 0.001481 -0.007347 0.013217 0.000000 0.003797 0.000000
# 4 0.000000 0.000000 0.000000 0.025643 0.000000 0.008716
# 5 0.001658 0.001399 0.003797 0.000000 0.025142 0.000000
# 6 0.000000 0.000000 0.000000 0.008716 0.000000 0.064369
#
#
# Mechanical properties :
#
#
# Convention : Reuss Voigt Hill
#
# Bulk Modulus (GPa) = 39.26250 46.81555 43.03902
# Shear Modulus (GPa) = 25.58128 31.90698 28.74413
#
# Velocity S-wave (km/s) = 3.41025 3.80862 3.61492
# Velocity P-wave (km/s) = 5.77546 6.37370 6.08194
#
# Compressibility (1/GPa) = 0.02546960
#
# Stress axis : x y z
#
# Youngs Moduli (GPa) = 56.76775 56.15548 75.66066
#
# Poissons Ratio (x) = 0.32113 -0.11203
# Poissons Ratio (y) = 0.32463 0.55591
# Poissons Ratio (z) = -0.08405 0.41259
#
# Static dielectric constant tensor:
#      x y z
#    x 1.898940 0.000000 0.010100 
#    y 0.000000 1.738310 0.000000 
#    z 0.010100 0.000000 1.779030 
# 
# From -- ./inp_files/280908.got.cif
#   From: 2010.05.17/outbox.cif.g08.bks.cpg/sg12_141_cif.got.tgz:280908.got - 2010.06.03 13:09:07.
