data_PCOD9193574
_publ_section_title
;
Structure prediction by ZEFSAII (Michael W. Deem and Ramdas Pophale) SiO2 
 PCOD9193574
Probable space group: C 2/M
;
_chemical_formula_sum "Si O2"
_cell_formula_units_Z 44
_cell_length_a 14.020066
_cell_length_b 20.048752
_cell_length_c 9.774651
_cell_angle_alpha 90.000000
_cell_angle_beta 123.849973
_cell_angle_gamma 90.000000
_cell_volume 2281.800929
_symmetry_space_group_name_H-M "C 2/M"
_symmetry_group_IT_number 12
_symmetry_cell_setting 'monoclinic'
loop_
_space_group_symop_operation_xyz
x,y,z
-x,y,-z
-x,-y,-z
x,-y,z
1/2+x,1/2+y,z
1/2-x,1/2+y,-z
1/2-x,1/2-y,-z
1/2+x,1/2-y,z
loop_
_atom_site_type_symbol
_atom_site_label
_atom_site_fract_x
_atom_site_fract_y
_atom_site_fract_z
Si Si1 0.736091 0.316203 0.396486
Si Si2 0.112589 0.079365 0.665103
Si Si3 0.167860 0.246333 0.061821
Si Si4 0.664892 0.078558 0.339785
Si Si5 0.500000 0.864227 0.000000
Si Si6 0.989766 0.126176 0.141977
O O1 0.750000 0.250000 0.500000
O O2 0.735735 0.286372 0.243202
O O3 0.825145 0.371146 0.524069
O O4 0.614767 0.356585 0.302591
O O5 0.228711 0.098047 0.677672
O O6 0.092073 0.094262 0.808678
O O7 0.000000 0.108533 0.500000
O O8 0.109237 0.000000 0.648916
O O9 0.104830 0.315340 0.044446
O O10 0.250000 0.250000 0.000000
O O11 0.067879 0.196290 0.938290
O O12 0.676059 0.000000 0.383392
O O13 0.548398 0.091984 0.162939
O O14 0.000000 0.091380 0.000000
#
# Coordination Sequence:
#
# PCOD9193574 Si02
#       6
#     8   8   8   8   4   8
#     4  11  20  38  59  88 122 159 208 260 313 372
#     4  10  20  35  58  88 119 163 215 256 307 380
#     4  11  22  38  62  92 127 163 211 266 318 379
#     4  11  23  39  64  92 129 172 214 266 324 387
#     4  12  21  42  62  92 131 166 222 262 321 392
#     4  10  20  34  53  85 123 157 200 259 319 364
#
# _framework density 19.283014999999999
#
# number of rings (size 3 to 8) (size 9 to 14) (size 15 to 20)
#    0.000    1.273    6.364    1.364    0.000    0.364 
#    0.000    5.455    0.000    3.273    0.000    0.000 
#    0.000    0.000    0.000    0.000    0.000    0.000 
#
# Total GULP energy -122553.297317 kJ/mol
# GULP energy per Si atom -5570.604424 kJ/mol
# Density = 1.923913 g / cm^3
# Si number density = 19.283015 Si / 1000 Ang^3
#
#
#
# Elastic Constant Matrix: (Units=GPa)
#
#
# Indices 1 2 3 4 5 6 
#
# 1 59.5433 10.7704 1.8342 0.0000 -14.5941 0.0000
# 2 10.7704 70.5901 34.0824 0.0000 7.1642 0.0000
# 3 1.8342 34.0824 106.4943 0.0000 11.5710 0.0000
# 4 0.0000 0.0000 0.0000 25.7293 0.0000 -12.8082
# 5 -14.5941 7.1642 11.5710 0.0000 24.6390 0.0000
# 6 0.0000 0.0000 0.0000 -12.8082 0.0000 10.5057
#
#
#
# Elastic Compliance Matrix: (Units=1/GPa)
#
#
# Indices 1 2 3 4 5 6 
#
# 1 0.021024 -0.004396 -0.000471 0.000000 0.013952 0.000000
# 2 -0.004396 0.017820 -0.005038 0.000000 -0.005419 0.000000
# 3 -0.000471 -0.005038 0.011467 0.000000 -0.004199 0.000000
# 4 0.000000 0.000000 0.000000 0.098873 0.000000 0.120542
# 5 0.013952 -0.005419 -0.004199 0.000000 0.052398 0.000000
# 6 0.000000 0.000000 0.000000 0.120542 0.000000 0.242148
#
#
# Mechanical properties :
#
#
# Convention : Reuss Voigt Hill
#
# Bulk Modulus (GPa) = 32.78800 36.66686 34.72743
# Shear Modulus (GPa) = 10.55503 24.83751 17.69627
#
# Velocity S-wave (km/s) = 2.34214 3.59284 3.03266
# Velocity P-wave (km/s) = 4.93504 6.02227 5.50556
#
# Compressibility (1/GPa) = 0.03049896
#
# Stress axis : x y z
#
# Youngs Moduli (GPa) = 47.56471 56.11743 87.20632
#
# Poissons Ratio (x) = 0.24671 0.04108
# Poissons Ratio (y) = 0.20911 0.43939
# Poissons Ratio (z) = 0.02241 0.28275
#
# Static dielectric constant tensor:
#      x y z
#    x 1.668980 0.000000 0.014100 
#    y 0.000000 1.676540 0.000000 
#    z 0.014100 0.000000 1.729660 
# 
# From -- ./inp_files/65557.got.cif
#   From: 2010.05.17/outbox.cif.g08.bks.cpg/sg12_33_cif.got.tgz:65557.got - 2010.06.03 13:09:07.
