data_PCOD9193501
_publ_section_title
;
Structure prediction by ZEFSAII (Michael W. Deem and Ramdas Pophale) SiO2 
 PCOD9193501
Probable space group: C 2/M
;
_chemical_formula_sum "Si O2"
_cell_formula_units_Z 48
_cell_length_a 19.664720
_cell_length_b 18.143548
_cell_length_c 11.627135
_cell_angle_alpha 90.000000
_cell_angle_beta 42.698543
_cell_angle_gamma 90.000000
_cell_volume 2813.213484
_symmetry_space_group_name_H-M "C 2/M"
_symmetry_group_IT_number 12
_symmetry_cell_setting 'monoclinic'
loop_
_space_group_symop_operation_xyz
x,y,z
-x,y,-z
-x,-y,-z
x,-y,z
1/2+x,1/2+y,z
1/2-x,1/2+y,-z
1/2-x,1/2-y,-z
1/2+x,1/2-y,z
loop_
_atom_site_type_symbol
_atom_site_label
_atom_site_fract_x
_atom_site_fract_y
_atom_site_fract_z
Si Si1 0.434917 0.673843 0.345080
Si Si2 0.385194 0.281299 0.161585
Si Si3 0.927624 0.289053 0.695894
Si Si4 0.715703 0.679512 0.264062
Si Si5 0.294396 0.915358 0.965851
Si Si6 0.891774 0.084060 0.979112
O O1 0.373609 0.701082 0.310407
O O2 0.508023 0.739654 0.296364
O O3 0.363756 0.655551 0.540304
O O4 0.507640 0.608670 0.212638
O O5 0.305720 0.223664 0.212296
O O6 0.376883 0.356972 0.099049
O O7 0.500000 0.255370 0.000000
O O8 0.841354 0.236509 0.750206
O O9 0.878471 0.359106 0.816826
O O10 0.000000 0.309989 0.500000
O O11 0.756119 0.613460 0.136267
O O12 0.201129 0.910499 0.993175
O O13 0.327790 0.000000 0.928401
O O14 0.899143 0.000000 0.011065
#
# Coordination Sequence:
#
# PCOD9193501 Si02
#       6
#     8   8   8   8   8   8
#     4  10  21  34  55  85 107 140 177 219 269 310
#     4  10  20  34  56  81 106 142 179 221 265 310
#     4  10  20  36  58  80 104 137 183 227 261 307
#     4  11  20  36  57  79 110 140 178 222 262 317
#     4  11  21  34  55  80 109 143 177 217 266 316
#     4  10  20  34  53  80 112 143 176 214 264 322
#
# _framework density 17.062339000000001
#
# number of rings (size 3 to 8) (size 9 to 14) (size 15 to 20)
#    0.000    1.667    3.333    3.000    0.000    4.000 
#    0.000    1.667    0.000    4.500    0.000    0.000 
#    0.000    0.000    0.000    0.000    0.000    0.000 
#
# Total GULP energy -134001.993009 kJ/mol
# GULP energy per Si atom -5583.416375 kJ/mol
# Density = 1.702350 g / cm^3
# Si number density = 17.062339 Si / 1000 Ang^3
#
#
#
# Elastic Constant Matrix: (Units=GPa)
#
#
# Indices 1 2 3 4 5 6 
#
# 1 80.5763 23.2363 13.6100 0.0000 7.0013 0.0000
# 2 23.2363 37.6249 15.9699 0.0000 0.5270 0.0000
# 3 13.6100 15.9699 45.4085 0.0000 9.0045 0.0000
# 4 0.0000 0.0000 0.0000 2.0183 0.0000 -2.3159
# 5 7.0013 0.5270 9.0045 0.0000 24.6923 0.0000
# 6 0.0000 0.0000 0.0000 -2.3159 0.0000 21.5686
#
#
#
# Elastic Compliance Matrix: (Units=1/GPa)
#
#
# Indices 1 2 3 4 5 6 
#
# 1 0.015536 -0.009284 -0.000601 0.000000 -0.003988 0.000000
# 2 -0.009284 0.037089 -0.011455 0.000000 0.006018 0.000000
# 3 -0.000601 -0.011455 0.028187 0.000000 -0.009864 0.000000
# 4 0.000000 0.000000 0.000000 0.565088 0.000000 0.060675
# 5 -0.003988 0.006018 -0.009864 0.000000 0.045098 0.000000
# 6 0.000000 0.000000 0.000000 0.060675 0.000000 0.052879
#
#
# Mechanical properties :
#
#
# Convention : Reuss Voigt Hill
#
# Bulk Modulus (GPa) = 26.22362 29.91580 28.06971
# Shear Modulus (GPa) = 6.25574 17.04208 11.64891
#
# Velocity S-wave (km/s) = 1.91686 3.16383 2.61574
# Velocity P-wave (km/s) = 4.50575 5.56037 5.06061
#
# Compressibility (1/GPa) = 0.03813355
#
# Stress axis : x y z
#
# Youngs Moduli (GPa) = 64.36767 26.96195 35.47736
#
# Poissons Ratio (x) = 0.25031 0.02131
# Poissons Ratio (y) = 0.59757 0.40639
# Poissons Ratio (z) = 0.03866 0.30885
#
# Static dielectric constant tensor:
#      x y z
#    x 1.580900 0.000000 0.004450 
#    y 0.000000 1.547650 0.000000 
#    z 0.004450 0.000000 1.580490 
# 
# From -- ./inp_files/157424.got.cif
#   From: 2010.05.17/outbox.cif.g08.bks.cpg/sg12_79_cif.got.tgz:157424.got - 2010.06.03 13:09:07.
