data_PCOD9193125
_publ_section_title
;
Structure prediction by ZEFSAII (Michael W. Deem and Ramdas Pophale) SiO2 
 PCOD9193125
Probable space group: C 2/M
;
_chemical_formula_sum "Si O2"
_cell_formula_units_Z 64
_cell_length_a 14.808499
_cell_length_b 8.402038
_cell_length_c 24.647574
_cell_angle_alpha 90.000000
_cell_angle_beta 80.068448
_cell_angle_gamma 90.000000
_cell_volume 3020.733998
_symmetry_space_group_name_H-M "C 2/M"
_symmetry_group_IT_number 12
_symmetry_cell_setting 'monoclinic'
loop_
_space_group_symop_operation_xyz
x,y,z
-x,y,-z
-x,-y,-z
x,-y,z
1/2+x,1/2+y,z
1/2-x,1/2+y,-z
1/2-x,1/2-y,-z
1/2+x,1/2-y,z
loop_
_atom_site_type_symbol
_atom_site_label
_atom_site_fract_x
_atom_site_fract_y
_atom_site_fract_z
Si Si1 0.977323 0.810525 0.588878
Si Si2 0.218414 0.314971 0.379236
Si Si3 0.182945 0.689161 0.255124
Si Si4 0.876458 0.807593 0.204493
Si Si5 0.472755 0.192098 0.087567
Si Si6 0.146722 0.691852 0.003881
Si Si7 0.509503 0.312542 0.708047
Si Si8 0.665144 0.815507 0.543449
O O1 0.068605 0.773114 0.545871
O O2 0.881277 0.726972 0.585571
O O3 0.001544 0.750373 0.647608
O O4 0.961030 0.000000 0.591174
O O5 0.240059 0.500000 0.386550
O O6 0.209916 0.289278 0.315763
O O7 0.296777 0.213307 0.399590
O O8 0.165861 0.500000 0.249211
O O9 0.270304 0.740719 0.211156
O O10 0.090138 0.784015 0.255489
O O11 0.938400 0.754643 0.148367
O O12 0.917294 0.746386 0.257309
O O13 0.876656 0.000000 0.207021
O O14 0.400953 0.241364 0.047885
O O15 0.473032 0.000000 0.088975
O O16 0.574296 0.243614 0.057893
O O17 0.147951 0.500000 0.004256
O O18 0.250000 0.750000 0.000000
O O19 0.528306 0.500000 0.699959
O O20 0.750000 0.750000 0.500000
O O21 0.651343 0.000000 0.534044
#
# Coordination Sequence:
#
# PCOD9193125 Si02
#       8
#     8   8   8   8   8   8   8   8
#     4  10  20  38  61  84 111 145 183 226 272 323
#     4  10  20  38  61  84 111 145 183 226 272 323
#     4   9  19  35  55  79 109 143 179 216 261 315
#     4  10  20  34  52  78 112 146 176 215 262 311
#     4   9  20  37  53  75 106 139 174 217 266 317
#     4   9  19  37  58  76 100 135 177 221 268 316
#     4   9  19  35  55  79 109 143 179 216 261 315
#     4  12  25  40  58  83 111 143 183 227 277 331
#
# _framework density 21.186903999999998
#
# number of rings (size 3 to 8) (size 9 to 14) (size 15 to 20)
#    0.000    2.250    0.000    3.375    0.000    6.500 
#    0.000   10.000    0.000    0.000    0.000    0.000 
#    0.000    0.000    0.000    0.000    0.000    0.000 
#
# Total GULP energy -178736.397715 kJ/mol
# GULP energy per Si atom -5585.512429 kJ/mol
# Density = 2.113868 g / cm^3
# Si number density = 21.186904 Si / 1000 Ang^3
#
#
#
# Elastic Constant Matrix: (Units=GPa)
#
#
# Indices 1 2 3 4 5 6 
#
# 1 111.9054 2.2115 19.2346 0.0000 -24.9110 0.0000
# 2 2.2115 19.6336 -0.5861 0.0000 0.1922 0.0000
# 3 19.2346 -0.5861 55.6262 0.0000 -19.6740 0.0000
# 4 0.0000 0.0000 0.0000 28.0040 0.0000 -3.1688
# 5 -24.9110 0.1922 -19.6740 0.0000 25.3507 0.0000
# 6 0.0000 0.0000 0.0000 -3.1688 0.0000 32.0087
#
#
#
# Elastic Compliance Matrix: (Units=1/GPa)
#
#
# Indices 1 2 3 4 5 6 
#
# 1 0.011477 -0.001403 0.000013 0.000000 0.011298 0.000000
# 2 -0.001403 0.051121 0.000550 0.000000 -0.001339 0.000000
# 3 0.000013 0.000550 0.024784 0.000000 0.019243 0.000000
# 4 0.000000 0.000000 0.000000 0.036114 0.000000 0.003575
# 5 0.011298 -0.001339 0.019243 0.000000 0.065493 0.000000
# 6 0.000000 0.000000 0.000000 0.003575 0.000000 0.031595
#
#
# Mechanical properties :
#
#
# Convention : Reuss Voigt Hill
#
# Bulk Modulus (GPa) = 11.66841 25.43167 18.55004
# Shear Modulus (GPa) = 19.93370 28.15969 24.04670
#
# Velocity S-wave (km/s) = 3.07066 3.64965 3.37260
# Velocity P-wave (km/s) = 4.25338 5.45797 4.89289
#
# Compressibility (1/GPa) = 0.08570148
#
# Stress axis : x y z
#
# Youngs Moduli (GPa) = 87.13289 19.56153 40.34802
#
# Poissons Ratio (x) = 0.02744 -0.00051
# Poissons Ratio (y) = 0.12224 -0.02219
# Poissons Ratio (z) = -0.00111 -0.01076
#
# Static dielectric constant tensor:
#      x y z
#    x 1.779970 0.000000 0.002950 
#    y 0.000000 1.729110 0.000000 
#    z 0.002950 0.000000 1.808090 
# 
# From -- ./inp_files/359762.got.cif
#   From: 2010.05.17/outbox.cif.g08.bks.cpg/sg12_180_cif.got.tgz:359762.got - 2010.06.03 13:09:07.
