data_PCOD9193141
_publ_section_title
;
Structure prediction by ZEFSAII (Michael W. Deem and Ramdas Pophale) SiO2 
 PCOD9193141
Probable space group: C 2/M
;
_chemical_formula_sum "Si O2"
_cell_formula_units_Z 64
_cell_length_a 23.615564
_cell_length_b 7.556658
_cell_length_c 15.595361
_cell_angle_alpha 90.000000
_cell_angle_beta 92.633401
_cell_angle_gamma 90.000000
_cell_volume 2780.127060
_symmetry_space_group_name_H-M "C 2/M"
_symmetry_group_IT_number 12
_symmetry_cell_setting 'monoclinic'
loop_
_space_group_symop_operation_xyz
x,y,z
-x,y,-z
-x,-y,-z
x,-y,z
1/2+x,1/2+y,z
1/2-x,1/2+y,-z
1/2-x,1/2-y,-z
1/2+x,1/2-y,z
loop_
_atom_site_type_symbol
_atom_site_label
_atom_site_fract_x
_atom_site_fract_y
_atom_site_fract_z
Si Si1 0.221002 0.285297 0.844092
Si Si2 0.483546 0.705704 0.090793
Si Si3 0.864001 0.714875 0.024059
Si Si4 0.851159 0.295087 0.834785
Si Si5 0.683665 0.787195 0.508260
Si Si6 0.363055 0.212420 0.313107
Si Si7 0.389364 0.791996 0.655935
Si Si8 0.506855 0.289632 0.720766
O O1 0.224644 0.500000 0.842699
O O2 0.193798 0.232009 0.933116
O O3 0.283217 0.212833 0.832861
O O4 0.177473 0.226558 0.766906
O O5 0.501100 0.500000 0.089975
O O6 0.415683 0.718552 0.084920
O O7 0.503213 0.783049 0.182878
O O8 0.500000 0.788000 0.000000
O O9 0.865633 0.500000 0.023555
O O10 0.870694 0.781892 0.927433
O O11 0.869388 0.500000 0.837229
O O12 0.871989 0.213505 0.747212
O O13 0.750000 0.750000 0.500000
O O14 0.660244 0.720053 0.597568
O O15 0.646112 0.718629 0.426098
O O16 0.677231 0.000000 0.509877
O O17 0.429190 0.251007 0.303185
O O18 0.358010 0.000000 0.312739
O O19 0.457124 0.775914 0.655399
O O20 0.374793 0.000000 0.658801
O O21 0.501617 0.500000 0.725338
#
# Coordination Sequence:
#
# PCOD9193141 Si02
#       8
#     8   8   8   8   8   8   8   8
#     4  10  20  34  54  80 111 147 188 233 283 338
#     4  10  21  36  54  79 112 149 191 238 285 334
#     4  10  20  34  52  79 110 146 191 229 277 341
#     4  10  21  35  54  81 113 149 189 234 283 336
#     4  10  22  40  64  91 117 151 192 233 285 342
#     4  10  21  39  61  84 115 154 192 235 287 342
#     4  10  22  40  59  83 116 151 188 232 283 340
#     4  11  23  38  59  87 115 149 193 238 287 338
#
# _framework density 23.020530000000001
#
# number of rings (size 3 to 8) (size 9 to 14) (size 15 to 20)
#    0.000    1.875    1.250    2.250    0.000    4.250 
#    0.000    2.500    0.000    0.000    0.000    0.000 
#    0.000    0.000    0.000    0.000    0.000    0.000 
#
# Total GULP energy -178875.327986 kJ/mol
# GULP energy per Si atom -5589.854000 kJ/mol
# Density = 2.296813 g / cm^3
# Si number density = 23.020530 Si / 1000 Ang^3
#
#
#
# Elastic Constant Matrix: (Units=GPa)
#
#
# Indices 1 2 3 4 5 6 
#
# 1 96.7436 -9.7946 35.9841 0.0000 14.9611 0.0000
# 2 -9.7946 59.9584 15.2463 0.0000 -2.8956 0.0000
# 3 35.9841 15.2463 140.4028 0.0000 11.6952 0.0000
# 4 0.0000 0.0000 0.0000 -5.2383 0.0000 -4.5261
# 5 14.9611 -2.8956 11.6952 0.0000 44.7183 0.0000
# 6 0.0000 0.0000 0.0000 -4.5261 0.0000 28.3653
#
#
#
# Elastic Compliance Matrix: (Units=1/GPa)
#
#
# Indices 1 2 3 4 5 6 
#
# 1 0.012266 0.002661 -0.003174 0.000000 -0.003101 0.000000
# 2 0.002661 0.017847 -0.002701 0.000000 0.000972 0.000000
# 3 -0.003174 -0.002701 0.008337 0.000000 -0.001293 0.000000
# 4 0.000000 0.000000 0.000000 -0.167770 0.000000 -0.026770
# 5 -0.003101 0.000972 -0.001293 0.000000 0.023801 0.000000
# 6 0.000000 0.000000 0.000000 -0.026770 0.000000 0.030983
#
#
# Mechanical properties :
#
#
# Convention : Reuss Voigt Hill
#
# Bulk Modulus (GPa) = 31.22883 42.21961 36.72422
# Shear Modulus (GPa) = -87.05591 30.61365 -28.22113
#
# Velocity S-wave (km/s) = -6.15619 3.65066 -3.50510
# Velocity P-wave (km/s) = 6.07755 6.01245 0.62731
#
# Compressibility (1/GPa) = 0.03202169
#
# Stress axis : x y z
#
# Youngs Moduli (GPa) = 81.52366 56.03286 119.94778
#
# Poissons Ratio (x) = -0.14912 0.38076
# Poissons Ratio (y) = -0.21695 0.32397
# Poissons Ratio (z) = 0.25879 0.15134
#
# Static dielectric constant tensor:
#      x y z
#    x 1.831470 0.000000 -0.003330 
#    y 0.000000 1.864360 0.000000 
#    z -0.003330 0.000000 1.888770 
# 
# From -- ./inp_files/238601.got.cif
#   From: 2010.05.17/outbox.cif.g08.bks.cpg/sg12_120_cif.got.tgz:238601.got - 2010.06.03 13:09:07.
