data_PCOD9193036
_publ_section_title
;
Structure prediction by ZEFSAII (Michael W. Deem and Ramdas Pophale) SiO2 
 PCOD9193036
Probable space group: C 2/M
;
_chemical_formula_sum "Si O2"
_cell_formula_units_Z 50
_cell_length_a 14.648325
_cell_length_b 9.470272
_cell_length_c 30.105233
_cell_angle_alpha 90.000000
_cell_angle_beta 32.988995
_cell_angle_gamma 90.000000
_cell_volume 2273.907008
_symmetry_space_group_name_H-M "C 2/M"
_symmetry_group_IT_number 12
_symmetry_cell_setting 'monoclinic'
loop_
_space_group_symop_operation_xyz
x,y,z
-x,y,-z
-x,-y,-z
x,-y,z
1/2+x,1/2+y,z
1/2-x,1/2+y,-z
1/2-x,1/2-y,-z
1/2+x,1/2-y,z
loop_
_atom_site_type_symbol
_atom_site_label
_atom_site_fract_x
_atom_site_fract_y
_atom_site_fract_z
Si Si1 0.910446 0.329039 0.685323
Si Si2 0.530661 0.270101 0.051555
Si Si3 0.856540 0.170011 0.622843
Si Si4 0.591211 0.161514 0.120659
Si Si5 0.337076 0.839791 0.813519
Si Si6 0.000000 0.500000 0.000000
Si Si7 0.272302 0.669820 0.561364
O O1 0.888093 0.500000 0.691842
O O2 0.815194 0.249853 0.684928
O O3 0.868542 0.277583 0.752155
O O4 0.108391 0.292378 0.600884
O O5 0.513187 0.247065 0.111819
O O6 0.364332 0.343488 0.101000
O O7 0.709249 0.342496 0.971358
O O8 0.534895 0.122664 0.023620
O O9 0.754222 0.211884 0.620515
O O10 0.047690 0.211578 0.531106
O O11 0.848038 0.000000 0.632102
O O12 0.586359 0.223620 0.172696
O O13 0.527954 0.000000 0.146678
O O14 0.402769 0.000000 0.784919
O O15 0.278375 0.500000 0.560024
#
# Coordination Sequence:
#
# PCOD9193036 Si02
#       7
#     8   8   8   8   8   2   8
#     4  10  20  34  52  75 106 141 173 214 261 308
#     4  11  21  35  55  79 105 130 167 220 265 304
#     4   9  17  33  55  80 103 135 179 218 261 307
#     4  10  20  35  56  76  96 135 177 209 251 311
#     4  10  21  37  52  72 104 139 175 207 249 315
#     4  12  20  36  54  84 110 128 160 230 276 298
#     4   8  16  32  55  77 105 139 175 216 256 314
#
# _framework density 21.988586999999999
#
# number of rings (size 3 to 8) (size 9 to 14) (size 15 to 20)
#    0.000    2.240    2.400    1.920    0.000    2.560 
#    1.440    4.000    0.000    0.000    0.000    0.000 
#    0.000    0.000    0.000    0.000    0.000    0.000 
#
# Total GULP energy -139186.563783 kJ/mol
# GULP energy per Si atom -5567.462551 kJ/mol
# Density = 2.193854 g / cm^3
# Si number density = 21.988587 Si / 1000 Ang^3
#
#
#
# Elastic Constant Matrix: (Units=GPa)
#
#
# Indices 1 2 3 4 5 6 
#
# 1 136.8368 17.1553 31.5499 -0.0001 42.0418 -0.0003
# 2 17.1553 44.5345 8.5798 -0.0003 16.3511 -0.0005
# 3 31.5499 8.5798 68.3565 -0.0003 30.4062 -0.0001
# 4 -0.0001 -0.0003 -0.0003 33.6663 0.0001 12.9211
# 5 42.0418 16.3511 30.4062 0.0001 57.7731 -0.0001
# 6 -0.0003 -0.0005 -0.0001 12.9211 -0.0001 21.6561
#
#
#
# Elastic Compliance Matrix: (Units=1/GPa)
#
#
# Indices 1 2 3 4 5 6 
#
# 1 0.009629 -0.001269 -0.001734 0.000000 -0.005735 0.000000
# 2 -0.001269 0.025226 0.000241 0.000000 -0.006343 0.000000
# 3 -0.001734 0.000241 0.019413 0.000000 -0.009024 0.000000
# 4 0.000000 0.000000 0.000000 0.038525 0.000000 -0.022986
# 5 -0.005735 -0.006343 -0.009024 0.000000 0.028027 0.000000
# 6 0.000000 0.000000 0.000000 -0.022986 0.000000 0.059891
#
#
# Mechanical properties :
#
#
# Convention : Reuss Voigt Hill
#
# Bulk Modulus (GPa) = 20.51561 40.47752 30.49657
# Shear Modulus (GPa) = 24.69336 35.44860 30.07098
#
# Velocity S-wave (km/s) = 3.35477 4.01950 3.70208
# Velocity P-wave (km/s) = 4.93521 6.32378 5.67215
#
# Compressibility (1/GPa) = 0.04874338
#
# Stress axis : x y z
#
# Youngs Moduli (GPa) = 103.85311 39.64196 51.51164
#
# Poissons Ratio (x) = 0.05032 0.08931
# Poissons Ratio (y) = 0.13184 -0.01241
# Poissons Ratio (z) = 0.18006 -0.00955
#
# Static dielectric constant tensor:
#      x y z
#    x 1.814510 0.000000 -0.009250 
#    y 0.000000 1.751470 0.000000 
#    z -0.009250 0.000000 1.912390 
# 
# From -- ./inp_files/213354.got.cif
#   From: 2010.05.17/outbox.cif.g08.bks.cpg/sg12_107_cif.got.tgz:213354.got - 2010.06.03 13:09:07.
