data_PCOD9193560
_publ_section_title
;
Structure prediction by ZEFSAII (Michael W. Deem and Ramdas Pophale) SiO2 
 PCOD9193560
Probable space group: C 2/M
;
_chemical_formula_sum "Si O2"
_cell_formula_units_Z 64
_cell_length_a 12.259188
_cell_length_b 26.278237
_cell_length_c 18.753116
_cell_angle_alpha 90.000000
_cell_angle_beta 154.050637
_cell_angle_gamma 90.000000
_cell_volume 2643.537630
_symmetry_space_group_name_H-M "C 2/M"
_symmetry_group_IT_number 12
_symmetry_cell_setting 'monoclinic'
loop_
_space_group_symop_operation_xyz
x,y,z
-x,y,-z
-x,-y,-z
x,-y,z
1/2+x,1/2+y,z
1/2-x,1/2+y,-z
1/2-x,1/2-y,-z
1/2+x,1/2-y,z
loop_
_atom_site_type_symbol
_atom_site_label
_atom_site_fract_x
_atom_site_fract_y
_atom_site_fract_z
Si Si1 0.046900 0.444180 0.163057
Si Si2 0.099703 0.157425 0.380034
Si Si3 0.808593 0.328403 0.744377
Si Si4 0.478983 0.811860 0.272706
Si Si5 0.566838 0.440863 0.792170
Si Si6 0.221046 0.290745 0.080347
Si Si7 0.780364 0.419745 0.149574
Si Si8 0.842044 0.439682 0.342695
O O1 0.171689 0.500000 0.226907
O O2 0.905702 0.446219 0.156314
O O3 0.183121 0.390194 0.248747
O O4 0.854366 0.437612 0.984030
O O5 0.909992 0.181153 0.327621
O O6 0.039027 0.097580 0.329733
O O7 0.982303 0.179703 0.237933
O O8 0.370006 0.176846 0.564720
O O9 0.801917 0.312103 0.658312
O O10 0.069151 0.299552 0.918799
O O11 0.301827 0.763410 0.159695
O O12 0.306189 0.859849 0.152030
O O13 0.511060 0.500000 0.741521
O O14 0.433675 0.429355 0.790171
O O15 0.000000 0.314071 0.000000
O O16 0.907496 0.425926 0.301350
O O17 0.500000 0.436886 0.000000
O O18 0.874482 0.500000 0.363469
O O19 0.000000 0.416003 0.500000
#
# Coordination Sequence:
#
# PCOD9193560 Si02
#       8
#     8   8   8   8   8   8   8   8
#     4  10  20  35  59  91 117 154 209 253 293 351
#     4  11  22  40  62  88 122 158 201 245 303 356
#     4  10  22  40  62  88 121 160 199 249 300 357
#     4  11  23  39  60  88 120 157 198 249 302 364
#     4  10  20  35  58  87 120 158 204 247 294 356
#     4  10  21  40  64  89 116 153 200 248 303 359
#     4  11  21  35  57  85 120 158 202 253 302 352
#     4  10  20  34  53  82 121 160 195 242 306 361
#
# _framework density 24.209982
#
# number of rings (size 3 to 8) (size 9 to 14) (size 15 to 20)
#    0.000    1.625    2.500    2.625    0.000    1.000 
#    0.000    5.000    0.000    3.750    0.000    0.000 
#    0.000    0.000    0.000    0.000    0.000    0.000 
#
# Total GULP energy -178162.354668 kJ/mol
# GULP energy per Si atom -5567.573583 kJ/mol
# Density = 2.415488 g / cm^3
# Si number density = 24.209982 Si / 1000 Ang^3
#
#
#
# Elastic Constant Matrix: (Units=GPa)
#
#
# Indices 1 2 3 4 5 6 
#
# 1 83.0860 -6.8618 11.5348 0.0046 -10.2692 0.0001
# 2 -6.8618 117.6319 14.8032 0.0000 -13.3779 0.0027
# 3 11.5348 14.8032 84.9079 0.0181 -37.4581 -0.0011
# 4 0.0046 0.0000 0.0181 -2.7782 0.0029 -2.5781
# 5 -10.2692 -13.3779 -37.4581 0.0029 24.8572 0.0022
# 6 0.0001 0.0027 -0.0011 -2.5781 0.0022 19.0368
#
#
#
# Elastic Compliance Matrix: (Units=1/GPa)
#
#
# Indices 1 2 3 4 5 6 
#
# 1 0.013034 0.001564 0.002099 0.000041 0.009389 0.000004
# 2 0.001564 0.009326 0.001972 0.000023 0.008637 0.000001
# 3 0.002099 0.001972 0.035797 0.000266 0.055872 0.000031
# 4 0.000041 0.000023 0.000266 -0.319757 0.000470 -0.043304
# 5 0.009389 0.008637 0.055872 0.000470 0.132953 0.000050
# 6 0.000004 0.000001 0.000031 -0.043304 0.000050 0.046665
#
#
# Mechanical properties :
#
#
# Convention : Reuss Voigt Hill
#
# Bulk Modulus (GPa) = 14.40364 36.06422 25.23393
# Shear Modulus (GPa) = -71.31896 25.96646 -22.67625
#
# Velocity S-wave (km/s) = -5.43346 3.27854 -3.06379
# Velocity P-wave (km/s) = 5.77935 5.40930 1.43882
#
# Compressibility (1/GPa) = 0.06942690
#
# Stress axis : x y z
#
# Youngs Moduli (GPa) = 76.72256 107.22205 27.93502
#
# Poissons Ratio (x) = -0.16769 -0.05863
# Poissons Ratio (y) = -0.11999 -0.05508
# Poissons Ratio (z) = -0.16102 -0.21142
#
# Static dielectric constant tensor:
#      x y z
#    x 1.999540 0.000000 -0.010960 
#    y 0.000000 1.954030 -0.000010 
#    z -0.010960 -0.000010 2.083990 
# 
# From -- ./inp_files/266323.got.cif
#   From: 2010.05.17/outbox.cif.g08.bks.cpg/sg12_134_cif.got.tgz:266323.got - 2010.06.03 13:09:07.
