data_PCOD9193348
_publ_section_title
;
Structure prediction by ZEFSAII (Michael W. Deem and Ramdas Pophale) SiO2 
 PCOD9193348
Probable space group: C 2/M
;
_chemical_formula_sum "Si O2"
_cell_formula_units_Z 56
_cell_length_a 33.989533
_cell_length_b 7.644027
_cell_length_c 23.229517
_cell_angle_alpha 90.000000
_cell_angle_beta 25.144675
_cell_angle_gamma 90.000000
_cell_volume 2564.483028
_symmetry_space_group_name_H-M "C 2/M"
_symmetry_group_IT_number 12
_symmetry_cell_setting 'monoclinic'
loop_
_space_group_symop_operation_xyz
x,y,z
-x,y,-z
-x,-y,-z
x,-y,z
1/2+x,1/2+y,z
1/2-x,1/2+y,-z
1/2-x,1/2-y,-z
1/2+x,1/2-y,z
loop_
_atom_site_type_symbol
_atom_site_label
_atom_site_fract_x
_atom_site_fract_y
_atom_site_fract_z
Si Si1 0.603758 0.289691 0.208452
Si Si2 0.597907 0.702145 0.496227
Si Si3 0.614144 0.710112 0.710441
Si Si4 0.549970 0.207159 0.990173
Si Si5 0.763169 0.715677 0.202915
Si Si6 0.277767 0.209884 0.052832
Si Si7 0.301460 0.795523 0.522043
O O1 0.601690 0.500000 0.216376
O O2 0.503413 0.219474 0.358972
O O3 0.687233 0.223484 0.138335
O O4 0.633492 0.252041 0.103629
O O5 0.582752 0.500000 0.499850
O O6 0.666096 0.777232 0.357746
O O7 0.653897 0.706444 0.482011
O O8 0.617537 0.500000 0.704433
O O9 0.634361 0.775056 0.619393
O O10 0.700384 0.771810 0.636134
O O11 0.518626 0.767931 0.865192
O O12 0.651333 0.276065 0.870961
O O13 0.561354 0.000000 0.965260
O O14 0.500000 0.283182 0.000000
O O15 0.763155 0.500000 0.203743
O O16 0.779416 0.772396 0.115957
O O17 0.270741 0.000000 0.064191
O O18 0.292686 0.000000 0.547422
#
# Coordination Sequence:
#
# PCOD9193348 Si02
#       7
#     8   8   8   8   8   8   8
#     4   9  19  34  55  82 109 140 178 227 279 321
#     4  10  20  35  55  80 110 141 180 227 273 322
#     4  10  21  36  54  77 104 140 183 230 276 318
#     4  10  20  34  53  77 108 147 187 224 271 325
#     4   9  19  34  54  80 108 145 187 225 269 323
#     4   9  18  35  56  79 109 143 182 224 270 329
#     4  10  21  36  54  77 107 140 180 222 272 331
#
# _framework density 21.836760000000002
#
# number of rings (size 3 to 8) (size 9 to 14) (size 15 to 20)
#    0.000    2.429    0.000    1.714    2.000    4.286 
#    0.000    4.286    0.000    0.000    0.000    5.000 
#    0.000    0.000    0.000    0.000    0.000    0.000 
#
# Total GULP energy -156409.722008 kJ/mol
# GULP energy per Si atom -5586.061500 kJ/mol
# Density = 2.178706 g / cm^3
# Si number density = 21.836760 Si / 1000 Ang^3
#
#
#
# Elastic Constant Matrix: (Units=GPa)
#
#
# Indices 1 2 3 4 5 6 
#
# 1 70.2283 9.4688 59.2586 0.0017 10.0430 -0.0019
# 2 9.4688 43.0683 -2.2222 -0.0244 -4.0026 -0.0060
# 3 59.2586 -2.2222 176.5899 -0.0464 -1.6854 -0.0075
# 4 0.0017 -0.0244 -0.0464 10.8101 0.0044 2.1152
# 5 10.0430 -4.0026 -1.6854 0.0044 16.5919 0.0044
# 6 -0.0019 -0.0060 -0.0075 2.1152 0.0044 11.7015
#
#
#
# Elastic Compliance Matrix: (Units=1/GPa)
#
#
# Indices 1 2 3 4 5 6 
#
# 1 0.025212 -0.007666 -0.008729 -0.000054 -0.017996 0.000011
# 2 -0.007666 0.026104 0.003008 0.000069 0.011243 -0.000003
# 3 -0.008729 0.003008 0.008696 0.000044 0.006892 -0.000005
# 4 -0.000054 0.000069 0.000044 0.095898 0.000032 -0.017335
# 5 -0.017996 0.011243 0.006892 0.000032 0.074576 -0.000027
# 6 0.000011 -0.000003 -0.000005 -0.017335 -0.000027 0.088592
#
#
# Mechanical properties :
#
#
# Convention : Reuss Voigt Hill
#
# Bulk Modulus (GPa) = 30.08481 46.98856 38.53668
# Shear Modulus (GPa) = 14.00833 22.71278 18.36056
#
# Velocity S-wave (km/s) = 2.53554 3.22858 2.90282
# Velocity P-wave (km/s) = 4.73064 5.95509 5.37783
#
# Compressibility (1/GPa) = 0.03323936
#
# Stress axis : x y z
#
# Youngs Moduli (GPa) = 39.66431 38.30764 115.00148
#
# Poissons Ratio (x) = 0.29366 1.00380
# Poissons Ratio (y) = 0.30406 -0.34595
# Poissons Ratio (z) = 0.34621 -0.11524
#
# Static dielectric constant tensor:
#      x y z
#    x 1.777760 0.000000 -0.014850 
#    y 0.000000 1.828200 0.000010 
#    z -0.014850 0.000010 1.787840 
# 
# From -- ./inp_files/280182.got.cif
#   From: 2010.05.17/outbox.cif.g08.bks.cpg/sg12_141_cif.got.tgz:280182.got - 2010.06.03 13:09:07.
