data_PCOD9193372
_publ_section_title
;
Structure prediction by ZEFSAII (Michael W. Deem and Ramdas Pophale) SiO2 
 PCOD9193372
Probable space group: C 2/M
;
_chemical_formula_sum "Si O2"
_cell_formula_units_Z 40
_cell_length_a 16.122210
_cell_length_b 9.040742
_cell_length_c 12.505705
_cell_angle_alpha 90.000000
_cell_angle_beta 107.179565
_cell_angle_gamma 90.000000
_cell_volume 1741.464748
_symmetry_space_group_name_H-M "C 2/M"
_symmetry_group_IT_number 12
_symmetry_cell_setting 'monoclinic'
loop_
_space_group_symop_operation_xyz
x,y,z
-x,y,-z
-x,-y,-z
x,-y,z
1/2+x,1/2+y,z
1/2-x,1/2+y,-z
1/2-x,1/2-y,-z
1/2+x,1/2-y,z
loop_
_atom_site_type_symbol
_atom_site_label
_atom_site_fract_x
_atom_site_fract_y
_atom_site_fract_z
Si Si1 0.889137 0.330056 0.031021
Si Si2 0.606612 0.822306 0.631982
Si Si3 0.342406 0.322675 0.558273
Si Si4 0.486954 0.676652 0.768043
Si Si5 0.240073 0.169082 0.160029
O O1 0.911770 0.500000 0.025365
O O2 0.971815 0.243237 0.108816
O O3 0.814629 0.323147 0.095731
O O4 0.839560 0.266771 0.909485
O O5 0.599615 0.746731 0.514692
O O6 0.545618 0.746985 0.696240
O O7 0.704758 0.796756 0.713553
O O8 0.593008 0.000000 0.622689
O O9 0.336696 0.500000 0.546064
O O10 0.250000 0.250000 0.500000
O O11 0.389662 0.290639 0.689302
O O12 0.497245 0.500000 0.774518
O O13 0.209371 0.000000 0.154329
#
# Coordination Sequence:
#
# PCOD9193372 Si02
#       5
#     8   8   8   8   8
#     4   9  16  26  45  74 104 135 169 207 253 301
#     4  10  20  34  55  81 107 137 173 213 257 305
#     4  11  24  39  55  75 102 138 176 216 263 311
#     4  10  20  34  53  78 107 138 173 213 258 307
#     4   8  15  27  44  71 105 136 165 202 251 304
#
# _framework density 22.969168
#
# number of rings (size 3 to 8) (size 9 to 14) (size 15 to 20)
#    0.000    2.400    0.000    4.200    0.000   11.200 
#    0.000    0.000    0.000    1.200    0.000    8.400 
#    0.000    0.000    0.000    0.000    0.000    0.000 
#
# Total GULP energy -111815.190079 kJ/mol
# GULP energy per Si atom -5590.759504 kJ/mol
# Density = 2.291689 g / cm^3
# Si number density = 22.969168 Si / 1000 Ang^3
#
#
#
# Elastic Constant Matrix: (Units=GPa)
#
#
# Indices 1 2 3 4 5 6 
#
# 1 95.4545 39.6658 35.2546 0.0000 24.2536 0.0000
# 2 39.6658 120.2399 99.5791 0.0000 40.4478 0.0000
# 3 35.2546 99.5791 184.6726 0.0000 32.7157 0.0000
# 4 0.0000 0.0000 0.0000 36.1801 0.0000 9.3706
# 5 24.2536 40.4478 32.7157 0.0000 47.2216 0.0000
# 6 0.0000 0.0000 0.0000 9.3706 0.0000 12.6945
#
#
#
# Elastic Compliance Matrix: (Units=1/GPa)
#
#
# Indices 1 2 3 4 5 6 
#
# 1 0.012697 -0.002526 -0.000330 0.000000 -0.004129 0.000000
# 2 -0.002526 0.019025 -0.008115 0.000000 -0.009376 0.000000
# 3 -0.000330 -0.008115 0.009795 0.000000 0.000335 0.000000
# 4 0.000000 0.000000 0.000000 0.034173 0.000000 -0.025225
# 5 -0.004129 -0.009376 0.000335 0.000000 0.031096 0.000000
# 6 0.000000 0.000000 0.000000 -0.025225 0.000000 0.097395
#
#
# Mechanical properties :
#
#
# Convention : Reuss Voigt Hill
#
# Bulk Modulus (GPa) = 51.09109 83.26286 67.17698
# Shear Modulus (GPa) = 21.49162 34.27708 27.88435
#
# Velocity S-wave (km/s) = 3.06219 3.86723 3.48802
# Velocity P-wave (km/s) = 5.89867 7.50128 6.74772
#
# Compressibility (1/GPa) = 0.01957288
#
# Stress axis : x y z
#
# Youngs Moduli (GPa) = 78.75894 52.56238 102.09635
#
# Poissons Ratio (x) = 0.13278 0.03372
# Poissons Ratio (y) = 0.19896 0.82855
# Poissons Ratio (z) = 0.02601 0.42656
#
# Static dielectric constant tensor:
#      x y z
#    x 1.954460 0.000000 -0.034650 
#    y 0.000000 1.757860 0.000000 
#    z -0.034650 0.000000 1.917800 
# 
# From -- ./inp_files/220577.got.cif
#   From: 2010.05.17/outbox.cif.g08.bks.cpg/sg12_111_cif.got.tgz:220577.got - 2010.06.03 13:09:07.
