data_PCOD9193413
_publ_section_title
;
Structure prediction by ZEFSAII (Michael W. Deem and Ramdas Pophale) SiO2 
 PCOD9193413
Probable space group: C 2/M
;
_chemical_formula_sum "Si O2"
_cell_formula_units_Z 48
_cell_length_a 24.201650
_cell_length_b 15.618513
_cell_length_c 12.404182
_cell_angle_alpha 90.000000
_cell_angle_beta 26.813582
_cell_angle_gamma 90.000000
_cell_volume 2115.023210
_symmetry_space_group_name_H-M "C 2/M"
_symmetry_group_IT_number 12
_symmetry_cell_setting 'monoclinic'
loop_
_space_group_symop_operation_xyz
x,y,z
-x,y,-z
-x,-y,-z
x,-y,z
1/2+x,1/2+y,z
1/2-x,1/2+y,-z
1/2-x,1/2-y,-z
1/2+x,1/2-y,z
loop_
_atom_site_type_symbol
_atom_site_label
_atom_site_fract_x
_atom_site_fract_y
_atom_site_fract_z
Si Si1 0.569234 0.343563 0.984477
Si Si2 0.318262 0.900335 0.495600
Si Si3 0.198362 0.895509 0.144730
Si Si4 0.573553 0.098208 0.140310
Si Si5 0.129292 0.648722 0.820100
Si Si6 0.496327 0.396475 0.332976
O O1 0.697815 0.391088 0.776463
O O2 0.605918 0.246015 0.895436
O O3 0.500000 0.378153 0.000000
O O4 0.487712 0.353849 0.231929
O O5 0.440724 0.864130 0.340055
O O6 0.290524 0.858325 0.426877
O O7 0.340931 0.000000 0.434343
O O8 0.125768 0.871992 0.163389
O O9 0.109099 0.871623 0.399224
O O10 0.203868 0.000000 0.135760
O O11 0.335545 0.862916 0.929085
O O12 0.549384 0.000000 0.213837
O O13 0.651729 0.100005 0.892198
O O14 0.000000 0.613579 0.000000
O O15 0.492854 0.500000 0.327477
#
# Coordination Sequence:
#
# PCOD9193413 Si02
#       6
#     8   8   8   8   8   8
#     4  11  23  35  50  79 117 147 170 213 275 328
#     4  10  20  34  53  78 110 142 179 221 260 315
#     4   8  16  33  58  81 102 137 182 226 261 303
#     4   9  17  33  57  80  99 133 186 228 259 305
#     4   9  19  35  52  76 106 145 178 216 262 317
#     4   9  18  34  54  80 111 139 178 222 263 315
#
# _framework density 22.694787000000002
#
# number of rings (size 3 to 8) (size 9 to 14) (size 15 to 20)
#    0.000    2.667    0.000    2.500    2.333    3.333 
#    0.000    1.667    0.000    4.000    0.000    0.000 
#    0.000    0.000    0.000    0.333    0.000    0.000 
#
# Total GULP energy -133851.643677 kJ/mol
# GULP energy per Si atom -5577.151820 kJ/mol
# Density = 2.264313 g / cm^3
# Si number density = 22.694787 Si / 1000 Ang^3
#
#
#
# Elastic Constant Matrix: (Units=GPa)
#
#
# Indices 1 2 3 4 5 6 
#
# 1 118.3680 3.4058 21.7072 0.0000 -16.9052 0.0000
# 2 3.4058 47.0900 3.6049 0.0000 -0.9698 0.0000
# 3 21.7072 3.6049 46.1007 0.0000 -4.1783 0.0000
# 4 0.0000 0.0000 0.0000 7.6983 0.0000 -11.0862
# 5 -16.9052 -0.9698 -4.1783 0.0000 39.4027 0.0000
# 6 0.0000 0.0000 0.0000 -11.0862 0.0000 -10.4779
#
#
#
# Elastic Compliance Matrix: (Units=1/GPa)
#
#
# Indices 1 2 3 4 5 6 
#
# 1 0.009767 -0.000305 -0.004237 0.000000 0.003734 0.000000
# 2 -0.000305 0.021378 -0.001507 0.000000 0.000235 0.000000
# 3 -0.004237 -0.001507 0.023866 0.000000 0.000676 0.000000
# 4 0.000000 0.000000 0.000000 0.051472 0.000000 -0.054460
# 5 0.003734 0.000235 0.000676 0.000000 0.027058 0.000000
# 6 0.000000 0.000000 0.000000 -0.054460 0.000000 -0.037817
#
#
# Mechanical properties :
#
#
# Convention : Reuss Voigt Hill
#
# Bulk Modulus (GPa) = 23.30250 29.88827 26.59539
# Shear Modulus (GPa) = 40.94135 19.51401 30.22768
#
# Velocity S-wave (km/s) = 4.25196 2.93549 3.65351
# Velocity P-wave (km/s) = 5.86478 4.96868 5.43523
#
# Compressibility (1/GPa) = 0.04291385
#
# Stress axis : x y z
#
# Youngs Moduli (GPa) = 102.38325 46.77665 41.90121
#
# Poissons Ratio (x) = 0.01428 0.17753
# Poissons Ratio (y) = 0.03124 0.06313
# Poissons Ratio (z) = 0.43377 0.07048
#
# Static dielectric constant tensor:
#      x y z
#    x 1.882350 0.000000 -0.017700 
#    y 0.000000 1.851050 0.000000 
#    z -0.017700 0.000000 1.894370 
# 
# From -- ./inp_files/177312.got.cif
#   From: 2010.05.17/outbox.cif.g08.bks.cpg/sg12_89_cif.got.tgz:177312.got - 2010.06.03 13:09:07.
