data_PCOD9193230
_publ_section_title
;
Structure prediction by ZEFSAII (Michael W. Deem and Ramdas Pophale) SiO2 
 PCOD9193230
Probable space group: C 2/M
;
_chemical_formula_sum "Si O2"
_cell_formula_units_Z 64
_cell_length_a 24.422582
_cell_length_b 7.358240
_cell_length_c 20.015343
_cell_angle_alpha 90.000000
_cell_angle_beta 127.205582
_cell_angle_gamma 90.000000
_cell_volume 2864.827891
_symmetry_space_group_name_H-M "C 2/M"
_symmetry_group_IT_number 12
_symmetry_cell_setting 'monoclinic'
loop_
_space_group_symop_operation_xyz
x,y,z
-x,y,-z
-x,-y,-z
x,-y,z
1/2+x,1/2+y,z
1/2-x,1/2+y,-z
1/2-x,1/2-y,-z
1/2+x,1/2-y,z
loop_
_atom_site_type_symbol
_atom_site_label
_atom_site_fract_x
_atom_site_fract_y
_atom_site_fract_z
Si Si1 0.064562 0.277982 0.912342
Si Si2 0.914310 0.279437 0.837501
Si Si3 0.826537 0.278334 0.901166
Si Si4 0.403066 0.780600 0.578231
Si Si5 0.321142 0.778778 0.644085
Si Si6 0.825607 0.779946 0.246491
Si Si7 0.681772 0.711848 0.607858
Si Si8 0.456556 0.788833 0.253125
O O1 0.066388 0.500000 0.913789
O O2 0.059741 0.214101 0.832380
O O3 0.993667 0.223766 0.896384
O O4 0.131056 0.219053 0.002720
O O5 0.914024 0.500000 0.838799
O O6 0.868719 0.220086 0.866447
O O7 0.878109 0.227429 0.741307
O O8 0.826152 0.500000 0.900130
O O9 0.747603 0.220987 0.837658
O O10 0.345367 0.718435 0.588977
O O11 0.382589 0.724865 0.488841
O O12 0.476385 0.714379 0.659781
O O13 0.403422 0.000000 0.578009
O O14 0.247897 0.712481 0.617144
O O15 0.319723 0.000000 0.640646
O O16 0.829262 0.715102 0.326042
O O17 0.890242 0.721126 0.250769
O O18 0.826856 0.000000 0.247105
O O19 0.698300 0.500000 0.630406
O O20 0.473850 0.000000 0.253580
#
# Coordination Sequence:
#
# PCOD9193230 Si02
#       8
#     8   8   8   8   8   8   8   8
#     4   9  16  27  47  76 105 131 162 202 249 299
#     4   9  13  23  46  75 104 130 157 198 252 300
#     4   9  16  27  47  76 105 131 162 202 249 299
#     4  10  20  34  53  76 102 131 164 205 252 300
#     4   9  15  28  50  74 102 131 158 197 252 304
#     4  10  21  36  52  72 101 135 170 209 248 289
#     4  10  20  34  53  76 102 131 164 205 252 300
#     4  10  21  36  52  72 101 135 170 209 248 289
#
# _framework density 22.33991
#
# number of rings (size 3 to 8) (size 9 to 14) (size 15 to 20)
#    0.000    2.500    2.500    0.750    0.000    3.500 
#    0.000    2.500    0.000    0.000    0.000    0.875 
#    0.000    2.000    0.000    0.000    0.000    0.000 
#
# Total GULP energy -178800.014811 kJ/mol
# GULP energy per Si atom -5587.500463 kJ/mol
# Density = 2.228906 g / cm^3
# Si number density = 22.339910 Si / 1000 Ang^3
#
#
#
# Elastic Constant Matrix: (Units=GPa)
#
#
# Indices 1 2 3 4 5 6 
#
# 1 93.7649 -16.3622 19.5418 0.0000 8.2026 0.0000
# 2 -16.3622 76.5899 -16.7890 0.0000 -1.1636 -0.0005
# 3 19.5418 -16.7890 102.3137 0.0000 2.9283 0.0000
# 4 0.0000 0.0000 0.0000 4.1981 0.0000 1.4145
# 5 8.2026 -1.1636 2.9283 0.0000 11.5913 0.0000
# 6 0.0000 -0.0005 0.0000 1.4145 0.0000 2.9054
#
#
#
# Elastic Compliance Matrix: (Units=1/GPa)
#
#
# Indices 1 2 3 4 5 6 
#
# 1 0.012082 0.002080 -0.001740 0.000000 -0.007901 0.000000
# 2 0.002080 0.013909 0.001901 -0.000001 -0.000556 0.000003
# 3 -0.001740 0.001901 0.010453 0.000000 -0.001218 0.000000
# 4 0.000000 -0.000001 0.000000 0.284942 0.000000 -0.138724
# 5 -0.007901 -0.000556 -0.001218 0.000000 0.092115 0.000000
# 6 0.000000 0.000003 0.000000 -0.138724 0.000000 0.411722
#
#
# Mechanical properties :
#
#
# Convention : Reuss Voigt Hill
#
# Bulk Modulus (GPa) = 24.43504 27.27218 25.85361
# Shear Modulus (GPa) = 5.99244 22.82417 14.40831
#
# Velocity S-wave (km/s) = 1.63958 3.19984 2.54236
# Velocity P-wave (km/s) = 3.81391 5.08785 4.49623
#
# Compressibility (1/GPa) = 0.04092484
#
# Stress axis : x y z
#
# Youngs Moduli (GPa) = 82.76948 71.89535 95.66566
#
# Poissons Ratio (x) = -0.14951 0.16648
# Poissons Ratio (y) = -0.17213 -0.18187
# Poissons Ratio (z) = 0.14404 -0.13668
#
# Static dielectric constant tensor:
#      x y z
#    x 1.767070 0.000000 0.001550 
#    y 0.000000 1.921900 0.000000 
#    z 0.001550 0.000000 1.802780 
# 
# From -- ./inp_files/283326.got.cif
#   From: 2010.05.17/outbox.cif.g08.bks.cpg/sg12_142_cif.got.tgz:283326.got - 2010.06.03 13:09:07.
