data_PCOD9193209
_publ_section_title
;
Structure prediction by ZEFSAII (Michael W. Deem and Ramdas Pophale) SiO2 
 PCOD9193209
Probable space group: C 2/M
;
_chemical_formula_sum "Si O2"
_cell_formula_units_Z 32
_cell_length_a 8.521933
_cell_length_b 19.279366
_cell_length_c 17.036036
_cell_angle_alpha 90.000000
_cell_angle_beta 38.773344
_cell_angle_gamma 90.000000
_cell_volume 1752.834961
_symmetry_space_group_name_H-M "C 2/M"
_symmetry_group_IT_number 12
_symmetry_cell_setting 'monoclinic'
loop_
_space_group_symop_operation_xyz
x,y,z
-x,y,-z
-x,-y,-z
x,-y,z
1/2+x,1/2+y,z
1/2-x,1/2+y,-z
1/2-x,1/2-y,-z
1/2+x,1/2-y,z
loop_
_atom_site_type_symbol
_atom_site_label
_atom_site_fract_x
_atom_site_fract_y
_atom_site_fract_z
Si Si1 0.341760 0.079689 0.836736
Si Si2 0.426688 0.341126 0.920895
Si Si3 0.730076 0.669781 0.351619
Si Si4 0.317964 0.278850 0.800439
O O1 0.619107 0.098013 0.701394
O O2 0.146975 0.101990 0.844717
O O3 0.309675 0.000000 0.871007
O O4 0.271227 0.130459 0.937863
O O5 0.320885 0.327369 0.876008
O O6 0.569353 0.269534 0.889315
O O7 0.500000 0.675689 0.500000
O O8 0.348417 0.680373 0.707691
O O9 0.942159 0.727914 0.286543
#
# Coordination Sequence:
#
# PCOD9193209 Si02
#       4
#     8   8   8   8
#     4  10  21  35  51  71 101 139 170 201 242 291
#     4   9  18  33  54  77 103 126 159 210 258 298
#     4  10  20  34  53  75 103 134 164 203 247 297
#     4   9  19  33  54  82 102 123 160 209 262 300
#
# _framework density 18.256139999999998
#
# number of rings (size 3 to 8) (size 9 to 14) (size 15 to 20)
#    0.000    2.500    0.000    2.250    0.000   19.500 
#    0.000    3.750    0.000    1.500    0.000    0.000 
#    0.000    0.000    0.000    0.000    0.000    0.000 
#
# Total GULP energy -89224.474586 kJ/mol
# GULP energy per Si atom -5576.529662 kJ/mol
# Density = 1.821459 g / cm^3
# Si number density = 18.256140 Si / 1000 Ang^3
#
#
#
# Elastic Constant Matrix: (Units=GPa)
#
#
# Indices 1 2 3 4 5 6 
#
# 1 97.9045 28.0405 46.5256 0.0000 19.2593 0.0001
# 2 28.0405 82.4830 42.1515 0.0001 4.9377 0.0000
# 3 46.5256 42.1515 101.2397 0.0000 -1.3992 -0.0001
# 4 0.0000 0.0001 0.0000 13.4623 0.0002 0.4494
# 5 19.2593 4.9377 -1.3992 0.0002 26.3921 -0.0002
# 6 0.0001 0.0000 -0.0001 0.4494 -0.0002 12.4105
#
#
#
# Elastic Compliance Matrix: (Units=1/GPa)
#
#
# Indices 1 2 3 4 5 6 
#
# 1 0.016344 -0.001154 -0.007197 0.000000 -0.012092 0.000000
# 2 -0.001154 0.015761 -0.006065 0.000000 -0.002428 0.000000
# 3 -0.007197 -0.006065 0.015810 0.000000 0.007225 0.000000
# 4 0.000000 0.000000 0.000000 0.074371 -0.000001 -0.002693
# 5 -0.012092 -0.002428 0.007225 -0.000001 0.047552 0.000001
# 6 0.000000 0.000000 0.000000 -0.002693 0.000001 0.080674
#
#
# Mechanical properties :
#
#
# Convention : Reuss Voigt Hill
#
# Bulk Modulus (GPa) = 52.40750 57.22914 54.81832
# Shear Modulus (GPa) = 17.50047 21.44696 19.47372
#
# Velocity S-wave (km/s) = 3.09950 3.43123 3.26957
# Velocity P-wave (km/s) = 6.44812 6.86394 6.65928
#
# Compressibility (1/GPa) = 0.01908124
#
# Stress axis : x y z
#
# Youngs Moduli (GPa) = 61.18590 63.44791 63.24953
#
# Poissons Ratio (x) = 0.07322 0.45524
# Poissons Ratio (y) = 0.07061 0.38363
# Poissons Ratio (z) = 0.44038 0.38483
#
# Static dielectric constant tensor:
#      x y z
#    x 1.668330 0.000000 -0.023350 
#    y 0.000000 1.626940 0.000000 
#    z -0.023350 0.000000 1.631390 
# 
# From -- ./inp_files/118185.got.cif
#   From: 2010.05.17/outbox.cif.g08.bks.cpg/sg12_60_cif.got.tgz:118185.got - 2010.06.03 13:09:07.
