data_PCOD9193736
_publ_section_title
;
Structure prediction by ZEFSAII (Michael W. Deem and Ramdas Pophale) SiO2 
 PCOD9193736
Probable space group: C 2/M
;
_chemical_formula_sum "Si O2"
_cell_formula_units_Z 48
_cell_length_a 25.716225
_cell_length_b 19.789836
_cell_length_c 12.586983
_cell_angle_alpha 90.000000
_cell_angle_beta 21.483957
_cell_angle_gamma 90.000000
_cell_volume 2346.052109
_symmetry_space_group_name_H-M "C 2/M"
_symmetry_group_IT_number 12
_symmetry_cell_setting 'monoclinic'
loop_
_space_group_symop_operation_xyz
x,y,z
-x,y,-z
-x,-y,-z
x,-y,z
1/2+x,1/2+y,z
1/2-x,1/2+y,-z
1/2-x,1/2-y,-z
1/2+x,1/2-y,z
loop_
_atom_site_type_symbol
_atom_site_label
_atom_site_fract_x
_atom_site_fract_y
_atom_site_fract_z
Si Si1 0.028862 0.109604 0.117748
Si Si2 0.591647 0.572067 0.433375
Si Si3 0.405795 0.242882 0.391507
Si Si4 0.270651 0.422798 0.450449
Si Si5 0.351344 0.717034 0.722365
Si Si6 0.381610 0.799055 0.152331
O O1 0.010394 0.077967 0.269493
O O2 0.996137 0.188071 0.202660
O O3 0.902834 0.081881 0.281814
O O4 0.168771 0.096562 0.781657
O O5 0.500000 0.570220 0.500000
O O6 0.669294 0.500000 0.294720
O O7 0.682820 0.640819 0.253016
O O8 0.364669 0.238008 0.591994
O O9 0.258595 0.256326 0.608323
O O10 0.519181 0.187326 0.138442
O O11 0.218537 0.500000 0.548177
O O12 0.165743 0.366198 0.696190
O O13 0.500000 0.712191 0.500000
O O14 0.250000 0.750000 0.000000
O O15 0.500000 0.761676 0.000000
#
# Coordination Sequence:
#
# PCOD9193736 Si02
#       6
#     8   8   8   8   8   8
#     4   9  18  32  56  83 107 142 186 235 277 327
#     4   9  17  31  53  81 110 140 182 231 275 323
#     4  10  22  36  58  84 112 144 188 231 284 328
#     4  10  20  34  54  79 111 148 185 226 277 333
#     4  10  20  37  59  85 113 144 183 232 284 334
#     4  11  24  37  55  80 112 149 186 231 273 334
#
# _framework density 20.459904000000002
#
# number of rings (size 3 to 8) (size 9 to 14) (size 15 to 20)
#    0.000    2.167    0.000    3.500    7.000    0.333 
#    0.000    0.000    0.000    1.500    0.000    0.000 
#    0.000    0.000    0.000    0.000    0.000    0.000 
#
# Total GULP energy -133821.452657 kJ/mol
# GULP energy per Si atom -5575.893861 kJ/mol
# Density = 2.041334 g / cm^3
# Si number density = 20.459904 Si / 1000 Ang^3
#
#
#
# Elastic Constant Matrix: (Units=GPa)
#
#
# Indices 1 2 3 4 5 6 
#
# 1 89.3132 19.1957 52.5046 -0.0002 29.9576 0.0003
# 2 19.1957 93.5330 79.5504 -0.0001 21.8863 0.0002
# 3 52.5046 79.5504 163.3526 -0.0004 31.2700 0.0003
# 4 -0.0002 -0.0001 -0.0004 13.8146 0.0000 0.8352
# 5 29.9576 21.8863 31.2700 0.0000 50.2784 -0.0004
# 6 0.0003 0.0002 0.0003 0.8352 -0.0004 8.9337
#
#
#
# Elastic Compliance Matrix: (Units=1/GPa)
#
#
# Indices 1 2 3 4 5 6 
#
# 1 0.016166 0.002815 -0.005095 0.000000 -0.007689 -0.000001
# 2 0.002815 0.019080 -0.009405 0.000000 -0.004133 0.000000
# 3 -0.005095 -0.009405 0.012458 0.000000 -0.000618 0.000000
# 4 0.000000 0.000000 0.000000 0.072798 0.000000 -0.006806
# 5 -0.007689 -0.004133 -0.000618 0.000000 0.026654 0.000002
# 6 -0.000001 0.000000 0.000000 -0.006806 0.000002 0.112572
#
#
# Mechanical properties :
#
#
# Convention : Reuss Voigt Hill
#
# Bulk Modulus (GPa) = 41.09683 72.07782 56.58732
# Shear Modulus (GPa) = 17.16972 27.60188 22.38580
#
# Velocity S-wave (km/s) = 2.90002 3.67696 3.31135
# Velocity P-wave (km/s) = 5.59854 7.30287 6.50675
#
# Compressibility (1/GPa) = 0.02433278
#
# Stress axis : x y z
#
# Youngs Moduli (GPa) = 61.85960 52.41053 80.27063
#
# Poissons Ratio (x) = -0.14752 0.40897
# Poissons Ratio (y) = -0.17411 0.75496
# Poissons Ratio (z) = 0.31516 0.49293
#
# Static dielectric constant tensor:
#      x y z
#    x 1.790530 0.000000 0.048330 
#    y 0.000000 1.807980 0.000000 
#    z 0.048330 0.000000 1.772560 
# 
# From -- ./inp_files/184760.got.cif
#   From: 2010.05.17/outbox.cif.g08.bks.cpg/sg12_93_cif.got.tgz:184760.got - 2010.06.03 13:09:07.
