data_PCOD9193046
_publ_section_title
;
Structure prediction by ZEFSAII (Michael W. Deem and Ramdas Pophale) SiO2 
 PCOD9193046
Probable space group: C 2/M
;
_chemical_formula_sum "Si O2"
_cell_formula_units_Z 64
_cell_length_a 22.632492
_cell_length_b 22.953642
_cell_length_c 19.744998
_cell_angle_alpha 90.000000
_cell_angle_beta 161.774760
_cell_angle_gamma 90.000000
_cell_volume 3208.064362
_symmetry_space_group_name_H-M "C 2/M"
_symmetry_group_IT_number 12
_symmetry_cell_setting 'monoclinic'
loop_
_space_group_symop_operation_xyz
x,y,z
-x,y,-z
-x,-y,-z
x,-y,z
1/2+x,1/2+y,z
1/2-x,1/2+y,-z
1/2-x,1/2-y,-z
1/2+x,1/2-y,z
loop_
_atom_site_type_symbol
_atom_site_label
_atom_site_fract_x
_atom_site_fract_y
_atom_site_fract_z
Si Si1 0.106922 0.066665 0.331147
Si Si2 0.273833 0.568361 0.058793
Si Si3 0.997739 0.263294 0.669422
Si Si4 0.941260 0.759990 0.858138
Si Si5 0.079584 0.567051 0.413905
Si Si6 0.937801 0.103906 0.007568
Si Si7 0.049932 0.643905 0.622248
Si Si8 0.150400 0.686416 0.972426
O O1 0.308781 0.091737 0.529783
O O2 0.973406 0.089627 0.244660
O O3 0.014185 0.069826 0.155627
O O4 0.138200 0.000000 0.385068
O O5 0.282105 0.500000 0.090655
O O6 0.182035 0.616518 0.007648
O O7 0.137521 0.567866 0.844535
O O8 0.782855 0.256335 0.407277
O O9 0.103027 0.311060 0.737248
O O10 0.137557 0.209177 0.813492
O O11 0.018742 0.288982 0.767714
O O12 0.001445 0.828098 0.915482
O O13 0.000000 0.746964 0.000000
O O14 0.060932 0.716653 0.940837
O O15 0.130584 0.500000 0.481469
O O16 0.106273 0.605807 0.509025
O O17 0.713103 0.102610 0.772722
O O18 0.000000 0.085744 0.000000
O O19 0.000000 0.678466 0.500000
#
# Coordination Sequence:
#
# PCOD9193046 Si02
#       8
#     8   8   8   8   8   8   8   8
#     4  10  20  34  52  75 109 150 198 246 287 335
#     4  10  21  39  61  84 116 153 194 250 303 359
#     4  11  23  38  60  90 123 162 200 252 298 361
#     4  11  24  41  61  89 125 162 202 249 307 362
#     4  10  20  35  53  78 112 158 205 247 290 340
#     4  11  21  34  52  78 112 155 200 240 287 345
#     4  12  21  36  55  79 120 161 203 247 296 351
#     4  11  23  40  61  93 121 156 206 248 304 368
#
# _framework density 19.949724
#
# number of rings (size 3 to 8) (size 9 to 14) (size 15 to 20)
#    0.000    1.250    3.750    3.375    1.750    1.500 
#    0.000    0.000    0.000    0.375    0.000    0.875 
#    0.000    0.000    0.000    0.000    0.000    0.000 
#
# Total GULP energy -178161.741259 kJ/mol
# GULP energy per Si atom -5567.554414 kJ/mol
# Density = 1.990432 g / cm^3
# Si number density = 19.949724 Si / 1000 Ang^3
#
#
#
# Elastic Constant Matrix: (Units=GPa)
#
#
# Indices 1 2 3 4 5 6 
#
# 1 104.7907 40.9661 29.8236 0.0010 7.8059 0.0005
# 2 40.9661 83.7763 17.1625 -0.0001 4.0251 0.0001
# 3 29.8236 17.1625 75.0573 0.0022 10.9092 0.0011
# 4 0.0010 -0.0001 0.0022 19.7679 0.0012 4.0782
# 5 7.8059 4.0251 10.9092 0.0012 31.3550 0.0006
# 6 0.0005 0.0001 0.0011 4.0782 0.0006 19.7547
#
#
#
# Elastic Compliance Matrix: (Units=1/GPa)
#
#
# Indices 1 2 3 4 5 6 
#
# 1 0.012809 -0.005454 -0.003666 0.000000 -0.001213 0.000000
# 2 -0.005454 0.014858 -0.001212 0.000000 -0.000128 0.000000
# 3 -0.003666 -0.001212 0.015695 -0.000001 -0.004393 0.000000
# 4 0.000000 0.000000 -0.000001 0.052837 -0.000001 -0.010908
# 5 -0.001213 -0.000128 -0.004393 -0.000001 0.033740 0.000000
# 6 0.000000 0.000000 0.000000 -0.010908 0.000000 0.052873
#
#
# Mechanical properties :
#
#
# Convention : Reuss Voigt Hill
#
# Bulk Modulus (GPa) = 44.05584 48.83651 46.44618
# Shear Modulus (GPa) = 23.69206 25.88700 24.78953
#
# Velocity S-wave (km/s) = 3.44988 3.60615 3.52888
# Velocity P-wave (km/s) = 6.16444 6.47086 6.31950
#
# Compressibility (1/GPa) = 0.02269847
#
# Stress axis : x y z
#
# Youngs Moduli (GPa) = 78.07172 67.30415 63.71329
#
# Poissons Ratio (x) = 0.36708 0.23358
# Poissons Ratio (y) = 0.42581 0.07720
# Poissons Ratio (z) = 0.28621 0.08155
#
# Static dielectric constant tensor:
#      x y z
#    x 1.697420 0.000000 0.051400 
#    y 0.000000 1.736460 0.000000 
#    z 0.051400 0.000000 1.852200 
# 
# From -- ./inp_files/286468.got.cif
#   From: 2010.05.17/outbox.cif.g08.bks.cpg/sg12_144_cif.got.tgz:286468.got - 2010.06.03 13:09:07.
