data_PCOD9193575
_publ_section_title
;
Structure prediction by ZEFSAII (Michael W. Deem and Ramdas Pophale) SiO2 
 PCOD9193575
Probable space group: C 2/M
;
_chemical_formula_sum "Si O2"
_cell_formula_units_Z 56
_cell_length_a 17.154680
_cell_length_b 26.658666
_cell_length_c 8.296196
_cell_angle_alpha 90.000000
_cell_angle_beta 128.364737
_cell_angle_gamma 90.000000
_cell_volume 2974.801394
_symmetry_space_group_name_H-M "C 2/M"
_symmetry_group_IT_number 12
_symmetry_cell_setting 'monoclinic'
loop_
_space_group_symop_operation_xyz
x,y,z
-x,y,-z
-x,-y,-z
x,-y,z
1/2+x,1/2+y,z
1/2-x,1/2+y,-z
1/2-x,1/2-y,-z
1/2+x,1/2-y,z
loop_
_atom_site_type_symbol
_atom_site_label
_atom_site_fract_x
_atom_site_fract_y
_atom_site_fract_z
Si Si1 0.114545 0.203998 0.303710
Si Si2 0.763281 0.363084 0.337521
Si Si3 0.800681 0.787476 0.247367
Si Si4 0.890483 0.058276 0.940144
Si Si5 0.051518 0.861724 0.735013
Si Si6 0.442228 0.820628 0.764699
Si Si7 0.631845 0.185625 0.803489
O O1 0.178381 0.180475 0.241704
O O2 0.186525 0.200708 0.550727
O O3 0.084208 0.261628 0.243332
O O4 0.022607 0.168771 0.240339
O O5 0.697551 0.413320 0.269460
O O6 0.846914 0.351934 0.579996
O O7 0.817846 0.358752 0.234442
O O8 0.865952 0.823051 0.218111
O O9 0.849816 0.733212 0.287960
O O10 0.691434 0.796313 0.039534
O O11 0.867354 0.000000 0.934775
O O12 0.903417 0.090713 0.118313
O O13 0.000000 0.061284 0.000000
O O14 0.000000 0.876445 0.500000
O O15 0.521044 0.823054 0.718955
O O16 0.500000 0.838491 0.000000
#
# Coordination Sequence:
#
# PCOD9193575 Si02
#       7
#     8   8   8   8   8   8   8
#     4  11  22  35  53  86 127 162 200 230 298 366
#     4  12  24  39  61  88 120 163 210 255 296 361
#     4  10  20  34  53  85 123 165 193 239 287 358
#     4  11  24  44  66  90 117 153 204 264 315 357
#     4  10  20  36  60  87 124 157 191 243 295 369
#     4  12  26  37  54  86 130 172 203 242 289 368
#     4  11  22  35  56  82 123 164 204 239 289 353
#
# _framework density 18.824787000000001
#
# number of rings (size 3 to 8) (size 9 to 14) (size 15 to 20)
#    0.000    1.000    5.714    1.714    6.000    0.286 
#    0.000    0.000    0.000    2.143    0.000    0.000 
#    0.000    0.000    0.000    0.000    0.000    0.000 
#
# Total GULP energy -156380.561155 kJ/mol
# GULP energy per Si atom -5585.020041 kJ/mol
# Density = 1.878194 g / cm^3
# Si number density = 18.824787 Si / 1000 Ang^3
#
#
#
# Elastic Constant Matrix: (Units=GPa)
#
#
# Indices 1 2 3 4 5 6 
#
# 1 101.0298 31.9289 22.3263 0.0000 13.3539 0.0000
# 2 31.9289 101.6436 35.4395 0.0000 12.7657 0.0000
# 3 22.3263 35.4395 113.6975 0.0000 15.9561 0.0000
# 4 0.0000 0.0000 0.0000 11.3614 0.0000 0.8677
# 5 13.3539 12.7657 15.9561 0.0000 23.7361 0.0000
# 6 0.0000 0.0000 0.0000 0.8677 0.0000 20.0542
#
#
#
# Elastic Compliance Matrix: (Units=1/GPa)
#
#
# Indices 1 2 3 4 5 6 
#
# 1 0.011543 -0.002797 -0.000767 0.000000 -0.004474 0.000000
# 2 -0.002797 0.012071 -0.002786 0.000000 -0.003046 0.000000
# 3 -0.000767 -0.002786 0.010538 0.000000 -0.005154 0.000000
# 4 0.000000 0.000000 0.000000 0.088309 0.000000 -0.003821
# 5 -0.004474 -0.003046 -0.005154 0.000000 0.049750 0.000000
# 6 0.000000 0.000000 0.000000 -0.003821 0.000000 0.050030
#
#
# Mechanical properties :
#
#
# Convention : Reuss Voigt Hill
#
# Bulk Modulus (GPa) = 46.61535 55.08449 50.84992
# Shear Modulus (GPa) = 20.65355 26.14210 23.39782
#
# Velocity S-wave (km/s) = 3.31591 3.73058 3.52934
# Velocity P-wave (km/s) = 6.28306 6.91965 6.60902
#
# Compressibility (1/GPa) = 0.02145216
#
# Stress axis : x y z
#
# Youngs Moduli (GPa) = 86.63433 82.84595 94.89908
#
# Poissons Ratio (x) = 0.23168 0.07279
# Poissons Ratio (y) = 0.24227 0.26437
# Poissons Ratio (z) = 0.06645 0.23080
#
# Static dielectric constant tensor:
#      x y z
#    x 1.688030 0.000000 0.011890 
#    y 0.000000 1.611830 0.000000 
#    z 0.011890 0.000000 1.740520 
# 
# From -- ./inp_files/79141.got.cif
#   From: 2010.05.17/outbox.cif.g08.bks.cpg/sg12_40_cif.got.tgz:79141.got - 2010.06.03 13:09:07.
