data_PCOD9193050
_publ_section_title
;
Structure prediction by ZEFSAII (Michael W. Deem and Ramdas Pophale) SiO2 
 PCOD9193050
Probable space group: C 2/M
;
_chemical_formula_sum "Si O2"
_cell_formula_units_Z 52
_cell_length_a 8.346307
_cell_length_b 11.807752
_cell_length_c 27.714843
_cell_angle_alpha 90.000000
_cell_angle_beta 79.815398
_cell_angle_gamma 90.000000
_cell_volume 2688.291802
_symmetry_space_group_name_H-M "C 2/M"
_symmetry_group_IT_number 12
_symmetry_cell_setting 'monoclinic'
loop_
_space_group_symop_operation_xyz
x,y,z
-x,y,-z
-x,-y,-z
x,-y,z
1/2+x,1/2+y,z
1/2-x,1/2+y,-z
1/2-x,1/2-y,-z
1/2+x,1/2-y,z
loop_
_atom_site_type_symbol
_atom_site_label
_atom_site_fract_x
_atom_site_fract_y
_atom_site_fract_z
Si Si1 0.632291 0.127540 0.368255
Si Si2 0.538392 0.297344 0.805905
Si Si3 0.692736 0.129122 0.980512
Si Si4 0.294371 0.875616 0.134574
Si Si5 0.200121 0.688666 0.571431
Si Si6 0.000000 0.819170 0.500000
Si Si7 0.131701 0.628495 0.256565
O O1 0.724920 0.213713 0.398424
O O2 0.440276 0.126644 0.391329
O O3 0.650820 0.161250 0.311488
O O4 0.696938 0.000000 0.371220
O O5 0.595130 0.220905 0.847970
O O6 0.380891 0.366407 0.830531
O O7 0.693423 0.365630 0.778914
O O8 0.483882 0.213198 0.766056
O O9 0.724692 0.137327 0.921601
O O10 0.753832 0.000000 0.992629
O O11 0.500000 0.125688 0.000000
O O12 0.750000 0.250000 0.000000
O O13 0.366523 0.000000 0.139979
O O14 0.099021 0.743293 0.532785
O O15 0.355449 0.625574 0.539376
O O16 0.068861 0.500000 0.258607
#
# Coordination Sequence:
#
# PCOD9193050 Si02
#       7
#     8   8   8   8   8   4   8
#     4  10  20  34  53  75 101 134 168 205 253 303
#     4  10  20  34  54  77 102 136 171 209 261 307
#     4  10  21  37  56  80 110 144 182 225 272 324
#     4  10  20  35  54  77 106 137 174 218 261 310
#     4   9  17  34  53  73 102 132 165 209 252 297
#     4   8  16  32  52  72 102 132 162 212 254 292
#     4  10  20  34  52  76 103 132 169 209 251 305
#
# _framework density 19.343138
#
# number of rings (size 3 to 8) (size 9 to 14) (size 15 to 20)
#    0.000    2.308    0.000    2.769    0.000    0.308 
#    0.000   21.538    0.000   12.923    0.000    0.000 
#    0.000    0.000    0.000    0.000    0.000    0.000 
#
# Total GULP energy -144810.894042 kJ/mol
# GULP energy per Si atom -5569.649771 kJ/mol
# Density = 1.929911 g / cm^3
# Si number density = 19.343138 Si / 1000 Ang^3
#
#
#
# Elastic Constant Matrix: (Units=GPa)
#
#
# Indices 1 2 3 4 5 6 
#
# 1 47.8655 21.2503 3.8635 0.0000 1.4859 0.0000
# 2 21.2503 110.0665 40.6368 0.0000 21.0532 0.0000
# 3 3.8635 40.6368 89.0331 0.0000 4.1746 0.0000
# 4 0.0000 0.0000 0.0000 -127.0420 0.0000 -18.0895
# 5 1.4859 21.0532 4.1746 0.0000 24.8637 0.0000
# 6 0.0000 0.0000 0.0000 -18.0895 0.0000 8.0742
#
#
#
# Elastic Compliance Matrix: (Units=1/GPa)
#
#
# Indices 1 2 3 4 5 6 
#
# 1 0.023161 -0.005582 0.001397 0.000000 0.003108 0.000000
# 2 -0.005582 0.014391 -0.005816 0.000000 -0.010875 0.000000
# 3 0.001397 -0.005816 0.013707 0.000000 0.002540 0.000000
# 4 0.000000 0.000000 0.000000 -0.005968 0.000000 -0.013370
# 5 0.003108 -0.010875 0.002540 0.000000 0.048815 0.000000
# 6 0.000000 0.000000 0.000000 -0.013370 0.000000 0.093897
#
#
# Mechanical properties :
#
#
# Convention : Reuss Voigt Hill
#
# Bulk Modulus (GPa) = 31.99380 42.05182 37.02281
# Shear Modulus (GPa) = 22.89135 -6.73985 8.07575
#
# Velocity S-wave (km/s) = 3.44384 -1.86867 2.04550
# Velocity P-wave (km/s) = 5.69117 4.13899 4.97597
#
# Compressibility (1/GPa) = 0.03125605
#
# Stress axis : x y z
#
# Youngs Moduli (GPa) = 43.17660 69.49025 72.95729
#
# Poissons Ratio (x) = 0.38788 -0.10191
# Poissons Ratio (y) = 0.24100 0.42432
# Poissons Ratio (z) = -0.06031 0.40416
#
# Static dielectric constant tensor:
#      x y z
#    x 1.656740 0.000000 -0.020800 
#    y 0.000000 1.695650 0.000000 
#    z -0.020800 0.000000 1.661220 
# 
# From -- ./inp_files/355531.got.cif
#   From: 2010.05.17/outbox.cif.g08.bks.cpg/sg12_178_cif.got.tgz:355531.got - 2010.06.03 13:09:07.
