data_PCOD9193277
_publ_section_title
;
Structure prediction by ZEFSAII (Michael W. Deem and Ramdas Pophale) SiO2 
 PCOD9193277
Probable space group: C 2/M
;
_chemical_formula_sum "Si O2"
_cell_formula_units_Z 48
_cell_length_a 28.591463
_cell_length_b 21.149907
_cell_length_c 10.099675
_cell_angle_alpha 90.000000
_cell_angle_beta 153.043382
_cell_angle_gamma 90.000000
_cell_volume 2768.554228
_symmetry_space_group_name_H-M "C 2/M"
_symmetry_group_IT_number 12
_symmetry_cell_setting 'monoclinic'
loop_
_space_group_symop_operation_xyz
x,y,z
-x,y,-z
-x,-y,-z
x,-y,z
1/2+x,1/2+y,z
1/2-x,1/2+y,-z
1/2-x,1/2-y,-z
1/2+x,1/2-y,z
loop_
_atom_site_type_symbol
_atom_site_label
_atom_site_fract_x
_atom_site_fract_y
_atom_site_fract_z
Si Si1 0.926916 0.722207 0.198510
Si Si2 0.908214 0.925784 0.175037
Si Si3 0.708763 0.673558 0.991388
Si Si4 0.885245 0.232946 0.484212
Si Si5 0.728955 0.306997 0.551265
Si Si6 0.095794 0.925498 0.141566
O O1 0.864505 0.777906 0.113770
O O2 0.000000 0.694407 0.500000
O O3 0.999181 0.753472 0.268771
O O4 0.836636 0.682330 0.901962
O O5 0.806284 0.891059 0.969573
O O6 0.000000 0.901282 0.500000
O O7 0.897622 0.000000 0.169997
O O8 0.935104 0.916113 0.089845
O O9 0.665259 0.677372 0.732957
O O10 0.820831 0.704313 0.280310
O O11 0.857434 0.218447 0.563978
O O12 0.750000 0.250000 0.500000
O O13 0.684340 0.373256 0.386948
O O14 0.126546 0.000000 0.234113
O O15 0.000000 0.914942 0.000000
#
# Coordination Sequence:
#
# PCOD9193277 Si02
#       6
#     8   8   8   8   8   8
#     4   9  18  34  52  76 107 139 181 234 284 325
#     4  10  20  34  53  76 105 143 184 223 265 331
#     4   9  17  30  51  79 104 138 178 222 280 320
#     4   9  18  31  51  76 108 140 173 230 279 318
#     4  11  23  33  54  85 110 149 193 230 280 339
#     4  10  23  39  55  80 118 154 181 227 293 342
#
# _framework density 17.337568999999998
#
# number of rings (size 3 to 8) (size 9 to 14) (size 15 to 20)
#    0.000    2.333    0.000    4.500    7.000    0.000 
#    0.000    0.000    0.000    1.500    0.000    3.500 
#    0.000    0.000    0.000    0.000    0.000    0.000 
#
# Total GULP energy -133731.077653 kJ/mol
# GULP energy per Si atom -5572.128236 kJ/mol
# Density = 1.729811 g / cm^3
# Si number density = 17.337569 Si / 1000 Ang^3
#
#
#
# Elastic Constant Matrix: (Units=GPa)
#
#
# Indices 1 2 3 4 5 6 
#
# 1 111.8228 31.0196 16.9151 0.0000 -5.4056 0.0000
# 2 31.0196 78.4580 44.5156 0.0000 -9.1867 0.0000
# 3 16.9151 44.5156 82.6858 0.0000 -3.8321 0.0000
# 4 0.0000 0.0000 0.0000 21.0552 0.0000 2.0567
# 5 -5.4056 -9.1867 -3.8321 0.0000 25.6243 0.0000
# 6 0.0000 0.0000 0.0000 2.0567 0.0000 25.0772
#
#
#
# Elastic Compliance Matrix: (Units=1/GPa)
#
#
# Indices 1 2 3 4 5 6 
#
# 1 0.010058 -0.003950 0.000103 0.000000 0.000721 0.000000
# 2 -0.003950 0.020600 -0.010048 0.000000 0.005049 0.000000
# 3 0.000103 -0.010048 0.017438 0.000000 -0.000973 0.000000
# 4 0.000000 0.000000 0.000000 0.047878 0.000000 -0.003927
# 5 0.000721 0.005049 -0.000973 0.000000 0.040842 0.000000
# 6 0.000000 0.000000 0.000000 -0.003927 0.000000 0.040199
#
#
# Mechanical properties :
#
#
# Convention : Reuss Voigt Hill
#
# Bulk Modulus (GPa) = 49.25285 50.87413 50.06349
# Shear Modulus (GPa) = 23.63239 26.38576 25.00908
#
# Velocity S-wave (km/s) = 3.69599 3.90536 3.80212
# Velocity P-wave (km/s) = 6.83254 7.05286 6.94357
#
# Compressibility (1/GPa) = 0.02030339
#
# Stress axis : x y z
#
# Youngs Moduli (GPa) = 99.42466 48.54382 57.34735
#
# Poissons Ratio (x) = 0.19176 -0.00588
# Poissons Ratio (y) = 0.39276 0.57624
# Poissons Ratio (z) = -0.01020 0.48778
#
# Static dielectric constant tensor:
#      x y z
#    x 1.635960 0.000000 -0.013950 
#    y 0.000000 1.600090 0.000000 
#    z -0.013950 0.000000 1.651440 
# 
# From -- ./inp_files/106603.got.cif
#   From: 2010.05.17/outbox.cif.g08.bks.cpg/sg12_54_cif.got.tgz:106603.got - 2010.06.03 13:09:07.
