data_PCOD9193040
_publ_section_title
;
Structure prediction by ZEFSAII (Michael W. Deem and Ramdas Pophale) SiO2 
 PCOD9193040
Probable space group: C 2/M
;
_chemical_formula_sum "Si O2"
_cell_formula_units_Z 56
_cell_length_a 31.232994
_cell_length_b 7.439743
_cell_length_c 21.502076
_cell_angle_alpha 90.000000
_cell_angle_beta 150.890146
_cell_angle_gamma 90.000000
_cell_volume 2430.647479
_symmetry_space_group_name_H-M "C 2/M"
_symmetry_group_IT_number 12
_symmetry_cell_setting 'monoclinic'
loop_
_space_group_symop_operation_xyz
x,y,z
-x,y,-z
-x,-y,-z
x,-y,z
1/2+x,1/2+y,z
1/2-x,1/2+y,-z
1/2-x,1/2-y,-z
1/2+x,1/2-y,z
loop_
_atom_site_type_symbol
_atom_site_label
_atom_site_fract_x
_atom_site_fract_y
_atom_site_fract_z
Si Si1 0.416947 0.286665 0.557675
Si Si2 0.618908 0.215661 0.840848
Si Si3 0.653725 0.284829 0.404744
Si Si4 0.750861 0.207164 0.105468
Si Si5 0.537031 0.281504 0.144251
Si Si6 0.180429 0.204182 0.679854
Si Si7 0.363891 0.282179 0.856082
O O1 0.399301 0.500000 0.530670
O O2 0.518000 0.262483 0.703956
O O3 0.360212 0.213891 0.543375
O O4 0.391108 0.212172 0.457315
O O5 0.676076 0.287491 0.855875
O O6 0.628271 0.000000 0.852036
O O7 0.663758 0.283572 0.961690
O O8 0.642669 0.500000 0.393782
O O9 0.750000 0.250000 0.500000
O O10 0.579941 0.217398 0.262646
O O11 0.791049 0.290739 0.218706
O O12 0.729994 0.000000 0.094948
O O13 0.536273 0.500000 0.144231
O O14 0.599036 0.230565 0.164573
O O15 0.438254 0.226838 0.000688
O O16 0.269920 0.203769 0.753251
O O17 0.150986 0.000000 0.657506
O O18 0.357340 0.500000 0.848940
#
# Coordination Sequence:
#
# PCOD9193040 Si02
#       7
#     8   8   8   8   8   8   8
#     4  10  22  37  55  80 113 149 180 217 271 330
#     4  10  21  38  60  85 108 135 180 229 267 316
#     4  10  20  34  52  75 106 145 185 223 265 314
#     4   9  20  39  60  80 109 145 175 216 274 328
#     4   8  16  31  49  72 102 138 179 223 269 314
#     4  10  21  36  53  78 111 144 176 215 268 327
#     4   9  17  31  52  75 102 138 181 225 267 312
#
# _framework density 23.039127000000001
#
# number of rings (size 3 to 8) (size 9 to 14) (size 15 to 20)
#    0.000    2.571    0.000    2.143    2.000    2.857 
#    0.000    5.000    0.000    0.000    0.000    0.000 
#    0.000    0.000    0.000    0.000    0.000    0.000 
#
# Total GULP energy -156393.033089 kJ/mol
# GULP energy per Si atom -5585.465467 kJ/mol
# Density = 2.298669 g / cm^3
# Si number density = 23.039127 Si / 1000 Ang^3
#
#
#
# Elastic Constant Matrix: (Units=GPa)
#
#
# Indices 1 2 3 4 5 6 
#
# 1 58.3969 -3.3151 72.9878 0.0000 -30.3052 0.0000
# 2 -3.3151 79.7400 -1.6783 0.0000 -12.8496 0.0000
# 3 72.9878 -1.6783 167.1673 0.0000 -44.5300 0.0000
# 4 0.0000 0.0000 0.0000 9.6748 0.0000 13.1911
# 5 -30.3052 -12.8496 -44.5300 0.0000 48.0151 0.0000
# 6 0.0000 0.0000 0.0000 13.1911 0.0000 11.9675
#
#
#
# Elastic Compliance Matrix: (Units=1/GPa)
#
#
# Indices 1 2 3 4 5 6 
#
# 1 0.044077 0.003874 -0.015299 0.000000 0.014669 0.000000
# 2 0.003874 0.013704 0.000099 0.000000 0.006204 0.000000
# 3 -0.015299 0.000099 0.013411 0.000000 0.002808 0.000000
# 4 0.000000 0.000000 0.000000 -0.205552 0.000000 0.226568
# 5 0.014669 0.006204 0.002808 0.000000 0.034349 0.000000
# 6 0.000000 0.000000 0.000000 0.226568 0.000000 -0.166173
#
#
# Mechanical properties :
#
#
# Convention : Reuss Voigt Hill
#
# Bulk Modulus (GPa) = 20.60149 49.03257 34.81703
# Shear Modulus (GPa) = -21.99229 29.75213 3.87992
#
# Velocity S-wave (km/s) = -3.09295 3.59747 1.29912
# Velocity P-wave (km/s) = 1.94776 6.21162 4.17076
#
# Compressibility (1/GPa) = 0.04854019
#
# Stress axis : x y z
#
# Youngs Moduli (GPa) = 22.68736 72.97326 74.56825
#
# Poissons Ratio (x) = -0.28271 1.14079
# Poissons Ratio (y) = -0.08790 -0.00736
# Poissons Ratio (z) = 0.34708 -0.00720
#
# Static dielectric constant tensor:
#      x y z
#    x 1.843600 0.000000 -0.064010 
#    y 0.000000 1.845640 0.000000 
#    z -0.064010 0.000000 1.876050 
# 
# From -- ./inp_files/320271.got.cif
#   From: 2010.05.17/outbox.cif.g08.bks.cpg/sg12_161_cif.got.tgz:320271.got - 2010.06.03 13:09:07.
