data_PCOD9193612
_publ_section_title
;
Structure prediction by ZEFSAII (Michael W. Deem and Ramdas Pophale) SiO2 
 PCOD9193612
Probable space group: C 2/M
;
_chemical_formula_sum "Si O2"
_cell_formula_units_Z 56
_cell_length_a 18.758517
_cell_length_b 7.724210
_cell_length_c 19.371575
_cell_angle_alpha 90.000000
_cell_angle_beta 75.134895
_cell_angle_gamma 90.000000
_cell_volume 2712.901146
_symmetry_space_group_name_H-M "C 2/M"
_symmetry_group_IT_number 12
_symmetry_cell_setting 'monoclinic'
loop_
_space_group_symop_operation_xyz
x,y,z
-x,y,-z
-x,-y,-z
x,-y,z
1/2+x,1/2+y,z
1/2-x,1/2+y,-z
1/2-x,1/2-y,-z
1/2+x,1/2-y,z
loop_
_atom_site_type_symbol
_atom_site_label
_atom_site_fract_x
_atom_site_fract_y
_atom_site_fract_z
Si Si1 0.873385 0.290115 0.848302
Si Si2 0.333255 0.794157 0.003450
Si Si3 0.437528 0.712014 0.570047
Si Si4 0.773564 0.793291 0.571798
Si Si5 0.849448 0.795428 0.287121
Si Si6 0.712377 0.704250 0.840459
Si Si7 0.993154 0.793688 0.704566
O O1 0.870754 0.500000 0.850513
O O2 0.794019 0.226141 0.838933
O O3 0.937700 0.236110 0.781349
O O4 0.881315 0.231997 0.926235
O O5 0.338901 0.723703 0.079313
O O6 0.340863 0.000000 0.006581
O O7 0.250000 0.750000 0.000000
O O8 0.500000 0.764720 0.500000
O O9 0.436155 0.500000 0.570158
O O10 0.356076 0.770190 0.568199
O O11 0.459417 0.772875 0.641153
O O12 0.750000 0.750000 0.500000
O O13 0.714506 0.722718 0.640736
O O14 0.773764 0.000000 0.579066
O O15 0.822288 0.721165 0.220602
O O16 0.926222 0.721999 0.296806
O O17 0.862774 0.000000 0.272317
O O18 0.723456 0.500000 0.826339
O O19 0.000899 0.000000 0.692296
#
# Coordination Sequence:
#
# PCOD9193612 Si02
#       7
#     8   8   8   8   8   8   8
#     4   9  18  32  50  74 104 135 168 213 264 308
#     4   9  17  30  50  76 104 136 175 218 265 314
#     4   9  18  34  55  78 104 133 168 210 253 301
#     4  11  22  36  57  82 107 138 174 213 259 309
#     4  10  21  37  55  77 107 139 173 216 262 307
#     4   9  18  33  53  77 105 137 173 216 265 313
#     4  10  20  34  54  77 101 136 177 214 257 309
#
# _framework density 20.642108
#
# number of rings (size 3 to 8) (size 9 to 14) (size 15 to 20)
#    0.000    2.429    0.000    3.429    0.000    6.286 
#    0.000    1.429    0.000    7.286    0.000    0.000 
#    0.000    0.000    0.000    0.000    0.000    0.000 
#
# Total GULP energy -156244.790820 kJ/mol
# GULP energy per Si atom -5580.171101 kJ/mol
# Density = 2.059513 g / cm^3
# Si number density = 20.642108 Si / 1000 Ang^3
#
#
#
# Elastic Constant Matrix: (Units=GPa)
#
#
# Indices 1 2 3 4 5 6 
#
# 1 156.7080 -1.8724 97.8451 0.0000 5.0172 0.0000
# 2 -1.8724 21.7145 -25.7930 0.0000 5.4890 0.0000
# 3 97.8451 -25.7930 179.4936 0.0000 10.0541 0.0000
# 4 0.0000 0.0000 0.0000 27.8035 0.0000 -4.3899
# 5 5.0172 5.4890 10.0541 0.0000 33.2560 0.0000
# 6 0.0000 0.0000 0.0000 -4.3899 0.0000 9.4547
#
#
#
# Elastic Compliance Matrix: (Units=1/GPa)
#
#
# Indices 1 2 3 4 5 6 
#
# 1 0.010612 -0.007884 -0.007020 0.000000 0.001822 0.000000
# 2 -0.007884 0.066325 0.014623 0.000000 -0.014179 0.000000
# 3 -0.007020 0.014623 0.011774 0.000000 -0.004914 0.000000
# 4 0.000000 0.000000 0.000000 0.038812 0.000000 0.018021
# 5 0.001822 -0.014179 -0.004914 0.000000 0.033621 0.000000
# 6 0.000000 0.000000 0.000000 0.018021 0.000000 0.114134
#
#
# Mechanical properties :
#
#
# Convention : Reuss Voigt Hill
#
# Bulk Modulus (GPa) = 11.34427 55.36395 33.35411
# Shear Modulus (GPa) = 16.38149 33.28527 24.83338
#
# Velocity S-wave (km/s) = 2.82014 4.01994 3.47226
# Velocity P-wave (km/s) = 4.01396 6.95886 5.68056
#
# Compressibility (1/GPa) = 0.08815020
#
# Stress axis : x y z
#
# Youngs Moduli (GPa) = 94.23670 15.07716 84.93156
#
# Poissons Ratio (x) = 0.11886 0.59618
# Poissons Ratio (y) = 0.74292 -1.24192
# Poissons Ratio (z) = 0.66149 -0.22047
#
# Static dielectric constant tensor:
#      x y z
#    x 1.728600 0.000000 0.025650 
#    y 0.000000 1.791090 0.000000 
#    z 0.025650 0.000000 1.722160 
# 
# From -- ./inp_files/275187.got.cif
#   From: 2010.05.17/outbox.cif.g08.bks.cpg/sg12_138_cif.got.tgz:275187.got - 2010.06.03 13:09:07.
