data_PCOD9193362
_publ_section_title
;
Structure prediction by ZEFSAII (Michael W. Deem and Ramdas Pophale) SiO2 
 PCOD9193362
Probable space group: C 2/M
;
_chemical_formula_sum "Si O2"
_cell_formula_units_Z 48
_cell_length_a 25.962849
_cell_length_b 24.031170
_cell_length_c 8.843775
_cell_angle_alpha 90.000000
_cell_angle_beta 28.544961
_cell_angle_gamma 90.000000
_cell_volume 2636.664887
_symmetry_space_group_name_H-M "C 2/M"
_symmetry_group_IT_number 12
_symmetry_cell_setting 'monoclinic'
loop_
_space_group_symop_operation_xyz
x,y,z
-x,y,-z
-x,-y,-z
x,-y,z
1/2+x,1/2+y,z
1/2-x,1/2+y,-z
1/2-x,1/2-y,-z
1/2+x,1/2-y,z
loop_
_atom_site_type_symbol
_atom_site_label
_atom_site_fract_x
_atom_site_fract_y
_atom_site_fract_z
Si Si1 0.297298 0.065940 0.990432
Si Si2 0.123458 0.934423 0.188604
Si Si3 0.182986 0.646339 0.801283
Si Si4 0.341031 0.240417 0.891104
Si Si5 0.434116 0.154693 0.445688
Si Si6 0.764490 0.158564 0.264619
O O1 0.385496 0.104256 0.674228
O O2 0.322176 0.000000 0.921518
O O3 0.185992 0.075619 0.185276
O O4 0.288392 0.089943 0.182458
O O5 0.000000 0.915906 0.500000
O O6 0.126101 0.000000 0.154229
O O7 0.190601 0.901795 0.891147
O O8 0.248963 0.662519 0.482905
O O9 0.195631 0.694278 0.893965
O O10 0.056259 0.642932 0.086547
O O11 0.431957 0.210764 0.553706
O O12 0.250000 0.250000 0.000000
O O13 0.344867 0.297256 0.976790
O O14 0.351084 0.163410 0.522308
#
# Coordination Sequence:
#
# PCOD9193362 Si02
#       6
#     8   8   8   8   8   8
#     4   9  18  33  53  76 102 136 174 205 242 303
#     4   9  19  37  57  73  95 134 178 213 248 295
#     4  11  20  32  52  80 109 132 160 209 262 298
#     4   9  18  33  50  69  98 136 172 201 236 294
#     4   9  19  34  53  75 104 139 169 200 247 307
#     4  10  20  34  53  78 105 130 167 214 256 297
#
# _framework density 18.204816999999998
#
# number of rings (size 3 to 8) (size 9 to 14) (size 15 to 20)
#    0.000    2.500    0.000    4.000    0.000    3.333 
#    0.000    0.833    0.000    8.000    0.000    0.000 
#    0.000    0.000    0.000    0.000    0.000    0.000 
#
# Total GULP energy -133670.614798 kJ/mol
# GULP energy per Si atom -5569.608950 kJ/mol
# Density = 1.816338 g / cm^3
# Si number density = 18.204817 Si / 1000 Ang^3
#
#
#
# Elastic Constant Matrix: (Units=GPa)
#
#
# Indices 1 2 3 4 5 6 
#
# 1 53.1675 17.3911 23.7275 0.0000 10.0496 0.0000
# 2 17.3911 48.6725 15.1640 0.0000 -0.0619 0.0000
# 3 23.7275 15.1640 54.0569 0.0000 4.5921 0.0000
# 4 0.0000 0.0000 0.0000 7.9432 0.0000 -0.0082
# 5 10.0496 -0.0619 4.5921 0.0000 36.2110 0.0000
# 6 0.0000 0.0000 0.0000 -0.0082 0.0000 26.8135
#
#
#
# Elastic Compliance Matrix: (Units=1/GPa)
#
#
# Indices 1 2 3 4 5 6 
#
# 1 0.026175 -0.006512 -0.009143 0.000000 -0.006116 0.000000
# 2 -0.006512 0.024159 -0.004120 0.000000 0.002371 0.000000
# 3 -0.009143 -0.004120 0.023708 0.000000 -0.000476 0.000000
# 4 0.000000 0.000000 0.000000 0.125895 0.000000 0.000038
# 5 -0.006116 0.002371 -0.000476 0.000000 0.029378 0.000000
# 6 0.000000 0.000000 0.000000 0.000038 0.000000 0.037295
#
#
# Mechanical properties :
#
#
# Convention : Reuss Voigt Hill
#
# Bulk Modulus (GPa) = 28.99186 29.82911 29.41048
# Shear Modulus (GPa) = 15.74031 20.83450 18.28741
#
# Velocity S-wave (km/s) = 2.94364 3.38664 3.17288
# Velocity P-wave (km/s) = 5.24531 5.63146 5.44181
#
# Compressibility (1/GPa) = 0.03449244
#
# Stress axis : x y z
#
# Youngs Moduli (GPa) = 38.20477 41.39271 42.17920
#
# Poissons Ratio (x) = 0.26954 0.38564
# Poissons Ratio (y) = 0.24878 0.17379
# Poissons Ratio (z) = 0.34930 0.17055
#
# Static dielectric constant tensor:
#      x y z
#    x 1.648710 0.000000 -0.025630 
#    y 0.000000 1.654380 0.000000 
#    z -0.025630 0.000000 1.624870 
# 
# From -- ./inp_files/106757.got.cif
#   From: 2010.05.17/outbox.cif.g08.bks.cpg/sg12_54_cif.got.tgz:106757.got - 2010.06.03 13:09:07.
