data_PCOD9193223
_publ_section_title
;
Structure prediction by ZEFSAII (Michael W. Deem and Ramdas Pophale) SiO2 
 PCOD9193223
Probable space group: C 2/M
;
_chemical_formula_sum "Si O2"
_cell_formula_units_Z 48
_cell_length_a 20.919372
_cell_length_b 7.396119
_cell_length_c 31.948416
_cell_angle_alpha 90.000000
_cell_angle_beta 154.792514
_cell_angle_gamma 90.000000
_cell_volume 2105.265934
_symmetry_space_group_name_H-M "C 2/M"
_symmetry_group_IT_number 12
_symmetry_cell_setting 'monoclinic'
loop_
_space_group_symop_operation_xyz
x,y,z
-x,y,-z
-x,-y,-z
x,-y,z
1/2+x,1/2+y,z
1/2-x,1/2+y,-z
1/2-x,1/2-y,-z
1/2+x,1/2-y,z
loop_
_atom_site_type_symbol
_atom_site_label
_atom_site_fract_x
_atom_site_fract_y
_atom_site_fract_z
Si Si1 0.603629 0.280553 0.785636
Si Si2 0.118808 0.784398 0.888929
Si Si3 0.274242 0.715669 0.563216
Si Si4 0.887626 0.209748 0.899382
Si Si5 0.013393 0.720719 0.556093
Si Si6 0.658234 0.278277 0.220706
O O1 0.606838 0.500000 0.786583
O O2 0.646065 0.218640 0.857799
O O3 0.435766 0.218523 0.674803
O O4 0.722997 0.218033 0.822031
O O5 0.962484 0.719107 0.816333
O O6 0.104946 0.000000 0.876948
O O7 0.250000 0.750000 0.000000
O O8 0.277531 0.500000 0.571687
O O9 0.250000 0.750000 0.500000
O O10 0.130630 0.784822 0.503473
O O11 0.888983 0.285087 0.853454
O O12 0.932339 0.000000 0.920987
O O13 0.000000 0.292597 0.000000
O O14 0.013218 0.500000 0.557262
O O15 0.172787 0.778674 0.669085
O O16 0.000000 0.774020 0.500000
O O17 0.658138 0.500000 0.220543
#
# Coordination Sequence:
#
# PCOD9193223 Si02
#       6
#     8   8   8   8   8   8
#     4  10  21  35  52  77 108 138 168 209 262 313
#     4  10  20  35  54  76 103 134 170 212 257 305
#     4  10  20  34  53  78 106 136 171 211 257 308
#     4  10  20  34  53  76 101 132 172 214 253 299
#     4   9  16  28  49  74  97 125 165 209 248 290
#     4   9  17  30  49  72  97 127 165 208 249 291
#
# _framework density 22.799969999999998
#
# number of rings (size 3 to 8) (size 9 to 14) (size 15 to 20)
#    0.000    2.333    0.000    3.000    0.000    8.333 
#    0.000    0.833    0.000    1.500    0.000    0.000 
#    0.000    0.000    0.000    0.000    0.000    0.000 
#
# Total GULP energy -134191.483269 kJ/mol
# GULP energy per Si atom -5591.311803 kJ/mol
# Density = 2.274808 g / cm^3
# Si number density = 22.799970 Si / 1000 Ang^3
#
#
#
# Elastic Constant Matrix: (Units=GPa)
#
#
# Indices 1 2 3 4 5 6 
#
# 1 82.6109 -11.8434 -25.7623 -0.0006 -3.4924 0.0000
# 2 -11.8434 77.0781 -9.4509 0.0009 -3.3133 -0.0006
# 3 -25.7623 -9.4509 63.9829 -0.0039 -1.7802 0.0003
# 4 -0.0006 0.0009 -0.0039 7.7464 0.0003 7.0407
# 5 -3.4924 -3.3133 -1.7802 0.0003 47.4823 0.0000
# 6 0.0000 -0.0006 0.0003 7.0407 0.0000 8.0269
#
#
#
# Elastic Compliance Matrix: (Units=1/GPa)
#
#
# Indices 1 2 3 4 5 6 
#
# 1 0.014602 0.003091 0.006379 0.000020 0.001529 -0.000017
# 2 0.003091 0.013915 0.003337 -0.000003 0.001323 0.000003
# 3 0.006379 0.003337 0.018729 0.000049 0.001404 -0.000043
# 4 0.000020 -0.000003 0.000049 0.636668 -0.000001 -0.558447
# 5 0.001529 0.001323 0.001404 -0.000001 0.021318 0.000001
# 6 -0.000017 0.000003 -0.000043 -0.558447 0.000001 0.614416
#
#
# Mechanical properties :
#
#
# Convention : Reuss Voigt Hill
#
# Bulk Modulus (GPa) = 13.72492 14.39543 14.06018
# Shear Modulus (GPa) = 3.79270 30.69969 17.24619
#
# Velocity S-wave (km/s) = 1.29115 3.67342 2.75328
# Velocity P-wave (km/s) = 2.87325 4.93148 4.03578
#
# Compressibility (1/GPa) = 0.07286016
#
# Stress axis : x y z
#
# Youngs Moduli (GPa) = 68.48412 71.86535 53.39190
#
# Poissons Ratio (x) = -0.22217 -0.34056
# Poissons Ratio (y) = -0.21172 -0.17817
# Poissons Ratio (z) = -0.43683 -0.23981
#
# Static dielectric constant tensor:
#      x y z
#    x 1.789400 0.000000 -0.008850 
#    y 0.000000 1.872150 0.000000 
#    z -0.008850 0.000000 1.813880 
# 
# From -- ./inp_files/244766.got.cif
#   From: 2010.05.17/outbox.cif.g08.bks.cpg/sg12_123_cif.got.tgz:244766.got - 2010.06.03 13:09:07.
