data_PCOD9193205
_publ_section_title
;
Structure prediction by ZEFSAII (Michael W. Deem and Ramdas Pophale) SiO2 
 PCOD9193205
Probable space group: C 2/M
;
_chemical_formula_sum "Si O2"
_cell_formula_units_Z 48
_cell_length_a 13.772639
_cell_length_b 15.703097
_cell_length_c 10.807115
_cell_angle_alpha 90.000000
_cell_angle_beta 78.102540
_cell_angle_gamma 90.000000
_cell_volume 2287.078784
_symmetry_space_group_name_H-M "C 2/M"
_symmetry_group_IT_number 12
_symmetry_cell_setting 'monoclinic'
loop_
_space_group_symop_operation_xyz
x,y,z
-x,y,-z
-x,-y,-z
x,-y,z
1/2+x,1/2+y,z
1/2-x,1/2+y,-z
1/2-x,1/2-y,-z
1/2+x,1/2-y,z
loop_
_atom_site_type_symbol
_atom_site_label
_atom_site_fract_x
_atom_site_fract_y
_atom_site_fract_z
Si Si1 0.624460 0.500000 0.329253
Si Si2 0.783208 0.500000 0.073189
Si Si3 0.699866 0.000000 0.517703
Si Si4 0.961459 0.500000 0.225029
Si Si5 0.385757 0.686149 0.696752
Si Si6 0.112939 0.668078 0.501692
Si Si7 0.795064 0.319622 0.075585
Si Si8 0.466278 0.188436 0.213609
O O1 0.684614 0.500000 0.183343
O O2 0.704437 0.500000 0.419782
O O3 0.572011 0.592229 0.346104
O O4 0.877506 0.500000 0.140799
O O5 0.790773 0.409898 0.006295
O O6 0.686899 0.090266 0.452601
O O7 0.602853 0.000000 0.632664
O O8 0.011855 0.592278 0.201475
O O9 0.371974 0.746832 0.581786
O O10 0.279959 0.672479 0.788955
O O11 0.454919 0.739296 0.773322
O O12 0.109005 0.687929 0.648651
O O13 0.000000 0.640426 0.500000
O O14 0.901998 0.300706 0.106694
O O15 0.750000 0.250000 0.000000
#
# Coordination Sequence:
#
# PCOD9193205 Si02
#       8
#     4   4   4   4   8   8   8   8
#     4   9  18  31  48  69  96 142 180 193 227 299
#     4   7  14  32  52  69  91 125 170 210 240 289
#     4   9  15  26  48  75 104 131 161 202 248 300
#     4   7  12  27  51  73  96 127 160 197 252 302
#     4  10  20  34  53  75 102 134 172 207 245 298
#     4   9  17  30  51  79 104 127 161 209 261 304
#     4  10  20  35  55  76  99 131 172 211 252 297
#     4   9  18  33  54  78 103 131 164 210 254 297
#
# _framework density 20.987470999999999
#
# number of rings (size 3 to 8) (size 9 to 14) (size 15 to 20)
#    0.000    3.000    0.000    3.250    0.000    5.333 
#    0.000    6.250    0.000    6.000    0.000    0.000 
#    0.000    0.000    0.000    0.000    0.000    0.000 
#
# Total GULP energy -133757.041564 kJ/mol
# GULP energy per Si atom -5573.210065 kJ/mol
# Density = 2.093970 g / cm^3
# Si number density = 20.987471 Si / 1000 Ang^3
#
#
#
# Elastic Constant Matrix: (Units=GPa)
#
#
# Indices 1 2 3 4 5 6 
#
# 1 52.4394 45.8472 16.6202 0.0000 9.0800 0.0000
# 2 45.8472 205.9765 28.7613 0.0000 23.8497 0.0000
# 3 16.6202 28.7613 35.8058 0.0000 11.1001 0.0000
# 4 0.0000 0.0000 0.0000 31.2295 0.0000 8.3229
# 5 9.0800 23.8497 11.1001 0.0000 25.7498 0.0000
# 6 0.0000 0.0000 0.0000 8.3229 0.0000 20.1825
#
#
#
# Elastic Compliance Matrix: (Units=1/GPa)
#
#
# Indices 1 2 3 4 5 6 
#
# 1 0.025725 -0.004444 -0.007889 0.000000 -0.001554 0.000000
# 2 -0.004444 0.006552 -0.002083 0.000000 -0.003604 0.000000
# 3 -0.007889 -0.002083 0.036709 0.000000 -0.011113 0.000000
# 4 0.000000 0.000000 0.000000 0.035975 0.000000 -0.014835
# 5 -0.001554 -0.003604 -0.011113 0.000000 0.047511 0.000000
# 6 0.000000 0.000000 0.000000 -0.014835 0.000000 0.055666
#
#
# Mechanical properties :
#
#
# Convention : Reuss Voigt Hill
#
# Bulk Modulus (GPa) = 24.90491 52.96435 38.93463
# Shear Modulus (GPa) = 19.97166 28.96524 24.46845
#
# Velocity S-wave (km/s) = 3.08815 3.71903 3.41817
# Velocity P-wave (km/s) = 4.96063 6.61306 5.84553
#
# Compressibility (1/GPa) = 0.04015272
#
# Stress axis : x y z
#
# Youngs Moduli (GPa) = 38.87306 152.61799 27.24155
#
# Poissons Ratio (x) = 0.67830 0.21491
# Poissons Ratio (y) = 0.17277 0.05675
# Poissons Ratio (z) = 0.30667 0.31791
#
# Static dielectric constant tensor:
#      x y z
#    x 1.762360 0.000000 -0.049130 
#    y 0.000000 1.845720 0.000000 
#    z -0.049130 0.000000 1.804420 
# 
# From -- ./inp_files/143044.got.cif
#   From: 2010.05.17/outbox.cif.g08.bks.cpg/sg12_72_cif.got.tgz:143044.got - 2010.06.03 13:09:07.
