data_PCOD9193435
_publ_section_title
;
Structure prediction by ZEFSAII (Michael W. Deem and Ramdas Pophale) SiO2 
 PCOD9193435
Probable space group: C 2/M
;
_chemical_formula_sum "Si O2"
_cell_formula_units_Z 64
_cell_length_a 19.789423
_cell_length_b 28.868129
_cell_length_c 8.877861
_cell_angle_alpha 90.000000
_cell_angle_beta 135.117268
_cell_angle_gamma 90.000000
_cell_volume 3578.939973
_symmetry_space_group_name_H-M "C 2/M"
_symmetry_group_IT_number 12
_symmetry_cell_setting 'monoclinic'
loop_
_space_group_symop_operation_xyz
x,y,z
-x,y,-z
-x,-y,-z
x,-y,z
1/2+x,1/2+y,z
1/2-x,1/2+y,-z
1/2-x,1/2-y,-z
1/2+x,1/2-y,z
loop_
_atom_site_type_symbol
_atom_site_label
_atom_site_fract_x
_atom_site_fract_y
_atom_site_fract_z
Si Si1 0.574011 0.864477 0.413883
Si Si2 0.100402 0.550464 0.246431
Si Si3 0.180340 0.807416 0.869054
Si Si4 0.517341 0.311323 0.847996
Si Si5 0.360210 0.127778 0.149502
Si Si6 0.587274 0.764557 0.520365
Si Si7 0.750209 0.552169 0.785972
Si Si8 0.072758 0.114402 0.498284
O O1 0.610374 0.903213 0.358387
O O2 0.604245 0.881897 0.626498
O O3 0.458347 0.861714 0.215349
O O4 0.612906 0.811891 0.475516
O O5 0.101592 0.500000 0.329812
O O6 0.182169 0.549929 0.251482
O O7 0.000000 0.552808 0.000000
O O8 0.167364 0.760705 0.749708
O O9 0.118585 0.844300 0.672170
O O10 0.123759 0.804999 0.940130
O O11 0.285637 0.829541 0.037350
O O12 0.454689 0.271699 0.666118
O O13 0.478168 0.360338 0.721569
O O14 0.500000 0.308606 0.000000
O O15 0.304797 0.084388 0.992358
O O16 0.500000 0.775467 0.500000
O O17 0.733456 0.500000 0.814863
O O18 0.654276 0.578475 0.587321
O O19 0.000000 0.091092 0.500000
#
# Coordination Sequence:
#
# PCOD9193435 Si02
#       8
#     8   8   8   8   8   8   8   8
#     4  11  21  34  53  79 105 133 177 231 263 296
#     4  10  21  37  53  72 104 146 176 209 271 323
#     4   8  17  33  54  73 105 146 173 204 260 326
#     4   9  17  31  54  79 105 142 172 207 258 314
#     4  10  20  34  53  79 103 134 180 222 263 301
#     4   9  17  34  51  75 104 139 177 211 259 311
#     4  10  20  36  58  79 104 140 180 215 263 325
#     4   8  16  33  56  80 108 139 173 214 260 312
#
# _framework density 17.882390000000001
#
# number of rings (size 3 to 8) (size 9 to 14) (size 15 to 20)
#    0.000    2.625    2.500    1.500    0.000    2.750 
#    0.000    1.250    0.000    3.375    0.000    0.000 
#    0.000    0.000    0.000    0.000    0.000    0.000 
#
# Total GULP energy -178208.273178 kJ/mol
# GULP energy per Si atom -5569.008537 kJ/mol
# Density = 1.784169 g / cm^3
# Si number density = 17.882390 Si / 1000 Ang^3
#
#
#
# Elastic Constant Matrix: (Units=GPa)
#
#
# Indices 1 2 3 4 5 6 
#
# 1 75.0741 48.4458 30.6951 0.0000 -2.9589 0.0000
# 2 48.4458 142.6625 42.8541 0.0000 -1.3623 0.0000
# 3 30.6951 42.8541 61.6186 0.0000 -2.6361 0.0000
# 4 0.0000 0.0000 0.0000 23.3920 0.0000 -6.8752
# 5 -2.9589 -1.3623 -2.6361 0.0000 21.8816 0.0000
# 6 0.0000 0.0000 0.0000 -6.8752 0.0000 24.9173
#
#
#
# Elastic Compliance Matrix: (Units=1/GPa)
#
#
# Indices 1 2 3 4 5 6 
#
# 1 0.018820 -0.004525 -0.006163 0.000000 0.001521 0.000000
# 2 -0.004525 0.009949 -0.004689 0.000000 -0.000557 0.000000
# 3 -0.006163 -0.004689 0.022629 0.000000 0.001601 0.000000
# 4 0.000000 0.000000 0.000000 0.046522 0.000000 0.012837
# 5 0.001521 -0.000557 0.001601 0.000000 0.046064 0.000000
# 6 0.000000 0.000000 0.000000 0.012837 0.000000 0.043675
#
#
# Mechanical properties :
#
#
# Convention : Reuss Voigt Hill
#
# Bulk Modulus (GPa) = 48.44155 58.14947 53.29551
# Shear Modulus (GPa) = 22.19308 24.52887 23.36098
#
# Velocity S-wave (km/s) = 3.52669 3.70763 3.61829
# Velocity P-wave (km/s) = 6.61295 7.13562 6.87925
#
# Compressibility (1/GPa) = 0.02064344
#
# Stress axis : x y z
#
# Youngs Moduli (GPa) = 53.13483 100.50767 44.19172
#
# Poissons Ratio (x) = 0.45481 0.27235
# Poissons Ratio (y) = 0.24044 0.20723
# Poissons Ratio (z) = 0.32747 0.47131
#
# Static dielectric constant tensor:
#      x y z
#    x 1.662730 0.000000 0.049490 
#    y 0.000000 1.641770 0.000000 
#    z 0.049490 0.000000 1.625100 
# 
# From -- ./inp_files/91107.got.cif
#   From: 2010.05.17/outbox.cif.g08.bks.cpg/sg12_46_cif.got.tgz:91107.got - 2010.06.03 13:09:07.
