data_PCOD9193214
_publ_section_title
;
Structure prediction by ZEFSAII (Michael W. Deem and Ramdas Pophale) SiO2 
 PCOD9193214
Probable space group: C 2/M
;
_chemical_formula_sum "Si O2"
_cell_formula_units_Z 48
_cell_length_a 9.692995
_cell_length_b 31.547991
_cell_length_c 9.047096
_cell_angle_alpha 90.000000
_cell_angle_beta 105.135895
_cell_angle_gamma 90.000000
_cell_volume 2670.578563
_symmetry_space_group_name_H-M "C 2/M"
_symmetry_group_IT_number 12
_symmetry_cell_setting 'monoclinic'
loop_
_space_group_symop_operation_xyz
x,y,z
-x,y,-z
-x,-y,-z
x,-y,z
1/2+x,1/2+y,z
1/2-x,1/2+y,-z
1/2-x,1/2-y,-z
1/2+x,1/2-y,z
loop_
_atom_site_type_symbol
_atom_site_label
_atom_site_fract_x
_atom_site_fract_y
_atom_site_fract_z
Si Si1 0.177245 0.000000 0.713656
Si Si2 0.804164 0.829110 0.299000
Si Si3 0.679670 0.414184 0.870874
Si Si4 0.167955 0.086730 0.206811
Si Si5 0.154091 0.748406 0.116700
Si Si6 0.143150 0.176394 0.340124
Si Si7 0.171655 0.000000 0.370107
O O1 0.226565 0.957964 0.810583
O O2 0.218340 0.000000 0.553482
O O3 0.002799 0.000000 0.673446
O O4 0.775934 0.875476 0.222290
O O5 0.691244 0.795948 0.203945
O O6 0.806463 0.823517 0.476231
O O7 0.969189 0.820896 0.295214
O O8 0.505936 0.415067 0.833540
O O9 0.722681 0.411023 0.054072
O O10 0.197483 0.131512 0.292239
O O11 0.216279 0.043375 0.300245
O O12 0.187022 0.785379 0.244587
O O13 0.250000 0.750000 0.000000
O O14 0.000000 0.752813 0.000000
#
# Coordination Sequence:
#
# PCOD9193214 Si02
#       7
#     4   8   8   8   8   8   4
#     4   9  15  23  37  61  94 134 167 212 255 306
#     4  10  20  35  52  76 104 138 176 219 267 318
#     4   9  16  26  43  65  97 131 174 211 258 311
#     4   9  16  25  42  65  96 135 170 211 257 313
#     4  12  23  38  57  78 105 139 180 223 268 318
#     4  10  20  34  53  75 105 139 175 218 269 318
#     4   9  15  23  35  61  97 132 173 204 254 314
#
# _framework density 17.973634000000001
#
# number of rings (size 3 to 8) (size 9 to 14) (size 15 to 20)
#    0.000    2.167    1.667    3.000    2.333    6.000 
#    0.000    0.000    0.000    0.000    0.000    0.583 
#    0.000    0.000    0.000   11.000    0.000    7.500 
#
# Total GULP energy -133691.032093 kJ/mol
# GULP energy per Si atom -5570.459671 kJ/mol
# Density = 1.793272 g / cm^3
# Si number density = 17.973634 Si / 1000 Ang^3
#
#
#
# Elastic Constant Matrix: (Units=GPa)
#
#
# Indices 1 2 3 4 5 6 
#
# 1 22.4659 20.3572 28.9374 0.0000 -16.2094 0.0000
# 2 20.3572 172.1080 87.6065 0.0000 -24.8349 0.0000
# 3 28.9374 87.6065 140.8582 0.0000 -31.3723 0.0000
# 4 0.0000 0.0000 0.0000 37.3871 0.0000 -15.7323
# 5 -16.2094 -24.8349 -31.3723 0.0000 17.1783 0.0000
# 6 0.0000 0.0000 0.0000 -15.7323 0.0000 -11.1720
#
#
#
# Elastic Compliance Matrix: (Units=1/GPa)
#
#
# Indices 1 2 3 4 5 6 
#
# 1 0.140842 0.003361 -0.000578 0.000000 0.136702 0.000000
# 2 0.003361 0.008788 -0.004417 0.000000 0.007810 0.000000
# 3 -0.000578 -0.004417 0.014195 0.000000 0.018995 0.000000
# 4 0.000000 0.000000 0.000000 0.016795 0.000000 -0.023651
# 5 0.136702 0.007810 0.018995 0.000000 0.233186 0.000000
# 6 0.000000 0.000000 0.000000 -0.023651 0.000000 -0.056205
#
#
# Mechanical properties :
#
#
# Convention : Reuss Voigt Hill
#
# Bulk Modulus (GPa) = 6.22825 67.69270 36.96047
# Shear Modulus (GPa) = 12.06599 21.91409 16.99004
#
# Velocity S-wave (km/s) = 2.59379 3.49554 3.07787
# Velocity P-wave (km/s) = 3.52747 7.35090 5.76536
#
# Compressibility (1/GPa) = 0.16055881
#
# Stress axis : x y z
#
# Youngs Moduli (GPa) = 7.10014 113.79305 70.44540
#
# Poissons Ratio (x) = -0.38244 0.04070
# Poissons Ratio (y) = -0.02386 0.31112
# Poissons Ratio (z) = 0.00410 0.50257
#
# Static dielectric constant tensor:
#      x y z
#    x 1.599480 0.000000 -0.016500 
#    y 0.000000 1.597290 0.000000 
#    z -0.016500 0.000000 1.613570 
# 
# From -- ./inp_files/53739.got.cif
#   From: 2010.05.17/outbox.cif.g08.bks.cpg/sg12_27_cif.got.tgz:53739.got - 2010.06.03 13:09:07.
