data_PCOD9193373
_publ_section_title
;
Structure prediction by ZEFSAII (Michael W. Deem and Ramdas Pophale) SiO2 
 PCOD9193373
Probable space group: C 2/M
;
_chemical_formula_sum "Si O2"
_cell_formula_units_Z 64
_cell_length_a 21.286941
_cell_length_b 7.500553
_cell_length_c 32.257757
_cell_angle_alpha 90.000000
_cell_angle_beta 145.139267
_cell_angle_gamma 90.000000
_cell_volume 2943.882757
_symmetry_space_group_name_H-M "C 2/M"
_symmetry_group_IT_number 12
_symmetry_cell_setting 'monoclinic'
loop_
_space_group_symop_operation_xyz
x,y,z
-x,y,-z
-x,-y,-z
x,-y,z
1/2+x,1/2+y,z
1/2-x,1/2+y,-z
1/2-x,1/2-y,-z
1/2+x,1/2-y,z
loop_
_atom_site_type_symbol
_atom_site_label
_atom_site_fract_x
_atom_site_fract_y
_atom_site_fract_z
Si Si1 0.452848 0.211087 0.703883
Si Si2 0.934072 0.215687 0.790595
Si Si3 0.683132 0.218689 0.791528
Si Si4 0.710943 0.212623 0.712361
Si Si5 0.885556 0.782065 0.958879
Si Si6 0.509548 0.285521 0.458012
Si Si7 0.868085 0.213467 0.044033
Si Si8 0.736062 0.713845 0.540916
O O1 0.450561 0.234228 0.751878
O O2 0.565563 0.280822 0.745104
O O3 0.341747 0.284178 0.623084
O O4 0.453183 0.000000 0.695349
O O5 0.817577 0.280633 0.745539
O O6 0.034055 0.280108 0.873538
O O7 0.933753 0.000000 0.791756
O O8 0.702297 0.278972 0.754796
O O9 0.781900 0.273951 0.875138
O O10 0.682692 0.000000 0.791335
O O11 0.599121 0.244752 0.626937
O O12 0.725150 0.000000 0.723239
O O13 0.885019 0.000000 0.958956
O O14 0.875993 0.720545 0.001142
O O15 0.000000 0.727028 0.000000
O O16 0.500000 0.219327 0.500000
O O17 0.517358 0.500000 0.464198
O O18 0.620265 0.217913 0.495921
O O19 0.880792 0.000000 0.048729
O O20 0.750000 0.250000 0.000000
O O21 0.733923 0.500000 0.545166
O O22 0.750000 0.750000 0.500000
#
# Coordination Sequence:
#
# PCOD9193373 Si02
#       8
#     8   8   8   8   8   8   8   8
#     4  10  20  35  55  77 102 136 176 213 254 311
#     4  10  21  35  52  78 109 137 169 215 265 307
#     4   9  17  30  50  75 100 129 169 212 250 295
#     4  10  20  35  55  78 104 134 171 216 262 306
#     4   9  16  28  49  75 101 131 168 209 251 296
#     4  10  21  37  55  76 104 137 173 213 258 310
#     4  10  20  34  53  78 107 138 173 213 258 308
#     4  10  21  36  55  79 106 137 174 218 265 312
#
# _framework density 21.739995
#
# number of rings (size 3 to 8) (size 9 to 14) (size 15 to 20)
#    0.000    2.250    0.000    3.000    0.000    8.250 
#    0.000    0.625    0.000    1.125    0.000    0.000 
#    0.000    0.000    0.000    0.000    0.000    0.000 
#
# Total GULP energy -178896.566001 kJ/mol
# GULP energy per Si atom -5590.517688 kJ/mol
# Density = 2.169051 g / cm^3
# Si number density = 21.739995 Si / 1000 Ang^3
#
#
#
# Elastic Constant Matrix: (Units=GPa)
#
#
# Indices 1 2 3 4 5 6 
#
# 1 159.7665 -13.9217 60.4474 0.0002 7.2251 -0.0004
# 2 -13.9217 53.9551 -12.9112 -0.0001 5.1005 0.0000
# 3 60.4474 -12.9112 157.9281 0.0001 4.9114 0.0000
# 4 0.0002 -0.0001 0.0001 3.5793 0.0001 8.3771
# 5 7.2251 5.1005 4.9114 0.0001 49.1756 -0.0001
# 6 -0.0004 0.0000 0.0000 8.3771 -0.0001 2.6164
#
#
#
# Elastic Compliance Matrix: (Units=1/GPa)
#
#
# Indices 1 2 3 4 5 6 
#
# 1 0.007446 0.001364 -0.002709 0.000000 -0.000965 0.000000
# 2 0.001364 0.019377 0.001134 0.000000 -0.002324 0.000000
# 3 -0.002709 0.001134 0.007476 0.000000 -0.000466 0.000000
# 4 0.000000 0.000000 0.000000 -0.043025 0.000000 0.137756
# 5 -0.000965 -0.002324 -0.000466 0.000000 0.020765 0.000000
# 6 0.000000 0.000000 0.000000 0.137756 0.000000 -0.058858
#
#
# Mechanical properties :
#
#
# Convention : Reuss Voigt Hill
#
# Bulk Modulus (GPa) = 29.51642 48.76430 39.14036
# Shear Modulus (GPa) = -142.42468 33.60994 -54.40737
#
# Velocity S-wave (km/s) = -8.10278 3.93618 -5.00807
# Velocity P-wave (km/s) = 8.59846 6.56791 3.92403
#
# Compressibility (1/GPa) = 0.03387945
#
# Stress axis : x y z
#
# Youngs Moduli (GPa) = 134.29195 51.60748 133.76246
#
# Poissons Ratio (x) = -0.07042 0.36231
# Poissons Ratio (y) = -0.18323 -0.15171
# Poissons Ratio (z) = 0.36374 -0.05853
#
# Static dielectric constant tensor:
#      x y z
#    x 1.741070 0.000000 0.013500 
#    y 0.000000 1.877810 0.000000 
#    z 0.013500 0.000000 1.743500 
# 
# From -- ./inp_files/378330.got.cif
#   From: 2010.05.17/outbox.cif.g08.bks.cpg/sg12_190_cif.got.tgz:378330.got - 2010.06.03 13:09:07.
