data_PCOD9193480
_publ_section_title
;
Structure prediction by ZEFSAII (Michael W. Deem and Ramdas Pophale) SiO2 
 PCOD9193480
Probable space group: C 2/M
;
_chemical_formula_sum "Si O2"
_cell_formula_units_Z 64
_cell_length_a 11.829005
_cell_length_b 18.574191
_cell_length_c 29.864657
_cell_angle_alpha 90.000000
_cell_angle_beta 31.213404
_cell_angle_gamma 90.000000
_cell_volume 3400.445165
_symmetry_space_group_name_H-M "C 2/M"
_symmetry_group_IT_number 12
_symmetry_cell_setting 'monoclinic'
loop_
_space_group_symop_operation_xyz
x,y,z
-x,y,-z
-x,-y,-z
x,-y,z
1/2+x,1/2+y,z
1/2-x,1/2+y,-z
1/2-x,1/2-y,-z
1/2+x,1/2-y,z
loop_
_atom_site_type_symbol
_atom_site_label
_atom_site_fract_x
_atom_site_fract_y
_atom_site_fract_z
Si Si1 0.709969 0.195631 0.897074
Si Si2 0.920727 0.413202 0.134066
Si Si3 0.187658 0.086058 0.571796
Si Si4 0.918137 0.914194 0.979516
Si Si5 0.811850 0.659735 0.806049
Si Si6 0.192650 0.187317 0.750172
Si Si7 0.672403 0.913401 0.376336
Si Si8 0.766015 0.646011 0.282149
O O1 0.681061 0.128092 0.873487
O O2 0.746966 0.266126 0.853527
O O3 0.933883 0.186472 0.848754
O O4 0.500000 0.202520 0.000000
O O5 0.903741 0.500000 0.136042
O O6 0.816694 0.387323 0.216039
O O7 0.175292 0.389626 0.050268
O O8 0.211265 0.107401 0.616223
O O9 0.415993 0.103384 0.470525
O O10 0.970825 0.118040 0.623914
O O11 0.169712 0.000000 0.577859
O O12 0.106291 0.892304 0.882105
O O13 0.903650 0.000000 0.987395
O O14 0.000000 0.886316 0.000000
O O15 0.834437 0.673003 0.745998
O O16 0.028683 0.628554 0.755655
O O17 0.236605 0.130645 0.696051
O O18 0.241724 0.267938 0.717645
O O19 0.695774 0.000000 0.362872
#
# Coordination Sequence:
#
# PCOD9193480 Si02
#       8
#     8   8   8   8   8   8   8   8
#     4  11  24  39  60  86 116 160 206 250 299 347
#     4  11  22  38  60  85 115 153 205 258 295 341
#     4   9  19  39  68  93 116 151 200 245 292 350
#     4  10  20  34  53  79 112 154 201 244 289 339
#     4  11  23  38  56  83 123 163 197 239 297 360
#     4  11  24  38  58  88 124 156 195 243 300 357
#     4   9  20  41  67  92 117 154 195 243 300 353
#     4  11  22  36  58  89 120 154 198 241 294 352
#
# _framework density 18.821065000000001
#
# number of rings (size 3 to 8) (size 9 to 14) (size 15 to 20)
#    0.000    1.625    2.500    3.000    3.500    4.250 
#    0.000    0.625    0.000    1.500    0.000    0.000 
#    0.000    0.000    0.000    0.000    0.000    0.000 
#
# Total GULP energy -178692.199887 kJ/mol
# GULP energy per Si atom -5584.131246 kJ/mol
# Density = 1.877823 g / cm^3
# Si number density = 18.821065 Si / 1000 Ang^3
#
#
#
# Elastic Constant Matrix: (Units=GPa)
#
#
# Indices 1 2 3 4 5 6 
#
# 1 62.2382 15.8550 29.8895 0.0003 -11.6275 0.0126
# 2 15.8550 31.8921 21.7641 -0.0146 -7.3712 -0.0107
# 3 29.8895 21.7641 86.7075 0.0293 -16.7575 0.0407
# 4 0.0003 -0.0146 0.0293 25.6405 -0.0094 -6.0850
# 5 -11.6275 -7.3712 -16.7575 -0.0094 33.1576 -0.0227
# 6 0.0126 -0.0107 0.0407 -6.0850 -0.0227 18.0314
#
#
#
# Elastic Compliance Matrix: (Units=1/GPa)
#
#
# Indices 1 2 3 4 5 6 
#
# 1 0.020619 -0.006111 -0.004920 0.000003 0.003386 -0.000002
# 2 -0.006111 0.040134 -0.007378 0.000048 0.003050 0.000065
# 3 -0.004920 -0.007378 0.015992 -0.000030 0.004717 -0.000041
# 4 0.000003 0.000048 -0.000030 0.042396 0.000018 0.014308
# 5 0.003386 0.003050 0.004717 0.000018 0.034408 0.000038
# 6 -0.000002 0.000065 -0.000041 0.014308 0.000038 0.060287
#
#
# Mechanical properties :
#
#
# Convention : Reuss Voigt Hill
#
# Bulk Modulus (GPa) = 25.04457 35.09499 30.06978
# Shear Modulus (GPa) = 18.94200 22.92116 20.93158
#
# Velocity S-wave (km/s) = 3.17586 3.49355 3.33849
# Velocity P-wave (km/s) = 5.17530 5.91273 5.55626
#
# Compressibility (1/GPa) = 0.03992882
#
# Stress axis : x y z
#
# Youngs Moduli (GPa) = 48.49851 24.91675 62.52972
#
# Poissons Ratio (x) = 0.15227 0.30762
# Poissons Ratio (y) = 0.29637 0.46133
# Poissons Ratio (z) = 0.23859 0.18383
#
# Static dielectric constant tensor:
#      x y z
#    x 1.657080 0.000000 -0.012600 
#    y 0.000000 1.640830 0.000000 
#    z -0.012600 0.000000 1.669590 
# 
# From -- ./inp_files/374442.got.cif
#   From: 2010.05.17/outbox.cif.g08.bks.cpg/sg12_188_cif.got.tgz:374442.got - 2010.06.03 13:09:07.
