data_PCOD9193132
_publ_section_title
;
Structure prediction by ZEFSAII (Michael W. Deem and Ramdas Pophale) SiO2 
 PCOD9193132
Probable space group: C 2/M
;
_chemical_formula_sum "Si O2"
_cell_formula_units_Z 56
_cell_length_a 8.735345
_cell_length_b 26.912061
_cell_length_c 12.862078
_cell_angle_alpha 90.000000
_cell_angle_beta 111.897797
_cell_angle_gamma 90.000000
_cell_volume 2805.538351
_symmetry_space_group_name_H-M "C 2/M"
_symmetry_group_IT_number 12
_symmetry_cell_setting 'monoclinic'
loop_
_space_group_symop_operation_xyz
x,y,z
-x,y,-z
-x,-y,-z
x,-y,z
1/2+x,1/2+y,z
1/2-x,1/2+y,-z
1/2-x,1/2-y,-z
1/2+x,1/2-y,z
loop_
_atom_site_type_symbol
_atom_site_label
_atom_site_fract_x
_atom_site_fract_y
_atom_site_fract_z
Si Si1 0.295885 0.684150 0.822408
Si Si2 0.711091 0.559212 0.815441
Si Si3 0.821021 0.085183 0.963039
Si Si4 0.145819 0.629773 0.603049
Si Si5 0.071080 0.730911 0.917430
Si Si6 0.592821 0.557182 0.413868
Si Si7 0.981457 0.443547 0.251148
O O1 0.338705 0.637325 0.906435
O O2 0.261131 0.666516 0.697391
O O3 0.121025 0.702617 0.826119
O O4 0.440641 0.724966 0.864806
O O5 0.727890 0.500000 0.843380
O O6 0.538342 0.566146 0.712090
O O7 0.858202 0.572140 0.773811
O O8 0.718328 0.588698 0.924986
O O9 0.673937 0.057752 0.866608
O O10 0.000000 0.059944 0.000000
O O11 0.259376 0.595265 0.560081
O O12 0.063388 0.593185 0.667421
O O13 0.000000 0.653881 0.500000
O O14 0.250000 0.750000 0.000000
O O15 0.000000 0.701761 0.000000
O O16 0.500000 0.562014 0.500000
O O17 0.650181 0.500000 0.419481
O O18 0.008434 0.500000 0.295079
#
# Coordination Sequence:
#
# PCOD9193132 Si02
#       7
#     8   8   8   8   8   8   8
#     4  10  22  39  59  85 113 142 182 229 283 345
#     4  10  20  34  52  78 115 156 196 235 278 329
#     4  11  21  33  52  82 118 150 184 232 286 341
#     4  11  23  39  58  83 114 148 191 238 281 330
#     4   9  18  36  61  86 111 139 172 216 277 349
#     4  10  21  37  57  81 112 154 199 238 275 320
#     4  10  21  35  53  80 115 157 198 235 276 326
#
# _framework density 19.960519000000001
#
# number of rings (size 3 to 8) (size 9 to 14) (size 15 to 20)
#    0.000    1.857    0.000    5.143    0.000    8.000 
#    0.000    6.429    0.000    0.000    0.000    0.000 
#    0.000    0.000    0.000    0.000    0.000    0.000 
#
# Total GULP energy -156348.505149 kJ/mol
# GULP energy per Si atom -5583.875184 kJ/mol
# Density = 1.991509 g / cm^3
# Si number density = 19.960519 Si / 1000 Ang^3
#
#
#
# Elastic Constant Matrix: (Units=GPa)
#
#
# Indices 1 2 3 4 5 6 
#
# 1 83.5704 16.2801 1.5535 0.0000 7.6510 0.0000
# 2 16.2801 41.6545 18.3170 0.0000 6.2439 0.0000
# 3 1.5535 18.3170 81.4303 0.0000 10.8095 0.0000
# 4 0.0000 0.0000 0.0000 17.6946 0.0000 -1.2831
# 5 7.6510 6.2439 10.8095 0.0000 27.3644 0.0000
# 6 0.0000 0.0000 0.0000 -1.2831 0.0000 28.0631
#
#
#
# Elastic Compliance Matrix: (Units=1/GPa)
#
#
# Indices 1 2 3 4 5 6 
#
# 1 0.013254 -0.005318 0.001345 0.000000 -0.003023 0.000000
# 2 -0.005318 0.029180 -0.006096 0.000000 -0.002763 0.000000
# 3 0.001345 -0.006096 0.014238 0.000000 -0.004609 0.000000
# 4 0.000000 0.000000 0.000000 0.056702 0.000000 0.002593
# 5 -0.003023 -0.002763 -0.004609 0.000000 0.039841 0.000000
# 6 0.000000 0.000000 0.000000 0.002593 0.000000 0.035752
#
#
# Mechanical properties :
#
#
# Convention : Reuss Voigt Hill
#
# Bulk Modulus (GPa) = 27.37188 30.99516 29.18352
# Shear Modulus (GPa) = 22.59550 25.99139 24.29345
#
# Velocity S-wave (km/s) = 3.36819 3.61243 3.49244
# Velocity P-wave (km/s) = 5.37299 5.74121 5.56015
#
# Compressibility (1/GPa) = 0.03653384
#
# Stress axis : x y z
#
# Youngs Moduli (GPa) = 75.45016 34.26985 70.23564
#
# Poissons Ratio (x) = 0.18225 -0.09445
# Poissons Ratio (y) = 0.40126 0.42812
# Poissons Ratio (z) = -0.10146 0.20889
#
# Static dielectric constant tensor:
#      x y z
#    x 1.716610 0.000000 -0.001390 
#    y 0.000000 1.724330 0.000000 
#    z -0.001390 0.000000 1.733630 
# 
# From -- ./inp_files/125340.got.cif
#   From: 2010.05.17/outbox.cif.g08.bks.cpg/sg12_63_cif.got.tgz:125340.got - 2010.06.03 13:09:07.
