data_PCOD9193278
_publ_section_title
;
Structure prediction by ZEFSAII (Michael W. Deem and Ramdas Pophale) SiO2 
 PCOD9193278
Probable space group: C 2/M
;
_chemical_formula_sum "Si O2"
_cell_formula_units_Z 48
_cell_length_a 20.384535
_cell_length_b 7.370577
_cell_length_c 29.832642
_cell_angle_alpha 90.000000
_cell_angle_beta 153.332402
_cell_angle_gamma 90.000000
_cell_volume 2011.685679
_symmetry_space_group_name_H-M "C 2/M"
_symmetry_group_IT_number 12
_symmetry_cell_setting 'monoclinic'
loop_
_space_group_symop_operation_xyz
x,y,z
-x,y,-z
-x,-y,-z
x,-y,z
1/2+x,1/2+y,z
1/2-x,1/2+y,-z
1/2-x,1/2-y,-z
1/2+x,1/2-y,z
loop_
_atom_site_type_symbol
_atom_site_label
_atom_site_fract_x
_atom_site_fract_y
_atom_site_fract_z
Si Si1 0.872604 0.277732 0.888812
Si Si2 0.056802 0.777876 0.485855
Si Si3 0.125063 0.284464 0.351679
Si Si4 0.442105 0.716564 0.321870
Si Si5 0.548449 0.208186 0.915140
Si Si6 0.134157 0.720510 0.869526
O O1 0.874949 0.500000 0.891825
O O2 0.705869 0.216302 0.792610
O O3 0.000000 0.216053 0.000000
O O4 0.923456 0.217421 0.870384
O O5 0.221407 0.717440 0.573864
O O6 0.000000 0.719731 0.500000
O O7 0.960582 0.720178 0.384222
O O8 0.056117 0.000000 0.486095
O O9 0.129156 0.500000 0.347376
O O10 0.083729 0.254357 0.378123
O O11 0.985760 0.215481 0.238725
O O12 0.429211 0.500000 0.316350
O O13 0.700455 0.214045 0.035540
O O14 0.508218 0.000000 0.881932
O O15 0.583722 0.285900 0.888090
O O16 0.141143 0.500000 0.873601
#
# Coordination Sequence:
#
# PCOD9193278 Si02
#       6
#     8   8   8   8   8   8
#     4   9  17  28  46  73 101 128 165 210 251 289
#     4   9  19  34  55  81 104 130 172 220 259 301
#     4  10  20  34  53  76 106 137 168 210 261 310
#     4  10  20  34  55  79 103 136 175 213 255 304
#     4   9  17  30  48  70 100 133 170 214 251 295
#     4   9  18  30  47  72 100 134 169 205 256 307
#
# _framework density 23.860586000000001
#
# number of rings (size 3 to 8) (size 9 to 14) (size 15 to 20)
#    0.000    2.667    0.000    1.500    2.333    2.000 
#    0.000    0.833    0.000    5.000    0.000    0.000 
#    0.000    0.000    0.000    0.000    0.000    0.000 
#
# Total GULP energy -134044.312584 kJ/mol
# GULP energy per Si atom -5585.179691 kJ/mol
# Density = 2.380628 g / cm^3
# Si number density = 23.860586 Si / 1000 Ang^3
#
#
#
# Elastic Constant Matrix: (Units=GPa)
#
#
# Indices 1 2 3 4 5 6 
#
# 1 163.7132 -8.0196 70.4655 0.0006 16.6420 0.0005
# 2 -8.0196 84.7883 -9.0323 0.0044 -0.3862 0.0015
# 3 70.4655 -9.0323 120.3368 -0.0036 4.9244 0.0001
# 4 0.0006 0.0044 -0.0036 -55.6340 0.0002 0.3808
# 5 16.6420 -0.3862 4.9244 0.0002 36.4561 -0.0003
# 6 0.0005 0.0015 0.0001 0.3808 -0.0003 10.1947
#
#
#
# Elastic Compliance Matrix: (Units=1/GPa)
#
#
# Indices 1 2 3 4 5 6 
#
# 1 0.008537 0.000276 -0.004846 0.000000 -0.003240 -0.000001
# 2 0.000276 0.011898 0.000735 0.000001 -0.000099 -0.000002
# 3 -0.004846 0.000735 0.011173 -0.000001 0.000710 0.000000
# 4 0.000000 0.000001 -0.000001 -0.017970 0.000000 0.000671
# 5 -0.003240 -0.000099 0.000710 0.000000 0.028812 0.000001
# 6 -0.000001 -0.000002 0.000000 0.000671 0.000001 0.098065
#
#
# Mechanical properties :
#
#
# Convention : Reuss Voigt Hill
#
# Bulk Modulus (GPa) = 41.76985 52.85174 47.31080
# Shear Modulus (GPa) = 32.01775 19.23168 25.62472
#
# Velocity S-wave (km/s) = 3.66713 2.84210 3.28065
# Velocity P-wave (km/s) = 5.95602 5.74181 5.84990
#
# Compressibility (1/GPa) = 0.02394071
#
# Stress axis : x y z
#
# Youngs Moduli (GPa) = 117.14127 84.04701 89.49748
#
# Poissons Ratio (x) = -0.02324 0.43366
# Poissons Ratio (y) = -0.03239 -0.06580
# Poissons Ratio (z) = 0.56761 -0.06179
#
# Static dielectric constant tensor:
#      x y z
#    x 1.891350 0.000000 -0.012290 
#    y 0.000000 1.958540 0.000000 
#    z -0.012290 0.000000 1.900270 
# 
# From -- ./inp_files/363418.got.cif
#   From: 2010.05.17/outbox.cif.g08.bks.cpg/sg12_182_cif.got.tgz:363418.got - 2010.06.03 13:09:07.
