data_PCOD9193526
_publ_section_title
;
Structure prediction by ZEFSAII (Michael W. Deem and Ramdas Pophale) SiO2 
 PCOD9193526
Probable space group: C 2/M
;
_chemical_formula_sum "Si O2"
_cell_formula_units_Z 64
_cell_length_a 13.624701
_cell_length_b 7.798761
_cell_length_c 28.955042
_cell_angle_alpha 90.000000
_cell_angle_beta 56.126545
_cell_angle_gamma 90.000000
_cell_volume 2554.444371
_symmetry_space_group_name_H-M "C 2/M"
_symmetry_group_IT_number 12
_symmetry_cell_setting 'monoclinic'
loop_
_space_group_symop_operation_xyz
x,y,z
-x,y,-z
-x,-y,-z
x,-y,z
1/2+x,1/2+y,z
1/2-x,1/2+y,-z
1/2-x,1/2-y,-z
1/2+x,1/2-y,z
loop_
_atom_site_type_symbol
_atom_site_label
_atom_site_fract_x
_atom_site_fract_y
_atom_site_fract_z
Si Si1 0.859162 0.706497 0.939224
Si Si2 0.612738 0.199362 0.864653
Si Si3 0.874809 0.203360 0.512775
Si Si4 0.220090 0.706342 0.368529
Si Si5 0.684857 0.703209 0.749336
Si Si6 0.952159 0.294585 0.719627
Si Si7 0.535509 0.205094 0.604530
Si Si8 0.140422 0.301400 0.163639
O O1 0.862290 0.500000 0.935987
O O2 0.990930 0.760230 0.919453
O O3 0.848754 0.776750 0.889876
O O4 0.750000 0.750000 0.000000
O O5 0.606363 0.215461 0.810367
O O6 0.726718 0.299352 0.851259
O O7 0.631750 0.000000 0.870560
O O8 0.780516 0.242958 0.577659
O O9 0.000000 0.276117 0.500000
O O10 0.871549 0.263025 0.460661
O O11 0.882932 0.000000 0.508308
O O12 0.222454 0.500000 0.365785
O O13 0.309825 0.770187 0.305002
O O14 0.090076 0.764698 0.384426
O O15 0.820072 0.725772 0.732397
O O16 0.162315 0.000000 0.754948
O O17 0.970264 0.500000 0.719277
O O18 0.035897 0.223335 0.656856
O O19 0.939843 0.220510 0.774575
O O20 0.529767 0.000000 0.611186
O O21 0.105251 0.500000 0.168288
#
# Coordination Sequence:
#
# PCOD9193526 Si02
#       8
#     8   8   8   8   8   8   8   8
#     4  10  23  40  58  81 111 143 175 212 255 306
#     4  10  20  34  53  81 111 137 169 217 269 307
#     4   9  15  19  24  41  73 112 151 193 244 298
#     4   8  13  21  33  49  73 110 158 203 241 288
#     4   8  14  26  44  65  89 124 167 207 250 306
#     4   7  11  22  42  63  82 111 159 208 243 285
#     4   8  12  19  31  47  70 105 148 195 242 286
#     4   9  18  36  58  78 103 141 182 214 251 309
#
# _framework density 25.054371
#
# number of rings (size 3 to 8) (size 9 to 14) (size 15 to 20)
#    0.000    3.375    0.000    3.000    0.000    4.000 
#    0.000    8.750    0.000    0.000    0.000    0.000 
#    0.000    1.000    0.000    2.125    0.000   11.125 
#
# Total GULP energy -178674.948794 kJ/mol
# GULP energy per Si atom -5583.592150 kJ/mol
# Density = 2.499735 g / cm^3
# Si number density = 25.054371 Si / 1000 Ang^3
#
#
#
# Elastic Constant Matrix: (Units=GPa)
#
#
# Indices 1 2 3 4 5 6 
#
# 1 63.0517 0.0422 45.6714 0.0000 3.1772 0.0000
# 2 0.0422 42.0069 4.4769 0.0000 0.1505 0.0000
# 3 45.6714 4.4769 204.0153 0.0000 -19.1820 0.0000
# 4 0.0000 0.0000 0.0000 29.6830 0.0000 -0.6819
# 5 3.1772 0.1505 -19.1820 0.0000 45.7006 0.0000
# 6 0.0000 0.0000 0.0000 -0.6819 0.0000 11.2980
#
#
#
# Elastic Compliance Matrix: (Units=1/GPa)
#
#
# Indices 1 2 3 4 5 6 
#
# 1 0.019406 0.000490 -0.004666 0.000000 -0.003309 0.000000
# 2 0.000490 0.023878 -0.000671 0.000000 -0.000394 0.000000
# 3 -0.004666 -0.000671 0.006238 0.000000 0.002945 0.000000
# 4 0.000000 0.000000 0.000000 0.033736 0.000000 0.002036
# 5 -0.003309 -0.000394 0.002945 0.000000 0.023349 0.000000
# 6 0.000000 0.000000 0.000000 0.002036 0.000000 0.088634
#
#
# Mechanical properties :
#
#
# Convention : Reuss Voigt Hill
#
# Bulk Modulus (GPa) = 25.10815 45.49499 35.30157
# Shear Modulus (GPa) = 22.91347 34.59520 28.75434
#
# Velocity S-wave (km/s) = 3.02743 3.71995 3.39141
# Velocity P-wave (km/s) = 4.71844 6.05381 5.42735
#
# Compressibility (1/GPa) = 0.03982770
#
# Stress axis : x y z
#
# Youngs Moduli (GPa) = 51.52930 41.87954 160.31316
#
# Poissons Ratio (x) = -0.02051 0.74806
# Poissons Ratio (y) = -0.02523 0.10752
# Poissons Ratio (z) = 0.24045 0.02809
#
# Static dielectric constant tensor:
#      x y z
#    x 2.095500 0.000000 -0.001780 
#    y 0.000000 1.869780 0.000000 
#    z -0.001780 0.000000 2.022410 
# 
# From -- ./inp_files/375419.got.cif
#   From: 2010.05.17/outbox.cif.g08.bks.cpg/sg12_188_cif.got.tgz:375419.got - 2010.06.03 13:09:07.
