data_PCOD9193625
_publ_section_title
;
Structure prediction by ZEFSAII (Michael W. Deem and Ramdas Pophale) SiO2 
 PCOD9193625
Probable space group: C 2/M
;
_chemical_formula_sum "Si O2"
_cell_formula_units_Z 48
_cell_length_a 8.589954
_cell_length_b 11.301936
_cell_length_c 25.414228
_cell_angle_alpha 90.000000
_cell_angle_beta 77.719787
_cell_angle_gamma 90.000000
_cell_volume 2410.838398
_symmetry_space_group_name_H-M "C 2/M"
_symmetry_group_IT_number 12
_symmetry_cell_setting 'monoclinic'
loop_
_space_group_symop_operation_xyz
x,y,z
-x,y,-z
-x,-y,-z
x,-y,z
1/2+x,1/2+y,z
1/2-x,1/2+y,-z
1/2-x,1/2-y,-z
1/2+x,1/2-y,z
loop_
_atom_site_type_symbol
_atom_site_label
_atom_site_fract_x
_atom_site_fract_y
_atom_site_fract_z
Si Si1 0.990087 0.633573 0.911129
Si Si2 0.767529 0.696636 0.720360
Si Si3 0.845173 0.134210 0.474386
Si Si4 0.982746 0.372438 0.212793
Si Si5 0.521632 0.629847 0.651673
Si Si6 0.634740 0.632438 0.945657
O O1 0.055550 0.500000 0.916946
O O2 0.956572 0.641391 0.850990
O O3 0.817835 0.641414 0.951595
O O4 0.096981 0.746582 0.917246
O O5 0.875866 0.630890 0.755085
O O6 0.644772 0.775055 0.762613
O O7 0.658281 0.629946 0.686274
O O8 0.889513 0.776507 0.678003
O O9 0.750000 0.250000 0.500000
O O10 0.899392 0.153911 0.410345
O O11 0.000000 0.129300 0.500000
O O12 0.770618 0.000000 0.482702
O O13 0.900988 0.500000 0.221495
O O14 0.446246 0.500000 0.654049
O O15 0.625588 0.500000 0.919988
O O16 0.500000 0.630001 0.000000
#
# Coordination Sequence:
#
# PCOD9193625 Si02
#       6
#     8   8   8   8   8   8
#     4  10  21  36  55  80 109 141 179 222 268 320
#     4  10  20  34  54  77 103 137 175 214 264 317
#     4  10  21  37  56  80 110 142 178 222 269 318
#     4  10  20  35  53  76 106 137 173 218 265 314
#     4  10  20  35  54  77 105 137 176 218 262 315
#     4  10  21  37  56  80 110 143 181 224 269 318
#
# _framework density 19.910086
#
# number of rings (size 3 to 8) (size 9 to 14) (size 15 to 20)
#    0.000    2.000    0.000    3.500    0.000    1.333 
#    0.000    8.333    0.000    0.000    0.000    0.000 
#    0.000    0.000    0.000    0.000    0.000    0.000 
#
# Total GULP energy -133770.167219 kJ/mol
# GULP energy per Si atom -5573.756967 kJ/mol
# Density = 1.986477 g / cm^3
# Si number density = 19.910086 Si / 1000 Ang^3
#
#
#
# Elastic Constant Matrix: (Units=GPa)
#
#
# Indices 1 2 3 4 5 6 
#
# 1 36.8056 32.4907 -14.6688 0.0000 -7.3065 0.0000
# 2 32.4907 144.3963 23.5106 0.0000 -7.5151 0.0000
# 3 -14.6688 23.5106 36.1585 0.0000 -3.1676 0.0000
# 4 0.0000 0.0000 0.0000 72.5962 0.0000 31.6047
# 5 -7.3065 -7.5151 -3.1676 0.0000 21.3647 0.0000
# 6 0.0000 0.0000 0.0000 31.6047 0.0000 -4.5426
#
#
#
# Elastic Compliance Matrix: (Units=1/GPa)
#
#
# Indices 1 2 3 4 5 6 
#
# 1 0.066907 -0.020856 0.042619 0.000000 0.021864 0.000000
# 2 -0.020856 0.014332 -0.018199 0.000000 -0.004790 0.000000
# 3 0.042619 -0.018199 0.058252 0.000000 0.016810 0.000000
# 4 0.000000 0.000000 0.000000 0.003419 0.000000 0.023787
# 5 0.021864 -0.004790 0.016810 0.000000 0.055091 0.000000
# 6 0.000000 0.000000 0.000000 0.023787 0.000000 -0.054640
#
#
# Mechanical properties :
#
#
# Convention : Reuss Voigt Hill
#
# Bulk Modulus (GPa) = 6.82040 33.33613 20.07827
# Shear Modulus (GPa) = 27.01133 29.61885 28.31509
#
# Velocity S-wave (km/s) = 3.68729 3.86117 3.77523
# Velocity P-wave (km/s) = 4.64340 6.05457 5.39532
#
# Compressibility (1/GPa) = 0.14661891
#
# Stress axis : x y z
#
# Youngs Moduli (GPa) = 14.94606 69.77298 17.16677
#
# Poissons Ratio (x) = 1.45520 -0.73164
# Poissons Ratio (y) = 0.31172 0.31243
# Poissons Ratio (z) = -0.63699 1.26983
#
# Static dielectric constant tensor:
#      x y z
#    x 1.669310 0.000000 0.004400 
#    y 0.000000 1.726750 0.000000 
#    z 0.004400 0.000000 1.697810 
# 
# From -- ./inp_files/331974.got.cif
#   From: 2010.05.17/outbox.cif.g08.bks.cpg/sg12_166_cif.got.tgz:331974.got - 2010.06.03 13:09:07.
