data_PCOD9193533
_publ_section_title
;
Structure prediction by ZEFSAII (Michael W. Deem and Ramdas Pophale) SiO2 
 PCOD9193533
Probable space group: C 2/M
;
_chemical_formula_sum "Si O2"
_cell_formula_units_Z 58
_cell_length_a 20.389376
_cell_length_b 7.364928
_cell_length_c 16.806330
_cell_angle_alpha 90.000000
_cell_angle_beta 69.693448
_cell_angle_gamma 90.000000
_cell_volume 2366.891581
_symmetry_space_group_name_H-M "C 2/M"
_symmetry_group_IT_number 12
_symmetry_cell_setting 'monoclinic'
loop_
_space_group_symop_operation_xyz
x,y,z
-x,y,-z
-x,-y,-z
x,-y,z
1/2+x,1/2+y,z
1/2-x,1/2+y,-z
1/2-x,1/2-y,-z
1/2+x,1/2-y,z
loop_
_atom_site_type_symbol
_atom_site_label
_atom_site_fract_x
_atom_site_fract_y
_atom_site_fract_z
Si Si1 0.419371 0.278056 0.032059
Si Si2 0.121855 0.220921 0.778011
Si Si3 0.259163 0.793804 0.635806
Si Si4 0.020167 0.780653 0.686991
Si Si5 0.500000 0.500000 0.500000
Si Si6 0.360288 0.279053 0.739581
Si Si7 0.675365 0.284027 0.070240
Si Si8 0.609612 0.209199 0.497158
O O1 0.417637 0.500000 0.032673
O O2 0.381319 0.218858 0.129444
O O3 0.500000 0.224364 0.000000
O O4 0.381700 0.214255 0.968145
O O5 0.187602 0.289732 0.698895
O O6 0.050578 0.263133 0.760720
O O7 0.126741 0.000000 0.777802
O O8 0.311817 0.789826 0.689225
O O9 0.310337 0.724546 0.544739
O O10 0.241078 0.000000 0.621213
O O11 0.076108 0.717056 0.598632
O O12 0.941397 0.719546 0.705039
O O13 0.018891 0.000000 0.676884
O O14 0.560352 0.342147 0.468400
O O15 0.358952 0.500000 0.736213
O O16 0.330266 0.217638 0.837463
O O17 0.664068 0.500000 0.080545
O O18 0.750000 0.250000 0.000000
O O19 0.606458 0.000000 0.472011
#
# Coordination Sequence:
#
# PCOD9193533 Si02
#       8
#     8   8   8   8   2   8   8   8
#     4   9  16  29  54  84 113 149 198 250 294 353
#     4   9  18  34  56  82 116 158 204 248 304 366
#     4  10  22  38  57  85 119 158 200 251 305 367
#     4  10  20  37  60  86 118 159 203 254 309 362
#     4  12  22  40  64  90 124 164 202 250 312 354
#     4  10  21  34  54  83 114 148 195 250 302 362
#     4  10  20  34  53  81 114 149 192 242 299 360
#     4  11  24  39  61  93 126 163 208 255 303 370
#
# _framework density 24.504714
#
# number of rings (size 3 to 8) (size 9 to 14) (size 15 to 20)
#    0.000    2.069    0.690    2.690    2.897    7.172 
#    0.000    0.690    0.000    1.241    0.000    0.000 
#    0.000    0.000    0.000    0.000    0.000    0.000 
#
# Total GULP energy -161952.181984 kJ/mol
# GULP energy per Si atom -5584.557999 kJ/mol
# Density = 2.444894 g / cm^3
# Si number density = 24.504714 Si / 1000 Ang^3
#
#
#
# Elastic Constant Matrix: (Units=GPa)
#
#
# Indices 1 2 3 4 5 6 
#
# 1 89.8940 -2.3327 2.4275 0.0000 -5.3478 0.0000
# 2 -2.3327 107.0449 -7.8576 0.0000 7.7164 0.0001
# 3 2.4275 -7.8576 98.3848 0.0000 -5.4639 0.0000
# 4 0.0000 0.0000 0.0000 4.2633 0.0000 6.0581
# 5 -5.3478 7.7164 -5.4639 0.0000 32.8420 0.0000
# 6 0.0000 0.0001 0.0000 6.0581 0.0000 -9.8541
#
#
#
# Elastic Compliance Matrix: (Units=1/GPa)
#
#
# Indices 1 2 3 4 5 6 
#
# 1 0.011237 0.000104 -0.000170 0.000000 0.001777 0.000000
# 2 0.000104 0.009544 0.000642 0.000000 -0.002119 0.000000
# 3 -0.000170 0.000642 0.010305 0.000000 0.001536 0.000000
# 4 0.000000 0.000000 0.000000 0.125193 0.000000 0.076966
# 5 0.001777 -0.002119 0.001536 0.000000 0.031491 0.000000
# 6 0.000000 0.000000 0.000000 0.076966 0.000000 -0.054164
#
#
# Mechanical properties :
#
#
# Convention : Reuss Voigt Hill
#
# Bulk Modulus (GPa) = 31.01906 31.08870 31.05388
# Shear Modulus (GPa) = 34.91610 25.65601 30.28605
#
# Velocity S-wave (km/s) = 3.77884 3.23922 3.51939
# Velocity P-wave (km/s) = 5.63253 5.16763 5.40508
#
# Compressibility (1/GPa) = 0.03223824
#
# Stress axis : x y z
#
# Youngs Moduli (GPa) = 88.98995 104.77791 97.04078
#
# Poissons Ratio (x) = -0.01093 0.01652
# Poissons Ratio (y) = -0.00928 -0.06230
# Poissons Ratio (z) = 0.01515 -0.06727
#
# Static dielectric constant tensor:
#      x y z
#    x 1.905610 0.000000 0.020480 
#    y 0.000000 1.931920 0.000000 
#    z 0.020480 0.000000 1.986290 
# 
# From -- ./inp_files/282177.got.cif
#   From: 2010.05.17/outbox.cif.g08.bks.cpg/sg12_142_cif.got.tgz:282177.got - 2010.06.03 13:09:07.
