data_PCOD9193864
_publ_section_title
;
Structure prediction by ZEFSAII (Michael W. Deem and Ramdas Pophale) SiO2 
 PCOD9193864
Probable space group: C 2/M
;
_chemical_formula_sum "Si O2"
_cell_formula_units_Z 56
_cell_length_a 24.231440
_cell_length_b 8.731202
_cell_length_c 15.034799
_cell_angle_alpha 90.000000
_cell_angle_beta 110.083316
_cell_angle_gamma 90.000000
_cell_volume 2987.489078
_symmetry_space_group_name_H-M "C 2/M"
_symmetry_group_IT_number 12
_symmetry_cell_setting 'monoclinic'
loop_
_space_group_symop_operation_xyz
x,y,z
-x,y,-z
-x,-y,-z
x,-y,z
1/2+x,1/2+y,z
1/2-x,1/2+y,-z
1/2-x,1/2-y,-z
1/2+x,1/2-y,z
loop_
_atom_site_type_symbol
_atom_site_label
_atom_site_fract_x
_atom_site_fract_y
_atom_site_fract_z
Si Si1 0.760680 0.315329 0.407922
Si Si2 0.934343 0.816810 0.303406
Si Si3 0.687783 0.816708 0.073345
Si Si4 0.322135 0.684598 0.125805
Si Si5 0.106209 0.684357 0.539712
Si Si6 0.647781 0.316422 0.231207
Si Si7 0.443896 0.183421 0.682036
O O1 0.760167 0.500000 0.412754
O O2 0.750000 0.250000 0.500000
O O3 0.825579 0.268961 0.412180
O O4 0.708012 0.266414 0.314387
O O5 0.873785 0.770134 0.221262
O O6 0.931271 0.758986 0.402923
O O7 0.989956 0.744266 0.285098
O O8 0.938832 0.000000 0.304079
O O9 0.756714 0.770311 0.121435
O O10 0.651023 0.746709 0.133451
O O11 0.684482 0.000000 0.073832
O O12 0.668780 0.756326 0.966341
O O13 0.322615 0.500000 0.117994
O O14 0.101803 0.500000 0.544956
O O15 0.085360 0.726923 0.429207
O O16 0.646097 0.500000 0.229150
O O17 0.594146 0.253540 0.259645
O O18 0.442972 0.000000 0.687783
#
# Coordination Sequence:
#
# PCOD9193864 Si02
#       7
#     8   8   8   8   8   8   8
#     4  10  20  34  54  81 113 148 185 227 276 328
#     4  11  23  38  58  83 112 148 191 236 281 333
#     4  10  20  36  62  90 115 146 183 227 282 342
#     4   9  20  39  60  86 117 146 181 231 285 334
#     4  10  21  37  56  81 113 151 191 233 282 331
#     4  11  22  36  57  85 117 152 189 231 282 337
#     4  11  23  39  57  78 113 155 194 237 279 330
#
# _framework density 18.744838999999999
#
# number of rings (size 3 to 8) (size 9 to 14) (size 15 to 20)
#    0.000    1.714    1.429    3.000    0.000    5.714 
#    0.000    0.714    0.000    4.286    0.000    0.000 
#    0.000    0.000    0.000    0.000    0.000    0.000 
#
# Total GULP energy -156481.265360 kJ/mol
# GULP energy per Si atom -5588.616620 kJ/mol
# Density = 1.870217 g / cm^3
# Si number density = 18.744839 Si / 1000 Ang^3
#
#
#
# Elastic Constant Matrix: (Units=GPa)
#
#
# Indices 1 2 3 4 5 6 
#
# 1 102.6157 28.5013 51.0624 0.0000 -23.2573 0.0000
# 2 28.5013 25.8803 27.6092 0.0000 -9.6446 0.0000
# 3 51.0624 27.6092 83.5398 0.0000 -28.3699 0.0000
# 4 0.0000 0.0000 0.0000 29.2159 0.0000 -6.7233
# 5 -23.2573 -9.6446 -28.3699 0.0000 31.3652 0.0000
# 6 0.0000 0.0000 0.0000 -6.7233 0.0000 32.1042
#
#
#
# Elastic Compliance Matrix: (Units=1/GPa)
#
#
# Indices 1 2 3 4 5 6 
#
# 1 0.016174 -0.011154 -0.004751 0.000000 0.004266 0.000000
# 2 -0.011154 0.067385 -0.016201 0.000000 -0.002204 0.000000
# 3 -0.004751 -0.016201 0.025028 0.000000 0.014134 0.000000
# 4 0.000000 0.000000 0.000000 0.035961 0.000000 0.007531
# 5 0.004266 -0.002204 0.014134 0.000000 0.047152 0.000000
# 6 0.000000 0.000000 0.000000 0.007531 0.000000 0.032726
#
#
# Mechanical properties :
#
#
# Convention : Reuss Voigt Hill
#
# Bulk Modulus (GPa) = 22.53507 47.37575 34.95541
# Shear Modulus (GPa) = 16.47828 25.52792 21.00310
#
# Velocity S-wave (km/s) = 2.96815 3.69435 3.35098
# Velocity P-wave (km/s) = 4.87798 6.59746 5.80177
#
# Compressibility (1/GPa) = 0.04437528
#
# Stress axis : x y z
#
# Youngs Moduli (GPa) = 61.82695 14.84017 39.95446
#
# Poissons Ratio (x) = 0.16552 0.18984
# Poissons Ratio (y) = 0.68961 0.64730
# Poissons Ratio (z) = 0.29376 0.24042
#
# Static dielectric constant tensor:
#      x y z
#    x 1.638900 0.000000 0.021730 
#    y 0.000000 1.627900 0.000000 
#    z 0.021730 0.000000 1.628350 
# 
# From -- ./inp_files/237780.got.cif
#   From: 2010.05.17/outbox.cif.g08.bks.cpg/sg12_119_cif.got.tgz:237780.got - 2010.06.03 13:09:07.
