data_PCOD9193263
_publ_section_title
;
Structure prediction by ZEFSAII (Michael W. Deem and Ramdas Pophale) SiO2 
 PCOD9193263
Probable space group: C 2/M
;
_chemical_formula_sum "Si O2"
_cell_formula_units_Z 64
_cell_length_a 20.826824
_cell_length_b 8.955403
_cell_length_c 20.083649
_cell_angle_alpha 90.000000
_cell_angle_beta 90.161382
_cell_angle_gamma 90.000000
_cell_volume 3745.838776
_symmetry_space_group_name_H-M "C 2/M"
_symmetry_group_IT_number 12
_symmetry_cell_setting 'monoclinic'
loop_
_space_group_symop_operation_xyz
x,y,z
-x,y,-z
-x,-y,-z
x,-y,z
1/2+x,1/2+y,z
1/2-x,1/2+y,-z
1/2-x,1/2-y,-z
1/2+x,1/2-y,z
loop_
_atom_site_type_symbol
_atom_site_label
_atom_site_fract_x
_atom_site_fract_y
_atom_site_fract_z
Si Si1 0.306534 0.678466 0.701593
Si Si2 0.800822 0.179807 0.049946
Si Si3 0.556464 0.178105 0.297986
Si Si4 0.446913 0.681783 0.051959
Si Si5 0.699966 0.679461 0.795019
Si Si6 0.804446 0.821807 0.545584
Si Si7 0.940591 0.678965 0.546008
Si Si8 0.051247 0.820046 0.794581
O O1 0.310579 0.500000 0.707429
O O2 0.375079 0.749960 0.720476
O O3 0.250098 0.741328 0.747209
O O4 0.294398 0.715842 0.623722
O O5 0.874127 0.227557 0.034749
O O6 0.788214 0.218179 0.127332
O O7 0.798339 0.000000 0.044960
O O8 0.750000 0.250000 0.000000
O O9 0.545777 0.211721 0.376314
O O10 0.499264 0.243959 0.254015
O O11 0.559915 0.000000 0.290352
O O12 0.447170 0.500000 0.050778
O O13 0.460786 0.723910 0.128408
O O14 0.500000 0.735057 0.000000
O O15 0.706211 0.500000 0.788874
O O16 0.625609 0.717556 0.779476
O O17 0.750000 0.750000 0.500000
O O18 0.874477 0.759215 0.527124
O O19 0.803336 0.000000 0.538992
O O20 0.931795 0.500000 0.539681
O O21 0.000000 0.723739 0.500000
O O22 0.045241 0.000000 0.790209
#
# Coordination Sequence:
#
# PCOD9193263 Si02
#       8
#     8   8   8   8   8   8   8   8
#     4  10  21  36  54  76 101 132 174 216 251 300
#     4   9  18  32  50  74 103 133 167 208 252 299
#     4  10  20  34  53  76 104 135 165 205 256 303
#     4   8  15  30  51  72  95 127 166 203 241 289
#     4   9  19  35  52  73 105 140 172 211 258 303
#     4  10  21  36  54  77 104 133 168 211 256 304
#     4   9  19  36  55  75 102 135 169 206 249 298
#     4   9  18  33  52  74 102 134 168 207 248 297
#
# _framework density 17.085626000000001
#
# number of rings (size 3 to 8) (size 9 to 14) (size 15 to 20)
#    0.000    2.750    0.000    2.625    0.000    5.250 
#    0.000    6.875    0.000    0.750    0.000    0.000 
#    0.000    0.000    0.000    0.000    0.000    0.000 
#
# Total GULP energy -178473.812082 kJ/mol
# GULP energy per Si atom -5577.306628 kJ/mol
# Density = 1.704674 g / cm^3
# Si number density = 17.085626 Si / 1000 Ang^3
#
#
#
# Elastic Constant Matrix: (Units=GPa)
#
#
# Indices 1 2 3 4 5 6 
#
# 1 185.1071 65.0365 124.5073 0.0000 1.8546 0.0000
# 2 65.0365 35.2350 50.0359 0.0000 2.8960 0.0000
# 3 124.5073 50.0359 101.9538 0.0000 1.1559 0.0000
# 4 0.0000 0.0000 0.0000 27.8588 0.0000 5.6858
# 5 1.8546 2.8960 1.1559 0.0000 43.0748 0.0000
# 6 0.0000 0.0000 0.0000 5.6858 0.0000 34.6568
#
#
#
# Elastic Compliance Matrix: (Units=1/GPa)
#
#
# Indices 1 2 3 4 5 6 
#
# 1 0.031640 -0.011717 -0.032892 0.000000 0.000308 0.000000
# 2 -0.011717 0.099099 -0.034266 0.000000 -0.005239 0.000000
# 3 -0.032892 -0.034266 0.066772 0.000000 0.001928 0.000000
# 4 0.000000 0.000000 0.000000 0.037139 0.000000 -0.006093
# 5 0.000308 -0.005239 0.001928 0.000000 0.023503 0.000000
# 6 0.000000 0.000000 0.000000 -0.006093 0.000000 0.029854
#
#
# Mechanical properties :
#
#
# Convention : Reuss Voigt Hill
#
# Bulk Modulus (GPa) = 25.15114 89.05056 57.10085
# Shear Modulus (GPa) = 10.89296 26.63248 18.76272
#
# Velocity S-wave (km/s) = 2.52772 3.95240 3.31744
# Velocity P-wave (km/s) = 4.82408 8.54763 6.94023
#
# Compressibility (1/GPa) = 0.03975963
#
# Stress axis : x y z
#
# Youngs Moduli (GPa) = 31.60539 10.09087 14.97636
#
# Poissons Ratio (x) = 0.11824 0.49261
# Poissons Ratio (y) = 0.37033 0.51318
# Poissons Ratio (z) = 1.03958 0.34578
#
# Static dielectric constant tensor:
#      x y z
#    x 1.552180 0.000000 -0.008590 
#    y 0.000000 1.569580 0.000000 
#    z -0.008590 0.000000 1.565530 
# 
# From -- ./inp_files/314163.got.cif
#   From: 2010.05.17/outbox.cif.g08.bks.cpg/sg12_158_cif.got.tgz:314163.got - 2010.06.03 13:09:07.
