data_PCOD9193429
_publ_section_title
;
Structure prediction by ZEFSAII (Michael W. Deem and Ramdas Pophale) SiO2 
 PCOD9193429
Probable space group: C 2/M
;
_chemical_formula_sum "Si O2"
_cell_formula_units_Z 58
_cell_length_a 31.964119
_cell_length_b 8.934907
_cell_length_c 24.677615
_cell_angle_alpha 90.000000
_cell_angle_beta 26.270152
_cell_angle_gamma 90.000000
_cell_volume 3119.402400
_symmetry_space_group_name_H-M "C 2/M"
_symmetry_group_IT_number 12
_symmetry_cell_setting 'monoclinic'
loop_
_space_group_symop_operation_xyz
x,y,z
-x,y,-z
-x,-y,-z
x,-y,z
1/2+x,1/2+y,z
1/2-x,1/2+y,-z
1/2-x,1/2-y,-z
1/2+x,1/2-y,z
loop_
_atom_site_type_symbol
_atom_site_label
_atom_site_fract_x
_atom_site_fract_y
_atom_site_fract_z
Si Si1 0.139083 0.676252 0.511137
Si Si2 0.038466 0.666076 0.347754
Si Si3 0.674500 0.828127 0.670485
Si Si4 0.979984 0.674146 0.963224
Si Si5 0.622657 0.325156 0.013919
Si Si6 0.277426 0.677772 0.910212
Si Si7 0.000000 0.500000 0.500000
Si Si8 0.926080 0.172963 0.307248
O O1 0.160830 0.500000 0.483619
O O2 0.235362 0.769253 0.401852
O O3 0.084308 0.719536 0.629717
O O4 0.066699 0.714723 0.547329
O O5 0.052526 0.500000 0.305029
O O6 0.119480 0.770447 0.230167
O O7 0.036844 0.628606 0.413296
O O8 0.580336 0.822946 0.815998
O O9 0.652284 0.722066 0.645411
O O10 0.688250 0.000000 0.636869
O O11 0.949967 0.500000 0.002717
O O12 0.906007 0.761899 0.011656
O O13 0.000000 0.734607 0.000000
O O14 0.648438 0.500000 0.980470
O O15 0.527546 0.312308 0.160671
O O16 0.703684 0.235295 0.950625
O O17 0.273690 0.500000 0.919942
O O18 0.250000 0.750000 0.000000
O O19 0.913832 0.000000 0.337494
#
# Coordination Sequence:
#
# PCOD9193429 Si02
#       8
#     8   8   8   8   8   8   2   8
#     4  11  21  34  54  83 109 146 190 233 289 341
#     4   9  21  42  65  85 117 161 206 257 306 361
#     4  10  20  34  53  78 113 151 188 229 283 345
#     4   9  19  38  58  80 114 151 192 244 293 346
#     4  10  21  37  58  87 118 155 196 241 303 369
#     4  12  24  39  63  96 130 161 202 258 322 383
#     4   8  20  48  70  80 120 162 218 254 318 352
#     4  10  20  34  54  80 118 153 186 232 284 353
#
# _framework density 18.593305999999998
#
# number of rings (size 3 to 8) (size 9 to 14) (size 15 to 20)
#    0.414    1.517    0.000    4.138    0.000    5.793 
#    2.483    0.345    0.000    0.000    0.000    0.000 
#    0.000    0.000    0.000    0.000    0.000    0.000 
#
# Total GULP energy -161517.168783 kJ/mol
# GULP energy per Si atom -5569.557544 kJ/mol
# Density = 1.855099 g / cm^3
# Si number density = 18.593306 Si / 1000 Ang^3
#
#
#
# Elastic Constant Matrix: (Units=GPa)
#
#
# Indices 1 2 3 4 5 6 
#
# 1 77.5971 30.6592 8.0931 -0.0002 -1.9418 -0.0013
# 2 30.6592 83.3583 16.7589 -0.0015 -13.9405 0.0021
# 3 8.0931 16.7589 10.8978 -0.0011 -5.4809 0.0002
# 4 -0.0002 -0.0015 -0.0011 27.4624 0.0016 -1.7690
# 5 -1.9418 -13.9405 -5.4809 0.0016 32.7451 -0.0004
# 6 -0.0013 0.0021 0.0002 -1.7690 -0.0004 24.4470
#
#
#
# Elastic Compliance Matrix: (Units=1/GPa)
#
#
# Indices 1 2 3 4 5 6 
#
# 1 0.015310 -0.005035 -0.004639 0.000000 -0.002012 0.000001
# 2 -0.005035 0.019332 -0.024023 0.000000 0.003911 -0.000002
# 3 -0.004639 -0.024023 0.138530 0.000003 0.012685 0.000001
# 4 0.000000 0.000000 0.000003 0.036584 -0.000001 0.002647
# 5 -0.002012 0.003911 0.012685 -0.000001 0.034208 0.000000
# 6 0.000001 -0.000002 0.000001 0.002647 0.000000 0.041096
#
#
# Mechanical properties :
#
#
# Convention : Reuss Voigt Hill
#
# Bulk Modulus (GPa) = 9.45382 31.43062 20.44222
# Shear Modulus (GPa) = 12.89616 24.68705 18.79160
#
# Velocity S-wave (km/s) = 2.63647 3.64777 3.18254
# Velocity P-wave (km/s) = 3.78992 5.88919 4.95208
#
# Compressibility (1/GPa) = 0.10577730
#
# Stress axis : x y z
#
# Youngs Moduli (GPa) = 65.31746 51.72768 7.21868
#
# Poissons Ratio (x) = 0.26044 0.03349
# Poissons Ratio (y) = 0.32886 0.17342
# Poissons Ratio (z) = 0.30300 1.24267
#
# Static dielectric constant tensor:
#      x y z
#    x 1.650760 0.000000 -0.012670 
#    y 0.000000 1.632820 0.000000 
#    z -0.012670 0.000000 1.641240 
# 
# From -- ./inp_files/353026.got.cif
#   From: 2010.05.17/outbox.cif.g08.bks.cpg/sg12_177_cif.got.tgz:353026.got - 2010.06.03 13:09:07.
