data_PCOD9193366
_publ_section_title
;
Structure prediction by ZEFSAII (Michael W. Deem and Ramdas Pophale) SiO2 
 PCOD9193366
Probable space group: C 2/M
;
_chemical_formula_sum "Si O2"
_cell_formula_units_Z 64
_cell_length_a 25.149466
_cell_length_b 7.610547
_cell_length_c 22.178899
_cell_angle_alpha 90.000000
_cell_angle_beta 134.039286
_cell_angle_gamma 90.000000
_cell_volume 3051.623501
_symmetry_space_group_name_H-M "C 2/M"
_symmetry_group_IT_number 12
_symmetry_cell_setting 'monoclinic'
loop_
_space_group_symop_operation_xyz
x,y,z
-x,y,-z
-x,-y,-z
x,-y,z
1/2+x,1/2+y,z
1/2-x,1/2+y,-z
1/2-x,1/2-y,-z
1/2+x,1/2-y,z
loop_
_atom_site_type_symbol
_atom_site_label
_atom_site_fract_x
_atom_site_fract_y
_atom_site_fract_z
Si Si1 0.446237 0.790155 0.905571
Si Si2 0.053483 0.211570 0.883554
Si Si3 0.135577 0.787084 0.422387
Si Si4 0.531161 0.284340 0.728164
Si Si5 0.328318 0.702087 0.231824
Si Si6 0.716762 0.290030 0.039567
Si Si7 0.217402 0.294746 0.238643
Si Si8 0.733531 0.294852 0.388263
O O1 0.485457 0.760624 0.872395
O O2 0.362979 0.718056 0.841023
O O3 0.441171 0.000000 0.910151
O O4 0.500000 0.718576 0.000000
O O5 0.045053 0.272833 0.808087
O O6 0.056888 0.000000 0.884198
O O7 0.131700 0.272495 0.972898
O O8 0.186703 0.726838 0.517680
O O9 0.175190 0.725203 0.391809
O O10 0.050643 0.731932 0.356780
O O11 0.137911 0.000000 0.423761
O O12 0.533363 0.500000 0.730775
O O13 0.596586 0.220195 0.736352
O O14 0.347157 0.500000 0.261839
O O15 0.268337 0.706259 0.130716
O O16 0.285882 0.783438 0.255349
O O17 0.717893 0.500000 0.049673
O O18 0.750000 0.250000 0.000000
O O19 0.214947 0.500000 0.218996
O O20 0.228300 0.287142 0.318633
O O21 0.717479 0.500000 0.367362
#
# Coordination Sequence:
#
# PCOD9193366 Si02
#       8
#     8   8   8   8   8   8   8   8
#     4  10  21  36  52  76 108 141 177 220 267 313
#     4  10  20  34  53  78 106 138 178 222 268 317
#     4   9  18  34  58  83 107 135 172 220 272 325
#     4   9  17  33  55  79 105 134 172 221 270 315
#     4  10  20  37  57  77 107 145 184 226 266 316
#     4  11  21  34  53  77 108 144 183 225 268 316
#     4  10  21  36  56  79 108 147 184 217 263 325
#     4  10  20  35  57  82 109 140 173 218 271 322
#
# _framework density 20.972443999999999
#
# number of rings (size 3 to 8) (size 9 to 14) (size 15 to 20)
#    0.000    2.125    1.250    2.250    0.000    4.750 
#    0.000    1.875    0.000    3.750    0.000    0.000 
#    0.000    0.000    0.000    0.000    0.000    0.000 
#
# Total GULP energy -178757.839842 kJ/mol
# GULP energy per Si atom -5586.182495 kJ/mol
# Density = 2.092471 g / cm^3
# Si number density = 20.972444 Si / 1000 Ang^3
#
#
#
# Elastic Constant Matrix: (Units=GPa)
#
#
# Indices 1 2 3 4 5 6 
#
# 1 162.7366 1.2755 77.7283 0.0000 15.0224 0.0000
# 2 1.2755 47.4200 -5.9185 0.0001 3.2849 0.0001
# 3 77.7283 -5.9185 96.7298 0.0000 11.6909 0.0000
# 4 0.0000 0.0001 0.0000 -8.7549 0.0000 -5.9799
# 5 15.0224 3.2849 11.6909 0.0000 36.4704 0.0000
# 6 0.0000 0.0001 0.0000 -5.9799 0.0000 17.9705
#
#
#
# Elastic Compliance Matrix: (Units=1/GPa)
#
#
# Indices 1 2 3 4 5 6 
#
# 1 0.010127 -0.001171 -0.008029 0.000000 -0.001492 0.000000
# 2 -0.001171 0.021594 0.002537 0.000000 -0.002276 0.000000
# 3 -0.008029 0.002537 0.017241 0.000000 -0.002448 0.000000
# 4 0.000000 0.000000 0.000000 -0.093068 0.000000 -0.030970
# 5 -0.001492 -0.002276 -0.002448 0.000000 0.029024 0.000000
# 6 0.000000 0.000000 0.000000 -0.030970 0.000000 0.045341
#
#
# Mechanical properties :
#
#
# Convention : Reuss Voigt Hill
#
# Bulk Modulus (GPa) = 28.06105 50.33965 39.20035
# Shear Modulus (GPa) = 90.15273 24.72395 57.43834
#
# Velocity S-wave (km/s) = 6.56351 3.43720 5.23899
# Velocity P-wave (km/s) = 8.41715 6.30931 7.43827
#
# Compressibility (1/GPa) = 0.03563659
#
# Stress axis : x y z
#
# Youngs Moduli (GPa) = 98.75040 46.30917 58.00227
#
# Poissons Ratio (x) = 0.05423 0.46568
# Poissons Ratio (y) = 0.11565 -0.14717
# Poissons Ratio (z) = 0.79283 -0.11750
#
# Static dielectric constant tensor:
#      x y z
#    x 1.762290 0.000000 0.018090 
#    y 0.000000 1.808030 0.000000 
#    z 0.018090 0.000000 1.712060 
# 
# From -- ./inp_files/324286.got.cif
#   From: 2010.05.17/outbox.cif.g08.bks.cpg/sg12_163_cif.got.tgz:324286.got - 2010.06.03 13:09:07.
