data_PCOD9193009
_publ_section_title
;
Structure prediction by ZEFSAII (Michael W. Deem and Ramdas Pophale) SiO2 
 PCOD9193009
Probable space group: C 2/M
;
_chemical_formula_sum "Si O2"
_cell_formula_units_Z 64
_cell_length_a 8.412050
_cell_length_b 11.887162
_cell_length_c 33.571612
_cell_angle_alpha 90.000000
_cell_angle_beta 93.297701
_cell_angle_gamma 90.000000
_cell_volume 3351.448026
_symmetry_space_group_name_H-M "C 2/M"
_symmetry_group_IT_number 12
_symmetry_cell_setting 'monoclinic'
loop_
_space_group_symop_operation_xyz
x,y,z
-x,y,-z
-x,-y,-z
x,-y,z
1/2+x,1/2+y,z
1/2-x,1/2+y,-z
1/2-x,1/2-y,-z
1/2+x,1/2-y,z
loop_
_atom_site_type_symbol
_atom_site_label
_atom_site_fract_x
_atom_site_fract_y
_atom_site_fract_z
Si Si1 0.287300 0.877866 0.389736
Si Si2 0.069140 0.372225 0.044436
Si Si3 0.425437 0.189399 0.655954
Si Si4 0.403889 0.373512 0.763642
Si Si5 0.289737 0.793663 0.094525
Si Si6 0.813544 0.191435 0.284754
Si Si7 0.489803 0.372219 0.855291
Si Si8 0.315272 0.871555 0.485231
O O1 0.465710 0.874096 0.374329
O O2 0.180287 0.780734 0.369078
O O3 0.295342 0.866926 0.437270
O O4 0.216983 0.000000 0.378234
O O5 0.130981 0.500000 0.044211
O O6 0.924526 0.363399 0.073810
O O7 0.201600 0.285585 0.061142
O O8 0.000000 0.344395 0.000000
O O9 0.306627 0.131423 0.685996
O O10 0.556568 0.249242 0.685350
O O11 0.337027 0.500000 0.759585
O O12 0.289993 0.284772 0.740164
O O13 0.577383 0.372835 0.745217
O O14 0.428140 0.344429 0.810238
O O15 0.377366 0.713360 0.127557
O O16 0.155866 0.862823 0.115788
O O17 0.550911 0.500000 0.855351
O O18 0.500000 0.872689 0.500000
O O19 0.250000 0.750000 0.500000
O O20 0.252945 0.000000 0.496487
#
# Coordination Sequence:
#
# PCOD9193009 Si02
#       8
#     8   8   8   8   8   8   8   8
#     4  10  20  36  56  78 108 143 177 220 269 317
#     4  10  20  34  52  75 103 135 171 210 255 308
#     4   9  19  34  53  77 104 135 175 215 256 313
#     4  10  20  35  54  75 104 138 171 213 262 310
#     4  10  20  34  53  75 103 134 169 214 259 304
#     4   9  19  34  52  77 104 133 173 214 256 313
#     4  10  20  34  53  76 101 134 173 212 258 310
#     4  10  21  37  58  84 115 149 188 232 279 331
#
# _framework density 19.096222000000001
#
# number of rings (size 3 to 8) (size 9 to 14) (size 15 to 20)
#    0.000    2.250    0.000    2.625    0.000    5.250 
#    0.000    4.375    0.000   16.500    0.000    0.000 
#    0.000    0.000    0.000    0.000    0.000    0.000 
#
# Total GULP energy -178280.551963 kJ/mol
# GULP energy per Si atom -5571.267249 kJ/mol
# Density = 1.905276 g / cm^3
# Si number density = 19.096222 Si / 1000 Ang^3
#
#
#
# Elastic Constant Matrix: (Units=GPa)
#
#
# Indices 1 2 3 4 5 6 
#
# 1 47.8653 22.4679 5.7979 0.0000 4.5761 0.0000
# 2 22.4679 99.3001 39.6703 0.0000 14.7005 0.0000
# 3 5.7979 39.6703 81.0693 0.0000 8.2088 0.0000
# 4 0.0000 0.0000 0.0000 -35.6479 0.0000 -7.8467
# 5 4.5761 14.7005 8.2088 0.0000 27.5553 0.0000
# 6 0.0000 0.0000 0.0000 -7.8467 0.0000 11.9329
#
#
#
# Elastic Compliance Matrix: (Units=1/GPa)
#
#
# Indices 1 2 3 4 5 6 
#
# 1 0.023500 -0.005605 0.001190 0.000000 -0.001267 0.000000
# 2 -0.005605 0.014561 -0.006220 0.000000 -0.004985 0.000000
# 3 0.001190 -0.006220 0.015443 0.000000 -0.001480 0.000000
# 4 0.000000 0.000000 0.000000 -0.024505 0.000000 -0.016114
# 5 -0.001267 -0.004985 -0.001480 0.000000 0.039601 0.000000
# 6 0.000000 0.000000 0.000000 -0.016114 0.000000 0.073206
#
#
# Mechanical properties :
#
#
# Convention : Reuss Voigt Hill
#
# Bulk Modulus (GPa) = 31.02153 40.45633 35.73893
# Shear Modulus (GPa) = 28.76515 11.45463 20.10989
#
# Velocity S-wave (km/s) = 3.88535 2.45181 3.24864
# Velocity P-wave (km/s) = 6.03391 5.40802 5.72952
#
# Compressibility (1/GPa) = 0.03223567
#
# Stress axis : x y z
#
# Youngs Moduli (GPa) = 42.55328 68.67428 64.75221
#
# Poissons Ratio (x) = 0.38493 -0.07708
# Poissons Ratio (y) = 0.23852 0.40275
# Poissons Ratio (z) = -0.05066 0.42715
#
# Static dielectric constant tensor:
#      x y z
#    x 1.647690 0.000000 -0.038090 
#    y 0.000000 1.663390 0.000000 
#    z -0.038090 0.000000 1.651350 
# 
# From -- ./inp_files/372171.got.cif
#   From: 2010.05.17/outbox.cif.g08.bks.cpg/sg12_187_cif.got.tgz:372171.got - 2010.06.03 13:09:07.
