data_PCOD9193269
_publ_section_title
;
Structure prediction by ZEFSAII (Michael W. Deem and Ramdas Pophale) SiO2 
 PCOD9193269
Probable space group: C 2/M
;
_chemical_formula_sum "Si O2"
_cell_formula_units_Z 64
_cell_length_a 16.437187
_cell_length_b 8.777710
_cell_length_c 22.179102
_cell_angle_alpha 90.000000
_cell_angle_beta 89.664641
_cell_angle_gamma 90.000000
_cell_volume 3199.965112
_symmetry_space_group_name_H-M "C 2/M"
_symmetry_group_IT_number 12
_symmetry_cell_setting 'monoclinic'
loop_
_space_group_symop_operation_xyz
x,y,z
-x,y,-z
-x,-y,-z
x,-y,z
1/2+x,1/2+y,z
1/2-x,1/2+y,-z
1/2-x,1/2-y,-z
1/2+x,1/2-y,z
loop_
_atom_site_type_symbol
_atom_site_label
_atom_site_fract_x
_atom_site_fract_y
_atom_site_fract_z
Si Si1 0.501469 0.822614 0.072242
Si Si2 0.841852 0.814527 0.627443
Si Si3 0.166362 0.180580 0.125674
Si Si4 0.590498 0.181787 0.753699
Si Si5 0.097086 0.824035 0.501653
Si Si6 0.581123 0.317946 0.247978
Si Si7 0.338546 0.318682 0.130903
Si Si8 0.154875 0.317301 0.625860
O O1 0.585230 0.745913 0.094525
O O2 0.418762 0.745429 0.097005
O O3 0.501072 0.000000 0.091121
O O4 0.500000 0.815145 0.000000
O O5 0.871565 0.758922 0.562082
O O6 0.892017 0.765647 0.685728
O O7 0.748215 0.772826 0.635595
O O8 0.847633 0.000000 0.626578
O O9 0.149968 0.204609 0.197321
O O10 0.251987 0.256278 0.107672
O O11 0.171011 0.000000 0.114670
O O12 0.499408 0.229578 0.770980
O O13 0.650379 0.261194 0.800419
O O14 0.604894 0.233485 0.684698
O O15 0.601702 0.000000 0.757023
O O16 0.125965 0.743352 0.561904
O O17 0.000000 0.821582 0.500000
O O18 0.124622 0.000000 0.505000
O O19 0.563761 0.500000 0.249531
O O20 0.160758 0.000000 0.871916
O O21 0.150742 0.500000 0.623883
#
# Coordination Sequence:
#
# PCOD9193269 Si02
#       8
#     8   8   8   8   8   8   8   8
#     4  11  25  46  71 100 136 175 216 266 319 376
#     4   9  18  34  54  77 110 149 193 244 306 377
#     4  11  23  41  68 100 134 174 218 268 324 382
#     4  11  22  37  59  87 122 160 205 262 319 376
#     4  10  20  34  53  76 104 144 191 245 304 368
#     4  10  20  37  62  89 119 159 204 253 315 381
#     4  12  25  42  67  98 133 176 220 266 321 382
#     4  10  21  36  54  78 109 150 194 246 310 372
#
# _framework density 20.000216999999999
#
# number of rings (size 3 to 8) (size 9 to 14) (size 15 to 20)
#    0.000    1.500    1.250    4.125    0.000    6.250 
#    0.000    1.250    0.000    0.000    0.000    0.000 
#    0.000    0.000    0.000    0.000    0.000    0.000 
#
# Total GULP energy -178783.101159 kJ/mol
# GULP energy per Si atom -5586.971911 kJ/mol
# Density = 1.995470 g / cm^3
# Si number density = 20.000217 Si / 1000 Ang^3
#
#
#
# Elastic Constant Matrix: (Units=GPa)
#
#
# Indices 1 2 3 4 5 6 
#
# 1 135.9528 60.8122 41.0973 0.0000 4.7867 0.0000
# 2 60.8122 87.1497 40.1594 0.0000 -1.7336 0.0000
# 3 41.0973 40.1594 86.4243 0.0000 3.9536 0.0000
# 4 0.0000 0.0000 0.0000 26.8011 0.0000 1.2783
# 5 4.7867 -1.7336 3.9536 0.0000 19.0642 0.0000
# 6 0.0000 0.0000 0.0000 1.2783 0.0000 21.9883
#
#
#
# Elastic Compliance Matrix: (Units=1/GPa)
#
#
# Indices 1 2 3 4 5 6 
#
# 1 0.011158 -0.006954 -0.001936 0.000000 -0.003033 0.000000
# 2 -0.006954 0.019081 -0.005773 0.000000 0.004678 0.000000
# 3 -0.001936 -0.005773 0.015321 0.000000 -0.003216 0.000000
# 4 0.000000 0.000000 0.000000 0.037416 0.000000 -0.002175
# 5 -0.003033 0.004678 -0.003216 0.000000 0.054308 0.000000
# 6 0.000000 0.000000 0.000000 -0.002175 0.000000 0.045605
#
#
# Mechanical properties :
#
#
# Convention : Reuss Voigt Hill
#
# Bulk Modulus (GPa) = 61.60272 65.96274 63.78273
# Shear Modulus (GPa) = 22.97510 24.73459 23.85484
#
# Velocity S-wave (km/s) = 3.39299 3.52051 3.45734
# Velocity P-wave (km/s) = 6.79836 7.04116 6.92083
#
# Compressibility (1/GPa) = 0.01623305
#
# Stress axis : x y z
#
# Youngs Moduli (GPa) = 89.62078 52.40910 65.26894
#
# Poissons Ratio (x) = 0.36447 0.12635
# Poissons Ratio (y) = 0.62325 0.37682
# Poissons Ratio (z) = 0.17349 0.30258
#
# Static dielectric constant tensor:
#      x y z
#    x 1.689460 0.000000 -0.016890 
#    y 0.000000 1.686330 0.000000 
#    z -0.016890 0.000000 1.732380 
# 
# From -- ./inp_files/314077.got.cif
#   From: 2010.05.17/outbox.cif.g08.bks.cpg/sg12_158_cif.got.tgz:314077.got - 2010.06.03 13:09:07.
