data_PCOD9193949
_publ_section_title
;
Structure prediction by ZEFSAII (Michael W. Deem and Ramdas Pophale) SiO2 
 PCOD9193949
Probable space group: C 2/M
;
_chemical_formula_sum "Si O2"
_cell_formula_units_Z 64
_cell_length_a 26.628613
_cell_length_b 12.938279
_cell_length_c 9.852779
_cell_angle_alpha 90.000000
_cell_angle_beta 101.779547
_cell_angle_gamma 90.000000
_cell_volume 3323.074046
_symmetry_space_group_name_H-M "C 2/M"
_symmetry_group_IT_number 12
_symmetry_cell_setting 'monoclinic'
loop_
_space_group_symop_operation_xyz
x,y,z
-x,y,-z
-x,-y,-z
x,-y,z
1/2+x,1/2+y,z
1/2-x,1/2+y,-z
1/2-x,1/2-y,-z
1/2+x,1/2-y,z
loop_
_atom_site_type_symbol
_atom_site_label
_atom_site_fract_x
_atom_site_fract_y
_atom_site_fract_z
Si Si1 0.177130 0.811364 0.432673
Si Si2 0.617673 0.116983 0.041019
Si Si3 0.518479 0.882400 0.818876
Si Si4 0.557224 0.795540 0.574214
Si Si5 0.804015 0.264169 0.103195
Si Si6 0.911800 0.308300 0.698410
Si Si7 0.218583 0.378371 0.627205
Si Si8 0.862700 0.884174 0.314632
O O1 0.121573 0.795610 0.334136
O O2 0.193768 0.697609 0.499487
O O3 0.220704 0.856216 0.360198
O O4 0.169936 0.878233 0.564137
O O5 0.559777 0.138057 0.957470
O O6 0.617770 0.128329 0.203031
O O7 0.629751 0.000000 0.008714
O O8 0.656382 0.189982 0.983427
O O9 0.549696 0.871768 0.695457
O O10 0.470597 0.805591 0.780987
O O11 0.498556 0.000000 0.821669
O O12 0.500000 0.760994 0.500000
O O13 0.581805 0.846611 0.453414
O O14 0.592128 0.699747 0.639429
O O15 0.798815 0.337185 0.234347
O O16 0.826820 0.157872 0.175081
O O17 0.750000 0.250000 0.000000
O O18 0.207735 0.500000 0.604608
O O19 0.881102 0.000000 0.301964
#
# Coordination Sequence:
#
# PCOD9193949 Si02
#       8
#     8   8   8   8   8   8   8   8
#     4   9  20  37  55  85 116 143 186 244 286 337
#     4  11  22  36  55  83 119 154 189 231 283 348
#     4  10  20  35  56  83 118 156 189 230 289 351
#     4   9  19  36  57  86 115 149 193 240 287 340
#     4  11  23  39  56  80 115 151 196 240 285 341
#     4  10  20  34  54  83 118 151 186 227 281 343
#     4  10  20  36  58  80 110 151 188 230 288 338
#     4  10  20  37  60  83 110 149 196 244 294 344
#
# _framework density 19.259276
#
# number of rings (size 3 to 8) (size 9 to 14) (size 15 to 20)
#    0.000    2.000    1.250    2.250    0.000    6.000 
#    0.000    0.000    0.000    0.750    0.000    1.750 
#    0.000    0.000    0.000    0.000    0.000    0.000 
#
# Total GULP energy -178406.558034 kJ/mol
# GULP energy per Si atom -5575.204939 kJ/mol
# Density = 1.921544 g / cm^3
# Si number density = 19.259276 Si / 1000 Ang^3
#
#
#
# Elastic Constant Matrix: (Units=GPa)
#
#
# Indices 1 2 3 4 5 6 
#
# 1 75.2752 23.8489 26.6791 0.0000 -0.5259 0.0000
# 2 23.8489 83.5320 29.9244 0.0000 6.8839 0.0000
# 3 26.6791 29.9244 93.8213 0.0000 -6.3097 0.0000
# 4 0.0000 0.0000 0.0000 8.3304 0.0000 -2.1245
# 5 -0.5259 6.8839 -6.3097 0.0000 39.6904 0.0000
# 6 0.0000 0.0000 0.0000 -2.1245 0.0000 12.8872
#
#
#
# Elastic Compliance Matrix: (Units=1/GPa)
#
#
# Indices 1 2 3 4 5 6 
#
# 1 0.015504 -0.003242 -0.003359 0.000000 0.000234 0.000000
# 2 -0.003242 0.014572 -0.003941 0.000000 -0.003197 0.000000
# 3 -0.003359 -0.003941 0.013053 0.000000 0.002714 0.000000
# 4 0.000000 0.000000 0.000000 0.125310 0.000000 0.020658
# 5 0.000234 -0.003197 0.002714 0.000000 0.026184 0.000000
# 6 0.000000 0.000000 0.000000 0.020658 0.000000 0.081002
#
#
# Mechanical properties :
#
#
# Convention : Reuss Voigt Hill
#
# Bulk Modulus (GPa) = 45.36128 45.94816 45.65472
# Shear Modulus (GPa) = 16.44421 23.66001 20.05211
#
# Velocity S-wave (km/s) = 2.92521 3.50880 3.23021
# Velocity P-wave (km/s) = 5.91720 6.35020 6.13752
#
# Compressibility (1/GPa) = 0.02204523
#
# Stress axis : x y z
#
# Youngs Moduli (GPa) = 64.49972 68.62272 76.60989
#
# Poissons Ratio (x) = 0.22251 0.25732
# Poissons Ratio (y) = 0.20914 0.30191
# Poissons Ratio (z) = 0.21664 0.27043
#
# Static dielectric constant tensor:
#      x y z
#    x 1.709260 0.000000 -0.004160 
#    y 0.000000 1.630050 0.000000 
#    z -0.004160 0.000000 1.701230 
# 
# From -- ./inp_files/110448.got.cif
#   From: 2010.05.17/outbox.cif.g08.bks.cpg/sg12_56_cif.got.tgz:110448.got - 2010.06.03 13:09:07.
