data_PCOD9193664
_publ_section_title
;
Structure prediction by ZEFSAII (Michael W. Deem and Ramdas Pophale) SiO2 
 PCOD9193664
Probable space group: C 2/M
;
_chemical_formula_sum "Si O2"
_cell_formula_units_Z 56
_cell_length_a 17.632556
_cell_length_b 20.243995
_cell_length_c 13.172824
_cell_angle_alpha 90.000000
_cell_angle_beta 148.793518
_cell_angle_gamma 90.000000
_cell_volume 2436.261510
_symmetry_space_group_name_H-M "C 2/M"
_symmetry_group_IT_number 12
_symmetry_cell_setting 'monoclinic'
loop_
_space_group_symop_operation_xyz
x,y,z
-x,y,-z
-x,-y,-z
x,-y,z
1/2+x,1/2+y,z
1/2-x,1/2+y,-z
1/2-x,1/2-y,-z
1/2+x,1/2-y,z
loop_
_atom_site_type_symbol
_atom_site_label
_atom_site_fract_x
_atom_site_fract_y
_atom_site_fract_z
Si Si1 0.051437 0.747223 0.387110
Si Si2 0.215520 0.280715 0.786370
Si Si3 0.694138 0.383111 0.530438
Si Si4 0.672999 0.150980 0.111092
Si Si5 0.308693 0.073098 0.178316
Si Si6 0.607384 0.570661 0.749191
Si Si7 0.054303 0.392728 0.305449
O O1 0.134171 0.738577 0.589276
O O2 0.105155 0.815748 0.401555
O O3 0.088622 0.684255 0.363105
O O4 0.882862 0.737677 0.228002
O O5 0.349484 0.228838 0.937726
O O6 0.225829 0.360149 0.799372
O O7 0.811074 0.363873 0.752381
O O8 0.564080 0.425725 0.427959
O O9 0.789235 0.418262 0.552532
O O10 0.832014 0.130237 0.248350
O O11 0.564083 0.106036 0.921068
O O12 0.467909 0.081156 0.305262
O O13 0.302809 0.000000 0.219991
O O14 0.190834 0.074265 0.952164
O O15 0.646865 0.500000 0.747177
#
# Coordination Sequence:
#
# PCOD9193664 Si02
#       7
#     8   8   8   8   8   8   8
#     4   9  18  32  51  81 106 132 176 222 259 314
#     4   9  17  33  57  78 104 136 180 223 267 302
#     4  11  20  33  51  78 111 140 172 216 263 316
#     4  10  20  34  54  78 106 141 180 220 257 314
#     4   9  20  37  56  80 107 136 181 224 262 319
#     4  10  21  35  55  80 105 140 181 217 259 314
#     4  10  21  33  52  76 111 139 172 213 272 315
#
# _framework density 22.986039000000002
#
# number of rings (size 3 to 8) (size 9 to 14) (size 15 to 20)
#    0.000    2.286    1.429    1.286    2.000    3.429 
#    0.000    5.714    0.000    4.286    0.000    2.000 
#    0.000    0.000    0.000    0.000    0.000    0.000 
#
# Total GULP energy -156150.489944 kJ/mol
# GULP energy per Si atom -5576.803212 kJ/mol
# Density = 2.293372 g / cm^3
# Si number density = 22.986039 Si / 1000 Ang^3
#
#
#
# Elastic Constant Matrix: (Units=GPa)
#
#
# Indices 1 2 3 4 5 6 
#
# 1 37.0451 5.6136 6.9789 0.0000 17.0778 0.0000
# 2 5.6136 136.5588 0.1729 0.0000 3.6938 0.0000
# 3 6.9789 0.1729 39.2096 0.0000 4.9250 0.0000
# 4 0.0000 0.0000 0.0000 11.7044 0.0000 -3.4325
# 5 17.0778 3.6938 4.9250 0.0000 19.4433 0.0000
# 6 0.0000 0.0000 0.0000 -3.4325 0.0000 3.2957
#
#
#
# Elastic Compliance Matrix: (Units=1/GPa)
#
#
# Indices 1 2 3 4 5 6 
#
# 1 0.045837 -0.000817 -0.003220 0.000000 -0.039290 0.000000
# 2 -0.000817 0.007376 0.000205 0.000000 -0.000735 0.000000
# 3 -0.003220 0.000205 0.026571 0.000000 -0.003941 0.000000
# 4 0.000000 0.000000 0.000000 0.123010 0.000000 0.128115
# 5 -0.039290 -0.000735 -0.003941 0.000000 0.087080 0.000000
# 6 0.000000 0.000000 0.000000 0.128115 0.000000 0.436855
#
#
# Mechanical properties :
#
#
# Convention : Reuss Voigt Hill
#
# Bulk Modulus (GPa) = 13.86565 26.48269 20.17417
# Shear Modulus (GPa) = 6.59253 20.22522 13.40888
#
# Velocity S-wave (km/s) = 1.69537 2.96951 2.41788
# Velocity P-wave (km/s) = 3.14288 4.82738 4.07316
#
# Compressibility (1/GPa) = 0.07212069
#
# Stress axis : x y z
#
# Youngs Moduli (GPa) = 21.81627 135.57324 37.63474
#
# Poissons Ratio (x) = 0.11082 0.12118
# Poissons Ratio (y) = 0.01783 -0.00773
# Poissons Ratio (z) = 0.07025 -0.02784
#
# Static dielectric constant tensor:
#      x y z
#    x 1.863860 0.000000 0.021700 
#    y 0.000000 1.893060 0.000000 
#    z 0.021700 0.000000 1.917680 
# 
# From -- ./inp_files/77378.got.cif
#   From: 2010.05.17/outbox.cif.g08.bks.cpg/sg12_39_cif.got.tgz:77378.got - 2010.06.03 13:09:07.
