data_PCOD9193730
_publ_section_title
;
Structure prediction by ZEFSAII (Michael W. Deem and Ramdas Pophale) SiO2 
 PCOD9193730
Probable space group: C 2/M
;
_chemical_formula_sum "Si O2"
_cell_formula_units_Z 56
_cell_length_a 21.150946
_cell_length_b 9.191015
_cell_length_c 28.753857
_cell_angle_alpha 90.000000
_cell_angle_beta 32.714393
_cell_angle_gamma 90.000000
_cell_volume 3020.968963
_symmetry_space_group_name_H-M "C 2/M"
_symmetry_group_IT_number 12
_symmetry_cell_setting 'monoclinic'
loop_
_space_group_symop_operation_xyz
x,y,z
-x,y,-z
-x,-y,-z
x,-y,z
1/2+x,1/2+y,z
1/2-x,1/2+y,-z
1/2-x,1/2-y,-z
1/2+x,1/2-y,z
loop_
_atom_site_type_symbol
_atom_site_label
_atom_site_fract_x
_atom_site_fract_y
_atom_site_fract_z
Si Si1 0.359346 0.839114 0.487035
Si Si2 0.988252 0.674615 0.777695
Si Si3 0.492948 0.823499 0.951033
Si Si4 0.360967 0.331633 0.579553
Si Si5 0.644899 0.175651 0.771312
Si Si6 0.090630 0.162238 0.627356
Si Si7 0.751875 0.825043 0.948504
O O1 0.338306 0.769994 0.549985
O O2 0.230333 0.853268 0.545199
O O3 0.432809 0.733628 0.408173
O O4 0.411774 0.000000 0.457699
O O5 0.975387 0.500000 0.785579
O O6 0.864670 0.755907 0.854633
O O7 0.061237 0.714914 0.779270
O O8 0.052940 0.731085 0.691814
O O9 0.591194 0.770001 0.853290
O O10 0.503338 0.000000 0.946589
O O11 0.500000 0.770504 0.000000
O O12 0.367134 0.792468 0.005778
O O13 0.500000 0.326971 0.500000
O O14 0.329121 0.500000 0.588164
O O15 0.277338 0.286286 0.674128
O O16 0.640995 0.000000 0.776740
O O17 0.039269 0.000000 0.663924
O O18 0.761120 0.000000 0.947198
O O19 0.750000 0.750000 0.000000
#
# Coordination Sequence:
#
# PCOD9193730 Si02
#       7
#     8   8   8   8   8   8   8
#     4  10  20  34  54  79 109 145 183 232 294 343
#     4  11  20  34  57  83 115 150 187 236 293 348
#     4   9  18  35  58  83 113 150 194 241 292 347
#     4  10  20  35  55  80 111 150 198 245 284 338
#     4   9  17  32  55  80 107 146 191 235 289 344
#     4  10  20  34  54  81 110 144 187 231 282 343
#     4  11  21  35  57  89 118 147 190 243 295 349
#
# _framework density 18.537098
#
# number of rings (size 3 to 8) (size 9 to 14) (size 15 to 20)
#    0.000    2.000    2.857    1.714    0.000    1.429 
#    2.571    0.000    0.000    1.714    0.000    0.000 
#    0.000    0.000    0.000    0.000    0.000    0.000 
#
# Total GULP energy -156026.879326 kJ/mol
# GULP energy per Si atom -5572.388547 kJ/mol
# Density = 1.849491 g / cm^3
# Si number density = 18.537098 Si / 1000 Ang^3
#
#
#
# Elastic Constant Matrix: (Units=GPa)
#
#
# Indices 1 2 3 4 5 6 
#
# 1 77.6000 33.1421 57.1626 0.0001 20.6987 -0.0001
# 2 33.1421 70.9352 28.3467 0.0011 1.9938 0.0003
# 3 57.1626 28.3467 103.0362 0.0002 18.1408 0.0000
# 4 0.0001 0.0011 0.0002 22.7662 -0.0001 -2.6714
# 5 20.6987 1.9938 18.1408 -0.0001 29.3246 0.0000
# 6 -0.0001 0.0003 0.0000 -2.6714 0.0000 6.2566
#
#
#
# Elastic Compliance Matrix: (Units=1/GPa)
#
#
# Indices 1 2 3 4 5 6 
#
# 1 0.027756 -0.008237 -0.010977 0.000000 -0.012241 0.000001
# 2 -0.008237 0.018370 -0.001445 -0.000001 0.005459 -0.000002
# 3 -0.010977 -0.001445 0.016622 0.000000 -0.002436 0.000000
# 4 0.000000 -0.000001 0.000000 0.046241 0.000000 0.019744
# 5 -0.012241 0.005459 -0.002436 0.000000 0.043877 -0.000001
# 6 0.000001 -0.000002 0.000000 0.019744 -0.000001 0.168260
#
#
# Mechanical properties :
#
#
# Convention : Reuss Voigt Hill
#
# Bulk Modulus (GPa) = 46.66688 54.31935 50.49311
# Shear Modulus (GPa) = 13.52860 20.53083 17.02971
#
# Velocity S-wave (km/s) = 2.70443 3.33160 3.03427
# Velocity P-wave (km/s) = 5.91451 6.64576 6.29077
#
# Compressibility (1/GPa) = 0.02142848
#
# Stress axis : x y z
#
# Youngs Moduli (GPa) = 36.02868 54.43658 60.16252
#
# Poissons Ratio (x) = 0.44841 0.66041
# Poissons Ratio (y) = 0.29678 0.08694
# Poissons Ratio (z) = 0.39549 0.07867
#
# Static dielectric constant tensor:
#      x y z
#    x 1.635960 0.000000 0.002810 
#    y 0.000000 1.647750 0.000000 
#    z 0.002810 0.000000 1.710830 
# 
# From -- ./inp_files/380661.got.cif
#   From: 2010.05.17/outbox.cif.g08.bks.cpg/sg12_191_cif.got.tgz:380661.got - 2010.06.03 13:09:07.
