data_PCOD9193386
_publ_section_title
;
Structure prediction by ZEFSAII (Michael W. Deem and Ramdas Pophale) SiO2 
 PCOD9193386
Probable space group: C 2/M
;
_chemical_formula_sum "Si O2"
_cell_formula_units_Z 64
_cell_length_a 19.860645
_cell_length_b 11.857274
_cell_length_c 24.885625
_cell_angle_alpha 90.000000
_cell_angle_beta 146.600179
_cell_angle_gamma 90.000000
_cell_volume 3226.018309
_symmetry_space_group_name_H-M "C 2/M"
_symmetry_group_IT_number 12
_symmetry_cell_setting 'monoclinic'
loop_
_space_group_symop_operation_xyz
x,y,z
-x,y,-z
-x,-y,-z
x,-y,z
1/2+x,1/2+y,z
1/2-x,1/2+y,-z
1/2-x,1/2-y,-z
1/2+x,1/2-y,z
loop_
_atom_site_type_symbol
_atom_site_label
_atom_site_fract_x
_atom_site_fract_y
_atom_site_fract_z
Si Si1 0.430837 0.160745 0.113550
Si Si2 0.084212 0.374251 0.320956
Si Si3 0.078362 0.375668 0.106888
Si Si4 0.864901 0.127162 0.883340
Si Si5 0.342748 0.625409 0.096866
Si Si6 0.404815 0.635166 0.361087
Si Si7 0.858873 0.743995 0.219157
Si Si8 0.823148 0.862773 0.422104
O O1 0.505410 0.117604 0.213757
O O2 0.489532 0.121395 0.098181
O O3 0.429139 0.295801 0.118998
O O4 0.289505 0.126012 0.019273
O O5 0.106993 0.500000 0.357557
O O6 0.212063 0.322012 0.385509
O O7 0.993571 0.307494 0.299441
O O8 0.145294 0.500000 0.151817
O O9 0.132769 0.248091 0.146246
O O10 0.000000 0.375943 0.000000
O O11 0.749120 0.151645 0.845742
O O12 0.846911 0.000000 0.847591
O O13 0.000000 0.123387 0.000000
O O14 0.389259 0.500000 0.133758
O O15 0.329189 0.682456 0.146477
O O16 0.408573 0.500000 0.362531
O O17 0.366128 0.682273 0.277899
O O18 0.544259 0.671087 0.467346
O O19 0.322493 0.668145 0.358274
O O20 0.815031 0.000000 0.417548
#
# Coordination Sequence:
#
# PCOD9193386 Si02
#       8
#     8   8   8   8   8   8   8   8
#     4  10  21  34  51  76 108 153 193 235 291 346
#     4  10  20  35  55  79 111 149 191 235 289 352
#     4  10  20  34  53  78 107 141 193 254 297 335
#     4  10  22  38  53  76 117 163 202 242 292 348
#     4  10  20  35  52  75 112 153 196 239 290 349
#     4   9  18  35  59  88 118 144 183 240 304 358
#     4  11  22  34  55  86 113 151 196 250 295 347
#     4   8  17  35  58  84 114 148 182 234 301 363
#
# _framework density 19.838697
#
# number of rings (size 3 to 8) (size 9 to 14) (size 15 to 20)
#    0.000    2.250    0.000    4.125    1.750    3.000 
#    0.000    6.875    0.000    0.000    0.000    7.875 
#    0.000    0.000    0.000    0.000    0.000    0.000 
#
# Total GULP energy -178195.497315 kJ/mol
# GULP energy per Si atom -5568.609291 kJ/mol
# Density = 1.979354 g / cm^3
# Si number density = 19.838697 Si / 1000 Ang^3
#
#
#
# Elastic Constant Matrix: (Units=GPa)
#
#
# Indices 1 2 3 4 5 6 
#
# 1 83.2264 31.6458 15.1278 0.0001 15.9569 0.0000
# 2 31.6458 135.3774 7.9917 0.0003 11.7229 0.0000
# 3 15.1278 7.9917 55.3180 0.0005 8.8659 0.0001
# 4 0.0001 0.0003 0.0005 20.4516 0.0001 -12.8377
# 5 15.9569 11.7229 8.8659 0.0001 37.1228 0.0000
# 6 0.0000 0.0000 0.0001 -12.8377 0.0000 61.1003
#
#
#
# Elastic Compliance Matrix: (Units=1/GPa)
#
#
# Indices 1 2 3 4 5 6 
#
# 1 0.014492 -0.002818 -0.002808 0.000000 -0.004669 0.000000
# 2 -0.002818 0.008172 -0.000198 0.000000 -0.001322 0.000000
# 3 -0.002808 -0.000198 0.019413 -0.000001 -0.003367 0.000000
# 4 0.000000 0.000000 -0.000001 0.056324 0.000000 0.011834
# 5 -0.004669 -0.001322 -0.003367 0.000000 0.030166 0.000000
# 6 0.000000 0.000000 0.000000 0.011834 0.000000 0.018853
#
#
# Mechanical properties :
#
#
# Convention : Reuss Voigt Hill
#
# Bulk Modulus (GPa) = 32.86220 42.60583 37.73402
# Shear Modulus (GPa) = 29.54882 38.34538 33.94710
#
# Velocity S-wave (km/s) = 3.86353 4.40120 4.14110
# Velocity P-wave (km/s) = 6.04178 6.88114 6.47508
#
# Compressibility (1/GPa) = 0.03043009
#
# Stress axis : x y z
#
# Youngs Moduli (GPa) = 69.00186 122.37524 51.51084
#
# Poissons Ratio (x) = 0.34481 0.14464
# Poissons Ratio (y) = 0.19442 0.01020
# Poissons Ratio (z) = 0.19375 0.02424
#
# Static dielectric constant tensor:
#      x y z
#    x 1.713090 0.000000 0.042090 
#    y 0.000000 1.768550 0.000000 
#    z 0.042090 0.000000 1.716380 
# 
# From -- ./inp_files/366066.got.cif
#   From: 2010.05.17/outbox.cif.g08.bks.cpg/sg12_184_cif.got.tgz:366066.got - 2010.06.03 13:09:07.
