data_PCOD9193065
_publ_section_title
;
Structure prediction by ZEFSAII (Michael W. Deem and Ramdas Pophale) SiO2 
 PCOD9193065
Probable space group: C 2/M
;
_chemical_formula_sum "Si O2"
_cell_formula_units_Z 54
_cell_length_a 12.296305
_cell_length_b 12.251101
_cell_length_c 18.213399
_cell_angle_alpha 90.000000
_cell_angle_beta 100.561881
_cell_angle_gamma 90.000000
_cell_volume 2697.240527
_symmetry_space_group_name_H-M "C 2/M"
_symmetry_group_IT_number 12
_symmetry_cell_setting 'monoclinic'
loop_
_space_group_symop_operation_xyz
x,y,z
-x,y,-z
-x,-y,-z
x,-y,z
1/2+x,1/2+y,z
1/2-x,1/2+y,-z
1/2-x,1/2-y,-z
1/2+x,1/2-y,z
loop_
_atom_site_type_symbol
_atom_site_label
_atom_site_fract_x
_atom_site_fract_y
_atom_site_fract_z
Si Si1 0.000000 0.706672 0.000000
Si Si2 0.002178 0.123488 0.630062
Si Si3 0.641638 0.808619 0.455737
Si Si4 0.080709 0.623246 0.858076
Si Si5 0.737468 0.876073 0.312401
Si Si6 0.000000 0.500000 0.500000
Si Si7 0.341102 0.623253 0.914180
Si Si8 0.421452 0.293363 0.772448
O O1 0.103845 0.786589 0.027269
O O2 0.977563 0.637557 0.069959
O O3 0.947804 0.214785 0.572664
O O4 0.944966 0.137667 0.702753
O O5 0.132979 0.141698 0.656738
O O6 0.985048 0.000000 0.600804
O O7 0.750000 0.750000 0.500000
O O8 0.673044 0.862531 0.381261
O O9 0.593952 0.903488 0.500333
O O10 0.064053 0.500000 0.828036
O O11 0.210934 0.640584 0.885830
O O12 0.024778 0.712544 0.799217
O O13 0.683718 0.785802 0.253301
O O14 0.723288 0.000000 0.282690
O O15 0.357265 0.500000 0.944249
O O16 0.400376 0.637121 0.842623
#
# Coordination Sequence:
#
# PCOD9193065 Si02
#       8
#     4   8   8   8   8   2   8   8
#     4  10  20  34  52  76 106 150 192 236 290 354
#     4  10  22  39  62  88 120 157 198 246 307 365
#     4  11  24  41  64  92 123 161 204 253 308 369
#     4  10  20  34  53  79 111 148 190 241 294 350
#     4  10  20  38  58  83 116 150 190 241 293 356
#     4  12  24  44  66  94 128 164 212 256 312 374
#     4  10  20  34  53  77 110 144 189 240 293 347
#     4  10  20  35  57  83 112 149 192 238 298 363
#
# _framework density 20.020461000000001
#
# number of rings (size 3 to 8) (size 9 to 14) (size 15 to 20)
#    0.000    1.778    0.741    3.556    1.037    0.000 
#    0.000    1.852    8.148   14.222    0.000    0.000 
#    0.000    0.000    0.000    0.000    0.000    0.000 
#
# Total GULP energy -150582.222324 kJ/mol
# GULP energy per Si atom -5577.119345 kJ/mol
# Density = 1.997489 g / cm^3
# Si number density = 20.020461 Si / 1000 Ang^3
#
#
#
# Elastic Constant Matrix: (Units=GPa)
#
#
# Indices 1 2 3 4 5 6 
#
# 1 77.1943 46.9641 -11.3854 0.0000 12.0484 0.0000
# 2 46.9641 116.9978 7.7634 0.0000 17.4401 0.0000
# 3 -11.3854 7.7634 23.3467 0.0000 2.2430 0.0000
# 4 0.0000 0.0000 0.0000 -1.8367 0.0000 -3.6381
# 5 12.0484 17.4401 2.2430 0.0000 25.1119 0.0000
# 6 0.0000 0.0000 0.0000 -3.6381 0.0000 14.3652
#
#
#
# Elastic Compliance Matrix: (Units=1/GPa)
#
#
# Indices 1 2 3 4 5 6 
#
# 1 0.020979 -0.008524 0.013580 0.000000 -0.005359 0.000000
# 2 -0.008524 0.013151 -0.008115 0.000000 -0.004319 0.000000
# 3 0.013580 -0.008115 0.052690 0.000000 -0.005586 0.000000
# 4 0.000000 0.000000 0.000000 -0.362578 0.000000 -0.091825
# 5 -0.005359 -0.004319 -0.005586 0.000000 0.045891 0.000000
# 6 0.000000 0.000000 0.000000 -0.091825 0.000000 0.046357
#
#
# Mechanical properties :
#
#
# Convention : Reuss Voigt Hill
#
# Bulk Modulus (GPa) = 12.39096 33.80258 23.09677
# Shear Modulus (GPa) = -33.22468 19.14120 -7.04174
#
# Velocity S-wave (km/s) = -4.07816 3.09541 -1.87747
# Velocity P-wave (km/s) = 3.99657 5.44941 2.61949
#
# Compressibility (1/GPa) = 0.08070398
#
# Stress axis : x y z
#
# Youngs Moduli (GPa) = 47.66594 76.04056 18.97882
#
# Poissons Ratio (x) = 0.64814 -0.25773
# Poissons Ratio (y) = 0.40629 0.15401
# Poissons Ratio (z) = -0.64731 0.61705
#
# Static dielectric constant tensor:
#      x y z
#    x 1.689040 0.000000 -0.013070 
#    y 0.000000 1.674880 0.000000 
#    z -0.013070 0.000000 1.703280 
# 
# From -- ./inp_files/304328.got.cif
#   From: 2010.05.17/outbox.cif.g08.bks.cpg/sg12_153_cif.got.tgz:304328.got - 2010.06.03 13:09:07.
