data_PCOD9193811
_publ_section_title
;
Structure prediction by ZEFSAII (Michael W. Deem and Ramdas Pophale) SiO2 
 PCOD9193811
Probable space group: C 2/M
;
_chemical_formula_sum "Si O2"
_cell_formula_units_Z 48
_cell_length_a 19.540208
_cell_length_b 20.146747
_cell_length_c 12.537648
_cell_angle_alpha 90.000000
_cell_angle_beta 153.715878
_cell_angle_gamma 90.000000
_cell_volume 2185.647392
_symmetry_space_group_name_H-M "C 2/M"
_symmetry_group_IT_number 12
_symmetry_cell_setting 'monoclinic'
loop_
_space_group_symop_operation_xyz
x,y,z
-x,y,-z
-x,-y,-z
x,-y,z
1/2+x,1/2+y,z
1/2-x,1/2+y,-z
1/2-x,1/2-y,-z
1/2+x,1/2-y,z
loop_
_atom_site_type_symbol
_atom_site_label
_atom_site_fract_x
_atom_site_fract_y
_atom_site_fract_z
Si Si1 0.791128 0.129966 0.382823
Si Si2 0.326388 0.576754 0.220375
Si Si3 0.182723 0.927136 0.228773
Si Si4 0.859550 0.124912 0.048697
Si Si5 0.836233 0.320866 0.591682
Si Si6 0.114328 0.255026 0.054621
O O1 0.742875 0.084597 0.216713
O O2 0.682401 0.131077 0.332749
O O3 0.959940 0.115470 0.666743
O O4 0.766260 0.204983 0.302581
O O5 0.500000 0.598205 0.500000
O O6 0.333528 0.500000 0.197809
O O7 0.277320 0.617795 0.047941
O O8 0.266584 0.863641 0.398547
O O9 0.233665 0.000000 0.340045
O O10 0.195153 0.925687 0.118156
O O11 0.000000 0.920352 0.000000
O O12 0.851538 0.192355 0.970354
O O13 0.750000 0.250000 0.500000
O O14 0.013114 0.301345 0.835495
O O15 0.000000 0.243680 0.000000
#
# Coordination Sequence:
#
# PCOD9193811 Si02
#       6
#     8   8   8   8   8   8
#     4  10  20  34  54  81 106 146 185 226 276 332
#     4   9  20  36  54  76 106 144 186 233 278 326
#     4  11  21  32  54  84 112 143 185 238 285 328
#     4  11  19  34  56  81 112 143 185 233 284 331
#     4  11  19  36  56  81 117 152 182 229 291 346
#     4  10  21  33  56  83 114 148 183 226 284 341
#
# _framework density 21.961455999999998
#
# number of rings (size 3 to 8) (size 9 to 14) (size 15 to 20)
#    0.000    1.667    3.333    3.000    0.000    2.000 
#    0.000    0.833    0.000    3.000    0.000    2.333 
#    0.000    0.000    0.000    0.000    0.000    0.000 
#
# Total GULP energy -133635.612335 kJ/mol
# GULP energy per Si atom -5568.150514 kJ/mol
# Density = 2.191147 g / cm^3
# Si number density = 21.961456 Si / 1000 Ang^3
#
#
#
# Elastic Constant Matrix: (Units=GPa)
#
#
# Indices 1 2 3 4 5 6 
#
# 1 79.3591 26.7690 30.1866 0.0000 -46.1458 0.0000
# 2 26.7690 94.2295 46.8686 0.0000 -23.9208 0.0000
# 3 30.1866 46.8686 82.4218 0.0000 -37.5758 0.0000
# 4 0.0000 0.0000 0.0000 28.7918 0.0000 -12.0873
# 5 -46.1458 -23.9208 -37.5758 0.0000 40.2691 0.0000
# 6 0.0000 0.0000 0.0000 -12.0873 0.0000 21.9957
#
#
#
# Elastic Compliance Matrix: (Units=1/GPa)
#
#
# Indices 1 2 3 4 5 6 
#
# 1 0.044564 -0.003993 0.014183 0.000000 0.061930 0.000000
# 2 -0.003993 0.015217 -0.008973 0.000000 -0.003909 0.000000
# 3 0.014183 -0.008973 0.029621 0.000000 0.038562 0.000000
# 4 0.000000 0.000000 0.000000 0.045148 0.000000 0.024810
# 5 0.061930 -0.003909 0.038562 0.000000 0.129462 0.000000
# 6 0.000000 0.000000 0.000000 0.024810 0.000000 0.059098
#
#
# Mechanical properties :
#
#
# Convention : Reuss Voigt Hill
#
# Bulk Modulus (GPa) = 10.88891 51.51763 31.20327
# Shear Modulus (GPa) = 14.23332 28.35708 21.29520
#
# Velocity S-wave (km/s) = 2.54855 3.59725 3.11732
# Velocity P-wave (km/s) = 3.69176 6.38457 5.21497
#
# Compressibility (1/GPa) = 0.09183657
#
# Stress axis : x y z
#
# Youngs Moduli (GPa) = 22.43961 65.71412 33.75956
#
# Poissons Ratio (x) = 0.26239 -0.47880
# Poissons Ratio (y) = 0.08960 0.30292
# Poissons Ratio (z) = -0.31826 0.58965
#
# Static dielectric constant tensor:
#      x y z
#    x 1.895470 0.000000 -0.004610 
#    y 0.000000 1.884530 0.000000 
#    z -0.004610 0.000000 1.851950 
# 
# From -- ./inp_files/169738.got.cif
#   From: 2010.05.17/outbox.cif.g08.bks.cpg/sg12_85_cif.got.tgz:169738.got - 2010.06.03 13:09:07.
