data_PCOD9193859
_publ_section_title
;
Structure prediction by ZEFSAII (Michael W. Deem and Ramdas Pophale) SiO2 
 PCOD9193859
Probable space group: C 2/M
;
_chemical_formula_sum "Si O2"
_cell_formula_units_Z 56
_cell_length_a 25.587864
_cell_length_b 8.611369
_cell_length_c 15.432871
_cell_angle_alpha 90.000000
_cell_angle_beta 105.906554
_cell_angle_gamma 90.000000
_cell_volume 3270.371394
_symmetry_space_group_name_H-M "C 2/M"
_symmetry_group_IT_number 12
_symmetry_cell_setting 'monoclinic'
loop_
_space_group_symop_operation_xyz
x,y,z
-x,y,-z
-x,-y,-z
x,-y,z
1/2+x,1/2+y,z
1/2-x,1/2+y,-z
1/2-x,1/2-y,-z
1/2+x,1/2-y,z
loop_
_atom_site_type_symbol
_atom_site_label
_atom_site_fract_x
_atom_site_fract_y
_atom_site_fract_z
Si Si1 0.989434 0.814116 0.095312
Si Si2 0.400493 0.813837 0.780797
Si Si3 0.815633 0.311367 0.891613
Si Si4 0.304701 0.686314 0.219758
Si Si5 0.872641 0.313746 0.094077
Si Si6 0.794811 0.685864 0.403655
Si Si7 0.672097 0.685736 0.401216
O O1 0.933857 0.739070 0.103097
O O2 0.041167 0.759196 0.173670
O O3 0.984624 0.000000 0.096210
O O4 0.000000 0.767473 0.000000
O O5 0.358893 0.762368 0.838238
O O6 0.373979 0.761086 0.678797
O O7 0.404506 0.000000 0.785707
O O8 0.815309 0.500000 0.891296
O O9 0.755086 0.259551 0.839940
O O10 0.836041 0.260826 0.995277
O O11 0.304388 0.500000 0.223253
O O12 0.348500 0.743383 0.170538
O O13 0.313587 0.752251 0.319648
O O14 0.870360 0.500000 0.097262
O O15 0.798079 0.500000 0.408292
O O16 0.731270 0.730800 0.388730
O O17 0.826866 0.756574 0.499540
O O18 0.667796 0.500000 0.396449
#
# Coordination Sequence:
#
# PCOD9193859 Si02
#       7
#     8   8   8   8   8   8   8
#     4  11  23  38  56  81 110 145 189 237 281 324
#     4  11  20  35  58  83 112 147 186 230 279 332
#     4   9  19  33  53  80 112 148 185 224 275 330
#     4  11  21  36  55  81 115 151 186 230 280 331
#     4  11  22  38  56  79 110 151 194 231 275 333
#     4  10  20  34  54  81 112 148 186 226 275 334
#     4  10  20  34  54  83 114 145 182 230 281 329
#
# _framework density 17.123438
#
# number of rings (size 3 to 8) (size 9 to 14) (size 15 to 20)
#    0.000    1.571    2.857    3.000    0.000    1.714 
#    0.000    2.143    0.000    0.857    0.000    6.000 
#    0.000    0.000    0.000    0.000    0.000    0.000 
#
# Total GULP energy -156438.733253 kJ/mol
# GULP energy per Si atom -5587.097616 kJ/mol
# Density = 1.708446 g / cm^3
# Si number density = 17.123438 Si / 1000 Ang^3
#
#
#
# Elastic Constant Matrix: (Units=GPa)
#
#
# Indices 1 2 3 4 5 6 
#
# 1 56.6674 -2.8799 30.7777 0.0000 -18.6284 0.0000
# 2 -2.8799 25.6831 9.1164 0.0000 -6.3680 0.0000
# 3 30.7777 9.1164 121.5959 0.0000 -12.2331 0.0000
# 4 0.0000 0.0000 0.0000 26.0349 0.0000 0.4182
# 5 -18.6284 -6.3680 -12.2331 0.0000 25.9396 0.0000
# 6 0.0000 0.0000 0.0000 0.4182 0.0000 21.8547
#
#
#
# Elastic Compliance Matrix: (Units=1/GPa)
#
#
# Indices 1 2 3 4 5 6 
#
# 1 0.027781 0.010056 -0.005806 0.000000 0.019681 0.000000
# 2 0.010056 0.045662 -0.004319 0.000000 0.016394 0.000000
# 3 -0.005806 -0.004319 0.009964 0.000000 -0.000531 0.000000
# 4 0.000000 0.000000 0.000000 0.038422 0.000000 -0.000735
# 5 0.019681 0.016394 -0.000531 0.000000 0.056459 0.000000
# 6 0.000000 0.000000 0.000000 -0.000735 0.000000 0.045771
#
#
# Mechanical properties :
#
#
# Convention : Reuss Voigt Hill
#
# Bulk Modulus (GPa) = 12.00938 30.88608 21.44773
# Shear Modulus (GPa) = 19.84495 25.89465 22.86980
#
# Velocity S-wave (km/s) = 3.40801 3.89296 3.65853
# Velocity P-wave (km/s) = 4.74496 6.18736 5.51353
#
# Compressibility (1/GPa) = 0.08326821
#
# Stress axis : x y z
#
# Youngs Moduli (GPa) = 35.99578 21.90021 100.36233
#
# Poissons Ratio (x) = -0.22022 0.58267
# Poissons Ratio (y) = -0.36197 0.43350
# Poissons Ratio (z) = 0.20898 0.09459
#
# Static dielectric constant tensor:
#      x y z
#    x 1.552160 0.000000 0.000920 
#    y 0.000000 1.567530 0.000000 
#    z 0.000920 0.000000 1.565030 
# 
# From -- ./inp_files/237454.got.cif
#   From: 2010.05.17/outbox.cif.g08.bks.cpg/sg12_119_cif.got.tgz:237454.got - 2010.06.03 13:09:07.
