data_PCOD9193234
_publ_section_title
;
Structure prediction by ZEFSAII (Michael W. Deem and Ramdas Pophale) SiO2 
 PCOD9193234
Probable space group: C 2/M
;
_chemical_formula_sum "Si O2"
_cell_formula_units_Z 40
_cell_length_a 12.667044
_cell_length_b 15.333584
_cell_length_c 15.181701
_cell_angle_alpha 90.000000
_cell_angle_beta 36.453807
_cell_angle_gamma 90.000000
_cell_volume 1752.077873
_symmetry_space_group_name_H-M "C 2/M"
_symmetry_group_IT_number 12
_symmetry_cell_setting 'monoclinic'
loop_
_space_group_symop_operation_xyz
x,y,z
-x,y,-z
-x,-y,-z
x,-y,z
1/2+x,1/2+y,z
1/2-x,1/2+y,-z
1/2-x,1/2-y,-z
1/2+x,1/2-y,z
loop_
_atom_site_type_symbol
_atom_site_label
_atom_site_fract_x
_atom_site_fract_y
_atom_site_fract_z
Si Si1 0.771241 0.000000 0.979491
Si Si2 0.742787 0.318748 0.238503
Si Si3 0.299250 0.000000 0.488099
Si Si4 0.386717 0.820477 0.944965
Si Si5 0.156546 0.000000 0.787211
Si Si6 0.584209 0.500000 0.321645
Si Si7 0.930341 0.362110 0.646035
O O1 0.945518 0.000000 0.923410
O O2 0.842779 0.000000 0.829483
O O3 0.656247 0.913423 0.069219
O O4 0.831023 0.329689 0.083847
O O5 0.655302 0.411540 0.317554
O O6 0.605987 0.239546 0.317591
O O7 0.404871 0.203347 0.196070
O O8 0.423372 0.085438 0.396454
O O9 0.223595 0.000000 0.639919
O O10 0.127769 0.000000 0.542633
O O11 0.250000 0.750000 0.000000
O O12 0.245524 0.915627 0.772540
O O13 0.000000 0.371451 0.500000
#
# Coordination Sequence:
#
# PCOD9193234 Si02
#       7
#     4   8   4   8   4   4   8
#     4   9  16  30  52  72  97 133 167 205 247 292
#     4  10  20  34  53  76 102 133 167 207 250 293
#     4   8  16  30  49  73  97 130 170 203 244 298
#     4  10  20  34  53  77 102 131 169 206 247 300
#     4   8  14  28  51  75  98 128 166 206 248 294
#     4   9  18  32  49  71  99 132 172 204 238 298
#     4   9  17  31  52  76 101 128 165 211 252 293
#
# _framework density 22.830034999999999
#
# number of rings (size 3 to 8) (size 9 to 14) (size 15 to 20)
#    0.000    2.800    0.000    3.000    0.000    4.800 
#    0.000    2.500    0.000    7.200    0.000    0.000 
#    0.000    0.000    0.000    0.000    0.000    0.000 
#
# Total GULP energy -111714.354887 kJ/mol
# GULP energy per Si atom -5585.717744 kJ/mol
# Density = 2.277807 g / cm^3
# Si number density = 22.830035 Si / 1000 Ang^3
#
#
#
# Elastic Constant Matrix: (Units=GPa)
#
#
# Indices 1 2 3 4 5 6 
#
# 1 116.9759 61.9154 30.3492 -0.0005 -41.3275 0.0003
# 2 61.9154 189.1242 15.3024 -0.0004 -36.3604 0.0000
# 3 30.3492 15.3024 61.6097 -0.0011 -6.4880 0.0002
# 4 -0.0005 -0.0004 -0.0011 20.3136 0.0006 0.2406
# 5 -41.3275 -36.3604 -6.4880 0.0006 35.3293 -0.0003
# 6 0.0003 0.0000 0.0002 0.2406 -0.0003 5.3809
#
#
#
# Elastic Compliance Matrix: (Units=1/GPa)
#
#
# Indices 1 2 3 4 5 6 
#
# 1 0.017144 -0.001838 -0.006196 0.000000 0.017025 0.000000
# 2 -0.001838 0.006843 -0.000284 0.000000 0.004840 0.000000
# 3 -0.006196 -0.000284 0.018926 0.000001 -0.004065 -0.000001
# 4 0.000000 0.000000 0.000001 0.049254 -0.000001 -0.002202
# 5 0.017025 0.004840 -0.004065 -0.000001 0.052456 0.000002
# 6 0.000000 0.000000 -0.000001 -0.002202 0.000002 0.185940
#
#
# Mechanical properties :
#
#
# Convention : Reuss Voigt Hill
#
# Bulk Modulus (GPa) = 38.05731 64.76042 51.40886
# Shear Modulus (GPa) = 14.04659 29.54762 21.79710
#
# Velocity S-wave (km/s) = 2.48315 3.60146 3.09326
# Velocity P-wave (km/s) = 4.99274 6.76180 5.94346
#
# Compressibility (1/GPa) = 0.02627616
#
# Stress axis : x y z
#
# Youngs Moduli (GPa) = 58.32870 146.13777 52.83764
#
# Poissons Ratio (x) = 0.26862 0.32737
# Poissons Ratio (y) = 0.10722 0.01503
# Poissons Ratio (z) = 0.36140 0.04157
#
# Static dielectric constant tensor:
#      x y z
#    x 1.953880 0.000000 0.025800 
#    y 0.000000 1.827100 0.000000 
#    z 0.025800 0.000000 1.878160 
# 
# From -- ./inp_files/268057.got.cif
#   From: 2010.05.17/outbox.cif.g08.bks.cpg/sg12_135_cif.got.tgz:268057.got - 2010.06.03 13:09:07.
