data_PCOD9193025
_publ_section_title
;
Structure prediction by ZEFSAII (Michael W. Deem and Ramdas Pophale) SiO2 
 PCOD9193025
Probable space group: C 2/M
;
_chemical_formula_sum "Si O2"
_cell_formula_units_Z 64
_cell_length_a 20.979644
_cell_length_b 8.394903
_cell_length_c 20.345130
_cell_angle_alpha 90.000000
_cell_angle_beta 90.112331
_cell_angle_gamma 90.000000
_cell_volume 3583.219653
_symmetry_space_group_name_H-M "C 2/M"
_symmetry_group_IT_number 12
_symmetry_cell_setting 'monoclinic'
loop_
_space_group_symop_operation_xyz
x,y,z
-x,y,-z
-x,-y,-z
x,-y,z
1/2+x,1/2+y,z
1/2-x,1/2+y,-z
1/2-x,1/2-y,-z
1/2+x,1/2-y,z
loop_
_atom_site_type_symbol
_atom_site_label
_atom_site_fract_x
_atom_site_fract_y
_atom_site_fract_z
Si Si1 0.444790 0.692507 0.048882
Si Si2 0.554709 0.692622 0.800186
Si Si3 0.695751 0.809493 0.951119
Si Si4 0.302148 0.692764 0.698309
Si Si5 0.055092 0.192742 0.450622
Si Si6 0.195331 0.692497 0.800234
Si Si7 0.053587 0.805948 0.299923
Si Si8 0.696857 0.189324 0.449629
O O1 0.444703 0.500000 0.048065
O O2 0.456435 0.744198 0.124329
O O3 0.374452 0.749752 0.029336
O O4 0.500000 0.748332 0.000000
O O5 0.554526 0.500000 0.799493
O O6 0.624952 0.750182 0.780704
O O7 0.499800 0.749960 0.750928
O O8 0.706958 0.754642 0.875628
O O9 0.695708 0.000000 0.951038
O O10 0.750000 0.750000 0.000000
O O11 0.301491 0.500000 0.697921
O O12 0.249437 0.748541 0.750017
O O13 0.374167 0.743343 0.716792
O O14 0.289693 0.748879 0.624117
O O15 0.041266 0.242503 0.375331
O O16 0.125924 0.251076 0.467985
O O17 0.000000 0.247139 0.500000
O O18 0.056388 0.000000 0.451754
O O19 0.195730 0.500000 0.799984
O O20 0.052549 0.000000 0.298683
O O21 0.750000 0.250000 0.500000
O O22 0.696959 0.000000 0.449129
#
# Coordination Sequence:
#
# PCOD9193025 Si02
#       8
#     8   8   8   8   8   8   8   8
#     4   9  18  32  50  72  99 132 171 212 252 299
#     4   9  17  30  49  72  98 129 165 205 247 298
#     4  10  20  34  52  75 104 137 173 213 259 308
#     4   9  18  35  55  74  99 132 171 212 255 303
#     4   9  18  34  54  75 102 135 170 208 252 302
#     4   9  19  34  52  74 101 133 167 209 258 305
#     4   8  15  29  49  71  94 123 160 200 242 290
#     4  11  22  36  54  77 106 138 174 214 256 303
#
# _framework density 17.861032000000002
#
# number of rings (size 3 to 8) (size 9 to 14) (size 15 to 20)
#    0.000    2.750    0.000    2.250    0.000    3.500 
#    0.000    7.500    0.000    0.000    0.000    0.000 
#    0.000    0.000    0.000    0.000    0.000    0.000 
#
# Total GULP energy -178450.808662 kJ/mol
# GULP energy per Si atom -5576.587771 kJ/mol
# Density = 1.782038 g / cm^3
# Si number density = 17.861032 Si / 1000 Ang^3
#
#
#
# Elastic Constant Matrix: (Units=GPa)
#
#
# Indices 1 2 3 4 5 6 
#
# 1 199.4626 23.6020 140.2024 0.0000 -1.4463 0.0000
# 2 23.6020 13.5554 19.0897 0.0000 -2.8984 0.0000
# 3 140.2024 19.0897 117.9176 0.0000 -1.0511 0.0000
# 4 0.0000 0.0000 0.0000 17.5267 0.0000 1.3493
# 5 -1.4463 -2.8984 -1.0511 0.0000 45.4707 0.0000
# 6 0.0000 0.0000 0.0000 1.3493 0.0000 29.7322
#
#
#
# Elastic Compliance Matrix: (Units=1/GPa)
#
#
# Indices 1 2 3 4 5 6 
#
# 1 0.030594 -0.002652 -0.035947 0.000000 -0.000027 0.000000
# 2 -0.002652 0.097306 -0.012548 0.000000 0.005828 0.000000
# 3 -0.035947 -0.012548 0.053246 0.000000 -0.000712 0.000000
# 4 0.000000 0.000000 0.000000 0.057256 0.000000 -0.002598
# 5 -0.000027 0.005828 -0.000712 0.000000 0.022346 0.000000
# 6 0.000000 0.000000 0.000000 -0.002598 0.000000 0.033751
#
#
# Mechanical properties :
#
#
# Convention : Reuss Voigt Hill
#
# Bulk Modulus (GPa) = 12.68192 77.41376 45.04784
# Shear Modulus (GPa) = 11.81814 28.41535 20.11675
#
# Velocity S-wave (km/s) = 2.57509 3.99295 3.35967
# Velocity P-wave (km/s) = 3.99464 8.04329 6.35027
#
# Compressibility (1/GPa) = 0.07885239
#
# Stress axis : x y z
#
# Youngs Moduli (GPa) = 32.68569 10.27689 18.78062
#
# Poissons Ratio (x) = 0.02725 0.67511
# Poissons Ratio (y) = 0.08667 0.23566
# Poissons Ratio (z) = 1.17496 0.12895
#
# Static dielectric constant tensor:
#      x y z
#    x 1.586870 0.000000 -0.007780 
#    y 0.000000 1.617230 0.000000 
#    z -0.007780 0.000000 1.606030 
# 
# From -- ./inp_files/314219.got.cif
#   From: 2010.05.17/outbox.cif.g08.bks.cpg/sg12_158_cif.got.tgz:314219.got - 2010.06.03 13:09:07.
