data_PCOD9193785
_publ_section_title
;
Structure prediction by ZEFSAII (Michael W. Deem and Ramdas Pophale) SiO2 
 PCOD9193785
Probable space group: C 2/M
;
_chemical_formula_sum "Si O2"
_cell_formula_units_Z 64
_cell_length_a 14.747178
_cell_length_b 7.790261
_cell_length_c 26.428488
_cell_angle_alpha 90.000000
_cell_angle_beta 108.593058
_cell_angle_gamma 90.000000
_cell_volume 2877.750791
_symmetry_space_group_name_H-M "C 2/M"
_symmetry_group_IT_number 12
_symmetry_cell_setting 'monoclinic'
loop_
_space_group_symop_operation_xyz
x,y,z
-x,y,-z
-x,-y,-z
x,-y,z
1/2+x,1/2+y,z
1/2-x,1/2+y,-z
1/2-x,1/2-y,-z
1/2+x,1/2-y,z
loop_
_atom_site_type_symbol
_atom_site_label
_atom_site_fract_x
_atom_site_fract_y
_atom_site_fract_z
Si Si1 0.925643 0.708686 0.708668
Si Si2 0.300159 0.295325 0.588069
Si Si3 0.648715 0.303986 0.005528
Si Si4 0.038076 0.301272 0.082977
Si Si5 0.374024 0.791257 0.380704
Si Si6 0.144007 0.293884 0.735232
Si Si7 0.156087 0.295196 0.199000
Si Si8 0.442016 0.300585 0.536144
O O1 0.924173 0.500000 0.707184
O O2 0.867626 0.766775 0.648936
O O3 0.878140 0.770659 0.752389
O O4 0.036531 0.764531 0.727815
O O5 0.292783 0.500000 0.579596
O O6 0.196384 0.232066 0.587073
O O7 0.349041 0.221586 0.546201
O O8 0.657067 0.500000 0.023126
O O9 0.560950 0.287369 0.950370
O O10 0.750000 0.250000 0.000000
O O11 0.610654 0.205300 0.048234
O O12 0.013455 0.500000 0.087836
O O13 0.092289 0.228376 0.141498
O O14 0.334311 0.740841 0.318898
O O15 0.477372 0.710534 0.406140
O O16 0.381660 0.000000 0.383308
O O17 0.142460 0.500000 0.736045
O O18 0.230874 0.236761 0.785697
O O19 0.142698 0.500000 0.197302
O O20 0.500000 0.217075 0.500000
O O21 0.423340 0.500000 0.520210
#
# Coordination Sequence:
#
# PCOD9193785 Si02
#       8
#     8   8   8   8   8   8   8   8
#     4  10  20  35  54  79 109 144 184 224 270 328
#     4  10  20  35  55  77 105 139 177 223 275 331
#     4  11  22  39  64  91 118 157 203 245 297 350
#     4  10  21  39  59  87 124 158 197 246 291 345
#     4  10  20  35  55  80 106 138 180 224 273 331
#     4  10  20  34  54  80 111 146 186 228 274 331
#     4  10  22  37  56  84 118 150 186 231 280 331
#     4  10  22  38  55  78 107 139 179 229 283 338
#
# _framework density 22.239591000000001
#
# number of rings (size 3 to 8) (size 9 to 14) (size 15 to 20)
#    0.000    1.875    2.500    2.250    0.000    4.250 
#    0.000    1.250    0.000    0.000    0.000    0.000 
#    0.000    0.000    0.000    0.000    0.000    0.000 
#
# Total GULP energy -178725.583066 kJ/mol
# GULP energy per Si atom -5585.174471 kJ/mol
# Density = 2.218897 g / cm^3
# Si number density = 22.239591 Si / 1000 Ang^3
#
#
#
# Elastic Constant Matrix: (Units=GPa)
#
#
# Indices 1 2 3 4 5 6 
#
# 1 138.1785 -2.4279 23.0795 0.0000 -1.6827 0.0000
# 2 -2.4279 40.0598 -7.4445 0.0000 -0.7027 0.0000
# 3 23.0795 -7.4445 71.7296 0.0000 11.6745 0.0000
# 4 0.0000 0.0000 0.0000 20.4886 0.0000 8.1947
# 5 -1.6827 -0.7027 11.6745 0.0000 21.1028 0.0000
# 6 0.0000 0.0000 0.0000 8.1947 0.0000 19.9475
#
#
#
# Elastic Compliance Matrix: (Units=1/GPa)
#
#
# Indices 1 2 3 4 5 6 
#
# 1 0.007739 -0.000022 -0.002849 0.000000 0.002193 0.000000
# 2 -0.000022 0.025462 0.002761 0.000000 -0.000681 0.000000
# 3 -0.002849 0.002761 0.016667 0.000000 -0.009356 0.000000
# 4 0.000000 0.000000 0.000000 0.058404 0.000000 -0.023993
# 5 0.002193 -0.000681 -0.009356 0.000000 0.052715 0.000000
# 6 0.000000 0.000000 0.000000 -0.023993 0.000000 0.059988
#
#
# Mechanical properties :
#
#
# Convention : Reuss Voigt Hill
#
# Bulk Modulus (GPa) = 20.14203 30.70912 25.42558
# Shear Modulus (GPa) = 21.03078 28.09185 24.56132
#
# Velocity S-wave (km/s) = 3.07847 3.55793 3.32685
# Velocity P-wave (km/s) = 4.65967 5.54227 5.12002
#
# Compressibility (1/GPa) = 0.04964742
#
# Stress axis : x y z
#
# Youngs Moduli (GPa) = 129.21162 39.27362 59.99777
#
# Poissons Ratio (x) = 0.00086 0.17095
# Poissons Ratio (y) = 0.00284 -0.16563
# Poissons Ratio (z) = 0.36816 -0.10842
#
# Static dielectric constant tensor:
#      x y z
#    x 1.833170 0.000000 -0.024850 
#    y 0.000000 1.799350 0.000000 
#    z -0.024850 0.000000 1.838400 
# 
# From -- ./inp_files/359919.got.cif
#   From: 2010.05.17/outbox.cif.g08.bks.cpg/sg12_180_cif.got.tgz:359919.got - 2010.06.03 13:09:07.
