data_PCOD9193212
_publ_section_title
;
Structure prediction by ZEFSAII (Michael W. Deem and Ramdas Pophale) SiO2 
 PCOD9193212
Probable space group: C 2/M
;
_chemical_formula_sum "Si O2"
_cell_formula_units_Z 64
_cell_length_a 16.821236
_cell_length_b 7.693805
_cell_length_c 22.510571
_cell_angle_alpha 90.000000
_cell_angle_beta 90.591183
_cell_angle_gamma 90.000000
_cell_volume 2913.147480
_symmetry_space_group_name_H-M "C 2/M"
_symmetry_group_IT_number 12
_symmetry_cell_setting 'monoclinic'
loop_
_space_group_symop_operation_xyz
x,y,z
-x,y,-z
-x,-y,-z
x,-y,z
1/2+x,1/2+y,z
1/2-x,1/2+y,-z
1/2-x,1/2-y,-z
1/2+x,1/2-y,z
loop_
_atom_site_type_symbol
_atom_site_label
_atom_site_fract_x
_atom_site_fract_y
_atom_site_fract_z
Si Si1 0.165578 0.712430 0.629094
Si Si2 0.346292 0.709546 0.621204
Si Si3 0.330349 0.302604 0.124110
Si Si4 0.080363 0.789883 0.257805
Si Si5 0.400101 0.205346 0.246389
Si Si6 0.088410 0.292662 0.506770
Si Si7 0.347522 0.707206 0.860594
Si Si8 0.505448 0.712446 0.930792
O O1 0.163204 0.500000 0.628316
O O2 0.256885 0.764352 0.634613
O O3 0.119290 0.769169 0.687437
O O4 0.130673 0.775596 0.566242
O O5 0.349084 0.500000 0.621525
O O6 0.401450 0.774227 0.675487
O O7 0.368317 0.764335 0.555151
O O8 0.328746 0.500000 0.103198
O O9 0.349173 0.291915 0.194396
O O10 0.240418 0.237983 0.114525
O O11 0.410046 0.222368 0.094972
O O12 0.142364 0.731349 0.207717
O O13 0.993004 0.736412 0.236588
O O14 0.082775 0.000000 0.260175
O O15 0.382556 0.000000 0.243608
O O16 0.082384 0.500000 0.515215
O O17 0.000000 0.219689 0.500000
O O18 0.356272 0.500000 0.858899
O O19 0.424656 0.773505 0.897378
O O20 0.506152 0.500000 0.925016
O O21 0.500000 0.754854 0.000000
#
# Coordination Sequence:
#
# PCOD9193212 Si02
#       8
#     8   8   8   8   8   8   8   8
#     4   9  19  35  53  75 104 142 182 228 284 347
#     4  10  20  34  53  75 104 140 183 228 280 343
#     4  11  22  38  60  90 124 156 197 247 295 343
#     4  10  20  36  56  81 114 152 191 239 294 346
#     4  11  21  36  60  85 112 149 194 237 290 351
#     4  10  20  35  53  73 102 137 178 228 284 338
#     4  10  20  38  62  87 120 162 202 239 293 353
#     4   9  19  38  63  88 120 163 202 237 288 352
#
# _framework density 21.969365
#
# number of rings (size 3 to 8) (size 9 to 14) (size 15 to 20)
#    0.000    2.000    1.250    2.625    0.000    4.750 
#    0.000    3.750    0.000    2.625    0.000    0.000 
#    0.000    0.000    0.000    0.000    0.000    0.000 
#
# Total GULP energy -178671.714766 kJ/mol
# GULP energy per Si atom -5583.491086 kJ/mol
# Density = 2.191936 g / cm^3
# Si number density = 21.969365 Si / 1000 Ang^3
#
#
#
# Elastic Constant Matrix: (Units=GPa)
#
#
# Indices 1 2 3 4 5 6 
#
# 1 138.5933 -5.9026 53.1761 0.0000 -16.2513 0.0000
# 2 -5.9026 27.0753 -3.1985 0.0000 -3.1492 0.0000
# 3 53.1761 -3.1985 109.6173 0.0000 -12.9008 0.0000
# 4 0.0000 0.0000 0.0000 10.0381 0.0000 0.3372
# 5 -16.2513 -3.1492 -12.9008 0.0000 24.2042 0.0000
# 6 0.0000 0.0000 0.0000 0.3372 0.0000 11.6474
#
#
#
# Elastic Compliance Matrix: (Units=1/GPa)
#
#
# Indices 1 2 3 4 5 6 
#
# 1 0.009339 0.002086 -0.003947 0.000000 0.004438 0.000000
# 2 0.002086 0.038296 0.000914 0.000000 0.006870 0.000000
# 3 -0.003947 0.000914 0.011487 0.000000 0.003591 0.000000
# 4 0.000000 0.000000 0.000000 0.099718 0.000000 -0.002887
# 5 0.004438 0.006870 0.003591 0.000000 0.047103 0.000000
# 6 0.000000 0.000000 0.000000 -0.002887 0.000000 0.085940
#
#
# Mechanical properties :
#
#
# Convention : Reuss Voigt Hill
#
# Bulk Modulus (GPa) = 17.47422 40.38175 28.92799
# Shear Modulus (GPa) = 15.98198 24.59199 20.28698
#
# Velocity S-wave (km/s) = 2.70008 3.34934 3.04208
# Velocity P-wave (km/s) = 4.20616 5.77739 5.05322
#
# Compressibility (1/GPa) = 0.05722716
#
# Stress axis : x y z
#
# Youngs Moduli (GPa) = 107.07667 26.11250 87.05632
#
# Poissons Ratio (x) = -0.05447 0.34364
# Poissons Ratio (y) = -0.22335 -0.07958
# Poissons Ratio (z) = 0.42266 -0.02387
#
# Static dielectric constant tensor:
#      x y z
#    x 1.794720 0.000000 -0.011920 
#    y 0.000000 1.843470 0.000000 
#    z -0.011920 0.000000 1.817650 
# 
# From -- ./inp_files/314088.got.cif
#   From: 2010.05.17/outbox.cif.g08.bks.cpg/sg12_158_cif.got.tgz:314088.got - 2010.06.03 13:09:07.
