data_PCOD9193038
_publ_section_title
;
Structure prediction by ZEFSAII (Michael W. Deem and Ramdas Pophale) SiO2 
 PCOD9193038
Probable space group: C 2/M
;
_chemical_formula_sum "Si O2"
_cell_formula_units_Z 56
_cell_length_a 20.509426
_cell_length_b 7.614648
_cell_length_c 21.711452
_cell_angle_alpha 90.000000
_cell_angle_beta 54.013780
_cell_angle_gamma 90.000000
_cell_volume 2743.631118
_symmetry_space_group_name_H-M "C 2/M"
_symmetry_group_IT_number 12
_symmetry_cell_setting 'monoclinic'
loop_
_space_group_symop_operation_xyz
x,y,z
-x,y,-z
-x,-y,-z
x,-y,z
1/2+x,1/2+y,z
1/2-x,1/2+y,-z
1/2-x,1/2-y,-z
1/2+x,1/2-y,z
loop_
_atom_site_type_symbol
_atom_site_label
_atom_site_fract_x
_atom_site_fract_y
_atom_site_fract_z
Si Si1 0.757221 0.793903 0.880826
Si Si2 0.093439 0.714796 0.450005
Si Si3 0.639036 0.788478 0.292533
Si Si4 0.422097 0.203105 0.007791
Si Si5 0.592928 0.704894 0.121683
Si Si6 0.157044 0.710547 0.545255
Si Si7 0.013470 0.288432 0.705035
O O1 0.794908 0.779039 0.791901
O O2 0.825181 0.722564 0.890854
O O3 0.750181 0.000000 0.900431
O O4 0.667274 0.717494 0.932047
O O5 0.095794 0.500000 0.448161
O O6 0.139093 0.773054 0.362851
O O7 0.128945 0.777607 0.494472
O O8 0.000000 0.764522 0.500000
O O9 0.552468 0.743693 0.310713
O O10 0.645132 0.000000 0.288868
O O11 0.431132 0.207953 0.928993
O O12 0.417076 0.000000 0.031779
O O13 0.500000 0.279717 0.000000
O O14 0.606380 0.500000 0.100934
O O15 0.522497 0.719229 0.211402
O O16 0.146023 0.500000 0.550447
O O17 0.250000 0.750000 0.500000
O O18 0.099437 0.774704 0.632355
O O19 0.014583 0.500000 0.710200
#
# Coordination Sequence:
#
# PCOD9193038 Si02
#       7
#     8   8   8   8   8   8   8
#     4   9  19  35  54  78 107 135 168 212 259 305
#     4   9  15  29  54  78 100 131 177 222 254 293
#     4   9  16  29  54  82 101 128 174 222 260 297
#     4  10  21  38  57  76 104 142 174 203 249 313
#     4  10  20  34  56  82 105 131 167 219 266 300
#     4  10  20  34  52  75 106 141 176 216 259 307
#     4   9  17  32  54  77 102 137 178 213 252 310
#
# _framework density 20.410909
#
# number of rings (size 3 to 8) (size 9 to 14) (size 15 to 20)
#    0.000    2.571    1.429    0.857    0.000    2.000 
#    2.571    0.714    0.000    0.857    0.000    0.000 
#    0.000    0.000    0.000    0.000    0.000    0.000 
#
# Total GULP energy -156175.259173 kJ/mol
# GULP energy per Si atom -5577.687828 kJ/mol
# Density = 2.036445 g / cm^3
# Si number density = 20.410909 Si / 1000 Ang^3
#
#
#
# Elastic Constant Matrix: (Units=GPa)
#
#
# Indices 1 2 3 4 5 6 
#
# 1 146.9631 3.0964 85.2993 -0.0001 -9.2842 0.0005
# 2 3.0964 39.1763 0.2188 -0.0008 -2.8809 0.0011
# 3 85.2993 0.2188 123.5997 0.0003 -9.5289 -0.0006
# 4 -0.0001 -0.0008 0.0003 16.6054 0.0000 -2.7541
# 5 -9.2842 -2.8809 -9.5289 0.0000 28.4933 -0.0003
# 6 0.0005 0.0011 -0.0006 -2.7541 -0.0003 3.5373
#
#
#
# Elastic Compliance Matrix: (Units=1/GPa)
#
#
# Indices 1 2 3 4 5 6 
#
# 1 0.011409 -0.000782 -0.007793 0.000000 0.001032 -0.000003
# 2 -0.000782 0.025774 0.000693 0.000000 0.002583 -0.000007
# 3 -0.007793 0.000693 0.013628 0.000000 0.002089 0.000004
# 4 0.000000 0.000000 0.000000 0.069151 0.000000 0.053840
# 5 0.001032 0.002583 0.002089 0.000000 0.036392 0.000003
# 6 -0.000003 -0.000007 0.000004 0.053840 0.000003 0.324624
#
#
# Mechanical properties :
#
#
# Convention : Reuss Voigt Hill
#
# Bulk Modulus (GPa) = 28.53252 54.10759 41.32005
# Shear Modulus (GPa) = 9.83431 24.46881 17.15156
#
# Velocity S-wave (km/s) = 2.19741 3.46614 2.90196
# Velocity P-wave (km/s) = 4.52190 6.52576 5.61396
#
# Compressibility (1/GPa) = 0.03504773
#
# Stress axis : x y z
#
# Youngs Moduli (GPa) = 87.64889 38.79945 73.37607
#
# Poissons Ratio (x) = 0.03035 0.57180
# Poissons Ratio (y) = 0.06857 -0.05088
# Poissons Ratio (z) = 0.68303 -0.02690
#
# Static dielectric constant tensor:
#      x y z
#    x 1.720490 0.000000 -0.014660 
#    y 0.000000 1.797860 0.000000 
#    z -0.014660 0.000000 1.729260 
# 
# From -- ./inp_files/275559.got.cif
#   From: 2010.05.17/outbox.cif.g08.bks.cpg/sg12_138_cif.got.tgz:275559.got - 2010.06.03 13:09:07.
