data_PCOD9193004
_publ_section_title
;
Structure prediction by ZEFSAII (Michael W. Deem and Ramdas Pophale) SiO2 
 PCOD9193004
Probable space group: C 2/M
;
_chemical_formula_sum "Si O2"
_cell_formula_units_Z 64
_cell_length_a 8.514393
_cell_length_b 11.116401
_cell_length_c 32.470686
_cell_angle_alpha 90.000000
_cell_angle_beta 92.693871
_cell_angle_gamma 90.000000
_cell_volume 3069.934857
_symmetry_space_group_name_H-M "C 2/M"
_symmetry_group_IT_number 12
_symmetry_cell_setting 'monoclinic'
loop_
_space_group_symop_operation_xyz
x,y,z
-x,y,-z
-x,-y,-z
x,-y,z
1/2+x,1/2+y,z
1/2-x,1/2+y,-z
1/2-x,1/2-y,-z
1/2+x,1/2-y,z
loop_
_atom_site_type_symbol
_atom_site_label
_atom_site_fract_x
_atom_site_fract_y
_atom_site_fract_z
Si Si1 0.489457 0.782976 0.085647
Si Si2 0.237683 0.863866 0.969158
Si Si3 0.456141 0.368694 0.348675
Si Si4 0.244634 0.299279 0.598741
Si Si5 0.915239 0.137014 0.741619
Si Si6 0.591829 0.136055 0.775817
Si Si7 0.217744 0.867512 0.136938
Si Si8 0.050476 0.364574 0.456417
O O1 0.606829 0.854009 0.057337
O O2 0.413922 0.670141 0.060301
O O3 0.344504 0.857577 0.101636
O O4 0.590251 0.732752 0.125013
O O5 0.226342 0.000000 0.985959
O O6 0.250000 0.750000 0.000000
O O7 0.379522 0.500000 0.348842
O O8 0.607335 0.367738 0.380503
O O9 0.335574 0.272429 0.364701
O O10 0.519103 0.348039 0.303519
O O11 0.318568 0.209869 0.565865
O O12 0.103813 0.366885 0.574314
O O13 0.980331 0.249822 0.768259
O O14 0.726730 0.140703 0.742450
O O15 0.959658 0.000000 0.756317
O O16 0.688464 0.147821 0.819552
O O17 0.520717 0.000000 0.774332
O O18 0.145014 0.000000 0.136606
O O19 0.107718 0.500000 0.464473
O O20 0.000000 0.312149 0.500000
#
# Coordination Sequence:
#
# PCOD9193004 Si02
#       8
#     8   8   8   8   8   8   8   8
#     4  10  22  38  59  84 113 146 187 229 274 326
#     4  11  24  40  60  86 115 149 188 230 277 329
#     4  10  20  35  54  76 105 140 178 220 265 316
#     4  10  20  34  53  76 102 135 176 217 264 317
#     4  10  21  37  56  81 113 147 184 227 274 325
#     4  10  21  37  58  85 114 146 185 227 274 328
#     4  10  20  37  59  82 112 147 183 227 275 324
#     4  10  20  34  52  75 103 134 170 215 266 319
#
# _framework density 20.847348
#
# number of rings (size 3 to 8) (size 9 to 14) (size 15 to 20)
#    0.000    1.875    0.000    3.750    0.000    4.500 
#    0.000    6.250    0.000    6.000    0.000    0.000 
#    0.000    0.000    0.000    0.000    0.000    0.000 
#
# Total GULP energy -178596.469541 kJ/mol
# GULP energy per Si atom -5581.139673 kJ/mol
# Density = 2.079990 g / cm^3
# Si number density = 20.847348 Si / 1000 Ang^3
#
#
#
# Elastic Constant Matrix: (Units=GPa)
#
#
# Indices 1 2 3 4 5 6 
#
# 1 46.2335 19.6084 -10.8956 0.0000 -7.4572 0.0000
# 2 19.6084 113.5915 22.1614 0.0000 1.0786 0.0000
# 3 -10.8956 22.1614 54.1754 0.0000 -8.6355 0.0000
# 4 0.0000 0.0000 0.0000 4.5584 0.0000 -5.8524
# 5 -7.4572 1.0786 -8.6355 0.0000 30.2299 0.0000
# 6 0.0000 0.0000 0.0000 -5.8524 0.0000 -27.4746
#
#
#
# Elastic Compliance Matrix: (Units=1/GPa)
#
#
# Indices 1 2 3 4 5 6 
#
# 1 0.028710 -0.007064 0.010302 0.000000 0.010277 0.000000
# 2 -0.007064 0.011373 -0.006721 0.000000 -0.004068 0.000000
# 3 0.010302 -0.006721 0.024855 0.000000 0.009881 0.000000
# 4 0.000000 0.000000 0.000000 0.172265 0.000000 -0.036695
# 5 0.010277 -0.004068 0.009881 0.000000 0.038583 0.000000
# 6 0.000000 0.000000 0.000000 -0.036695 0.000000 -0.028581
#
#
# Mechanical properties :
#
#
# Convention : Reuss Voigt Hill
#
# Bulk Modulus (GPa) = 17.24966 30.63877 23.94421
# Shear Modulus (GPa) = 18.28187 13.67115 15.97651
#
# Velocity S-wave (km/s) = 2.96453 2.56359 2.77132
# Velocity P-wave (km/s) = 4.47327 4.84678 4.66376
#
# Compressibility (1/GPa) = 0.05797217
#
# Stress axis : x y z
#
# Youngs Moduli (GPa) = 34.83050 87.92963 40.23341
#
# Poissons Ratio (x) = 0.62109 -0.41448
# Poissons Ratio (y) = 0.24603 0.27042
# Poissons Ratio (z) = -0.35882 0.59100
#
# Static dielectric constant tensor:
#      x y z
#    x 1.715400 0.000000 0.001350 
#    y 0.000000 1.746150 0.000000 
#    z 0.001350 0.000000 1.762430 
# 
# From -- ./inp_files/372176.got.cif
#   From: 2010.05.17/outbox.cif.g08.bks.cpg/sg12_187_cif.got.tgz:372176.got - 2010.06.03 13:09:07.
