data_PCOD9193053
_publ_section_title
;
Structure prediction by ZEFSAII (Michael W. Deem and Ramdas Pophale) SiO2 
 PCOD9193053
Probable space group: C 2/M
;
_chemical_formula_sum "Si O2"
_cell_formula_units_Z 48
_cell_length_a 18.038199
_cell_length_b 9.216831
_cell_length_c 15.914132
_cell_angle_alpha 90.000000
_cell_angle_beta 90.805521
_cell_angle_gamma 90.000000
_cell_volume 2645.543046
_symmetry_space_group_name_H-M "C 2/M"
_symmetry_group_IT_number 12
_symmetry_cell_setting 'monoclinic'
loop_
_space_group_symop_operation_xyz
x,y,z
-x,y,-z
-x,-y,-z
x,-y,z
1/2+x,1/2+y,z
1/2-x,1/2+y,-z
1/2-x,1/2-y,-z
1/2+x,1/2-y,z
loop_
_atom_site_type_symbol
_atom_site_label
_atom_site_fract_x
_atom_site_fract_y
_atom_site_fract_z
Si Si1 0.578656 0.830156 0.834027
Si Si2 0.909417 0.666316 0.498465
Si Si3 0.672044 0.829437 0.005765
Si Si4 0.078465 0.825242 0.148774
Si Si5 0.091188 0.832808 0.668437
Si Si6 0.089710 0.166114 0.336729
O O1 0.503578 0.742805 0.853004
O O2 0.612574 0.759609 0.750517
O O3 0.561480 0.000000 0.818336
O O4 0.631034 0.819662 0.915440
O O5 0.886689 0.500000 0.488762
O O6 0.884517 0.760839 0.418478
O O7 0.885207 0.732377 0.587141
O O8 0.000000 0.669644 0.500000
O O9 0.624511 0.748563 0.075965
O O10 0.679949 0.000000 0.026325
O O11 0.750000 0.750000 0.000000
O O12 0.111747 0.793749 0.242204
O O13 0.074816 0.000000 0.140080
O O14 0.000656 0.831099 0.665725
O O15 0.114209 0.000000 0.675625
O O16 0.111723 0.000000 0.353954
#
# Coordination Sequence:
#
# PCOD9193053 Si02
#       6
#     8   8   8   8   8   8
#     4  10  20  34  52  76 104 133 169 212 255 299
#     4   9  15  22  36  61  94 130 163 199 243 289
#     4  11  24  39  55  75 101 133 169 212 258 305
#     4  10  20  34  54  78 104 135 170 209 253 302
#     4   9  16  26  42  65  95 131 166 202 246 295
#     4   8  15  26  40  63  95 129 163 199 241 290
#
# _framework density 18.143723000000001
#
# number of rings (size 3 to 8) (size 9 to 14) (size 15 to 20)
#    0.000    2.500    0.000    4.000    0.000   11.333 
#    0.000    0.000    0.000    0.000    0.000    1.167 
#    0.000    0.000    0.000    0.000    0.000    0.000 
#
# Total GULP energy -133857.879061 kJ/mol
# GULP energy per Si atom -5577.411628 kJ/mol
# Density = 1.810243 g / cm^3
# Si number density = 18.143723 Si / 1000 Ang^3
#
#
#
# Elastic Constant Matrix: (Units=GPa)
#
#
# Indices 1 2 3 4 5 6 
#
# 1 26.3359 33.8307 26.3791 0.0000 3.1624 0.0000
# 2 33.8307 157.3162 102.4628 0.0000 2.4671 0.0000
# 3 26.3791 102.4628 138.7485 0.0000 5.5894 0.0000
# 4 0.0000 0.0000 0.0000 40.5608 0.0000 0.3704
# 5 3.1624 2.4671 5.5894 0.0000 -6.3356 0.0000
# 6 0.0000 0.0000 0.0000 0.3704 0.0000 9.4861
#
#
#
# Elastic Compliance Matrix: (Units=1/GPa)
#
#
# Indices 1 2 3 4 5 6 
#
# 1 0.050849 -0.008562 -0.004088 0.000000 0.018442 0.000000
# 2 -0.008562 0.013626 -0.008186 0.000000 -0.006189 0.000000
# 3 -0.004088 -0.008186 0.013751 0.000000 0.006904 0.000000
# 4 0.000000 0.000000 0.000000 0.024663 0.000000 -0.000963
# 5 0.018442 -0.006189 0.006904 0.000000 -0.144953 0.000000
# 6 0.000000 0.000000 0.000000 -0.000963 0.000000 0.105455
#
#
# Mechanical properties :
#
#
# Convention : Reuss Voigt Hill
#
# Bulk Modulus (GPa) = 27.35492 71.97175 49.66333
# Shear Modulus (GPa) = 42.64479 19.39082 31.01780
#
# Velocity S-wave (km/s) = 4.85334 3.27270 4.13917
# Velocity P-wave (km/s) = 6.82027 7.35081 7.09050
#
# Compressibility (1/GPa) = 0.03655650
#
# Stress axis : x y z
#
# Youngs Moduli (GPa) = 19.66593 73.38704 72.72070
#
# Poissons Ratio (x) = 0.62834 0.29725
# Poissons Ratio (y) = 0.16838 0.59527
# Poissons Ratio (z) = 0.08039 0.60072
#
# Static dielectric constant tensor:
#      x y z
#    x 1.595950 0.000000 -0.004450 
#    y 0.000000 1.607020 0.000000 
#    z -0.004450 0.000000 1.630310 
# 
# From -- ./inp_files/229311.got.cif
#   From: 2010.05.17/outbox.cif.g08.bks.cpg/sg12_115_cif.got.tgz:229311.got - 2010.06.03 13:09:07.
