data_PCOD9193629
_publ_section_title
;
Structure prediction by ZEFSAII (Michael W. Deem and Ramdas Pophale) SiO2 
 PCOD9193629
Probable space group: C 2/M
;
_chemical_formula_sum "Si O2"
_cell_formula_units_Z 56
_cell_length_a 7.395878
_cell_length_b 33.523598
_cell_length_c 16.595443
_cell_angle_alpha 90.000000
_cell_angle_beta 142.930242
_cell_angle_gamma 90.000000
_cell_volume 2480.236151
_symmetry_space_group_name_H-M "C 2/M"
_symmetry_group_IT_number 12
_symmetry_cell_setting 'monoclinic'
loop_
_space_group_symop_operation_xyz
x,y,z
-x,y,-z
-x,-y,-z
x,-y,z
1/2+x,1/2+y,z
1/2-x,1/2+y,-z
1/2-x,1/2-y,-z
1/2+x,1/2-y,z
loop_
_atom_site_type_symbol
_atom_site_label
_atom_site_fract_x
_atom_site_fract_y
_atom_site_fract_z
Si Si1 0.166959 0.204317 0.974447
Si Si2 0.631582 0.000000 0.679680
Si Si3 0.313221 0.156570 0.266298
Si Si4 0.518366 0.500000 0.370047
Si Si5 0.820058 0.203035 0.519443
Si Si6 0.982686 0.071313 0.131090
Si Si7 0.673393 0.841066 0.225450
Si Si8 0.134000 0.569330 0.172246
O O1 0.452379 0.175948 0.079674
O O2 0.250000 0.250000 0.000000
O O3 0.000000 0.198360 0.000000
O O4 0.940226 0.190369 0.826402
O O5 0.756422 0.038151 0.773365
O O6 0.277935 0.000000 0.530753
O O7 0.797249 0.000000 0.650097
O O8 0.546063 0.171696 0.415994
O O9 0.498283 0.158840 0.248415
O O10 0.143102 0.114125 0.202053
O O11 0.292761 0.537683 0.287247
O O12 0.750000 0.250000 0.500000
O O13 0.000000 0.198954 0.500000
O O14 0.044991 0.187788 0.667281
O O15 0.782255 0.061631 0.138139
O O16 0.730108 0.069888 0.969789
O O17 0.741575 0.886708 0.233707
#
# Coordination Sequence:
#
# PCOD9193629 Si02
#       8
#     8   4   8   4   8   8   8   8
#     4  10  20  34  54  77 106 141 179 222 267 316
#     4   9  19  35  56  83 114 144 177 222 272 320
#     4  10  21  37  55  79 112 147 180 222 276 326
#     4   9  19  35  56  83 114 144 177 222 272 320
#     4  10  22  38  56  79 110 147 185 228 277 326
#     4  10  20  35  57  84 111 143 183 225 269 321
#     4  10  21  37  55  79 112 147 180 222 276 326
#     4  10  20  35  57  84 111 143 183 225 269 321
#
# _framework density 22.578495
#
# number of rings (size 3 to 8) (size 9 to 14) (size 15 to 20)
#    0.000    2.143    1.429    1.286    2.000    4.000 
#    0.000    0.714    0.000    2.571    0.000    0.000 
#    0.000    0.000    0.000    0.000    0.000    0.000 
#
# Total GULP energy -156297.849252 kJ/mol
# GULP energy per Si atom -5582.066045 kJ/mol
# Density = 2.252711 g / cm^3
# Si number density = 22.578495 Si / 1000 Ang^3
#
#
#
# Elastic Constant Matrix: (Units=GPa)
#
#
# Indices 1 2 3 4 5 6 
#
# 1 53.3296 -7.4674 28.1847 0.0000 9.6249 0.0000
# 2 -7.4674 171.7340 75.5419 0.0000 21.9039 0.0000
# 3 28.1847 75.5419 159.7069 0.0000 25.3398 0.0000
# 4 0.0000 0.0000 0.0000 53.2651 0.0000 62.1820
# 5 9.6249 21.9039 25.3398 0.0000 20.6885 0.0000
# 6 0.0000 0.0000 0.0000 62.1820 0.0000 232.1337
#
#
#
# Elastic Compliance Matrix: (Units=1/GPa)
#
#
# Indices 1 2 3 4 5 6 
#
# 1 0.023593 0.004328 -0.004645 0.000000 -0.009869 0.000000
# 2 0.004328 0.008480 -0.003762 0.000000 -0.006384 0.000000
# 3 -0.004645 -0.003762 0.009788 0.000000 -0.005845 0.000000
# 4 0.000000 0.000000 0.000000 0.027316 0.000000 -0.007317
# 5 -0.009869 -0.006384 -0.005845 0.000000 0.066845 0.000000
# 6 0.000000 0.000000 0.000000 -0.007317 0.000000 0.006268
#
#
# Mechanical properties :
#
#
# Convention : Reuss Voigt Hill
#
# Bulk Modulus (GPa) = 29.67062 64.14320 46.90691
# Shear Modulus (GPa) = 30.92464 80.45154 55.68809
#
# Velocity S-wave (km/s) = 3.70489 5.97572 4.97170
# Velocity P-wave (km/s) = 5.60993 8.72256 7.33329
#
# Compressibility (1/GPa) = 0.03370337
#
# Stress axis : x y z
#
# Youngs Moduli (GPa) = 42.38487 117.92143 102.16623
#
# Poissons Ratio (x) = -0.51034 0.47455
# Poissons Ratio (y) = -0.18343 0.38435
# Poissons Ratio (z) = 0.19687 0.44362
#
# Static dielectric constant tensor:
#      x y z
#    x 1.971110 0.000000 0.032240 
#    y 0.000000 1.742490 0.000000 
#    z 0.032240 0.000000 1.831240 
# 
# From -- ./inp_files/303085.got.cif
#   From: 2010.05.17/outbox.cif.g08.bks.cpg/sg12_152_cif.got.tgz:303085.got - 2010.06.03 13:09:07.
