data_PCOD9193913
_publ_section_title
;
Structure prediction by ZEFSAII (Michael W. Deem and Ramdas Pophale) SiO2 
 PCOD9193913
Probable space group: C 2/M
;
_chemical_formula_sum "Si O2"
_cell_formula_units_Z 64
_cell_length_a 14.266804
_cell_length_b 9.224083
_cell_length_c 26.359635
_cell_angle_alpha 90.000000
_cell_angle_beta 86.153257
_cell_angle_gamma 90.000000
_cell_volume 3461.064955
_symmetry_space_group_name_H-M "C 2/M"
_symmetry_group_IT_number 12
_symmetry_cell_setting 'monoclinic'
loop_
_space_group_symop_operation_xyz
x,y,z
-x,y,-z
-x,-y,-z
x,-y,z
1/2+x,1/2+y,z
1/2-x,1/2+y,-z
1/2-x,1/2-y,-z
1/2+x,1/2-y,z
loop_
_atom_site_type_symbol
_atom_site_label
_atom_site_fract_x
_atom_site_fract_y
_atom_site_fract_z
Si Si1 0.404152 0.171761 0.122158
Si Si2 0.885259 0.671820 0.855938
Si Si3 0.649728 0.670590 0.404890
Si Si4 0.718630 0.328028 0.680833
Si Si5 0.247897 0.828808 0.214393
Si Si6 0.771016 0.828738 0.051804
Si Si7 0.928269 0.167960 0.393969
Si Si8 0.387168 0.834931 0.493425
O O1 0.509436 0.214761 0.133099
O O2 0.335239 0.192446 0.172675
O O3 0.360260 0.260035 0.077247
O O4 0.404086 0.000000 0.109752
O O5 0.885089 0.500000 0.843630
O O6 0.841403 0.760429 0.811090
O O7 0.816369 0.692675 0.906449
O O8 0.673101 0.500000 0.403446
O O9 0.710659 0.760167 0.362855
O O10 0.540041 0.686215 0.392929
O O11 0.656955 0.736178 0.461148
O O12 0.734087 0.500000 0.685394
O O13 0.731959 0.250052 0.733678
O O14 0.616110 0.304836 0.659353
O O15 0.235004 0.000000 0.222789
O O16 0.783620 0.000000 0.043664
O O17 0.750000 0.750000 0.000000
O O18 0.880056 0.268767 0.437766
O O19 0.908025 0.000000 0.408110
O O20 0.500000 0.835821 0.500000
O O21 0.353186 0.000000 0.497673
#
# Coordination Sequence:
#
# PCOD9193913 Si02
#       8
#     8   8   8   8   8   8   8   8
#     4   9  19  37  59  81 107 142 185 226 267 317
#     4   9  19  37  59  81 107 145 186 222 266 318
#     4  10  20  36  56  78 105 136 173 216 262 314
#     4  11  23  38  55  77 106 138 174 216 265 321
#     4  10  21  37  56  79 106 135 173 224 272 315
#     4  10  20  34  54  82 118 153 185 224 268 313
#     4   9  20  37  55  76 104 138 173 213 262 315
#     4   9  17  31  53  79 105 135 171 211 258 315
#
# _framework density 18.491419
#
# number of rings (size 3 to 8) (size 9 to 14) (size 15 to 20)
#    0.000    2.375    0.000    1.875    0.000    6.500 
#    0.000    5.000    0.000    0.000    0.000    0.000 
#    0.000    0.000    0.000    0.000    0.000    0.000 
#
# Total GULP energy -178711.832883 kJ/mol
# GULP energy per Si atom -5584.744778 kJ/mol
# Density = 1.844933 g / cm^3
# Si number density = 18.491419 Si / 1000 Ang^3
#
#
#
# Elastic Constant Matrix: (Units=GPa)
#
#
# Indices 1 2 3 4 5 6 
#
# 1 91.2736 44.5417 33.6765 0.0000 28.3095 0.0000
# 2 44.5417 91.5026 71.9731 0.0000 21.2084 0.0000
# 3 33.6765 71.9731 117.5628 0.0000 36.3525 0.0000
# 4 0.0000 0.0000 0.0000 38.5612 0.0000 0.7194
# 5 28.3095 21.2084 36.3525 0.0000 21.6527 0.0000
# 6 0.0000 0.0000 0.0000 0.7194 0.0000 22.9452
#
#
#
# Elastic Compliance Matrix: (Units=1/GPa)
#
#
# Indices 1 2 3 4 5 6 
#
# 1 0.027110 -0.014733 0.016121 0.000000 -0.048079 0.000000
# 2 -0.014733 0.029133 -0.022351 0.000000 0.028253 0.000000
# 3 0.016121 -0.022351 0.036018 0.000000 -0.059655 0.000000
# 4 0.000000 0.000000 0.000000 0.025948 0.000000 -0.000814
# 5 -0.048079 0.028253 -0.059655 0.000000 0.181526 0.000000
# 6 0.000000 0.000000 0.000000 -0.000814 0.000000 0.043608
#
#
# Mechanical properties :
#
#
# Convention : Reuss Voigt Hill
#
# Bulk Modulus (GPa) = 19.86725 66.74683 43.30704
# Shear Modulus (GPa) = 12.43633 26.64167 19.53900
#
# Velocity S-wave (km/s) = 2.59616 3.79985 3.25415
# Velocity P-wave (km/s) = 4.44456 7.44488 6.13108
#
# Compressibility (1/GPa) = 0.05033410
#
# Stress axis : x y z
#
# Youngs Moduli (GPa) = 36.88651 34.32550 27.76362
#
# Poissons Ratio (x) = 0.50572 -0.44757
# Poissons Ratio (y) = 0.54345 0.62056
# Poissons Ratio (z) = -0.59464 0.76722
#
# Static dielectric constant tensor:
#      x y z
#    x 1.653120 0.000000 0.011720 
#    y 0.000000 1.619590 0.000000 
#    z 0.011720 0.000000 1.595150 
# 
# From -- ./inp_files/338796.got.cif
#   From: 2010.05.17/outbox.cif.g08.bks.cpg/sg12_170_cif.got.tgz:338796.got - 2010.06.03 13:09:07.
