data_PCOD9193203
_publ_section_title
;
Structure prediction by ZEFSAII (Michael W. Deem and Ramdas Pophale) SiO2 
 PCOD9193203
Probable space group: C 2/M
;
_chemical_formula_sum "Si O2"
_cell_formula_units_Z 48
_cell_length_a 19.124657
_cell_length_b 21.921522
_cell_length_c 8.144759
_cell_angle_alpha 90.000000
_cell_angle_beta 134.664044
_cell_angle_gamma 90.000000
_cell_volume 2428.618102
_symmetry_space_group_name_H-M "C 2/M"
_symmetry_group_IT_number 12
_symmetry_cell_setting 'monoclinic'
loop_
_space_group_symop_operation_xyz
x,y,z
-x,y,-z
-x,-y,-z
x,-y,z
1/2+x,1/2+y,z
1/2-x,1/2+y,-z
1/2-x,1/2-y,-z
1/2+x,1/2-y,z
loop_
_atom_site_type_symbol
_atom_site_label
_atom_site_fract_x
_atom_site_fract_y
_atom_site_fract_z
Si Si1 0.046424 0.229312 0.396324
Si Si2 0.947435 0.432372 0.586818
Si Si3 0.642572 0.072860 0.111015
Si Si4 0.339041 0.713738 0.929330
Si Si5 0.674441 0.160600 0.474692
Si Si6 0.731160 0.335304 0.839788
O O1 0.101087 0.282880 0.386495
O O2 0.128871 0.179447 0.577896
O O3 0.000000 0.249361 0.500000
O O4 0.954806 0.207122 0.138167
O O5 0.911548 0.500000 0.566964
O O6 0.859587 0.385502 0.439464
O O7 0.000000 0.432972 0.500000
O O8 0.033381 0.416862 0.858571
O O9 0.659904 0.117248 0.294375
O O10 0.722423 0.098938 0.114226
O O11 0.652637 0.000000 0.155923
O O12 0.283630 0.686005 0.681550
O O13 0.308481 0.784570 0.899745
O O14 0.290807 0.681612 0.008872
#
# Coordination Sequence:
#
# PCOD9193203 Si02
#       6
#     8   8   8   8   8   8
#     4   9  18  33  56  83 109 138 177 227 274 316
#     4  10  20  34  53  75 101 139 182 218 256 308
#     4  11  23  37  53  77 112 147 177 214 261 320
#     4   9  18  33  57  83 105 135 176 226 275 318
#     4  11  20  32  53  80 113 141 170 213 269 325
#     4   9  18  35  56  79 107 140 180 223 269 316
#
# _framework density 19.764324999999999
#
# number of rings (size 3 to 8) (size 9 to 14) (size 15 to 20)
#    0.000    2.167    0.000    4.500    0.000    4.000 
#    0.000    3.333    0.000    7.500    0.000    0.000 
#    0.000    0.000    0.000    0.000    0.000    0.000 
#
# Total GULP energy -133945.149731 kJ/mol
# GULP energy per Si atom -5581.047905 kJ/mol
# Density = 1.971934 g / cm^3
# Si number density = 19.764325 Si / 1000 Ang^3
#
#
#
# Elastic Constant Matrix: (Units=GPa)
#
#
# Indices 1 2 3 4 5 6 
#
# 1 43.1808 32.0756 17.2675 0.0000 -1.1151 0.0000
# 2 32.0756 83.2641 50.1205 0.0000 0.6217 0.0000
# 3 17.2675 50.1205 112.9418 0.0000 8.2788 0.0000
# 4 0.0000 0.0000 0.0000 13.9374 0.0000 -15.6253
# 5 -1.1151 0.6217 8.2788 0.0000 26.8357 0.0000
# 6 0.0000 0.0000 0.0000 -15.6253 0.0000 8.2830
#
#
#
# Elastic Compliance Matrix: (Units=1/GPa)
#
#
# Indices 1 2 3 4 5 6 
#
# 1 0.032549 -0.012949 0.000664 0.000000 0.001448 0.000000
# 2 -0.012949 0.021635 -0.007720 0.000000 0.001342 0.000000
# 3 0.000664 -0.007720 0.012445 0.000000 -0.003633 0.000000
# 4 0.000000 0.000000 0.000000 -0.064356 0.000000 -0.121402
# 5 0.001448 0.001342 -0.003633 0.000000 0.038414 0.000000
# 6 0.000000 0.000000 0.000000 -0.121402 0.000000 -0.108288
#
#
# Mechanical properties :
#
#
# Convention : Reuss Voigt Hill
#
# Bulk Modulus (GPa) = 37.56693 48.70155 43.13424
# Shear Modulus (GPa) = -267.12989 19.13944 -123.99522
#
# Velocity S-wave (km/s) = -11.63834 3.11526 -7.92925
# Velocity P-wave (km/s) = 12.71034 6.13469 7.87141
#
# Compressibility (1/GPa) = 0.02661916
#
# Stress axis : x y z
#
# Youngs Moduli (GPa) = 30.72255 46.22078 80.35565
#
# Poissons Ratio (x) = 0.59853 -0.05336
# Poissons Ratio (y) = 0.39784 0.62032
# Poissons Ratio (z) = -0.02040 0.35681
#
# Static dielectric constant tensor:
#      x y z
#    x 1.795140 0.000000 -0.075510 
#    y 0.000000 1.680720 0.000000 
#    z -0.075510 0.000000 1.721760 
# 
# From -- ./inp_files/63603.got.cif
#   From: 2010.05.17/outbox.cif.g08.bks.cpg/sg12_32_cif.got.tgz:63603.got - 2010.06.03 13:09:07.
