data_PCOD9193617
_publ_section_title
;
Structure prediction by ZEFSAII (Michael W. Deem and Ramdas Pophale) SiO2 
 PCOD9193617
Probable space group: C 2/M
;
_chemical_formula_sum "Si O2"
_cell_formula_units_Z 56
_cell_length_a 18.595545
_cell_length_b 8.180951
_cell_length_c 19.473931
_cell_angle_alpha 90.000000
_cell_angle_beta 103.937506
_cell_angle_gamma 90.000000
_cell_volume 2875.333866
_symmetry_space_group_name_H-M "C 2/M"
_symmetry_group_IT_number 12
_symmetry_cell_setting 'monoclinic'
loop_
_space_group_symop_operation_xyz
x,y,z
-x,y,-z
-x,-y,-z
x,-y,z
1/2+x,1/2+y,z
1/2-x,1/2+y,-z
1/2-x,1/2-y,-z
1/2+x,1/2-y,z
loop_
_atom_site_type_symbol
_atom_site_label
_atom_site_fract_x
_atom_site_fract_y
_atom_site_fract_z
Si Si1 0.705721 0.803827 0.153357
Si Si2 0.832958 0.195210 0.998382
Si Si3 0.872035 0.197690 0.152679
Si Si4 0.509690 0.803122 0.708125
Si Si5 0.775609 0.195526 0.430751
Si Si6 0.655020 0.799667 0.291287
Si Si7 0.559707 0.802676 0.569775
O O1 0.790323 0.746042 0.159342
O O2 0.675128 0.744545 0.219039
O O3 0.709203 0.000000 0.156965
O O4 0.656162 0.759131 0.075925
O O5 0.881329 0.250122 0.075081
O O6 0.835472 0.000000 0.996410
O O7 0.750000 0.250000 0.000000
O O8 0.934735 0.256596 0.218373
O O9 0.871344 0.000000 0.153387
O O10 0.426491 0.745413 0.704606
O O11 0.539121 0.742458 0.641274
O O12 0.507005 0.000000 0.703860
O O13 0.750000 0.250000 0.500000
O O14 0.717168 0.253778 0.359830
O O15 0.857756 0.255279 0.432454
O O16 0.775551 0.000000 0.428802
O O17 0.655004 0.000000 0.290961
O O18 0.500000 0.744205 0.500000
O O19 0.555762 0.000000 0.569883
#
# Coordination Sequence:
#
# PCOD9193617 Si02
#       7
#     8   8   8   8   8   8   8
#     4   9  17  32  54  76 100 133 174 216 259 310
#     4   9  17  30  49  74 103 134 170 212 261 312
#     4   9  18  32  50  74 104 136 169 214 270 314
#     4  10  20  34  54  77 102 138 180 216 256 312
#     4  11  22  38  60  83 110 142 178 220 266 318
#     4   9  19  36  55  76 105 141 176 215 266 314
#     4  10  21  38  58  81 112 145 177 218 267 315
#
# _framework density 19.475999999999999
#
# number of rings (size 3 to 8) (size 9 to 14) (size 15 to 20)
#    0.000    2.429    0.000    3.429    0.000    7.143 
#    0.000    5.714    0.000    4.286    0.000    0.000 
#    0.000    0.000    0.000    0.000    0.000    0.000 
#
# Total GULP energy -156230.766595 kJ/mol
# GULP energy per Si atom -5579.670236 kJ/mol
# Density = 1.943167 g / cm^3
# Si number density = 19.476000 Si / 1000 Ang^3
#
#
#
# Elastic Constant Matrix: (Units=GPa)
#
#
# Indices 1 2 3 4 5 6 
#
# 1 146.9389 10.1373 116.1473 0.0000 -0.9895 0.0000
# 2 10.1373 5.6447 14.7536 0.0000 -0.7573 0.0000
# 3 116.1473 14.7536 236.7696 0.0000 -4.1256 0.0000
# 4 0.0000 0.0000 0.0000 27.8176 0.0000 2.5939
# 5 -0.9895 -0.7573 -4.1256 0.0000 33.1662 0.0000
# 6 0.0000 0.0000 0.0000 2.5939 0.0000 21.9544
#
#
#
# Elastic Compliance Matrix: (Units=1/GPa)
#
#
# Indices 1 2 3 4 5 6 
#
# 1 0.011347 -0.007012 -0.005137 0.000000 -0.000461 0.000000
# 2 -0.007012 0.216297 -0.009977 0.000000 0.003488 0.000000
# 3 -0.005137 -0.009977 0.007375 0.000000 0.000536 0.000000
# 4 0.000000 0.000000 0.000000 0.036349 0.000000 -0.004295
# 5 -0.000461 0.003488 0.000536 0.000000 0.030284 0.000000
# 6 0.000000 0.000000 0.000000 -0.004295 0.000000 0.046056
#
#
# Mechanical properties :
#
#
# Convention : Reuss Voigt Hill
#
# Bulk Modulus (GPa) = 5.24206 74.60329 39.92267
# Shear Modulus (GPa) = 10.97575 33.14199 22.05887
#
# Velocity S-wave (km/s) = 2.37650 4.12962 3.36909
# Velocity P-wave (km/s) = 3.19808 7.81836 5.97304
#
# Compressibility (1/GPa) = 0.19076484
#
# Stress axis : x y z
#
# Youngs Moduli (GPa) = 88.12868 4.62327 135.59886
#
# Poissons Ratio (x) = 0.03242 0.69662
# Poissons Ratio (y) = 0.61799 1.35290
# Poissons Ratio (z) = 0.45275 0.04613
#
# Static dielectric constant tensor:
#      x y z
#    x 1.663490 0.000000 -0.020150 
#    y 0.000000 1.698240 0.000000 
#    z -0.020150 0.000000 1.700610 
# 
# From -- ./inp_files/275295.got.cif
#   From: 2010.05.17/outbox.cif.g08.bks.cpg/sg12_138_cif.got.tgz:275295.got - 2010.06.03 13:09:07.
