data_PCOD9193226
_publ_section_title
;
Structure prediction by ZEFSAII (Michael W. Deem and Ramdas Pophale) SiO2 
 PCOD9193226
Probable space group: C 2/M
;
_chemical_formula_sum "Si O2"
_cell_formula_units_Z 48
_cell_length_a 14.410933
_cell_length_b 9.356686
_cell_length_c 19.649561
_cell_angle_alpha 90.000000
_cell_angle_beta 91.822948
_cell_angle_gamma 90.000000
_cell_volume 2648.177883
_symmetry_space_group_name_H-M "C 2/M"
_symmetry_group_IT_number 12
_symmetry_cell_setting 'monoclinic'
loop_
_space_group_symop_operation_xyz
x,y,z
-x,y,-z
-x,-y,-z
x,-y,z
1/2+x,1/2+y,z
1/2-x,1/2+y,-z
1/2-x,1/2-y,-z
1/2+x,1/2-y,z
loop_
_atom_site_type_symbol
_atom_site_label
_atom_site_fract_x
_atom_site_fract_y
_atom_site_fract_z
Si Si1 0.112418 0.163056 0.492498
Si Si2 0.581033 0.834242 0.360744
Si Si3 0.893951 0.671191 0.010334
Si Si4 0.234469 0.330235 0.261592
Si Si5 0.138426 0.668679 0.627796
Si Si6 0.760065 0.828878 0.105645
O O1 0.125267 0.234552 0.419509
O O2 0.152376 0.255997 0.555124
O O3 0.000000 0.162153 0.500000
O O4 0.145446 0.000000 0.495944
O O5 0.631706 0.810052 0.290399
O O6 0.470781 0.812253 0.356713
O O7 0.596518 0.000000 0.381005
O O8 0.891649 0.500000 0.021187
O O9 0.829742 0.703261 0.943205
O O10 0.846126 0.749630 0.072560
O O11 0.000000 0.713891 0.000000
O O12 0.255385 0.500000 0.266889
O O13 0.301996 0.243822 0.312652
O O14 0.244080 0.287351 0.183418
O O15 0.157499 0.500000 0.623874
O O16 0.774215 0.000000 0.103390
#
# Coordination Sequence:
#
# PCOD9193226 Si02
#       6
#     8   8   8   8   8   8
#     4   9  17  31  52  75 100 132 172 219 265 308
#     4   9  19  35  53  73 100 135 174 216 261 308
#     4   9  18  34  58  83 105 134 171 208 248 297
#     4  10  21  36  52  73 105 141 171 205 256 311
#     4  10  20  34  53  76 101 133 176 221 261 304
#     4   9  19  35  53  77 109 138 167 207 252 301
#
# _framework density 18.12567
#
# number of rings (size 3 to 8) (size 9 to 14) (size 15 to 20)
#    0.000    2.667    0.000    1.000    0.000    6.333 
#    0.000    3.333    0.000    0.000    0.000    0.000 
#    0.000    0.000    0.000    0.000    0.000    0.000 
#
# Total GULP energy -133944.760666 kJ/mol
# GULP energy per Si atom -5581.031694 kJ/mol
# Density = 1.808441 g / cm^3
# Si number density = 18.125670 Si / 1000 Ang^3
#
#
#
# Elastic Constant Matrix: (Units=GPa)
#
#
# Indices 1 2 3 4 5 6 
#
# 1 75.2207 26.7847 29.6368 0.0000 -16.2869 0.0000
# 2 26.7847 39.4985 34.4655 0.0000 -8.4991 0.0000
# 3 29.6368 34.4655 115.2075 0.0000 -21.7258 0.0000
# 4 0.0000 0.0000 0.0000 31.2219 0.0000 -1.5842
# 5 -16.2869 -8.4991 -21.7258 0.0000 19.9223 0.0000
# 6 0.0000 0.0000 0.0000 -1.5842 0.0000 10.6519
#
#
#
# Elastic Compliance Matrix: (Units=1/GPa)
#
#
# Indices 1 2 3 4 5 6 
#
# 1 0.019654 -0.011253 0.000548 0.000000 0.011865 0.000000
# 2 -0.011253 0.041003 -0.009829 0.000000 -0.002426 0.000000
# 3 0.000548 -0.009829 0.013562 0.000000 0.011045 0.000000
# 4 0.000000 0.000000 0.000000 0.032272 0.000000 0.004800
# 5 0.011865 -0.002426 0.011045 0.000000 0.070904 0.000000
# 6 0.000000 0.000000 0.000000 0.004800 0.000000 0.094594
#
#
# Mechanical properties :
#
#
# Convention : Reuss Voigt Hill
#
# Bulk Modulus (GPa) = 30.16507 45.74454 37.95481
# Shear Modulus (GPa) = 15.42689 21.62852 18.52771
#
# Velocity S-wave (km/s) = 2.92054 3.45810 3.20062
# Velocity P-wave (km/s) = 5.29632 6.42159 5.88591
#
# Compressibility (1/GPa) = 0.03315092
#
# Stress axis : x y z
#
# Youngs Moduli (GPa) = 50.87950 24.38846 73.73339
#
# Poissons Ratio (x) = 0.27444 -0.04040
# Poissons Ratio (y) = 0.57255 0.72474
# Poissons Ratio (z) = -0.02788 0.23972
#
# Static dielectric constant tensor:
#      x y z
#    x 1.638870 0.000000 -0.016700 
#    y 0.000000 1.609650 0.000000 
#    z -0.016700 0.000000 1.586720 
# 
# From -- ./inp_files/267640.got.cif
#   From: 2010.05.17/outbox.cif.g08.bks.cpg/sg12_134_cif.got.tgz:267640.got - 2010.06.03 13:09:07.
