data_PCOD9193815
_publ_section_title
;
Structure prediction by ZEFSAII (Michael W. Deem and Ramdas Pophale) SiO2 
 PCOD9193815
Probable space group: C 2/M
;
_chemical_formula_sum "Si O2"
_cell_formula_units_Z 50
_cell_length_a 9.248352
_cell_length_b 18.876279
_cell_length_c 17.169736
_cell_angle_alpha 90.000000
_cell_angle_beta 68.709613
_cell_angle_gamma 90.000000
_cell_volume 2792.831696
_symmetry_space_group_name_H-M "C 2/M"
_symmetry_group_IT_number 12
_symmetry_cell_setting 'monoclinic'
loop_
_space_group_symop_operation_xyz
x,y,z
-x,y,-z
-x,-y,-z
x,-y,z
1/2+x,1/2+y,z
1/2-x,1/2+y,-z
1/2-x,1/2-y,-z
1/2+x,1/2-y,z
loop_
_atom_site_type_symbol
_atom_site_label
_atom_site_fract_x
_atom_site_fract_y
_atom_site_fract_z
Si Si1 0.425165 0.583879 0.789986
Si Si2 0.522534 0.833952 0.761450
Si Si3 0.083728 0.585160 0.904095
Si Si4 0.841653 0.726849 0.558457
Si Si5 0.670848 0.621477 0.367442
Si Si6 0.197931 0.185960 0.738928
Si Si7 0.500000 0.500000 0.500000
O O1 0.448273 0.500000 0.790805
O O2 0.267193 0.603067 0.866442
O O3 0.391720 0.604033 0.706548
O O4 0.576686 0.625889 0.786050
O O5 0.510051 0.879141 0.842435
O O6 0.642150 0.873345 0.679195
O O7 0.358060 0.818123 0.754628
O O8 0.610835 0.760876 0.764518
O O9 0.072499 0.500000 0.898872
O O10 0.000000 0.606743 0.000000
O O11 0.750000 0.750000 0.500000
O O12 0.881604 0.799999 0.596043
O O13 0.743379 0.681249 0.638469
O O14 0.000000 0.691037 0.500000
O O15 0.608144 0.562413 0.437608
#
# Coordination Sequence:
#
# PCOD9193815 Si02
#       7
#     8   8   8   8   8   8   2
#     4  10  20  38  58  81 115 154 185 233 298 348
#     4  10  21  38  59  83 116 153 190 237 293 345
#     4   9  19  38  66  91 114 146 190 233 283 357
#     4  11  20  32  52  75 106 144 199 241 274 324
#     4  10  20  34  54  81 107 152 192 236 287 337
#     4  11  22  38  57  82 117 155 194 237 292 349
#     4  12  20  32  60  78 114 144 206 242 280 348
#
# _framework density 17.902978000000001
#
# number of rings (size 3 to 8) (size 9 to 14) (size 15 to 20)
#    0.000    1.760    1.600    5.760    1.120    0.640 
#    0.000    4.000    0.000    4.320    0.000    0.000 
#    0.000    0.000    0.000    0.000    0.000    0.000 
#
# Total GULP energy -139259.227073 kJ/mol
# GULP energy per Si atom -5570.369083 kJ/mol
# Density = 1.786223 g / cm^3
# Si number density = 17.902978 Si / 1000 Ang^3
#
#
#
# Elastic Constant Matrix: (Units=GPa)
#
#
# Indices 1 2 3 4 5 6 
#
# 1 141.3017 36.1563 58.0410 0.0000 -19.5586 0.0000
# 2 36.1563 62.4643 44.0107 0.0000 -19.0072 0.0000
# 3 58.0410 44.0107 127.1862 0.0000 -18.1794 0.0000
# 4 0.0000 0.0000 0.0000 25.4500 0.0000 -4.7807
# 5 -19.5586 -19.0072 -18.1794 0.0000 18.1342 0.0000
# 6 0.0000 0.0000 0.0000 -4.7807 0.0000 25.7277
#
#
#
# Elastic Compliance Matrix: (Units=1/GPa)
#
#
# Indices 1 2 3 4 5 6 
#
# 1 0.009490 -0.001766 -0.002943 0.000000 0.005434 0.000000
# 2 -0.001766 0.027483 -0.005672 0.000000 0.021215 0.000000
# 3 -0.002943 -0.005672 0.011515 0.000000 0.002425 0.000000
# 4 0.000000 0.000000 0.000000 0.040714 0.000000 0.007565
# 5 0.005434 0.021215 0.002425 0.000000 0.085673 0.000000
# 6 0.000000 0.000000 0.000000 0.007565 0.000000 0.040274
#
#
# Mechanical properties :
#
#
# Convention : Reuss Voigt Hill
#
# Bulk Modulus (GPa) = 36.06672 67.48536 51.77604
# Shear Modulus (GPa) = 20.39551 26.71200 23.55375
#
# Velocity S-wave (km/s) = 3.37890 3.86689 3.63110
# Velocity P-wave (km/s) = 5.95080 7.59697 6.82371
#
# Compressibility (1/GPa) = 0.02772639
#
# Stress axis : x y z
#
# Youngs Moduli (GPa) = 105.37484 36.38594 86.84621
#
# Poissons Ratio (x) = 0.06426 0.25558
# Poissons Ratio (y) = 0.18610 0.49256
# Poissons Ratio (z) = 0.31010 0.20637
#
# Static dielectric constant tensor:
#      x y z
#    x 1.618410 0.000000 -0.015520 
#    y 0.000000 1.611450 0.000000 
#    z -0.015520 0.000000 1.627960 
# 
# From -- ./inp_files/251732.got.cif
#   From: 2010.05.17/outbox.cif.g08.bks.cpg/sg12_126_cif.got.tgz:251732.got - 2010.06.03 13:09:07.
