data_PCOD9193642
_publ_section_title
;
Structure prediction by ZEFSAII (Michael W. Deem and Ramdas Pophale) SiO2 
 PCOD9193642
Probable space group: C 2/M
;
_chemical_formula_sum "Si O2"
_cell_formula_units_Z 48
_cell_length_a 18.005916
_cell_length_b 9.115679
_cell_length_c 17.770672
_cell_angle_alpha 90.000000
_cell_angle_beta 128.485876
_cell_angle_gamma 90.000000
_cell_volume 2283.166590
_symmetry_space_group_name_H-M "C 2/M"
_symmetry_group_IT_number 12
_symmetry_cell_setting 'monoclinic'
loop_
_space_group_symop_operation_xyz
x,y,z
-x,y,-z
-x,-y,-z
x,-y,z
1/2+x,1/2+y,z
1/2-x,1/2+y,-z
1/2-x,1/2-y,-z
1/2+x,1/2-y,z
loop_
_atom_site_type_symbol
_atom_site_label
_atom_site_fract_x
_atom_site_fract_y
_atom_site_fract_z
Si Si1 0.480304 0.326114 0.812151
Si Si2 0.104076 0.830943 0.607086
Si Si3 0.331647 0.175993 0.004102
Si Si4 0.491949 0.835272 0.324415
Si Si5 0.898526 0.331177 0.890874
Si Si6 0.194244 0.665838 0.531103
O O1 0.486198 0.500000 0.814516
O O2 0.574128 0.252554 0.905812
O O3 0.476556 0.260877 0.726665
O O4 0.400184 0.271962 0.819809
O O5 0.180171 0.755988 0.599376
O O6 0.000000 0.831839 0.500000
O O7 0.086355 0.742496 0.672875
O O8 0.129340 0.000000 0.637454
O O9 0.336422 0.000000 0.016566
O O10 0.250000 0.250000 0.000000
O O11 0.324382 0.203723 0.909960
O O12 0.586621 0.848118 0.433743
O O13 0.462829 0.000000 0.282879
O O14 0.888618 0.500000 0.860236
O O15 0.000000 0.322632 0.000000
O O16 0.232561 0.500000 0.566479
O O17 0.250000 0.750000 0.500000
#
# Coordination Sequence:
#
# PCOD9193642 Si02
#       6
#     8   8   8   8   8   8
#     4  11  21  33  53  79 105 135 172 213 256 304
#     4   9  17  31  52  76 102 133 170 210 253 307
#     4  10  20  35  55  78 105 136 172 213 257 306
#     4  10  20  35  54  76 104 137 172 211 255 304
#     4   8  16  32  52  73 100 135 170 206 251 304
#     4  10  20  34  54  78 104 136 173 213 258 306
#
# _framework density 21.023432
#
# number of rings (size 3 to 8) (size 9 to 14) (size 15 to 20)
#    0.000    2.333    0.000    4.500    0.000    7.667 
#    0.000    1.667    0.000    6.000    0.000    0.000 
#    0.000    0.000    0.000    0.000    0.000    0.000 
#
# Total GULP energy -133949.569305 kJ/mol
# GULP energy per Si atom -5581.232054 kJ/mol
# Density = 2.097558 g / cm^3
# Si number density = 21.023432 Si / 1000 Ang^3
#
#
#
# Elastic Constant Matrix: (Units=GPa)
#
#
# Indices 1 2 3 4 5 6 
#
# 1 138.1138 90.9681 21.5521 0.0000 -46.3684 0.0000
# 2 90.9681 185.6981 33.8396 0.0000 -44.2560 0.0000
# 3 21.5521 33.8396 37.5375 0.0000 -21.2486 0.0000
# 4 0.0000 0.0000 0.0000 22.4499 0.0000 -11.5701
# 5 -46.3684 -44.2560 -21.2486 0.0000 38.3192 0.0000
# 6 0.0000 0.0000 0.0000 -11.5701 0.0000 37.0729
#
#
#
# Elastic Compliance Matrix: (Units=1/GPa)
#
#
# Indices 1 2 3 4 5 6 
#
# 1 0.014328 -0.004249 0.003849 0.000000 0.014565 0.000000
# 2 -0.004249 0.008881 -0.003893 0.000000 0.002956 0.000000
# 3 0.003849 -0.003893 0.040855 0.000000 0.022816 0.000000
# 4 0.000000 0.000000 0.000000 0.053081 0.000000 0.016566
# 5 0.014565 0.002956 0.022816 0.000000 0.059786 0.000000
# 6 0.000000 0.000000 0.000000 0.016566 0.000000 0.032144
#
#
# Mechanical properties :
#
#
# Convention : Reuss Voigt Hill
#
# Bulk Modulus (GPa) = 18.02556 72.67433 45.34995
# Shear Modulus (GPa) = 21.17260 33.90106 27.53683
#
# Velocity S-wave (km/s) = 3.17692 4.02000 3.62306
# Velocity P-wave (km/s) = 4.69571 7.49603 6.25461
#
# Compressibility (1/GPa) = 0.05547678
#
# Stress axis : x y z
#
# Youngs Moduli (GPa) = 69.79182 112.60601 24.47689
#
# Poissons Ratio (x) = 0.47850 -0.09420
# Poissons Ratio (y) = 0.29657 0.09528
# Poissons Ratio (z) = -0.26860 0.43835
#
# Static dielectric constant tensor:
#      x y z
#    x 1.725290 0.000000 -0.031990 
#    y 0.000000 1.722690 0.000000 
#    z -0.031990 0.000000 1.760950 
# 
# From -- ./inp_files/274578.got.cif
#   From: 2010.05.17/outbox.cif.g08.bks.cpg/sg12_138_cif.got.tgz:274578.got - 2010.06.03 13:09:07.
