data_PCOD9193510
_publ_section_title
;
Structure prediction by ZEFSAII (Michael W. Deem and Ramdas Pophale) SiO2 
 PCOD9193510
Probable space group: C 2/M
;
_chemical_formula_sum "Si O2"
_cell_formula_units_Z 48
_cell_length_a 16.489857
_cell_length_b 7.872925
_cell_length_c 14.856813
_cell_angle_alpha 90.000000
_cell_angle_beta 103.290913
_cell_angle_gamma 90.000000
_cell_volume 1877.100862
_symmetry_space_group_name_H-M "C 2/M"
_symmetry_group_IT_number 12
_symmetry_cell_setting 'monoclinic'
loop_
_space_group_symop_operation_xyz
x,y,z
-x,y,-z
-x,-y,-z
x,-y,z
1/2+x,1/2+y,z
1/2-x,1/2+y,-z
1/2-x,1/2-y,-z
1/2+x,1/2-y,z
loop_
_atom_site_type_symbol
_atom_site_label
_atom_site_fract_x
_atom_site_fract_y
_atom_site_fract_z
Si Si1 0.365052 0.697921 0.219957
Si Si2 0.441306 0.804358 0.063081
Si Si3 0.633629 0.292478 0.283349
Si Si4 0.443456 0.304091 0.562186
Si Si5 0.316874 0.298644 0.895035
Si Si6 0.182403 0.697845 0.603858
O O1 0.356518 0.500000 0.235238
O O2 0.432960 0.722632 0.158862
O O3 0.278178 0.765815 0.156591
O O4 0.373740 0.781986 0.319986
O O5 0.464267 0.000000 0.081269
O O6 0.500000 0.725892 0.000000
O O7 0.351025 0.793143 0.991373
O O8 0.630426 0.500000 0.282281
O O9 0.569661 0.230173 0.342370
O O10 0.629798 0.239103 0.178858
O O11 0.725960 0.245860 0.341865
O O12 0.500000 0.219355 0.500000
O O13 0.471972 0.500000 0.581086
O O14 0.354559 0.301174 0.488538
O O15 0.327764 0.500000 0.910372
O O16 0.185285 0.500000 0.580088
#
# Coordination Sequence:
#
# PCOD9193510 Si02
#       6
#     8   8   8   8   8   8
#     4  11  22  38  61  85 110 144 188 235 283 334
#     4  11  24  40  57  82 117 152 185 225 276 335
#     4   8  17  34  55  79 107 141 181 226 273 322
#     4  10  20  34  53  80 113 147 183 225 275 332
#     4  10  20  37  60  84 112 147 190 236 280 330
#     4  10  20  36  57  80 108 143 185 232 279 329
#
# _framework density 25.571349999999999
#
# number of rings (size 3 to 8) (size 9 to 14) (size 15 to 20)
#    0.000    2.000    0.000    5.000    0.000    3.000 
#    0.000    5.833    0.000    0.000    0.000    0.000 
#    0.000    0.000    0.000    0.000    0.000    0.000 
#
# Total GULP energy -134284.496058 kJ/mol
# GULP energy per Si atom -5595.187336 kJ/mol
# Density = 2.551315 g / cm^3
# Si number density = 25.571350 Si / 1000 Ang^3
#
#
#
# Elastic Constant Matrix: (Units=GPa)
#
#
# Indices 1 2 3 4 5 6 
#
# 1 63.5278 1.6237 37.8137 0.0000 -23.1752 0.0000
# 2 1.6237 71.5413 -4.2799 0.0000 -0.2998 0.0000
# 3 37.8137 -4.2799 170.5823 0.0000 -26.5245 0.0000
# 4 0.0000 0.0000 0.0000 18.4594 0.0000 -0.7099
# 5 -23.1752 -0.2998 -26.5245 0.0000 57.5894 0.0000
# 6 0.0000 0.0000 0.0000 -0.7099 0.0000 18.5997
#
#
#
# Elastic Compliance Matrix: (Units=1/GPa)
#
#
# Indices 1 2 3 4 5 6 
#
# 1 0.020211 -0.000640 -0.003481 0.000000 0.006526 0.000000
# 2 -0.000640 0.014023 0.000501 0.000000 0.000046 0.000000
# 3 -0.003481 0.000501 0.006925 0.000000 0.001791 0.000000
# 4 0.000000 0.000000 0.000000 0.054253 0.000000 0.002071
# 5 0.006526 0.000046 0.001791 0.000000 0.020816 0.000000
# 6 0.000000 0.000000 0.000000 0.002071 0.000000 0.053843
#
#
# Mechanical properties :
#
#
# Convention : Reuss Voigt Hill
#
# Bulk Modulus (GPa) = 29.48305 41.77408 35.62857
# Shear Modulus (GPa) = 26.50882 36.96262 31.73572
#
# Velocity S-wave (km/s) = 3.22322 3.80606 3.52670
# Velocity P-wave (km/s) = 5.04053 5.97382 5.52691
#
# Compressibility (1/GPa) = 0.03391779
#
# Stress axis : x y z
#
# Youngs Moduli (GPa) = 49.47907 71.31343 144.40240
#
# Poissons Ratio (x) = 0.04561 0.50272
# Poissons Ratio (y) = 0.03165 -0.07232
# Poissons Ratio (z) = 0.17226 -0.03571
#
# Static dielectric constant tensor:
#      x y z
#    x 2.152810 0.000000 -0.042230 
#    y 0.000000 1.895060 0.000000 
#    z -0.042230 0.000000 1.967650 
# 
# From -- ./inp_files/221550.got.cif
#   From: 2010.05.17/outbox.cif.g08.bks.cpg/sg12_111_cif.got.tgz:221550.got - 2010.06.03 13:09:07.
