data_PCOD9193152
_publ_section_title
;
Structure prediction by ZEFSAII (Michael W. Deem and Ramdas Pophale) SiO2 
 PCOD9193152
Probable space group: C 2/M
;
_chemical_formula_sum "Si O2"
_cell_formula_units_Z 64
_cell_length_a 32.656756
_cell_length_b 14.144413
_cell_length_c 12.954159
_cell_angle_alpha 90.000000
_cell_angle_beta 35.933935
_cell_angle_gamma 90.000000
_cell_volume 3511.525283
_symmetry_space_group_name_H-M "C 2/M"
_symmetry_group_IT_number 12
_symmetry_cell_setting 'monoclinic'
loop_
_space_group_symop_operation_xyz
x,y,z
-x,y,-z
-x,-y,-z
x,-y,z
1/2+x,1/2+y,z
1/2-x,1/2+y,-z
1/2-x,1/2-y,-z
1/2+x,1/2-y,z
loop_
_atom_site_type_symbol
_atom_site_label
_atom_site_fract_x
_atom_site_fract_y
_atom_site_fract_z
Si Si1 0.243076 0.223345 0.186502
Si Si2 0.181742 0.707857 0.766521
Si Si3 0.062066 0.387732 0.451189
Si Si4 0.275949 0.109916 0.924076
Si Si5 0.404916 0.226483 0.413086
Si Si6 0.451334 0.607367 0.195773
Si Si7 0.417121 0.890947 0.179736
Si Si8 0.802010 0.892644 0.389420
O O1 0.303886 0.199594 0.142562
O O2 0.252758 0.322460 0.107205
O O3 0.170360 0.234527 0.396334
O O4 0.242185 0.144576 0.099558
O O5 0.112608 0.665499 0.857513
O O6 0.189560 0.817381 0.719108
O O7 0.241180 0.648274 0.585317
O O8 0.054048 0.500000 0.487518
O O9 0.139863 0.373998 0.244936
O O10 0.063183 0.332321 0.557238
O O11 0.000000 0.359164 0.500000
O O12 0.263969 0.000000 0.928807
O O13 0.452517 0.314577 0.281675
O O14 0.395810 0.162046 0.329092
O O15 0.468993 0.500000 0.191775
O O16 0.372989 0.607788 0.310539
O O17 0.500000 0.633329 0.000000
O O18 0.392823 0.000000 0.230359
O O19 0.500000 0.891079 0.000000
O O20 0.788153 0.000000 0.384459
#
# Coordination Sequence:
#
# PCOD9193152 Si02
#       8
#     8   8   8   8   8   8   8   8
#     4  10  21  35  55  84 108 143 193 231 279 340
#     4  11  20  35  55  82 116 149 189 235 282 340
#     4   9  19  36  59  86 111 144 189 231 285 352
#     4   9  20  38  57  80 114 144 179 240 292 334
#     4  11  19  36  59  79 111 153 189 231 283 335
#     4  10  20  35  55  79 110 149 194 235 276 332
#     4  11  24  38  54  85 123 155 187 227 283 352
#     4  10  20  34  52  79 113 150 191 232 275 333
#
# _framework density 18.225698999999999
#
# number of rings (size 3 to 8) (size 9 to 14) (size 15 to 20)
#    0.000    1.875    2.500    1.875    0.000    3.500 
#    0.000    2.500    0.000    0.375    0.000    0.000 
#    0.000    0.000    0.000    0.000    0.000    0.000 
#
# Total GULP energy -178594.751533 kJ/mol
# GULP energy per Si atom -5581.085985 kJ/mol
# Density = 1.818422 g / cm^3
# Si number density = 18.225699 Si / 1000 Ang^3
#
#
#
# Elastic Constant Matrix: (Units=GPa)
#
#
# Indices 1 2 3 4 5 6 
#
# 1 97.2988 28.1097 27.6912 0.0000 6.3493 0.0000
# 2 28.1097 105.6400 35.1282 0.0000 10.8350 0.0000
# 3 27.6912 35.1282 59.4415 0.0000 10.1597 0.0000
# 4 0.0000 0.0000 0.0000 33.0427 0.0000 -9.2587
# 5 6.3493 10.8350 10.1597 0.0000 27.0215 0.0000
# 6 0.0000 0.0000 0.0000 -9.2587 0.0000 25.3404
#
#
#
# Elastic Compliance Matrix: (Units=1/GPa)
#
#
# Indices 1 2 3 4 5 6 
#
# 1 0.012086 -0.001646 -0.004579 0.000000 -0.000458 0.000000
# 2 -0.001646 0.012135 -0.006026 0.000000 -0.002213 0.000000
# 3 -0.004579 -0.006026 0.023426 0.000000 -0.005316 0.000000
# 4 0.000000 0.000000 0.000000 0.033716 0.000000 0.012319
# 5 -0.000458 -0.002213 -0.005316 0.000000 0.040001 0.000000
# 6 0.000000 0.000000 0.000000 0.012319 0.000000 0.043964
#
#
# Mechanical properties :
#
#
# Convention : Reuss Voigt Hill
#
# Bulk Modulus (GPa) = 43.20742 49.35983 46.28363
# Shear Modulus (GPa) = 25.31046 28.51101 26.91073
#
# Velocity S-wave (km/s) = 3.73060 3.95945 3.84673
# Velocity P-wave (km/s) = 6.50499 6.93140 6.72158
#
# Compressibility (1/GPa) = 0.02314417
#
# Stress axis : x y z
#
# Youngs Moduli (GPa) = 82.73764 82.40574 42.68690
#
# Poissons Ratio (x) = 0.13567 0.19548
# Poissons Ratio (y) = 0.13621 0.25724
# Poissons Ratio (z) = 0.37888 0.49660
#
# Static dielectric constant tensor:
#      x y z
#    x 1.620590 0.000000 -0.021580 
#    y 0.000000 1.639020 0.000000 
#    z -0.021580 0.000000 1.632040 
# 
# From -- ./inp_files/189451.got.cif
#   From: 2010.05.17/outbox.cif.g08.bks.cpg/sg12_95_cif.got.tgz:189451.got - 2010.06.03 13:09:07.
