data_PCOD9193392
_publ_section_title
;
Structure prediction by ZEFSAII (Michael W. Deem and Ramdas Pophale) SiO2 
 PCOD9193392
Probable space group: C 2/M
;
_chemical_formula_sum "Si O2"
_cell_formula_units_Z 64
_cell_length_a 33.998364
_cell_length_b 14.334562
_cell_length_c 13.898868
_cell_angle_alpha 90.000000
_cell_angle_beta 152.179964
_cell_angle_gamma 90.000000
_cell_volume 3161.228613
_symmetry_space_group_name_H-M "C 2/M"
_symmetry_group_IT_number 12
_symmetry_cell_setting 'monoclinic'
loop_
_space_group_symop_operation_xyz
x,y,z
-x,y,-z
-x,-y,-z
x,-y,z
1/2+x,1/2+y,z
1/2-x,1/2+y,-z
1/2-x,1/2-y,-z
1/2+x,1/2-y,z
loop_
_atom_site_type_symbol
_atom_site_label
_atom_site_fract_x
_atom_site_fract_y
_atom_site_fract_z
Si Si1 0.891403 0.394308 0.137192
Si Si2 0.884278 0.729902 0.626875
Si Si3 0.337141 0.788406 0.730887
Si Si4 0.745539 0.398829 0.673829
Si Si5 0.047833 0.229570 0.858054
Si Si6 0.385990 0.608313 0.166978
Si Si7 0.349984 0.768529 0.224548
Si Si8 0.813272 0.391912 0.317887
O O1 0.922140 0.500000 0.207318
O O2 0.881031 0.347155 0.217599
O O3 0.798987 0.393941 0.887430
O O4 0.944588 0.325930 0.185138
O O5 0.896093 0.709292 0.765376
O O6 0.819194 0.815109 0.472244
O O7 0.841906 0.640040 0.485070
O O8 0.966925 0.762826 0.749784
O O9 0.250000 0.750000 0.500000
O O10 0.312751 0.883481 0.732903
O O11 0.374885 0.726121 0.898637
O O12 0.704988 0.500000 0.578142
O O13 0.058439 0.150547 0.799840
O O14 0.403419 0.500000 0.223491
O O15 0.287791 0.616561 0.918806
O O16 0.392268 0.673540 0.275894
O O17 0.358259 0.815535 0.346255
O O18 0.250000 0.750000 0.000000
O O19 0.835147 0.500000 0.344718
#
# Coordination Sequence:
#
# PCOD9193392 Si02
#       8
#     8   8   8   8   8   8   8   8
#     4   9  17  32  53  74  99 134 175 218 262 309
#     4  11  21  34  52  76 111 142 174 216 267 323
#     4   9  18  35  56  75 100 136 178 221 262 308
#     4   9  18  33  54  78 102 133 175 219 264 314
#     4  10  20  34  53  78 108 140 173 215 267 322
#     4   9  18  34  56  80 107 140 179 221 266 317
#     4   9  16  30  53  80 106 131 175 226 268 309
#     4  10  20  34  54  80 107 139 181 226 269 315
#
# _framework density 20.245293
#
# number of rings (size 3 to 8) (size 9 to 14) (size 15 to 20)
#    0.000    2.500    0.000    4.500    0.000    2.000 
#    0.000    6.875    0.000   12.000    0.000    0.000 
#    0.000    0.000    0.000    0.000    0.000    0.000 
#
# Total GULP energy -178400.177461 kJ/mol
# GULP energy per Si atom -5575.005546 kJ/mol
# Density = 2.019921 g / cm^3
# Si number density = 20.245293 Si / 1000 Ang^3
#
#
#
# Elastic Constant Matrix: (Units=GPa)
#
#
# Indices 1 2 3 4 5 6 
#
# 1 110.4934 31.5049 6.8871 0.0000 1.8660 0.0000
# 2 31.5049 116.8228 6.6166 0.0000 -2.7824 0.0000
# 3 6.8871 6.6166 38.3082 0.0000 3.5954 0.0000
# 4 0.0000 0.0000 0.0000 10.1299 0.0000 -4.2767
# 5 1.8660 -2.7824 3.5954 0.0000 29.5497 0.0000
# 6 0.0000 0.0000 0.0000 -4.2767 0.0000 5.4307
#
#
#
# Elastic Compliance Matrix: (Units=1/GPa)
#
#
# Indices 1 2 3 4 5 6 
#
# 1 0.009886 -0.002612 -0.001259 0.000000 -0.000717 0.000000
# 2 -0.002612 0.009364 -0.001260 0.000000 0.001200 0.000000
# 3 -0.001259 -0.001260 0.026858 0.000000 -0.003307 0.000000
# 4 0.000000 0.000000 0.000000 0.147883 0.000000 0.116457
# 5 -0.000717 0.001200 -0.003307 0.000000 0.034402 0.000000
# 6 0.000000 0.000000 0.000000 0.116457 0.000000 0.275847
#
#
# Mechanical properties :
#
#
# Convention : Reuss Voigt Hill
#
# Bulk Modulus (GPa) = 27.89694 39.51572 33.70633
# Shear Modulus (GPa) = 9.49755 23.72978 16.61367
#
# Velocity S-wave (km/s) = 2.16828 3.42733 2.86775
# Velocity P-wave (km/s) = 4.48084 5.93489 5.25837
#
# Compressibility (1/GPa) = 0.03584623
#
# Stress axis : x y z
#
# Youngs Moduli (GPa) = 101.15758 106.78873 37.23217
#
# Poissons Ratio (x) = 0.27890 0.04687
# Poissons Ratio (y) = 0.26420 0.04693
# Poissons Ratio (z) = 0.12734 0.13461
#
# Static dielectric constant tensor:
#      x y z
#    x 1.764280 0.000000 0.014890 
#    y 0.000000 1.691900 0.000000 
#    z 0.014890 0.000000 1.740440 
# 
# From -- ./inp_files/183831.got.cif
#   From: 2010.05.17/outbox.cif.g08.bks.cpg/sg12_92_cif.got.tgz:183831.got - 2010.06.03 13:09:07.
