data_PCOD9193236
_publ_section_title
;
Structure prediction by ZEFSAII (Michael W. Deem and Ramdas Pophale) SiO2 
 PCOD9193236
Probable space group: C 2/M
;
_chemical_formula_sum "Si O2"
_cell_formula_units_Z 64
_cell_length_a 8.783375
_cell_length_b 20.755086
_cell_length_c 24.257392
_cell_angle_alpha 90.000000
_cell_angle_beta 57.102731
_cell_angle_gamma 90.000000
_cell_volume 3713.010393
_symmetry_space_group_name_H-M "C 2/M"
_symmetry_group_IT_number 12
_symmetry_cell_setting 'monoclinic'
loop_
_space_group_symop_operation_xyz
x,y,z
-x,y,-z
-x,-y,-z
x,-y,z
1/2+x,1/2+y,z
1/2-x,1/2+y,-z
1/2-x,1/2-y,-z
1/2+x,1/2-y,z
loop_
_atom_site_type_symbol
_atom_site_label
_atom_site_fract_x
_atom_site_fract_y
_atom_site_fract_z
Si Si1 0.440502 0.680321 0.327847
Si Si2 0.202360 0.425944 0.576139
Si Si3 0.802264 0.819519 0.176083
Si Si4 0.173276 0.573963 0.928593
Si Si5 0.540945 0.573963 0.928593
Si Si6 0.169487 0.180481 0.176083
Si Si7 0.075959 0.319679 0.327847
Si Si8 0.930777 0.925944 0.423861
O O1 0.599604 0.667502 0.251850
O O2 0.253581 0.683309 0.330946
O O3 0.480896 0.750000 0.346069
O O4 0.429793 0.624956 0.375277
O O5 0.136288 0.500000 0.591404
O O6 0.275180 0.413363 0.500000
O O7 0.379027 0.421733 0.580649
O O8 0.055623 0.375044 0.624723
O O9 0.826015 0.875643 0.126775
O O10 0.763901 0.750000 0.157399
O O11 0.644846 0.832498 0.251850
O O12 0.989238 0.816134 0.173841
O O13 0.151638 0.500000 0.913299
O O14 0.352066 0.575878 0.931956
O O15 0.206341 0.624357 0.873225
O O16 0.000000 0.590317 0.000000
O O17 0.608463 0.500000 0.913300
O O18 0.500000 0.590318 0.000000
O O19 0.910502 0.000000 0.408596
#
# Coordination Sequence:
#
# PCOD9193236 Si02
#       8
#     8   8   8   8   8   8   8   8
#     4  10  20  34  53  76 102 133 169 208 250 297
#     4   9  19  36  55  75 102 134 166 204 251 299
#     4   9  19  34  51  72  99 130 162 201 246 290
#     4   9  18  33  51  71  97 128 162 200 242 288
#     4   9  18  33  51  71  97 128 162 200 242 288
#     4   9  19  34  51  72  99 130 162 201 246 290
#     4  10  20  34  53  76 102 133 169 208 250 297
#     4   9  19  36  55  75 102 134 166 204 251 299
#
# _framework density 17.236685999999999
#
# number of rings (size 3 to 8) (size 9 to 14) (size 15 to 20)
#    0.000    2.750    0.000    1.500    0.000    5.000 
#    0.000    6.250    0.000    3.000    0.000    0.000 
#    0.000    0.000    0.000    0.000    0.000    0.000 
#
# Total GULP energy -178460.477502 kJ/mol
# GULP energy per Si atom -5576.889922 kJ/mol
# Density = 1.719745 g / cm^3
# Si number density = 17.236686 Si / 1000 Ang^3
#
#
#
# Elastic Constant Matrix: (Units=GPa)
#
#
# Indices 1 2 3 4 5 6 
#
# 1 18.9572 43.2561 36.5843 0.0000 3.6768 0.0000
# 2 43.2561 168.4086 130.0873 0.0000 4.2723 0.0000
# 3 36.5843 130.0873 121.4250 0.0000 1.3647 0.0000
# 4 0.0000 0.0000 0.0000 43.7896 0.0000 0.6386
# 5 3.6768 4.2723 1.3647 0.0000 28.4360 0.0000
# 6 0.0000 0.0000 0.0000 0.6386 0.0000 30.8096
#
#
#
# Elastic Compliance Matrix: (Units=1/GPa)
#
#
# Indices 1 2 3 4 5 6 
#
# 1 0.141374 -0.018378 -0.022744 0.000000 -0.014427 0.000000
# 2 -0.018378 0.037156 -0.034252 0.000000 -0.001562 0.000000
# 3 -0.022744 -0.034252 0.051720 0.000000 0.005605 0.000000
# 4 0.000000 0.000000 0.000000 0.022843 0.000000 -0.000474
# 5 -0.014427 -0.001562 0.005605 0.000000 0.036998 0.000000
# 6 0.000000 0.000000 0.000000 -0.000474 0.000000 0.032467
#
#
# Mechanical properties :
#
#
# Convention : Reuss Voigt Hill
#
# Bulk Modulus (GPa) = 12.57806 80.96069 46.76938
# Shear Modulus (GPa) = 10.00386 27.19791 18.60089
#
# Velocity S-wave (km/s) = 2.41173 3.97660 3.28860
# Velocity P-wave (km/s) = 3.88179 8.25569 6.45076
#
# Compressibility (1/GPa) = 0.07950349
#
# Stress axis : x y z
#
# Youngs Moduli (GPa) = 7.07342 26.91372 19.33472
#
# Poissons Ratio (x) = 0.49461 0.43975
# Poissons Ratio (y) = 0.12999 0.66225
# Poissons Ratio (z) = 0.16088 0.92184
#
# Static dielectric constant tensor:
#      x y z
#    x 1.582710 0.000000 -0.000650 
#    y 0.000000 1.562220 0.000000 
#    z -0.000650 0.000000 1.569470 
# 
# From -- ./inp_files/333714.got.cif
#   From: 2010.05.17/outbox.cif.g08.bks.cpg/sg12_167_cif.got.tgz:333714.got - 2010.06.03 13:09:07.
