data_PCOD9193897
_publ_section_title
;
Structure prediction by ZEFSAII (Michael W. Deem and Ramdas Pophale) SiO2 
 PCOD9193897
Probable space group: C 2/M
;
_chemical_formula_sum "Si O2"
_cell_formula_units_Z 56
_cell_length_a 14.735382
_cell_length_b 9.057215
_cell_length_c 26.598486
_cell_angle_alpha 90.000000
_cell_angle_beta 64.644639
_cell_angle_gamma 90.000000
_cell_volume 3207.912206
_symmetry_space_group_name_H-M "C 2/M"
_symmetry_group_IT_number 12
_symmetry_cell_setting 'monoclinic'
loop_
_space_group_symop_operation_xyz
x,y,z
-x,y,-z
-x,-y,-z
x,-y,z
1/2+x,1/2+y,z
1/2-x,1/2+y,-z
1/2-x,1/2-y,-z
1/2+x,1/2-y,z
loop_
_atom_site_type_symbol
_atom_site_label
_atom_site_fract_x
_atom_site_fract_y
_atom_site_fract_z
Si Si1 0.782865 0.823881 0.940391
Si Si2 0.723728 0.673249 0.558535
Si Si3 0.930792 0.673700 0.564199
Si Si4 0.506427 0.323319 0.645235
Si Si5 0.075178 0.676138 0.234833
Si Si6 0.496249 0.323142 0.153984
Si Si7 0.704384 0.677153 0.859257
O O1 0.900868 0.793591 0.901104
O O2 0.719689 0.757715 0.908815
O O3 0.769924 0.000000 0.945619
O O4 0.750000 0.750000 0.000000
O O5 0.710728 0.500000 0.550565
O O6 0.750000 0.750000 0.500000
O O7 0.816989 0.689391 0.573457
O O8 0.621534 0.725488 0.608494
O O9 0.951466 0.500000 0.570231
O O10 0.000000 0.715092 0.500000
O O11 0.951763 0.771061 0.607599
O O12 0.502833 0.500000 0.651664
O O13 0.459953 0.248008 0.705077
O O14 0.063497 0.500000 0.239275
O O15 0.011716 0.742124 0.203385
O O16 0.193017 0.708223 0.195859
O O17 0.490938 0.500000 0.163961
O O18 0.396090 0.279823 0.147220
O O19 0.699844 0.500000 0.868747
#
# Coordination Sequence:
#
# PCOD9193897 Si02
#       7
#     8   8   8   8   8   8   8
#     4  10  20  34  54  82 116 150 184 225 269 318
#     4  10  21  36  55  78 104 136 171 211 261 316
#     4  10  20  36  57  78 103 136 173 215 262 315
#     4  11  23  37  55  80 110 141 175 218 268 326
#     4  10  21  37  57  80 107 139 179 227 273 319
#     4   9  19  37  59  80 107 145 185 226 272 318
#     4   9  19  37  59  80 106 144 186 228 272 318
#
# _framework density 17.456837
#
# number of rings (size 3 to 8) (size 9 to 14) (size 15 to 20)
#    0.000    2.143    1.429    1.286    0.000    4.857 
#    0.000    8.571    0.000    0.000    0.000    0.000 
#    0.000    0.000    0.000    0.000    0.000    0.000 
#
# Total GULP energy -156265.646485 kJ/mol
# GULP energy per Si atom -5580.915946 kJ/mol
# Density = 1.741710 g / cm^3
# Si number density = 17.456837 Si / 1000 Ang^3
#
#
#
# Elastic Constant Matrix: (Units=GPa)
#
#
# Indices 1 2 3 4 5 6 
#
# 1 115.5409 51.0758 66.6145 0.0000 10.7900 0.0000
# 2 51.0758 49.6163 68.8097 0.0000 6.5033 0.0000
# 3 66.6145 68.8097 158.6956 0.0000 16.3029 0.0000
# 4 0.0000 0.0000 0.0000 36.5361 0.0000 6.5465
# 5 10.7900 6.5033 16.3029 0.0000 13.9949 0.0000
# 6 0.0000 0.0000 0.0000 6.5465 0.0000 29.4838
#
#
#
# Elastic Compliance Matrix: (Units=1/GPa)
#
#
# Indices 1 2 3 4 5 6 
#
# 1 0.016400 -0.018574 0.001797 0.000000 -0.006106 0.000000
# 2 -0.018574 0.071656 -0.024223 0.000000 0.009240 0.000000
# 3 0.001797 -0.024223 0.017080 0.000000 -0.010026 0.000000
# 4 0.000000 0.000000 0.000000 0.028504 0.000000 -0.006329
# 5 -0.006106 0.009240 -0.010026 0.000000 0.083549 0.000000
# 6 0.000000 0.000000 0.000000 -0.006329 0.000000 0.035322
#
#
# Mechanical properties :
#
#
# Convention : Reuss Voigt Hill
#
# Bulk Modulus (GPa) = 43.22049 77.42808 60.32428
# Shear Modulus (GPa) = 14.61036 25.15983 19.88509
#
# Velocity S-wave (km/s) = 2.89613 3.80051 3.37872
# Velocity P-wave (km/s) = 5.99964 7.98178 7.06061
#
# Compressibility (1/GPa) = 0.02313718
#
# Stress axis : x y z
#
# Youngs Moduli (GPa) = 60.97555 13.95548 58.54827
#
# Poissons Ratio (x) = 0.25921 -0.10519
# Poissons Ratio (y) = 1.13255 1.41819
# Poissons Ratio (z) = -0.10956 0.33804
#
# Static dielectric constant tensor:
#      x y z
#    x 1.585150 0.000000 -0.022040 
#    y 0.000000 1.589000 0.000000 
#    z -0.022040 0.000000 1.562060 
# 
# From -- ./inp_files/338174.got.cif
#   From: 2010.05.17/outbox.cif.g08.bks.cpg/sg12_170_cif.got.tgz:338174.got - 2010.06.03 13:09:07.
