data_PCOD9193122
_publ_section_title
;
Structure prediction by ZEFSAII (Michael W. Deem and Ramdas Pophale) SiO2 
 PCOD9193122
Probable space group: C 2/M
;
_chemical_formula_sum "Si O2"
_cell_formula_units_Z 36
_cell_length_a 8.690225
_cell_length_b 11.068209
_cell_length_c 19.784461
_cell_angle_alpha 90.000000
_cell_angle_beta 67.840613
_cell_angle_gamma 90.000000
_cell_volume 1762.415819
_symmetry_space_group_name_H-M "C 2/M"
_symmetry_group_IT_number 12
_symmetry_cell_setting 'monoclinic'
loop_
_space_group_symop_operation_xyz
x,y,z
-x,y,-z
-x,-y,-z
x,-y,z
1/2+x,1/2+y,z
1/2-x,1/2+y,-z
1/2-x,1/2-y,-z
1/2+x,1/2-y,z
loop_
_atom_site_type_symbol
_atom_site_label
_atom_site_fract_x
_atom_site_fract_y
_atom_site_fract_z
Si Si1 0.802078 0.862544 0.944035
Si Si2 0.000000 0.705963 0.500000
Si Si3 0.572057 0.138412 0.250150
Si Si4 0.804366 0.636415 0.402855
Si Si5 0.111965 0.275816 0.846086
O O1 0.687180 0.848458 0.896599
O O2 0.991682 0.831091 0.892474
O O3 0.787350 0.000000 0.973207
O O4 0.750000 0.750000 0.000000
O O5 0.900942 0.636137 0.458377
O O6 0.860767 0.786368 0.560282
O O7 0.433679 0.183789 0.325671
O O8 0.735329 0.219047 0.220321
O O9 0.495977 0.145727 0.187527
O O10 0.611055 0.000000 0.261602
O O11 0.759627 0.500000 0.390691
#
# Coordination Sequence:
#
# PCOD9193122 Si02
#       5
#     8   4   8   8   8
#     4  11  24  40  60  86 115 148 187 231 281 337
#     4  10  20  34  52  78 112 142 180 226 272 322
#     4  10  20  36  57  80 108 144 184 226 274 327
#     4  10  20  34  54  79 108 144 183 224 272 324
#     4  10  22  38  58  82 112 144 184 230 278 328
#
# _framework density 20.426507999999998
#
# number of rings (size 3 to 8) (size 9 to 14) (size 15 to 20)
#    0.000    1.778    0.000    4.000    0.000    7.111 
#    0.000    0.000    0.000   21.333    0.000    0.000 
#    0.000    0.000    0.000    0.000    0.000    0.000 
#
# Total GULP energy -100508.345749 kJ/mol
# GULP energy per Si atom -5583.796986 kJ/mol
# Density = 2.038002 g / cm^3
# Si number density = 20.426508 Si / 1000 Ang^3
#
#
#
# Elastic Constant Matrix: (Units=GPa)
#
#
# Indices 1 2 3 4 5 6 
#
# 1 63.0621 18.4928 0.2946 0.0000 -10.0528 0.0000
# 2 18.4928 93.4160 25.4407 0.0000 -15.1509 0.0000
# 3 0.2946 25.4407 70.8615 0.0000 -18.4800 0.0000
# 4 0.0000 0.0000 0.0000 18.7722 0.0000 2.2506
# 5 -10.0528 -15.1509 -18.4800 0.0000 32.3867 0.0000
# 6 0.0000 0.0000 0.0000 2.2506 0.0000 -4.2989
#
#
#
# Elastic Compliance Matrix: (Units=1/GPa)
#
#
# Indices 1 2 3 4 5 6 
#
# 1 0.017674 -0.003313 0.002517 0.000000 0.005372 0.000000
# 2 -0.003313 0.012868 -0.003882 0.000000 0.002776 0.000000
# 3 0.002517 -0.003882 0.017887 0.000000 0.009172 0.000000
# 4 0.000000 0.000000 0.000000 0.050124 0.000000 0.026241
# 5 0.005372 0.002776 0.009172 0.000000 0.039077 0.000000
# 6 0.000000 0.000000 0.000000 0.026241 0.000000 -0.218878
#
#
# Mechanical properties :
#
#
# Convention : Reuss Voigt Hill
#
# Bulk Modulus (GPa) = 25.59315 35.08841 30.34078
# Shear Modulus (GPa) = -84.93646 21.57943 -31.67852
#
# Velocity S-wave (km/s) = -6.45537 3.25382 -3.94236
# Velocity P-wave (km/s) = 6.55788 5.59747 2.41600
#
# Compressibility (1/GPa) = 0.03907295
#
# Stress axis : x y z
#
# Youngs Moduli (GPa) = 56.58187 77.71120 55.90582
#
# Poissons Ratio (x) = 0.25744 -0.14071
# Poissons Ratio (y) = 0.18745 0.21703
# Poissons Ratio (z) = -0.14241 0.30168
#
# Static dielectric constant tensor:
#      x y z
#    x 1.703130 0.000000 -0.003130 
#    y 0.000000 1.705280 0.000000 
#    z -0.003130 0.000000 1.740700 
# 
# From -- ./inp_files/254396.got.cif
#   From: 2010.05.17/outbox.cif.g08.bks.cpg/sg12_128_cif.got.tgz:254396.got - 2010.06.03 13:09:07.
