data_PCOD9193349
_publ_section_title
;
Structure prediction by ZEFSAII (Michael W. Deem and Ramdas Pophale) SiO2 
 PCOD9193349
Probable space group: C 2/M
;
_chemical_formula_sum "Si O2"
_cell_formula_units_Z 56
_cell_length_a 22.519525
_cell_length_b 7.812241
_cell_length_c 14.273125
_cell_angle_alpha 90.000000
_cell_angle_beta 100.981433
_cell_angle_gamma 90.000000
_cell_volume 2465.061940
_symmetry_space_group_name_H-M "C 2/M"
_symmetry_group_IT_number 12
_symmetry_cell_setting 'monoclinic'
loop_
_space_group_symop_operation_xyz
x,y,z
-x,y,-z
-x,-y,-z
x,-y,z
1/2+x,1/2+y,z
1/2-x,1/2+y,-z
1/2-x,1/2-y,-z
1/2+x,1/2-y,z
loop_
_atom_site_type_symbol
_atom_site_label
_atom_site_fract_x
_atom_site_fract_y
_atom_site_fract_z
Si Si1 0.132714 0.793776 0.101703
Si Si2 0.734643 0.797551 0.889478
Si Si3 0.043088 0.699928 0.929242
Si Si4 0.342521 0.300972 0.295501
Si Si5 0.470423 0.299798 0.287770
Si Si6 0.402241 0.705331 0.710092
Si Si7 0.766964 0.296155 0.610627
O O1 0.202275 0.751558 0.142220
O O2 0.096606 0.731462 0.181819
O O3 0.128523 0.000000 0.092443
O O4 0.108368 0.716667 0.998262
O O5 0.680955 0.707611 0.818578
O O6 0.724381 0.000000 0.880167
O O7 0.750000 0.750000 0.000000
O O8 0.029431 0.500000 0.911370
O O9 0.038613 0.788229 0.827772
O O10 0.000000 0.770360 0.000000
O O11 0.347864 0.500000 0.324671
O O12 0.410053 0.223747 0.316999
O O13 0.287685 0.224683 0.340462
O O14 0.471438 0.500000 0.314376
O O15 0.537992 0.228017 0.324807
O O16 0.408731 0.500000 0.716936
O O17 0.335487 0.737590 0.651171
O O18 0.767657 0.500000 0.623691
O O19 0.750000 0.250000 0.500000
#
# Coordination Sequence:
#
# PCOD9193349 Si02
#       7
#     8   8   8   8   8   8   8
#     4  10  20  34  53  77 108 153 204 246 287 340
#     4  11  22  35  53  80 117 159 202 246 293 348
#     4  11  22  32  47  78 120 162 205 249 291 342
#     4  10  22  40  61  89 120 154 198 249 300 352
#     4  10  21  38  60  84 117 160 202 244 294 350
#     4  10  20  38  63  88 114 150 197 243 291 351
#     4  11  24  43  69  95 121 151 192 247 306 368
#
# _framework density 22.717480999999999
#
# number of rings (size 3 to 8) (size 9 to 14) (size 15 to 20)
#    0.000    1.571    2.857    2.143    0.000    7.429 
#    0.000    0.714    0.000    4.286    0.000    0.000 
#    0.000    0.000    0.000    0.000    0.000    0.000 
#
# Total GULP energy -156334.519277 kJ/mol
# GULP energy per Si atom -5583.375688 kJ/mol
# Density = 2.266578 g / cm^3
# Si number density = 22.717481 Si / 1000 Ang^3
#
#
#
# Elastic Constant Matrix: (Units=GPa)
#
#
# Indices 1 2 3 4 5 6 
#
# 1 206.9657 13.0275 46.9675 0.0000 9.9248 0.0000
# 2 13.0275 33.2922 -16.5290 0.0000 1.0190 0.0000
# 3 46.9675 -16.5290 68.6871 0.0000 5.7116 0.0000
# 4 0.0000 0.0000 0.0000 18.9256 0.0000 6.3861
# 5 9.9248 1.0190 5.7116 0.0000 23.0470 0.0000
# 6 0.0000 0.0000 0.0000 6.3861 0.0000 20.9499
#
#
#
# Elastic Compliance Matrix: (Units=1/GPa)
#
#
# Indices 1 2 3 4 5 6 
#
# 1 0.006496 -0.005296 -0.005619 0.000000 -0.001171 0.000000
# 2 -0.005296 0.038728 0.013165 0.000000 -0.002694 0.000000
# 3 -0.005619 0.013165 0.021867 0.000000 -0.003581 0.000000
# 4 0.000000 0.000000 0.000000 0.058896 0.000000 -0.017953
# 5 -0.001171 -0.002694 -0.003581 0.000000 0.044900 0.000000
# 6 0.000000 0.000000 0.000000 -0.017953 0.000000 0.053205
#
#
# Mechanical properties :
#
#
# Convention : Reuss Voigt Hill
#
# Bulk Modulus (GPa) = 13.96822 43.98633 28.97728
# Shear Modulus (GPa) = 20.53739 30.28311 25.41025
#
# Velocity S-wave (km/s) = 3.00998 3.65503 3.34808
# Velocity P-wave (km/s) = 4.27106 6.10055 5.26587
#
# Compressibility (1/GPa) = 0.07159106
#
# Stress axis : x y z
#
# Youngs Moduli (GPa) = 153.93039 25.82095 45.73082
#
# Poissons Ratio (x) = 0.13675 0.25698
# Poissons Ratio (y) = 0.81524 -0.60205
# Poissons Ratio (z) = 0.86498 -0.33994
#
# Static dielectric constant tensor:
#      x y z
#    x 1.991350 0.000000 -0.019750 
#    y 0.000000 1.831560 0.000000 
#    z -0.019750 0.000000 1.805300 
# 
# From -- ./inp_files/237813.got.cif
#   From: 2010.05.17/outbox.cif.g08.bks.cpg/sg12_119_cif.got.tgz:237813.got - 2010.06.03 13:09:07.
