data_PCOD9193856
_publ_section_title
;
Structure prediction by ZEFSAII (Michael W. Deem and Ramdas Pophale) SiO2 
 PCOD9193856
Probable space group: C 2/M
;
_chemical_formula_sum "Si O2"
_cell_formula_units_Z 64
_cell_length_a 9.509539
_cell_length_b 25.221152
_cell_length_c 28.485547
_cell_angle_alpha 90.000000
_cell_angle_beta 147.132489
_cell_angle_gamma 90.000000
_cell_volume 3707.723843
_symmetry_space_group_name_H-M "C 2/M"
_symmetry_group_IT_number 12
_symmetry_cell_setting 'monoclinic'
loop_
_space_group_symop_operation_xyz
x,y,z
-x,y,-z
-x,-y,-z
x,-y,z
1/2+x,1/2+y,z
1/2-x,1/2+y,-z
1/2-x,1/2-y,-z
1/2+x,1/2-y,z
loop_
_atom_site_type_symbol
_atom_site_label
_atom_site_fract_x
_atom_site_fract_y
_atom_site_fract_z
Si Si1 0.614231 0.435278 0.158338
Si Si2 0.739024 0.940390 0.410833
Si Si3 0.781650 0.936381 0.974983
Si Si4 0.295650 0.383415 0.719801
Si Si5 0.084377 0.187338 0.408754
Si Si6 0.728280 0.440262 0.787872
Si Si7 0.380990 0.796092 0.394498
Si Si8 0.310167 0.911528 0.706507
O O1 0.649667 0.500000 0.176544
O O2 0.573452 0.401680 0.194373
O O3 0.875969 0.410423 0.209165
O O4 0.385230 0.429246 0.056570
O O5 0.483345 0.910642 0.354203
O O6 0.755154 0.941994 0.359381
O O7 0.000000 0.912358 0.500000
O O8 0.729565 0.000000 0.427566
O O9 0.494095 0.916258 0.883428
O O10 0.765121 0.000000 0.961896
O O11 0.000000 0.916131 0.000000
O O12 0.476895 0.408403 0.731382
O O13 0.238986 0.324805 0.684872
O O14 0.351192 0.175591 0.512561
O O15 0.188166 0.201970 0.385365
O O16 0.958201 0.237141 0.400365
O O17 0.866920 0.141424 0.344762
O O18 0.699219 0.500000 0.798012
O O19 0.753336 0.439985 0.739124
#
# Coordination Sequence:
#
# PCOD9193856 Si02
#       8
#     8   8   8   8   8   8   8   8
#     4  10  20  34  54  81 112 147 184 215 254 321
#     4  10  21  35  50  71 106 151 187 212 251 318
#     4   9  17  31  51  77 109 145 183 218 258 311
#     4  11  21  35  52  80 110 138 177 225 272 313
#     4  10  22  38  57  79 103 134 178 228 278 321
#     4  11  20  32  53  80 114 146 174 221 267 311
#     4  10  22  39  56  78 105 134 175 230 278 321
#     4  11  19  33  54  79 103 140 183 219 264 316
#
# _framework density 17.261265000000002
#
# number of rings (size 3 to 8) (size 9 to 14) (size 15 to 20)
#    0.000    1.750    2.500    3.750    3.500    0.500 
#    0.000    1.875    0.000    3.000    0.000    5.250 
#    0.000    0.000    0.000    0.000    0.000    0.000 
#
# Total GULP energy -178153.492498 kJ/mol
# GULP energy per Si atom -5567.296641 kJ/mol
# Density = 1.722198 g / cm^3
# Si number density = 17.261265 Si / 1000 Ang^3
#
#
#
# Elastic Constant Matrix: (Units=GPa)
#
#
# Indices 1 2 3 4 5 6 
#
# 1 79.2156 11.6600 15.9534 0.0022 -0.3349 -0.0001
# 2 11.6600 50.7021 15.8721 0.0046 2.3193 -0.0011
# 3 15.9534 15.8721 79.7952 0.0121 -6.8582 0.0038
# 4 0.0022 0.0046 0.0121 3.6102 0.0000 10.0687
# 5 -0.3349 2.3193 -6.8582 0.0000 19.2609 0.0039
# 6 -0.0001 -0.0011 0.0038 10.0687 0.0039 -0.4431
#
#
#
# Elastic Compliance Matrix: (Units=1/GPa)
#
#
# Indices 1 2 3 4 5 6 
#
# 1 0.013422 -0.002374 -0.002235 0.000001 -0.000277 0.000001
# 2 -0.002374 0.021779 -0.004215 0.000005 -0.004165 -0.000006
# 3 -0.002235 -0.004215 0.014295 -0.000008 0.005559 -0.000012
# 4 0.000001 0.000005 -0.000008 0.004303 -0.000023 0.097775
# 5 -0.000277 -0.004165 0.005559 -0.000023 0.054395 0.000004
# 6 0.000001 -0.000006 -0.000012 0.097775 0.000004 -0.035058
#
#
# Mechanical properties :
#
#
# Convention : Reuss Voigt Hill
#
# Bulk Modulus (GPa) = 31.40002 32.96488 32.18245
# Shear Modulus (GPa) = 49.30908 15.56743 32.43826
#
# Velocity S-wave (km/s) = 5.35055 3.00637 4.33974
# Velocity P-wave (km/s) = 7.51010 5.58481 6.61785
#
# Compressibility (1/GPa) = 0.03184712
#
# Stress axis : x y z
#
# Youngs Moduli (GPa) = 74.50342 45.91542 69.95377
#
# Poissons Ratio (x) = 0.10902 0.15634
# Poissons Ratio (y) = 0.17690 0.29488
# Poissons Ratio (z) = 0.16651 0.19355
#
# Static dielectric constant tensor:
#      x y z
#    x 1.600070 0.000000 -0.018470 
#    y 0.000000 1.567120 0.000000 
#    z -0.018470 0.000000 1.621890 
# 
# From -- ./inp_files/302344.got.cif
#   From: 2010.05.17/outbox.cif.g08.bks.cpg/sg12_152_cif.got.tgz:302344.got - 2010.06.03 13:09:07.
