data_PCOD9193866
_publ_section_title
;
Structure prediction by ZEFSAII (Michael W. Deem and Ramdas Pophale) SiO2 
 PCOD9193866
Probable space group: C 2/M
;
_chemical_formula_sum "Si O2"
_cell_formula_units_Z 56
_cell_length_a 23.109835
_cell_length_b 8.957669
_cell_length_c 16.470690
_cell_angle_alpha 90.000000
_cell_angle_beta 118.954878
_cell_angle_gamma 90.000000
_cell_volume 2983.405702
_symmetry_space_group_name_H-M "C 2/M"
_symmetry_group_IT_number 12
_symmetry_cell_setting 'monoclinic'
loop_
_space_group_symop_operation_xyz
x,y,z
-x,y,-z
-x,-y,-z
x,-y,z
1/2+x,1/2+y,z
1/2-x,1/2+y,-z
1/2-x,1/2-y,-z
1/2+x,1/2-y,z
loop_
_atom_site_type_symbol
_atom_site_label
_atom_site_fract_x
_atom_site_fract_y
_atom_site_fract_z
Si Si1 0.203241 0.820907 0.206076
Si Si2 0.583768 0.178516 0.408146
Si Si3 0.300440 0.822766 0.970560
Si Si4 0.839210 0.678807 0.381806
Si Si5 0.420051 0.679629 0.769364
Si Si6 0.056849 0.176574 0.669697
Si Si7 0.071161 0.823310 0.871411
O O1 0.213880 0.738441 0.128779
O O2 0.263852 0.787019 0.307630
O O3 0.133937 0.778650 0.200545
O O4 0.202586 0.000000 0.191495
O O5 0.638584 0.219054 0.512234
O O6 0.596030 0.247647 0.328184
O O7 0.513077 0.241497 0.389979
O O8 0.579961 0.000000 0.399263
O O9 0.294082 0.000000 0.968862
O O10 0.250000 0.750000 0.000000
O O11 0.373752 0.770805 0.045810
O O12 0.848213 0.500000 0.379290
O O13 0.887821 0.758793 0.351671
O O14 0.418256 0.500000 0.757907
O O15 0.495779 0.717638 0.842747
O O16 0.076351 0.198234 0.777559
O O17 0.048119 0.000000 0.650867
O O18 0.081035 0.000000 0.894912
#
# Coordination Sequence:
#
# PCOD9193866 Si02
#       7
#     8   8   8   8   8   8   8
#     4  10  22  41  61  81 111 149 187 228 273 325
#     4  10  20  34  54  81 114 149 185 229 279 329
#     4  12  25  40  60  87 115 144 181 224 276 333
#     4  10  21  35  53  80 113 150 188 228 279 331
#     4   9  20  39  61  84 110 145 189 229 269 324
#     4  10  20  34  55  83 112 145 188 233 277 330
#     4   9  19  37  59  83 112 146 184 227 276 327
#
# _framework density 18.770495
#
# number of rings (size 3 to 8) (size 9 to 14) (size 15 to 20)
#    0.000    2.000    0.000    4.286    0.000   10.286 
#    0.000    2.857    0.000    0.000    0.000    0.000 
#    0.000    0.000    0.000    0.000    0.000    0.000 
#
# Total GULP energy -156443.610228 kJ/mol
# GULP energy per Si atom -5587.271794 kJ/mol
# Density = 1.872777 g / cm^3
# Si number density = 18.770495 Si / 1000 Ang^3
#
#
#
# Elastic Constant Matrix: (Units=GPa)
#
#
# Indices 1 2 3 4 5 6 
#
# 1 78.1690 20.3379 14.4313 0.0000 2.3873 0.0000
# 2 20.3379 34.5553 29.0110 0.0000 7.1101 0.0000
# 3 14.4313 29.0110 71.2513 0.0000 21.4862 0.0000
# 4 0.0000 0.0000 0.0000 29.6512 0.0000 -5.3978
# 5 2.3873 7.1101 21.4862 0.0000 12.3762 0.0000
# 6 0.0000 0.0000 0.0000 -5.3978 0.0000 24.5053
#
#
#
# Elastic Compliance Matrix: (Units=1/GPa)
#
#
# Indices 1 2 3 4 5 6 
#
# 1 0.015174 -0.009474 0.000054 0.000000 0.002423 0.000000
# 2 -0.009474 0.050783 -0.022061 0.000000 0.010952 0.000000
# 3 0.000054 -0.022061 0.040270 0.000000 -0.057249 0.000000
# 4 0.000000 0.000000 0.000000 0.035134 0.000000 0.007739
# 5 0.002423 0.010952 -0.057249 0.000000 0.173431 0.000000
# 6 0.000000 0.000000 0.000000 0.007739 0.000000 0.042512
#
#
# Mechanical properties :
#
#
# Convention : Reuss Voigt Hill
#
# Bulk Modulus (GPa) = 23.11392 34.61512 28.86452
# Shear Modulus (GPa) = 11.50247 21.31955 16.41101
#
# Velocity S-wave (km/s) = 2.47816 3.37382 2.96006
# Velocity P-wave (km/s) = 4.53090 5.80157 5.20515
#
# Compressibility (1/GPa) = 0.04326398
#
# Stress axis : x y z
#
# Youngs Moduli (GPa) = 65.90259 19.69159 24.83226
#
# Poissons Ratio (x) = 0.18656 -0.00133
# Poissons Ratio (y) = 0.62438 0.54782
# Poissons Ratio (z) = -0.00353 0.43441
#
# Static dielectric constant tensor:
#      x y z
#    x 1.627760 0.000000 0.009350 
#    y 0.000000 1.625340 0.000000 
#    z 0.009350 0.000000 1.645680 
# 
# From -- ./inp_files/288479.got.cif
#   From: 2010.05.17/outbox.cif.g08.bks.cpg/sg12_145_cif.got.tgz:288479.got - 2010.06.03 13:09:07.
