data_PCOD9193027
_publ_section_title
;
Structure prediction by ZEFSAII (Michael W. Deem and Ramdas Pophale) SiO2 
 PCOD9193027
Probable space group: C 2/M
;
_chemical_formula_sum "Si O2"
_cell_formula_units_Z 56
_cell_length_a 19.220840
_cell_length_b 8.962549
_cell_length_c 19.032984
_cell_angle_alpha 90.000000
_cell_angle_beta 116.956399
_cell_angle_gamma 90.000000
_cell_volume 2922.536258
_symmetry_space_group_name_H-M "C 2/M"
_symmetry_group_IT_number 12
_symmetry_cell_setting 'monoclinic'
loop_
_space_group_symop_operation_xyz
x,y,z
-x,y,-z
-x,-y,-z
x,-y,z
1/2+x,1/2+y,z
1/2-x,1/2+y,-z
1/2-x,1/2-y,-z
1/2+x,1/2-y,z
loop_
_atom_site_type_symbol
_atom_site_label
_atom_site_fract_x
_atom_site_fract_y
_atom_site_fract_z
Si Si1 0.085130 0.821418 0.751916
Si Si2 0.082167 0.325174 0.001399
Si Si3 0.318527 0.175758 0.318411
Si Si4 0.324710 0.323834 0.070590
Si Si5 0.229982 0.820563 0.416220
Si Si6 0.577178 0.176467 0.276274
Si Si7 0.172125 0.326993 0.183879
O O1 0.112759 0.763461 0.688882
O O2 0.151143 0.777177 0.839818
O O3 0.003710 0.751120 0.739140
O O4 0.079405 0.000000 0.749807
O O5 0.082402 0.500000 0.979978
O O6 0.145800 0.305965 0.092205
O O7 0.103297 0.222394 0.946123
O O8 0.000000 0.292943 0.000000
O O9 0.296791 0.214887 0.388744
O O10 0.239772 0.218786 0.240290
O O11 0.333366 0.000000 0.320796
O O12 0.312304 0.500000 0.065554
O O13 0.250000 0.250000 0.000000
O O14 0.250000 0.750000 0.500000
O O15 0.149284 0.751848 0.350295
O O16 0.223530 0.000000 0.417330
O O17 0.599231 0.192226 0.203780
O O18 0.574650 0.000000 0.290279
O O19 0.198801 0.500000 0.204226
#
# Coordination Sequence:
#
# PCOD9193027 Si02
#       7
#     8   8   8   8   8   8   8
#     4  11  23  38  55  79 113 149 188 234 281 331
#     4  10  20  34  52  75 104 139 182 232 282 331
#     4  10  21  36  57  83 109 141 181 223 267 321
#     4  11  24  38  53  76 108 148 192 238 286 333
#     4  10  21  39  63  91 120 147 179 220 267 325
#     4  10  20  36  60  86 113 148 186 227 278 332
#     4   9  18  33  53  77 105 140 183 228 276 331
#
# _framework density 19.161439000000001
#
# number of rings (size 3 to 8) (size 9 to 14) (size 15 to 20)
#    0.000    1.857    0.000    3.857    0.000   10.000 
#    0.000    0.714    0.000    4.286    0.000    0.000 
#    0.000    0.000    0.000    0.000    0.000    0.000 
#
# Total GULP energy -156434.217494 kJ/mol
# GULP energy per Si atom -5586.936339 kJ/mol
# Density = 1.911783 g / cm^3
# Si number density = 19.161439 Si / 1000 Ang^3
#
#
#
# Elastic Constant Matrix: (Units=GPa)
#
#
# Indices 1 2 3 4 5 6 
#
# 1 91.8353 40.2383 30.0368 0.0000 -17.4666 0.0000
# 2 40.2383 60.3561 40.1468 0.0000 -15.2775 0.0000
# 3 30.0368 40.1468 84.0779 0.0000 -21.9019 0.0000
# 4 0.0000 0.0000 0.0000 25.3941 0.0000 0.4830
# 5 -17.4666 -15.2775 -21.9019 0.0000 24.3628 0.0000
# 6 0.0000 0.0000 0.0000 0.4830 0.0000 36.9856
#
#
#
# Elastic Compliance Matrix: (Units=1/GPa)
#
#
# Indices 1 2 3 4 5 6 
#
# 1 0.016024 -0.009390 0.000284 0.000000 0.005856 0.000000
# 2 -0.009390 0.030539 -0.010437 0.000000 0.003036 0.000000
# 3 0.000284 -0.010437 0.019749 0.000000 0.011413 0.000000
# 4 0.000000 0.000000 0.000000 0.039389 0.000000 -0.000514
# 5 0.005856 0.003036 0.011413 0.000000 0.057408 0.000000
# 6 0.000000 0.000000 0.000000 -0.000514 0.000000 0.027044
#
#
# Mechanical properties :
#
#
# Convention : Reuss Voigt Hill
#
# Bulk Modulus (GPa) = 36.72807 50.79032 43.75920
# Shear Modulus (GPa) = 20.98073 25.73833 23.35953
#
# Velocity S-wave (km/s) = 3.31259 3.66899 3.49534
# Velocity P-wave (km/s) = 5.81724 6.67179 6.25911
#
# Compressibility (1/GPa) = 0.02722713
#
# Stress axis : x y z
#
# Youngs Moduli (GPa) = 62.40639 32.74486 50.63611
#
# Poissons Ratio (x) = 0.30747 -0.01440
# Poissons Ratio (y) = 0.58599 0.52849
# Poissons Ratio (z) = -0.01775 0.34176
#
# Static dielectric constant tensor:
#      x y z
#    x 1.689550 0.000000 -0.010230 
#    y 0.000000 1.639190 0.000000 
#    z -0.010230 0.000000 1.655430 
# 
# From -- ./inp_files/275566.got.cif
#   From: 2010.05.17/outbox.cif.g08.bks.cpg/sg12_138_cif.got.tgz:275566.got - 2010.06.03 13:09:07.
