data_PCOD9193846
_publ_section_title
;
Structure prediction by ZEFSAII (Michael W. Deem and Ramdas Pophale) SiO2 
 PCOD9193846
Probable space group: C 2/M
;
_chemical_formula_sum "Si O2"
_cell_formula_units_Z 40
_cell_length_a 21.064461
_cell_length_b 9.784259
_cell_length_c 30.668769
_cell_angle_alpha 90.000000
_cell_angle_beta 19.591944
_cell_angle_gamma 90.000000
_cell_volume 2119.497653
_symmetry_space_group_name_H-M "C 2/M"
_symmetry_group_IT_number 12
_symmetry_cell_setting 'monoclinic'
loop_
_space_group_symop_operation_xyz
x,y,z
-x,y,-z
-x,-y,-z
x,-y,z
1/2+x,1/2+y,z
1/2-x,1/2+y,-z
1/2-x,1/2-y,-z
1/2+x,1/2-y,z
loop_
_atom_site_type_symbol
_atom_site_label
_atom_site_fract_x
_atom_site_fract_y
_atom_site_fract_z
Si Si1 0.785256 0.163787 0.134823
Si Si2 0.095301 0.335375 0.572756
Si Si3 0.670347 0.347618 0.990754
Si Si4 0.032196 0.346347 0.818907
Si Si5 0.821931 0.344789 0.582620
O O1 0.614588 0.210482 0.275909
O O2 0.795649 0.000000 0.135149
O O3 0.737265 0.188033 0.115238
O O4 0.000000 0.217678 0.000000
O O5 0.113861 0.500000 0.569337
O O6 0.250000 0.250000 0.500000
O O7 0.121830 0.316185 0.503761
O O8 0.584725 0.500000 0.041949
O O9 0.515610 0.240604 0.107132
O O10 0.836300 0.354616 0.918736
O O11 0.096944 0.500000 0.786323
O O12 0.175015 0.263382 0.696355
O O13 0.742286 0.500000 0.635682
O O14 0.000000 0.341758 0.500000
#
# Coordination Sequence:
#
# PCOD9193846 Si02
#       5
#     8   8   8   8   8
#     4   9  18  32  56  84 108 140 186 235 277 324
#     4  10  21  38  60  87 116 151 193 235 286 343
#     4   9  18  33  55  80 108 143 183 227 273 333
#     4  10  20  34  54  81 111 145 184 227 281 337
#     4  10  22  37  57  84 113 148 192 237 279 332
#
# _framework density 18.872396999999999
#
# number of rings (size 3 to 8) (size 9 to 14) (size 15 to 20)
#    0.000    2.400    0.000    1.800    2.800    3.600 
#    0.000    1.000    0.000    1.200    0.000    0.000 
#    0.000    0.000    0.000    0.000    0.000    0.000 
#
# Total GULP energy -111473.348882 kJ/mol
# GULP energy per Si atom -5573.667444 kJ/mol
# Density = 1.882944 g / cm^3
# Si number density = 18.872397 Si / 1000 Ang^3
#
#
#
# Elastic Constant Matrix: (Units=GPa)
#
#
# Indices 1 2 3 4 5 6 
#
# 1 61.1256 36.6376 27.2681 0.0368 10.3587 -0.0186
# 2 36.6376 107.5212 75.0541 -0.0147 26.0388 -0.0002
# 3 27.2681 75.0541 133.9023 -0.0677 24.6135 0.0116
# 4 0.0368 -0.0147 -0.0677 24.9043 0.0098 6.1466
# 5 10.3587 26.0388 24.6135 0.0098 29.5241 -0.0036
# 6 -0.0186 -0.0002 0.0116 6.1466 -0.0036 -0.3342
#
#
#
# Elastic Compliance Matrix: (Units=1/GPa)
#
#
# Indices 1 2 3 4 5 6 
#
# 1 0.020607 -0.006494 -0.000331 0.000045 -0.001227 -0.000321
# 2 -0.006494 0.018865 -0.007809 -0.000007 -0.007850 0.000038
# 3 -0.000331 -0.007809 0.012548 -0.000017 -0.003458 0.000194
# 4 0.000045 -0.000007 -0.000017 0.007250 0.000018 0.133318
# 5 -0.001227 -0.007850 -0.003458 0.000018 0.044107 -0.000192
# 6 -0.000321 0.000038 0.000194 0.133318 -0.000192 -0.540164
#
#
# Mechanical properties :
#
#
# Convention : Reuss Voigt Hill
#
# Bulk Modulus (GPa) = 43.94947 64.49652 54.22299
# Shear Modulus (GPa) = -12.50202 21.72479 4.61138
#
# Velocity S-wave (km/s) = -2.57660 3.39653 1.56485
# Velocity P-wave (km/s) = 3.80610 7.04493 5.66205
#
# Compressibility (1/GPa) = 0.02275340
#
# Stress axis : x y z
#
# Youngs Moduli (GPa) = 48.52610 53.00815 79.69315
#
# Poissons Ratio (x) = 0.34421 0.02639
# Poissons Ratio (y) = 0.31511 0.62231
# Poissons Ratio (z) = 0.01607 0.41393
#
# Static dielectric constant tensor:
#      x y z
#    x 1.672370 0.000000 -0.015180 
#    y 0.000000 1.668360 0.000020 
#    z -0.015180 0.000020 1.656590 
# 
# From -- ./inp_files/280716.got.cif
#   From: 2010.05.17/outbox.cif.g08.bks.cpg/sg12_141_cif.got.tgz:280716.got - 2010.06.03 13:09:07.
