data_PCOD9193809
_publ_section_title
;
Structure prediction by ZEFSAII (Michael W. Deem and Ramdas Pophale) SiO2 
 PCOD9193809
Probable space group: C 2/M
;
_chemical_formula_sum "Si O2"
_cell_formula_units_Z 64
_cell_length_a 21.179521
_cell_length_b 23.303273
_cell_length_c 9.268696
_cell_angle_alpha 90.000000
_cell_angle_beta 50.710351
_cell_angle_gamma 90.000000
_cell_volume 3540.521155
_symmetry_space_group_name_H-M "C 2/M"
_symmetry_group_IT_number 12
_symmetry_cell_setting 'monoclinic'
loop_
_space_group_symop_operation_xyz
x,y,z
-x,y,-z
-x,-y,-z
x,-y,z
1/2+x,1/2+y,z
1/2-x,1/2+y,-z
1/2-x,1/2-y,-z
1/2+x,1/2-y,z
loop_
_atom_site_type_symbol
_atom_site_label
_atom_site_fract_x
_atom_site_fract_y
_atom_site_fract_z
Si Si1 0.461541 0.130345 0.259767
Si Si2 0.004967 0.760357 0.159358
Si Si3 0.877353 0.434122 0.971908
Si Si4 0.293039 0.567355 0.628770
Si Si5 0.077052 0.837645 0.481008
Si Si6 0.804045 0.567594 0.508870
Si Si7 0.653025 0.243672 0.156977
Si Si8 0.626414 0.117829 0.326871
O O1 0.462120 0.197807 0.231524
O O2 0.547280 0.104828 0.088278
O O3 0.448239 0.119913 0.451120
O O4 0.616764 0.095736 0.683153
O O5 0.095751 0.752582 0.097998
O O6 0.957382 0.804931 0.329184
O O7 0.000000 0.777792 0.000000
O O8 0.893124 0.500000 0.988766
O O9 0.875837 0.426502 0.800629
O O10 0.789139 0.418298 0.162392
O O11 0.311230 0.500000 0.628449
O O12 0.363589 0.610504 0.568670
O O13 0.270004 0.574074 0.493445
O O14 0.122142 0.790008 0.317871
O O15 0.000000 0.858430 0.500000
O O16 0.819031 0.500000 0.510712
O O17 0.801194 0.599994 0.666214
O O18 0.635951 0.180101 0.242689
O O19 0.750000 0.250000 0.000000
#
# Coordination Sequence:
#
# PCOD9193809 Si02
#       8
#     8   8   8   8   8   8   8   8
#     4  10  21  32  54  80 122 158 198 226 280 342
#     4  11  24  40  60  88 120 156 200 252 300 356
#     4  11  21  32  55  85 120 160 202 238 278 342
#     4  10  23  41  59  88 119 150 195 251 304 355
#     4  10  22  42  65  84 113 153 199 250 306 364
#     4   9  20  35  53  80 118 158 195 235 287 343
#     4  11  22  39  59  87 120 158 199 248 301 352
#     4  10  20  34  54  80 117 163 204 230 278 346
#
# _framework density 18.076433999999999
#
# number of rings (size 3 to 8) (size 9 to 14) (size 15 to 20)
#    0.750    1.000    2.500    1.875    1.750    1.750 
#    0.000    3.750    0.000    0.375    0.000    0.000 
#    0.000    0.000    0.000    0.000    0.000    0.000 
#
# Total GULP energy -178416.579651 kJ/mol
# GULP energy per Si atom -5575.518114 kJ/mol
# Density = 1.803529 g / cm^3
# Si number density = 18.076434 Si / 1000 Ang^3
#
#
#
# Elastic Constant Matrix: (Units=GPa)
#
#
# Indices 1 2 3 4 5 6 
#
# 1 113.5702 70.5328 54.1093 0.0000 0.0336 0.0000
# 2 70.5328 96.9020 24.4129 0.0000 -14.3098 0.0000
# 3 54.1093 24.4129 67.6509 0.0000 5.5764 0.0000
# 4 0.0000 0.0000 0.0000 18.3965 0.0000 -3.8236
# 5 0.0336 -14.3098 5.5764 0.0000 31.8572 0.0000
# 6 0.0000 0.0000 0.0000 -3.8236 0.0000 26.7561
#
#
#
# Elastic Compliance Matrix: (Units=1/GPa)
#
#
# Indices 1 2 3 4 5 6 
#
# 1 0.025082 -0.015346 -0.014158 0.000000 -0.004441 0.000000
# 2 -0.015346 0.021951 0.003591 0.000000 0.009248 0.000000
# 3 -0.014158 0.003591 0.025037 0.000000 -0.002755 0.000000
# 4 0.000000 0.000000 0.000000 0.056022 0.000000 0.008006
# 5 -0.004441 0.009248 -0.002755 0.000000 0.036031 0.000000
# 6 0.000000 0.000000 0.000000 0.008006 0.000000 0.038519
#
#
# Mechanical properties :
#
#
# Convention : Reuss Voigt Hill
#
# Bulk Modulus (GPa) = 49.39761 64.02591 56.71176
# Shear Modulus (GPa) = 19.14126 24.00649 21.57388
#
# Velocity S-wave (km/s) = 3.25762 3.64820 3.45843
# Velocity P-wave (km/s) = 6.44483 7.29673 6.88397
#
# Compressibility (1/GPa) = 0.02024389
#
# Stress axis : x y z
#
# Youngs Moduli (GPa) = 39.86865 45.55662 39.94103
#
# Poissons Ratio (x) = 0.69911 0.56547
# Poissons Ratio (y) = 0.61182 -0.14341
# Poissons Ratio (z) = 0.56445 -0.16358
#
# Static dielectric constant tensor:
#      x y z
#    x 1.663900 0.000000 0.027460 
#    y 0.000000 1.585950 0.000000 
#    z 0.027460 0.000000 1.633050 
# 
# From -- ./inp_files/90644.got.cif
#   From: 2010.05.17/outbox.cif.g08.bks.cpg/sg12_46_cif.got.tgz:90644.got - 2010.06.03 13:09:07.
