data_PCOD9193489
_publ_section_title
;
Structure prediction by ZEFSAII (Michael W. Deem and Ramdas Pophale) SiO2 
 PCOD9193489
Probable space group: C 2/M
;
_chemical_formula_sum "Si O2"
_cell_formula_units_Z 48
_cell_length_a 25.573600
_cell_length_b 11.328618
_cell_length_c 6.675796
_cell_angle_alpha 90.000000
_cell_angle_beta 64.303538
_cell_angle_gamma 90.000000
_cell_volume 1742.796495
_symmetry_space_group_name_H-M "C 2/M"
_symmetry_group_IT_number 12
_symmetry_cell_setting 'monoclinic'
loop_
_space_group_symop_operation_xyz
x,y,z
-x,y,-z
-x,-y,-z
x,-y,z
1/2+x,1/2+y,z
1/2-x,1/2+y,-z
1/2-x,1/2-y,-z
1/2+x,1/2-y,z
loop_
_atom_site_type_symbol
_atom_site_label
_atom_site_fract_x
_atom_site_fract_y
_atom_site_fract_z
Si Si1 0.874237 0.626415 0.864147
Si Si2 0.635682 0.629711 0.962318
Si Si3 0.045017 0.125976 0.610029
Si Si4 0.042291 0.375284 0.624117
Si Si5 0.267015 0.870411 0.806688
Si Si6 0.675775 0.631652 0.433036
O O1 0.891786 0.500000 0.926680
O O2 0.897143 0.624970 0.596997
O O3 0.805510 0.627003 0.943826
O O4 0.894156 0.745454 0.937941
O O5 0.607841 0.500000 0.039619
O O6 0.698685 0.630650 0.965828
O O7 0.654531 0.635821 0.699135
O O8 0.035976 0.249551 0.737621
O O9 0.112546 0.130055 0.426849
O O10 0.000000 0.126369 0.500000
O O11 0.038251 0.000000 0.726979
O O12 0.036195 0.500000 0.741728
O O13 0.000000 0.376741 0.500000
O O14 0.287368 0.750906 0.662044
O O15 0.276856 0.000000 0.689015
O O16 0.701977 0.500000 0.362848
#
# Coordination Sequence:
#
# PCOD9193489 Si02
#       6
#     8   8   8   8   8   8
#     4  10  20  34  53  80 109 140 181 225 265 317
#     4  10  22  36  51  76 115 151 178 218 271 321
#     4   9  17  30  51  78 102 128 172 222 263 311
#     4   9  17  31  53  79 103 129 170 223 269 311
#     4  10  20  35  54  79 108 143 188 227 262 312
#     4  10  20  34  53  80 110 142 181 224 270 322
#
# _framework density 27.541941000000001
#
# number of rings (size 3 to 8) (size 9 to 14) (size 15 to 20)
#    0.000    2.333    1.667    1.000    0.000    2.667 
#    0.000    0.000    0.000    4.000    0.000   25.667 
#    0.000    0.000    0.000    0.000    0.000    0.000 
#
# Total GULP energy -133983.539340 kJ/mol
# GULP energy per Si atom -5582.647473 kJ/mol
# Density = 2.747925 g / cm^3
# Si number density = 27.541941 Si / 1000 Ang^3
#
#
#
# Elastic Constant Matrix: (Units=GPa)
#
#
# Indices 1 2 3 4 5 6 
#
# 1 110.5187 -0.2320 13.3771 0.0000 -20.5631 0.0000
# 2 -0.2320 421.5326 67.7104 0.0000 -0.1457 0.0000
# 3 13.3771 67.7104 76.3631 0.0000 -10.2294 0.0000
# 4 0.0000 0.0000 0.0000 11.2754 0.0000 -9.0835
# 5 -20.5631 -0.1457 -10.2294 0.0000 29.1664 0.0000
# 6 0.0000 0.0000 0.0000 -9.0835 0.0000 15.3679
#
#
#
# Elastic Compliance Matrix: (Units=1/GPa)
#
#
# Indices 1 2 3 4 5 6 
#
# 1 0.010483 0.000177 -0.001053 0.000000 0.007022 0.000000
# 2 0.000177 0.002791 -0.002610 0.000000 -0.000776 0.000000
# 3 -0.001053 -0.002610 0.016257 0.000000 0.004946 0.000000
# 4 0.000000 0.000000 0.000000 0.169306 0.000000 0.100071
# 5 0.007022 -0.000776 0.004946 0.000000 0.040968 0.000000
# 6 0.000000 0.000000 0.000000 0.100071 0.000000 0.124220
#
#
# Mechanical properties :
#
#
# Convention : Reuss Voigt Hill
#
# Bulk Modulus (GPa) = 44.32768 85.56950 64.94859
# Shear Modulus (GPa) = 13.20951 46.33253 29.77102
#
# Velocity S-wave (km/s) = 2.19239 4.10598 3.29132
# Velocity P-wave (km/s) = 4.74745 7.32223 6.17063
#
# Compressibility (1/GPa) = 0.02255927
#
# Stress axis : x y z
#
# Youngs Moduli (GPa) = 95.39624 358.24381 61.51284
#
# Poissons Ratio (x) = -0.06352 0.06477
# Poissons Ratio (y) = -0.01692 0.16056
# Poissons Ratio (z) = 0.10044 0.93508
#
# Static dielectric constant tensor:
#      x y z
#    x 2.348480 0.000000 -0.060470 
#    y 0.000000 2.200560 0.000000 
#    z -0.060470 0.000000 2.277850 
# 
# From -- ./inp_files/109344.got.cif
#   From: 2010.05.17/outbox.cif.g08.bks.cpg/sg12_55_cif.got.tgz:109344.got - 2010.06.03 13:09:07.
