data_PCOD9193854
_publ_section_title
;
Structure prediction by ZEFSAII (Michael W. Deem and Ramdas Pophale) SiO2 
 PCOD9193854
Probable space group: C 2/M
;
_chemical_formula_sum "Si O2"
_cell_formula_units_Z 56
_cell_length_a 16.961136
_cell_length_b 7.931893
_cell_length_c 20.909962
_cell_angle_alpha 90.000000
_cell_angle_beta 78.372229
_cell_angle_gamma 90.000000
_cell_volume 2755.367730
_symmetry_space_group_name_H-M "C 2/M"
_symmetry_group_IT_number 12
_symmetry_cell_setting 'monoclinic'
loop_
_space_group_symop_operation_xyz
x,y,z
-x,y,-z
-x,-y,-z
x,-y,z
1/2+x,1/2+y,z
1/2-x,1/2+y,-z
1/2-x,1/2-y,-z
1/2+x,1/2-y,z
loop_
_atom_site_type_symbol
_atom_site_label
_atom_site_fract_x
_atom_site_fract_y
_atom_site_fract_z
Si Si1 0.872313 0.804183 0.148018
Si Si2 0.497251 0.296069 0.701437
Si Si3 0.945169 0.795577 0.848460
Si Si4 0.446840 0.294567 0.567912
Si Si5 0.729392 0.699567 0.075412
Si Si6 0.170956 0.692452 0.707018
Si Si7 0.267478 0.297074 0.569833
O O1 0.806504 0.740505 0.107767
O O2 0.830429 0.781910 0.224311
O O3 0.965876 0.735436 0.139403
O O4 0.882883 0.000000 0.132256
O O5 0.512026 0.500000 0.698879
O O6 0.442970 0.262210 0.772405
O O7 0.468510 0.245445 0.636163
O O8 0.578837 0.198778 0.701213
O O9 0.860262 0.731544 0.891115
O O10 0.947454 0.000000 0.855463
O O11 0.500000 0.233667 0.500000
O O12 0.450428 0.500000 0.566521
O O13 0.357211 0.241709 0.568661
O O14 0.720445 0.500000 0.080356
O O15 0.750000 0.750000 0.000000
O O16 0.199224 0.500000 0.712938
O O17 0.215842 0.768533 0.638157
O O18 0.261229 0.500000 0.573834
O O19 0.250000 0.250000 0.500000
#
# Coordination Sequence:
#
# PCOD9193854 Si02
#       7
#     8   8   8   8   8   8   8
#     4  10  21  40  63  88 116 154 200 240 283 345
#     4   9  17  33  57  78 102 141 189 231 272 334
#     4   8  18  36  60  84 112 155 198 234 281 347
#     4   9  17  29  49  75 100 135 184 230 268 322
#     4  11  23  40  62  90 122 156 194 242 294 346
#     4  10  20  34  54  81 112 144 180 232 294 344
#     4  10  21  34  51  75 105 143 186 231 282 339
#
# _framework density 20.323965000000001
#
# number of rings (size 3 to 8) (size 9 to 14) (size 15 to 20)
#    0.000    2.429    0.000    3.000    2.000    2.857 
#    0.000   10.714    0.000    2.571    0.000    0.000 
#    0.000    0.000    0.000    0.000    0.000    0.000 
#
# Total GULP energy -155927.809429 kJ/mol
# GULP energy per Si atom -5568.850337 kJ/mol
# Density = 2.027771 g / cm^3
# Si number density = 20.323965 Si / 1000 Ang^3
#
#
#
# Elastic Constant Matrix: (Units=GPa)
#
#
# Indices 1 2 3 4 5 6 
#
# 1 124.4873 14.6296 116.5261 0.0000 -6.5394 0.0000
# 2 14.6296 21.2333 8.3444 0.0000 0.4273 0.0000
# 3 116.5261 8.3444 179.8892 0.0000 1.7608 0.0000
# 4 0.0000 0.0000 0.0000 17.1620 0.0000 -9.6428
# 5 -6.5394 0.4273 1.7608 0.0000 46.5226 0.0000
# 6 0.0000 0.0000 0.0000 -9.6428 0.0000 -1.4504
#
#
#
# Elastic Compliance Matrix: (Units=1/GPa)
#
#
# Indices 1 2 3 4 5 6 
#
# 1 0.022933 -0.010212 -0.014420 0.000000 0.003863 0.000000
# 2 -0.010212 0.052524 0.004199 0.000000 -0.002077 0.000000
# 3 -0.014420 0.004199 0.014730 0.000000 -0.002623 0.000000
# 4 0.000000 0.000000 0.000000 0.012305 0.000000 -0.081805
# 5 0.003863 -0.002077 -0.002623 0.000000 0.022156 0.000000
# 6 0.000000 0.000000 0.000000 -0.081805 0.000000 -0.145594
#
#
# Mechanical properties :
#
#
# Convention : Reuss Voigt Hill
#
# Bulk Modulus (GPa) = 20.27492 67.17889 43.72690
# Shear Modulus (GPa) = 137.51144 24.85415 81.18279
#
# Velocity S-wave (km/s) = 8.23448 3.50079 6.32701
# Velocity P-wave (km/s) = 10.02030 7.03324 8.65658
#
# Compressibility (1/GPa) = 0.04932203
#
# Stress axis : x y z
#
# Youngs Moduli (GPa) = 43.60443 19.03909 67.88671
#
# Poissons Ratio (x) = 0.19443 0.97890
# Poissons Ratio (y) = 0.44529 -0.28505
# Poissons Ratio (z) = 0.62876 -0.07994
#
# Static dielectric constant tensor:
#      x y z
#    x 1.700550 0.000000 -0.076080 
#    y 0.000000 1.753700 0.000000 
#    z -0.076080 0.000000 2.446720 
# 
# From -- ./inp_files/308893.got.cif
#   From: 2010.05.17/outbox.cif.g08.bks.cpg/sg12_155_cif.got.tgz:308893.got - 2010.06.03 13:09:07.
