data_PCOD9193654
_publ_section_title
;
Structure prediction by ZEFSAII (Michael W. Deem and Ramdas Pophale) SiO2 
 PCOD9193654
Probable space group: C 2/M
;
_chemical_formula_sum "Si O2"
_cell_formula_units_Z 56
_cell_length_a 29.104331
_cell_length_b 9.049701
_cell_length_c 14.609938
_cell_angle_alpha 90.000000
_cell_angle_beta 61.210669
_cell_angle_gamma 90.000000
_cell_volume 3372.413315
_symmetry_space_group_name_H-M "C 2/M"
_symmetry_group_IT_number 12
_symmetry_cell_setting 'monoclinic'
loop_
_space_group_symop_operation_xyz
x,y,z
-x,y,-z
-x,-y,-z
x,-y,z
1/2+x,1/2+y,z
1/2-x,1/2+y,-z
1/2-x,1/2-y,-z
1/2+x,1/2-y,z
loop_
_atom_site_type_symbol
_atom_site_label
_atom_site_fract_x
_atom_site_fract_y
_atom_site_fract_z
Si Si1 0.671067 0.668591 0.836143
Si Si2 0.509598 0.824306 0.885221
Si Si3 0.800880 0.324303 0.903033
Si Si4 0.220275 0.824794 0.261555
Si Si5 0.605862 0.174360 0.045779
Si Si6 0.201621 0.820710 0.490329
Si Si7 0.389069 0.670550 0.294805
O O1 0.686514 0.500000 0.843294
O O2 0.719058 0.778213 0.804943
O O3 0.651143 0.673844 0.751872
O O4 0.624613 0.723707 0.944922
O O5 0.455674 0.798331 0.881576
O O6 0.559168 0.753510 0.787757
O O7 0.518780 0.000000 0.882030
O O8 0.500000 0.773010 0.000000
O O9 0.792091 0.500000 0.908614
O O10 0.807123 0.259462 0.795449
O O11 0.853393 0.296893 0.911636
O O12 0.750000 0.250000 0.000000
O O13 0.204252 0.783605 0.380313
O O14 0.214184 0.000000 0.256081
O O15 0.610929 0.000000 0.015995
O O16 0.250000 0.750000 0.500000
O O17 0.146136 0.772846 0.587378
O O18 0.205380 0.000000 0.495452
O O19 0.403074 0.500000 0.299225
#
# Coordination Sequence:
#
# PCOD9193654 Si02
#       7
#     8   8   8   8   8   8   8
#     4  11  20  30  51  79 110 142 176 214 258 318
#     4  10  20  34  54  78 105 140 177 214 264 323
#     4  11  22  35  54  79 109 142 179 221 266 319
#     4  11  22  35  53  77 109 145 180 218 265 318
#     4  10  21  36  52  75 109 143 177 216 263 318
#     4  10  21  36  54  78 108 142 178 220 268 319
#     4  10  21  35  51  78 111 140 175 219 265 315
#
# _framework density 16.605319000000001
#
# number of rings (size 3 to 8) (size 9 to 14) (size 15 to 20)
#    0.000    1.571    4.286    1.286    0.000    3.143 
#    0.000    0.000    0.000    0.857    0.000    6.000 
#    0.000    0.000    0.000    0.000    0.000    0.000 
#
# Total GULP energy -156197.186757 kJ/mol
# GULP energy per Si atom -5578.470956 kJ/mol
# Density = 1.656752 g / cm^3
# Si number density = 16.605319 Si / 1000 Ang^3
#
#
#
# Elastic Constant Matrix: (Units=GPa)
#
#
# Indices 1 2 3 4 5 6 
#
# 1 82.9547 30.4530 37.6516 0.0000 -4.0342 0.0000
# 2 30.4530 35.5233 34.3203 0.0000 2.4395 0.0000
# 3 37.6516 34.3203 104.5132 0.0000 -4.7618 0.0000
# 4 0.0000 0.0000 0.0000 23.2534 0.0000 0.0116
# 5 -4.0342 2.4395 -4.7618 0.0000 29.5539 0.0000
# 6 0.0000 0.0000 0.0000 0.0116 0.0000 26.0111
#
#
#
# Elastic Compliance Matrix: (Units=1/GPa)
#
#
# Indices 1 2 3 4 5 6 
#
# 1 0.018209 -0.014137 -0.001764 0.000000 0.003368 0.000000
# 2 -0.014137 0.053157 -0.012744 0.000000 -0.008371 0.000000
# 3 -0.001764 -0.012744 0.014532 0.000000 0.003153 0.000000
# 4 0.000000 0.000000 0.000000 0.043004 0.000000 -0.000019
# 5 0.003368 -0.008371 0.003153 0.000000 0.035495 0.000000
# 6 0.000000 0.000000 0.000000 -0.000019 0.000000 0.038445
#
#
# Mechanical properties :
#
#
# Convention : Reuss Voigt Hill
#
# Bulk Modulus (GPa) = 34.95552 47.53791 41.24672
# Shear Modulus (GPa) = 18.54117 23.80144 21.17130
#
# Velocity S-wave (km/s) = 3.34515 3.79008 3.57455
# Velocity P-wave (km/s) = 6.00138 6.91688 6.47533
#
# Compressibility (1/GPa) = 0.02860778
#
# Stress axis : x y z
#
# Youngs Moduli (GPa) = 54.91797 18.81212 68.81178
#
# Poissons Ratio (x) = 0.26594 0.12139
# Poissons Ratio (y) = 0.77637 0.87697
# Poissons Ratio (z) = 0.09688 0.23975
#
# Static dielectric constant tensor:
#      x y z
#    x 1.559800 0.000000 0.011270 
#    y 0.000000 1.567020 0.000000 
#    z 0.011270 0.000000 1.560140 
# 
# From -- ./inp_files/243640.got.cif
#   From: 2010.05.17/outbox.cif.g08.bks.cpg/sg12_122_cif.got.tgz:243640.got - 2010.06.03 13:09:07.
