data_PCOD9193266
_publ_section_title
;
Structure prediction by ZEFSAII (Michael W. Deem and Ramdas Pophale) SiO2 
 PCOD9193266
Probable space group: C 2/M
;
_chemical_formula_sum "Si O2"
_cell_formula_units_Z 56
_cell_length_a 16.099490
_cell_length_b 9.598251
_cell_length_c 18.589325
_cell_angle_alpha 90.000000
_cell_angle_beta 118.049177
_cell_angle_gamma 90.000000
_cell_volume 2535.154116
_symmetry_space_group_name_H-M "C 2/M"
_symmetry_group_IT_number 12
_symmetry_cell_setting 'monoclinic'
loop_
_space_group_symop_operation_xyz
x,y,z
-x,y,-z
-x,-y,-z
x,-y,z
1/2+x,1/2+y,z
1/2-x,1/2+y,-z
1/2-x,1/2-y,-z
1/2+x,1/2-y,z
loop_
_atom_site_type_symbol
_atom_site_label
_atom_site_fract_x
_atom_site_fract_y
_atom_site_fract_z
Si Si1 0.949158 0.161105 0.055702
Si Si2 0.281162 0.838172 0.756532
Si Si3 0.114727 0.840510 0.485824
Si Si4 0.221319 0.840640 0.106234
Si Si5 0.055097 0.160564 0.673047
Si Si6 0.052793 0.660463 0.810473
Si Si7 0.227455 0.839955 0.380776
O O1 0.981018 0.261329 0.132005
O O2 0.961181 0.000000 0.082869
O O3 0.840027 0.184245 0.989763
O O4 0.000000 0.181307 0.000000
O O5 0.306264 0.764610 0.841682
O O6 0.166646 0.829914 0.707146
O O7 0.314217 0.751610 0.700888
O O8 0.307742 0.000000 0.765163
O O9 0.163959 0.838995 0.426590
O O10 0.174255 0.731550 0.555759
O O11 0.006631 0.809052 0.422600
O O12 0.123783 0.000000 0.517859
O O13 0.332765 0.832758 0.139862
O O14 0.199369 0.000000 0.120403
O O15 0.027806 0.260846 0.727053
O O16 0.034075 0.000000 0.684322
O O17 0.024458 0.500000 0.797176
O O18 0.240343 0.000000 0.363021
#
# Coordination Sequence:
#
# PCOD9193266 Si02
#       7
#     8   8   8   8   8   8   8
#     4  10  21  36  54  76 103 136 172 208 248 300
#     4  10  20  34  54  78 103 133 170 211 252 299
#     4   9  19  36  55  74  99 135 176 211 247 298
#     4   9  19  36  55  75 101 134 171 209 252 301
#     4   9  19  36  56  76 100 134 174 211 248 297
#     4  10  20  34  54  78 104 133 166 210 258 301
#     4  10  20  34  53  76 104 136 168 208 256 303
#
# _framework density 22.089386000000001
#
# number of rings (size 3 to 8) (size 9 to 14) (size 15 to 20)
#    0.000    2.429    0.000    1.714    0.000    4.857 
#    0.000    8.571    0.000    0.000    0.000    0.000 
#    0.000    0.000    0.000    0.000    0.000    0.000 
#
# Total GULP energy -156586.227138 kJ/mol
# GULP energy per Si atom -5592.365255 kJ/mol
# Density = 2.203911 g / cm^3
# Si number density = 22.089386 Si / 1000 Ang^3
#
#
#
# Elastic Constant Matrix: (Units=GPa)
#
#
# Indices 1 2 3 4 5 6 
#
# 1 62.4899 18.8467 4.0938 0.0000 5.3530 0.0000
# 2 18.8467 143.9441 78.4645 0.0000 -27.0338 0.0000
# 3 4.0938 78.4645 90.6608 0.0000 -14.1819 0.0000
# 4 0.0000 0.0000 0.0000 40.9372 0.0000 -8.6347
# 5 5.3530 -27.0338 -14.1819 0.0000 37.3174 0.0000
# 6 0.0000 0.0000 0.0000 -8.6347 0.0000 20.4601
#
#
#
# Elastic Compliance Matrix: (Units=1/GPa)
#
#
# Indices 1 2 3 4 5 6 
#
# 1 0.017627 -0.004499 0.002331 0.000000 -0.004902 0.000000
# 2 -0.004499 0.015469 -0.012047 0.000000 0.007273 0.000000
# 3 0.002331 -0.012047 0.021194 0.000000 -0.001007 0.000000
# 4 0.000000 0.000000 0.000000 0.026815 0.000000 0.011316
# 5 -0.004902 0.007273 -0.001007 0.000000 0.032386 0.000000
# 6 0.000000 0.000000 0.000000 0.011316 0.000000 0.053651
#
#
# Mechanical properties :
#
#
# Convention : Reuss Voigt Hill
#
# Bulk Modulus (GPa) = 38.67091 55.54501 47.10796
# Shear Modulus (GPa) = 24.48666 32.78892 28.63779
#
# Velocity S-wave (km/s) = 3.33307 3.85694 3.60453
# Velocity P-wave (km/s) = 5.68832 6.71080 6.22060
#
# Compressibility (1/GPa) = 0.02585923
#
# Stress axis : x y z
#
# Youngs Moduli (GPa) = 56.73203 64.64430 47.18339
#
# Poissons Ratio (x) = 0.29085 -0.11000
# Poissons Ratio (y) = 0.25525 0.56843
# Poissons Ratio (z) = -0.13226 0.77879
#
# Static dielectric constant tensor:
#      x y z
#    x 1.903190 0.000000 0.017470 
#    y 0.000000 1.747580 0.000000 
#    z 0.017470 0.000000 1.767840 
# 
# From -- ./inp_files/275325.got.cif
#   From: 2010.05.17/outbox.cif.g08.bks.cpg/sg12_138_cif.got.tgz:275325.got - 2010.06.03 13:09:07.
