data_PCOD9193000
_publ_section_title
;
Structure prediction by ZEFSAII (Michael W. Deem and Ramdas Pophale) SiO2 
 PCOD9193000
Probable space group: C 2/M
;
_chemical_formula_sum "Si O2"
_cell_formula_units_Z 56
_cell_length_a 8.218224
_cell_length_b 11.936530
_cell_length_c 33.547362
_cell_angle_alpha 90.000000
_cell_angle_beta 59.554313
_cell_angle_gamma 90.000000
_cell_volume 2837.115853
_symmetry_space_group_name_H-M "C 2/M"
_symmetry_group_IT_number 12
_symmetry_cell_setting 'monoclinic'
loop_
_space_group_symop_operation_xyz
x,y,z
-x,y,-z
-x,-y,-z
x,-y,z
1/2+x,1/2+y,z
1/2-x,1/2+y,-z
1/2-x,1/2-y,-z
1/2+x,1/2-y,z
loop_
_atom_site_type_symbol
_atom_site_label
_atom_site_fract_x
_atom_site_fract_y
_atom_site_fract_z
Si Si1 0.848345 0.372897 0.983464
Si Si2 0.911441 0.798115 0.820501
Si Si3 0.300163 0.179478 0.533294
Si Si4 0.006048 0.377807 0.124614
Si Si5 0.397859 0.686523 0.600680
Si Si6 0.329773 0.873339 0.762499
Si Si7 0.479442 0.874457 0.656687
O O1 0.751658 0.500000 0.997510
O O2 0.750000 0.250000 0.000000
O O3 0.000000 0.375474 0.000000
O O4 0.941951 0.369496 0.928147
O O5 0.718978 0.866835 0.842108
O O6 0.918500 0.714161 0.782077
O O7 0.903727 0.720994 0.860858
O O8 0.104647 0.866401 0.796786
O O9 0.500000 0.119193 0.500000
O O10 0.250000 0.250000 0.500000
O O11 0.350498 0.261770 0.563387
O O12 0.100377 0.125582 0.570949
O O13 0.070067 0.500000 0.131322
O O14 0.428797 0.785769 0.628859
O O15 0.205237 0.624994 0.635792
O O16 0.380687 0.845054 0.710651
O O17 0.396382 0.000000 0.761631
O O18 0.420328 0.000000 0.652055
#
# Coordination Sequence:
#
# PCOD9193000 Si02
#       7
#     8   8   8   8   8   8   8
#     4  10  21  37  56  80 110 144 183 227 277 331
#     4  10  20  34  54  77 103 135 174 212 260 313
#     4   8  14  27  51  74  96 133 166 201 257 300
#     4  10  20  35  54  77 106 138 175 220 266 315
#     4   9  17  31  52  73 100 133 166 205 251 300
#     4  10  20  34  52  75 103 134 169 210 255 305
#     4  10  20  34  52  75 103 134 169 209 253 303
#
# _framework density 19.738354999999999
#
# number of rings (size 3 to 8) (size 9 to 14) (size 15 to 20)
#    0.000    2.429    0.000    2.571    0.000    0.286 
#    0.000    6.429    0.000   66.000    0.000    0.000 
#    0.000    0.000    0.000    0.000    0.000    0.000 
#
# Total GULP energy -155887.857028 kJ/mol
# GULP energy per Si atom -5567.423465 kJ/mol
# Density = 1.969343 g / cm^3
# Si number density = 19.738355 Si / 1000 Ang^3
#
#
#
# Elastic Constant Matrix: (Units=GPa)
#
#
# Indices 1 2 3 4 5 6 
#
# 1 48.1263 22.7785 3.6981 0.0000 7.4836 0.0000
# 2 22.7785 109.2309 44.9640 0.0000 12.2147 0.0000
# 3 3.6981 44.9640 89.1098 0.0000 15.0369 0.0000
# 4 0.0000 0.0000 0.0000 -13.5895 0.0000 37.0271
# 5 7.4836 12.2147 15.0369 0.0000 29.6452 0.0000
# 6 0.0000 0.0000 0.0000 37.0271 0.0000 12.3848
#
#
#
# Elastic Compliance Matrix: (Units=1/GPa)
#
#
# Indices 1 2 3 4 5 6 
#
# 1 0.023985 -0.005522 0.002656 0.000000 -0.005127 0.000000
# 2 -0.005522 0.012933 -0.006160 0.000000 -0.000810 0.000000
# 3 0.002656 -0.006160 0.015207 0.000000 -0.005846 0.000000
# 4 0.000000 0.000000 0.000000 -0.008046 0.000000 0.024054
# 5 -0.005127 -0.000810 -0.005846 0.000000 0.038325 0.000000
# 6 0.000000 0.000000 0.000000 0.024054 0.000000 0.008828
#
#
# Mechanical properties :
#
#
# Convention : Reuss Voigt Hill
#
# Bulk Modulus (GPa) = 29.34855 43.26093 36.30474
# Shear Modulus (GPa) = 41.44512 17.35654 29.40083
#
# Velocity S-wave (km/s) = 4.58725 2.96857 3.86363
# Velocity P-wave (km/s) = 6.55425 5.80643 6.19164
#
# Compressibility (1/GPa) = 0.03407323
#
# Stress axis : x y z
#
# Youngs Moduli (GPa) = 41.69215 77.32363 65.76135
#
# Poissons Ratio (x) = 0.42697 -0.17466
# Poissons Ratio (y) = 0.23022 0.40508
# Poissons Ratio (z) = -0.11073 0.47630
#
# Static dielectric constant tensor:
#      x y z
#    x 1.686920 0.000000 -0.036010 
#    y 0.000000 0.846680 0.000000 
#    z -0.036010 0.000000 1.677530 
# 
# From -- ./inp_files/355852.got.cif
#   From: 2010.05.17/outbox.cif.g08.bks.cpg/sg12_178_cif.got.tgz:355852.got - 2010.06.03 13:09:07.
