data_PCOD9193022
_publ_section_title
;
Structure prediction by ZEFSAII (Michael W. Deem and Ramdas Pophale) SiO2 
 PCOD9193022
Probable space group: C 2/M
;
_chemical_formula_sum "Si O2"
_cell_formula_units_Z 56
_cell_length_a 25.775135
_cell_length_b 12.459515
_cell_length_c 25.710880
_cell_angle_alpha 90.000000
_cell_angle_beta 20.679329
_cell_angle_gamma 90.000000
_cell_volume 2915.833098
_symmetry_space_group_name_H-M "C 2/M"
_symmetry_group_IT_number 12
_symmetry_cell_setting 'monoclinic'
loop_
_space_group_symop_operation_xyz
x,y,z
-x,y,-z
-x,-y,-z
x,-y,z
1/2+x,1/2+y,z
1/2-x,1/2+y,-z
1/2-x,1/2-y,-z
1/2+x,1/2-y,z
loop_
_atom_site_type_symbol
_atom_site_label
_atom_site_fract_x
_atom_site_fract_y
_atom_site_fract_z
Si Si1 0.595159 0.879222 0.458478
Si Si2 0.404604 0.875921 0.163627
Si Si3 0.992146 0.125206 0.196174
Si Si4 0.784246 0.226980 0.570967
Si Si5 0.165566 0.180632 0.839628
Si Si6 0.191764 0.243656 0.926097
Si Si7 0.546827 0.373998 0.265157
O O1 0.500000 0.833203 0.500000
O O2 0.611318 0.803673 0.492344
O O3 0.753279 0.881981 0.281989
O O4 0.545244 0.000000 0.517304
O O5 0.296084 0.854437 0.314031
O O6 0.344778 0.802123 0.172995
O O7 0.412283 0.000000 0.143417
O O8 0.563206 0.827652 0.030372
O O9 0.055683 0.137199 0.194610
O O10 0.846046 0.197984 0.328623
O O11 0.955579 0.000000 0.221942
O O12 0.110346 0.165278 0.043042
O O13 0.887170 0.167478 0.433473
O O14 0.234240 0.183262 0.832589
O O15 0.000000 0.140599 0.000000
O O16 0.326995 0.304888 0.825294
O O17 0.562580 0.500000 0.263453
#
# Coordination Sequence:
#
# PCOD9193022 Si02
#       7
#     8   8   8   8   8   8   8
#     4  10  20  34  52  75 104 135 168 210 260 314
#     4   9  18  33  53  78 107 140 175 210 256 316
#     4  10  22  39  57  77 104 141 182 222 265 312
#     4  10  20  36  56  77 106 140 176 218 262 313
#     4   9  19  32  50  77 104 134 171 209 254 312
#     4  10  20  35  55  79 109 140 173 219 266 311
#     4  11  22  36  56  81 107 138 178 223 269 312
#
# _framework density 19.205490000000001
#
# number of rings (size 3 to 8) (size 9 to 14) (size 15 to 20)
#    0.000    2.143    0.000    3.857    0.000    4.000 
#    0.000    1.429    0.000   11.571    0.000    0.000 
#    0.000    0.000    0.000    0.000    0.000    0.000 
#
# Total GULP energy -156268.470373 kJ/mol
# GULP energy per Si atom -5581.016799 kJ/mol
# Density = 1.916178 g / cm^3
# Si number density = 19.205490 Si / 1000 Ang^3
#
#
#
# Elastic Constant Matrix: (Units=GPa)
#
#
# Indices 1 2 3 4 5 6 
#
# 1 79.7258 24.8793 13.1649 -0.0002 7.2922 0.0000
# 2 24.8793 68.7193 9.2330 -0.0002 4.9383 -0.0006
# 3 13.1649 9.2330 55.0950 -0.0034 11.6890 0.0006
# 4 -0.0002 -0.0002 -0.0034 9.2551 0.0010 -7.0924
# 5 7.2922 4.9383 11.6890 0.0010 33.2220 -0.0001
# 6 0.0000 -0.0006 0.0006 -7.0924 -0.0001 6.4630
#
#
#
# Elastic Compliance Matrix: (Units=1/GPa)
#
#
# Indices 1 2 3 4 5 6 
#
# 1 0.014592 -0.004852 -0.002320 -0.000004 -0.001665 -0.000005
# 2 -0.004852 0.016564 -0.001427 0.000007 -0.000895 0.000010
# 3 -0.002320 -0.001427 0.020307 0.000040 -0.006423 0.000042
# 4 -0.000004 0.000007 0.000040 0.679304 -0.000034 0.745456
# 5 -0.001665 -0.000895 -0.006423 -0.000034 0.032859 -0.000037
# 6 -0.000005 0.000010 0.000042 0.745456 -0.000037 0.972777
#
#
# Mechanical properties :
#
#
# Convention : Reuss Voigt Hill
#
# Bulk Modulus (GPa) = 29.18325 33.12160 31.15242
# Shear Modulus (GPa) = 2.83282 20.20555 11.51919
#
# Velocity S-wave (km/s) = 1.21582 3.24708 2.45171
# Velocity P-wave (km/s) = 4.14719 5.59834 4.92649
#
# Compressibility (1/GPa) = 0.03426623
#
# Stress axis : x y z
#
# Youngs Moduli (GPa) = 68.52838 60.37016 49.24448
#
# Poissons Ratio (x) = 0.29289 0.11427
# Poissons Ratio (y) = 0.33247 0.07026
# Poissons Ratio (z) = 0.15902 0.08613
#
# Static dielectric constant tensor:
#      x y z
#    x 1.664200 0.000000 -0.008560 
#    y 0.000000 1.653870 0.000000 
#    z -0.008560 0.000000 1.711590 
# 
# From -- ./inp_files/369379.got.cif
#   From: 2010.05.17/outbox.cif.g08.bks.cpg/sg12_185_cif.got.tgz:369379.got - 2010.06.03 13:09:07.
