data_PCOD9193700
_publ_section_title
;
Structure prediction by ZEFSAII (Michael W. Deem and Ramdas Pophale) SiO2 
 PCOD9193700
Probable space group: C 2/M
;
_chemical_formula_sum "Si O2"
_cell_formula_units_Z 48
_cell_length_a 15.531248
_cell_length_b 26.472041
_cell_length_c 15.736005
_cell_angle_alpha 90.000000
_cell_angle_beta 161.198260
_cell_angle_gamma 90.000000
_cell_volume 2085.168159
_symmetry_space_group_name_H-M "C 2/M"
_symmetry_group_IT_number 12
_symmetry_cell_setting 'monoclinic'
loop_
_space_group_symop_operation_xyz
x,y,z
-x,y,-z
-x,-y,-z
x,-y,z
1/2+x,1/2+y,z
1/2-x,1/2+y,-z
1/2-x,1/2-y,-z
1/2+x,1/2-y,z
loop_
_atom_site_type_symbol
_atom_site_label
_atom_site_fract_x
_atom_site_fract_y
_atom_site_fract_z
Si Si1 0.363308 0.060431 0.076676
Si Si2 0.409159 0.845580 0.526266
Si Si3 0.098814 0.092265 0.005949
Si Si4 0.439506 0.438104 0.541538
Si Si5 0.270768 0.238094 0.719428
Si Si6 0.987711 0.284729 0.756805
O O1 0.264758 0.068425 0.082472
O O2 0.155425 0.080659 0.812194
O O3 0.363732 0.000000 0.068224
O O4 0.655231 0.076519 0.316814
O O5 0.326001 0.791519 0.410385
O O6 0.491751 0.832435 0.700218
O O7 0.158616 0.882286 0.279390
O O8 0.687992 0.868196 0.753834
O O9 0.000000 0.063730 0.000000
O O10 0.500000 0.422594 0.500000
O O11 0.447802 0.500000 0.547872
O O12 0.411202 0.203811 0.780793
O O13 0.000000 0.213846 0.500000
O O14 0.500000 0.249941 0.000000
O O15 0.750000 0.250000 0.500000
O O16 0.250000 0.250000 0.000000
#
# Coordination Sequence:
#
# PCOD9193700 Si02
#       6
#     8   8   8   8   8   8
#     4  10  21  37  57  85 118 151 191 241 292 344
#     4  11  22  37  55  79 112 146 190 238 278 328
#     4  12  24  37  57  82 112 155 197 237 289 339
#     4   9  17  33  60  88 110 136 178 235 291 341
#     4  11  20  33  56  84 109 136 179 229 277 332
#     4  10  20  34  54  79 106 140 174 219 280 332
#
# _framework density 23.019725999999999
#
# number of rings (size 3 to 8) (size 9 to 14) (size 15 to 20)
#    0.000    1.500    0.000    8.500    0.000    2.333 
#    0.000    0.000    0.000   15.000    0.000    0.000 
#    0.000    0.000    0.000    0.000    0.000    0.000 
#
# Total GULP energy -133927.637138 kJ/mol
# GULP energy per Si atom -5580.318214 kJ/mol
# Density = 2.296733 g / cm^3
# Si number density = 23.019726 Si / 1000 Ang^3
#
#
#
# Elastic Constant Matrix: (Units=GPa)
#
#
# Indices 1 2 3 4 5 6 
#
# 1 202.4933 15.8234 61.0817 -0.0010 11.5902 -0.0013
# 2 15.8234 30.7598 12.3634 0.0018 3.3259 -0.0010
# 3 61.0817 12.3634 179.9908 0.0092 15.3944 -0.0030
# 4 -0.0010 0.0018 0.0092 13.1926 0.0023 -3.3837
# 5 11.5902 3.3259 15.3944 0.0023 41.0692 -0.0024
# 6 -0.0013 -0.0010 -0.0030 -3.3837 -0.0024 34.8313
#
#
#
# Elastic Compliance Matrix: (Units=1/GPa)
#
#
# Indices 1 2 3 4 5 6 
#
# 1 0.005666 -0.002143 -0.001709 0.000002 -0.000785 0.000000
# 2 -0.002143 0.034389 -0.001496 -0.000003 -0.001619 0.000000
# 3 -0.001709 -0.001496 0.006392 -0.000004 -0.001793 0.000000
# 4 0.000002 -0.000003 -0.000004 0.077737 -0.000003 0.007552
# 5 -0.000785 -0.001619 -0.001793 -0.000003 0.025374 0.000001
# 6 0.000000 0.000000 0.000000 0.007552 0.000001 0.029443
#
#
# Mechanical properties :
#
#
# Convention : Reuss Voigt Hill
#
# Bulk Modulus (GPa) = 27.97139 65.75342 46.86241
# Shear Modulus (GPa) = 24.79981 39.41696 32.10839
#
# Velocity S-wave (km/s) = 3.28583 4.14250 3.73878
# Velocity P-wave (km/s) = 5.15490 7.17679 6.24817
#
# Compressibility (1/GPa) = 0.03575082
#
# Stress axis : x y z
#
# Youngs Moduli (GPa) = 176.48445 29.07904 156.45187
#
# Poissons Ratio (x) = 0.06232 0.26730
# Poissons Ratio (y) = 0.37824 0.23411
# Poissons Ratio (z) = 0.30153 0.04351
#
# Static dielectric constant tensor:
#      x y z
#    x 2.025610 0.000000 -0.049470 
#    y 0.000000 1.869750 0.000000 
#    z -0.049470 0.000000 1.848340 
# 
# From -- ./inp_files/219602.got.cif
#   From: 2010.05.17/outbox.cif.g08.bks.cpg/sg12_110_cif.got.tgz:219602.got - 2010.06.03 13:09:07.
