data_PCOD9193680
_publ_section_title
;
Structure prediction by ZEFSAII (Michael W. Deem and Ramdas Pophale) SiO2 
 PCOD9193680
Probable space group: C 2/M
;
_chemical_formula_sum "Si O2"
_cell_formula_units_Z 48
_cell_length_a 15.950385
_cell_length_b 8.759208
_cell_length_c 14.329998
_cell_angle_alpha 90.000000
_cell_angle_beta 89.394347
_cell_angle_gamma 90.000000
_cell_volume 2001.971430
_symmetry_space_group_name_H-M "C 2/M"
_symmetry_group_IT_number 12
_symmetry_cell_setting 'monoclinic'
loop_
_space_group_symop_operation_xyz
x,y,z
-x,y,-z
-x,-y,-z
x,-y,z
1/2+x,1/2+y,z
1/2-x,1/2+y,-z
1/2-x,1/2-y,-z
1/2+x,1/2-y,z
loop_
_atom_site_type_symbol
_atom_site_label
_atom_site_fract_x
_atom_site_fract_y
_atom_site_fract_z
Si Si1 0.670961 0.182934 0.445081
Si Si2 0.084773 0.323565 0.935114
Si Si3 0.757986 0.322557 0.275577
Si Si4 0.021318 0.821260 0.216735
Si Si5 0.934189 0.320879 0.384615
Si Si6 0.679797 0.818429 0.110808
O O1 0.750000 0.250000 0.500000
O O2 0.688746 0.242240 0.341834
O O3 0.591272 0.225919 0.509949
O O4 0.674050 0.000000 0.445575
O O5 0.101937 0.500000 0.905535
O O6 0.057774 0.221254 0.848530
O O7 0.155754 0.266170 0.006458
O O8 0.000000 0.329664 0.000000
O O9 0.737808 0.500000 0.271275
O O10 0.846747 0.308257 0.327044
O O11 0.752695 0.255701 0.171881
O O12 0.998732 0.773519 0.322129
O O13 0.097061 0.725296 0.171831
O O14 0.039365 0.000000 0.209852
O O15 0.958894 0.500000 0.384655
O O16 0.689768 0.000000 0.107049
#
# Coordination Sequence:
#
# PCOD9193680 Si02
#       6
#     8   8   8   8   8   8
#     4   9  17  31  52  75 100 134 172 208 249 300
#     4   8  16  32  52  72  97 133 171 205 248 303
#     4  10  20  34  54  79 105 133 168 212 256 300
#     4  11  21  32  52  79 104 132 169 213 253 296
#     4   9  19  35  53  74 103 137 169 205 251 301
#     4  10  20  35  55  76 102 136 170 207 253 305
#
# _framework density 23.976367
#
# number of rings (size 3 to 8) (size 9 to 14) (size 15 to 20)
#    0.000    2.500    0.000    5.000    0.000    7.667 
#    0.000    1.667    0.000    5.000    0.000    0.000 
#    0.000    0.000    0.000    0.000    0.000    0.000 
#
# Total GULP energy -134219.242068 kJ/mol
# GULP energy per Si atom -5592.468419 kJ/mol
# Density = 2.392180 g / cm^3
# Si number density = 23.976367 Si / 1000 Ang^3
#
#
#
# Elastic Constant Matrix: (Units=GPa)
#
#
# Indices 1 2 3 4 5 6 
#
# 1 76.7027 0.0798 10.7258 0.0000 8.8092 0.0000
# 2 0.0798 39.9707 21.6588 0.0000 -2.9253 0.0000
# 3 10.7258 21.6588 154.8895 0.0000 -1.1043 0.0000
# 4 0.0000 0.0000 0.0000 33.9086 0.0000 4.3863
# 5 8.8092 -2.9253 -1.1043 0.0000 46.9458 0.0000
# 6 0.0000 0.0000 0.0000 4.3863 0.0000 8.3264
#
#
#
# Elastic Compliance Matrix: (Units=1/GPa)
#
#
# Indices 1 2 3 4 5 6 
#
# 1 0.013467 0.000328 -0.000996 0.000000 -0.002530 0.000000
# 2 0.000328 0.027198 -0.003815 0.000000 0.001543 0.000000
# 3 -0.000996 -0.003815 0.007059 0.000000 0.000115 0.000000
# 4 0.000000 0.000000 0.000000 0.031648 0.000000 -0.016672
# 5 -0.002530 0.001543 0.000115 0.000000 0.021875 0.000000
# 6 0.000000 0.000000 0.000000 -0.016672 0.000000 0.128882
#
#
# Mechanical properties :
#
#
# Convention : Reuss Voigt Hill
#
# Bulk Modulus (GPa) = 25.80156 37.38796 31.59476
# Shear Modulus (GPa) = 19.84009 33.77607 26.80808
#
# Velocity S-wave (km/s) = 2.87973 3.75737 3.34743
# Velocity P-wave (km/s) = 4.67351 5.86952 5.30533
#
# Compressibility (1/GPa) = 0.03875734
#
# Stress axis : x y z
#
# Youngs Moduli (GPa) = 74.25607 36.76772 141.65333
#
# Poissons Ratio (x) = -0.01206 0.14115
# Poissons Ratio (y) = -0.02435 0.54039
# Poissons Ratio (z) = 0.07399 0.14026
#
# Static dielectric constant tensor:
#      x y z
#    x 2.042870 0.000000 0.021880 
#    y 0.000000 1.790180 0.000000 
#    z 0.021880 0.000000 1.936810 
# 
# From -- ./inp_files/221503.got.cif
#   From: 2010.05.17/outbox.cif.g08.bks.cpg/sg12_111_cif.got.tgz:221503.got - 2010.06.03 13:09:07.
