data_PCOD9193683
_publ_section_title
;
Structure prediction by ZEFSAII (Michael W. Deem and Ramdas Pophale) SiO2 
 PCOD9193683
Probable space group: C 2/M
;
_chemical_formula_sum "Si O2"
_cell_formula_units_Z 48
_cell_length_a 16.085309
_cell_length_b 8.962592
_cell_length_c 27.927407
_cell_angle_alpha 90.000000
_cell_angle_beta 30.197428
_cell_angle_gamma 90.000000
_cell_volume 2025.094796
_symmetry_space_group_name_H-M "C 2/M"
_symmetry_group_IT_number 12
_symmetry_cell_setting 'monoclinic'
loop_
_space_group_symop_operation_xyz
x,y,z
-x,y,-z
-x,-y,-z
x,-y,z
1/2+x,1/2+y,z
1/2-x,1/2+y,-z
1/2-x,1/2-y,-z
1/2+x,1/2-y,z
loop_
_atom_site_type_symbol
_atom_site_label
_atom_site_fract_x
_atom_site_fract_y
_atom_site_fract_z
Si Si1 0.495141 0.169337 0.560636
Si Si2 0.823520 0.177131 0.774464
Si Si3 0.994789 0.178580 0.117837
Si Si4 0.344716 0.828872 0.274442
Si Si5 0.164174 0.326382 0.605655
Si Si6 0.182833 0.828809 0.933751
O O1 0.500000 0.164196 0.500000
O O2 0.335851 0.268752 0.650460
O O3 0.669616 0.237350 0.489782
O O4 0.471717 0.000000 0.589365
O O5 0.667994 0.247049 0.824433
O O6 0.994504 0.252264 0.673138
O O7 0.830718 0.000000 0.765703
O O8 0.788596 0.223093 0.847124
O O9 0.983792 0.236041 0.177423
O O10 0.143238 0.218748 0.007790
O O11 0.981627 0.000000 0.122980
O O12 0.348694 0.819501 0.329776
O O13 0.361811 0.000000 0.251659
O O14 0.178178 0.500000 0.585471
O O15 0.248313 0.000000 0.899949
O O16 0.000000 0.834543 0.000000
#
# Coordination Sequence:
#
# PCOD9193683 Si02
#       6
#     8   8   8   8   8   8
#     4   9  17  31  52  76 102 134 172 209 249 303
#     4  11  21  33  53  79 105 134 172 214 255 303
#     4  10  20  35  55  77 104 137 171 210 257 306
#     4  10  20  34  54  79 105 135 172 212 254 302
#     4  10  20  35  54  76 105 138 172 211 255 302
#     4   8  16  32  52  73  99 134 172 208 252 305
#
# _framework density 23.702594000000001
#
# number of rings (size 3 to 8) (size 9 to 14) (size 15 to 20)
#    0.000    2.333    0.000    4.500    0.000    7.667 
#    0.000    1.667    0.000    0.000    0.000    0.000 
#    0.000    0.000    0.000    0.000    0.000    0.000 
#
# Total GULP energy -134350.639670 kJ/mol
# GULP energy per Si atom -5597.943320 kJ/mol
# Density = 2.364865 g / cm^3
# Si number density = 23.702594 Si / 1000 Ang^3
#
#
#
# Elastic Constant Matrix: (Units=GPa)
#
#
# Indices 1 2 3 4 5 6 
#
# 1 80.1711 5.4369 13.1099 0.0000 -3.1559 0.0000
# 2 5.4369 106.0328 39.3394 -0.0001 -15.2601 0.0001
# 3 13.1099 39.3394 105.4964 -0.0002 -11.9655 0.0000
# 4 0.0000 -0.0001 -0.0002 36.1351 0.0000 7.0710
# 5 -3.1559 -15.2601 -11.9655 0.0000 51.4463 0.0000
# 6 0.0000 0.0001 0.0000 7.0710 0.0000 15.5308
#
#
#
# Elastic Compliance Matrix: (Units=1/GPa)
#
#
# Indices 1 2 3 4 5 6 
#
# 1 0.012741 -0.000027 -0.001526 0.000000 0.000419 0.000000
# 2 -0.000027 0.011232 -0.003910 0.000000 0.002420 0.000000
# 3 -0.001526 -0.003910 0.011282 0.000000 0.001371 0.000000
# 4 0.000000 0.000000 0.000000 0.030381 0.000000 -0.013832
# 5 0.000419 0.002420 0.001371 0.000000 0.020500 0.000000
# 6 0.000000 0.000000 0.000000 -0.013832 0.000000 0.070686
#
#
# Mechanical properties :
#
#
# Convention : Reuss Voigt Hill
#
# Bulk Modulus (GPa) = 41.10367 45.27473 43.18920
# Shear Modulus (GPa) = 28.43215 36.21005 32.32110
#
# Velocity S-wave (km/s) = 3.46719 3.91280 3.69672
# Velocity P-wave (km/s) = 5.77993 6.28935 6.04002
#
# Compressibility (1/GPa) = 0.02432873
#
# Stress axis : x y z
#
# Youngs Moduli (GPa) = 78.48590 89.03486 88.63506
#
# Poissons Ratio (x) = 0.00240 0.13524
# Poissons Ratio (y) = 0.00212 0.34659
# Poissons Ratio (z) = 0.11975 0.34816
#
# Static dielectric constant tensor:
#      x y z
#    x 2.023980 0.000000 0.061520 
#    y 0.000000 1.787740 0.000000 
#    z 0.061520 0.000000 1.888450 
# 
# From -- ./inp_files/244734.got.cif
#   From: 2010.05.17/outbox.cif.g08.bks.cpg/sg12_123_cif.got.tgz:244734.got - 2010.06.03 13:09:07.
