data_PCOD9193493
_publ_section_title
;
Structure prediction by ZEFSAII (Michael W. Deem and Ramdas Pophale) SiO2 
 PCOD9193493
Probable space group: C 2/M
;
_chemical_formula_sum "Si O2"
_cell_formula_units_Z 56
_cell_length_a 18.567595
_cell_length_b 8.469392
_cell_length_c 20.698271
_cell_angle_alpha 90.000000
_cell_angle_beta 63.752908
_cell_angle_gamma 90.000000
_cell_volume 2919.333103
_symmetry_space_group_name_H-M "C 2/M"
_symmetry_group_IT_number 12
_symmetry_cell_setting 'monoclinic'
loop_
_space_group_symop_operation_xyz
x,y,z
-x,y,-z
-x,-y,-z
x,-y,z
1/2+x,1/2+y,z
1/2-x,1/2+y,-z
1/2-x,1/2-y,-z
1/2+x,1/2-y,z
loop_
_atom_site_type_symbol
_atom_site_label
_atom_site_fract_x
_atom_site_fract_y
_atom_site_fract_z
Si Si1 0.804483 0.690491 0.221953
Si Si2 0.210519 0.188625 0.916905
Si Si3 0.852093 0.191062 0.636875
Si Si4 0.026849 0.692825 0.785363
Si Si5 0.833798 0.189512 0.495138
Si Si6 0.372630 0.190736 0.926893
Si Si7 0.011882 0.310573 0.643048
O O1 0.804506 0.500000 0.224133
O O2 0.801968 0.742562 0.148867
O O3 0.725400 0.745254 0.291634
O O4 0.886353 0.745245 0.223751
O O5 0.296916 0.239009 0.912195
O O6 0.210256 0.000000 0.913378
O O7 0.144786 0.244255 0.995021
O O8 0.844368 0.241281 0.565420
O O9 0.933471 0.251218 0.636852
O O10 0.853398 0.000000 0.637264
O O11 0.026651 0.500000 0.785573
O O12 0.011277 0.743057 0.717989
O O13 0.955095 0.743471 0.861120
O O14 0.750000 0.250000 0.500000
O O15 0.908113 0.250702 0.423696
O O16 0.833589 0.000000 0.494241
O O17 0.372689 0.000000 0.930139
O O18 0.012237 0.500000 0.642492
#
# Coordination Sequence:
#
# PCOD9193493 Si02
#       7
#     8   8   8   8   8   8   8
#     4  10  20  36  57  78 105 144 185 224 274 333
#     4  10  20  34  53  80 111 139 175 228 281 327
#     4  10  22  39  58  82 114 150 188 232 280 332
#     4   9  19  36  57  80 107 143 187 230 272 326
#     4  11  23  40  61  86 118 152 188 232 281 332
#     4   9  18  35  57  77 102 142 186 223 266 327
#     4  11  22  38  61  87 115 148 189 234 279 331
#
# _framework density 19.182462000000001
#
# number of rings (size 3 to 8) (size 9 to 14) (size 15 to 20)
#    0.000    2.000    0.000    3.429    0.000    8.000 
#    0.000    7.857    0.000    0.000    0.000    0.000 
#    0.000    0.000    0.000    0.000    0.000    0.000 
#
# Total GULP energy -156446.126777 kJ/mol
# GULP energy per Si atom -5587.361671 kJ/mol
# Density = 1.913880 g / cm^3
# Si number density = 19.182462 Si / 1000 Ang^3
#
#
#
# Elastic Constant Matrix: (Units=GPa)
#
#
# Indices 1 2 3 4 5 6 
#
# 1 80.8938 1.2116 7.4841 0.0000 -59.7613 0.0000
# 2 1.2116 9.2323 -2.4426 -0.0002 -13.4657 -0.0004
# 3 7.4841 -2.4426 62.3080 0.0000 -64.9541 0.0001
# 4 0.0000 -0.0002 0.0000 28.8970 0.0000 1.8264
# 5 -59.7613 -13.4657 -64.9541 0.0000 15.4864 0.0000
# 6 0.0000 -0.0004 0.0001 1.8264 0.0000 28.5727
#
#
#
# Elastic Compliance Matrix: (Units=1/GPa)
#
#
# Indices 1 2 3 4 5 6 
#
# 1 0.009087 -0.011280 -0.007353 0.000000 -0.005582 0.000000
# 2 -0.011280 0.085198 -0.010836 0.000001 -0.014899 0.000001
# 3 -0.007353 -0.010836 0.006789 0.000000 -0.009323 0.000000
# 4 0.000000 0.000001 0.000000 0.034746 0.000000 -0.002221
# 5 -0.005582 -0.014899 -0.009323 0.000000 -0.009026 0.000000
# 6 0.000000 0.000001 0.000000 -0.002221 0.000000 0.035140
#
#
# Mechanical properties :
#
#
# Convention : Reuss Voigt Hill
#
# Bulk Modulus (GPa) = 23.73301 18.32671 21.02986
# Shear Modulus (GPa) = 21.28390 24.33663 22.81026
#
# Velocity S-wave (km/s) = 3.33460 3.56573 3.45210
# Velocity P-wave (km/s) = 5.21778 5.15046 5.18423
#
# Compressibility (1/GPa) = 0.04213540
#
# Stress axis : x y z
#
# Youngs Moduli (GPa) = 110.04618 11.73731 147.29650
#
# Poissons Ratio (x) = 0.13240 1.08309
# Poissons Ratio (y) = 1.24132 1.59618
# Poissons Ratio (z) = 0.80918 0.12719
#
# Static dielectric constant tensor:
#      x y z
#    x 1.639710 0.000000 -0.005020 
#    y 0.000000 1.665540 0.000000 
#    z -0.005020 0.000000 1.642120 
# 
# From -- ./inp_files/275300.got.cif
#   From: 2010.05.17/outbox.cif.g08.bks.cpg/sg12_138_cif.got.tgz:275300.got - 2010.06.03 13:09:07.
