data_PCOD9193300
_publ_section_title
;
Structure prediction by ZEFSAII (Michael W. Deem and Ramdas Pophale) SiO2 
 PCOD9193300
Probable space group: C 2/M
;
_chemical_formula_sum "Si O2"
_cell_formula_units_Z 48
_cell_length_a 19.592881
_cell_length_b 8.926131
_cell_length_c 16.528975
_cell_angle_alpha 90.000000
_cell_angle_beta 72.941641
_cell_angle_gamma 90.000000
_cell_volume 2763.556245
_symmetry_space_group_name_H-M "C 2/M"
_symmetry_group_IT_number 12
_symmetry_cell_setting 'monoclinic'
loop_
_space_group_symop_operation_xyz
x,y,z
-x,y,-z
-x,-y,-z
x,-y,z
1/2+x,1/2+y,z
1/2-x,1/2+y,-z
1/2-x,1/2-y,-z
1/2+x,1/2-y,z
loop_
_atom_site_type_symbol
_atom_site_label
_atom_site_fract_x
_atom_site_fract_y
_atom_site_fract_z
Si Si1 0.144407 0.179328 0.755423
Si Si2 0.305512 0.178369 0.094901
Si Si3 0.015920 0.820277 0.242851
Si Si4 0.647255 0.679723 0.084920
Si Si5 0.526879 0.820115 0.578285
Si Si6 0.812218 0.320545 0.424878
O O1 0.170837 0.242817 0.831149
O O2 0.186138 0.252875 0.665821
O O3 0.060682 0.216398 0.770414
O O4 0.152046 0.000000 0.750132
O O5 0.222326 0.210247 0.103656
O O6 0.314117 0.000000 0.098764
O O7 0.349189 0.240242 0.002845
O O8 0.081057 0.772032 0.163329
O O9 0.015902 0.749321 0.331824
O O10 0.019745 0.000000 0.249673
O O11 0.642601 0.500000 0.073886
O O12 0.500000 0.768712 0.500000
O O13 0.610289 0.783855 0.563433
O O14 0.519782 0.000000 0.584259
O O15 0.805248 0.500000 0.423949
O O16 0.750000 0.250000 0.500000
#
# Coordination Sequence:
#
# PCOD9193300 Si02
#       6
#     8   8   8   8   8   8
#     4  10  20  35  54  75 102 135 170 209 253 300
#     4  10  20  34  53  77 104 134 169 209 253 301
#     4   9  19  35  54  75  99 132 172 210 249 296
#     4   9  19  36  54  74 102 134 170 210 252 300
#     4   9  19  35  53  75 103 133 166 207 254 300
#     4  10  20  35  54  76 104 135 169 209 251 300
#
# _framework density 17.368925000000001
#
# number of rings (size 3 to 8) (size 9 to 14) (size 15 to 20)
#    0.000    2.500    0.000    1.500    0.000    5.000 
#    0.000    6.667    0.000    0.000    0.000    0.000 
#    0.000    0.000    0.000    0.000    0.000    0.000 
#
# Total GULP energy -133925.230126 kJ/mol
# GULP energy per Si atom -5580.217922 kJ/mol
# Density = 1.732939 g / cm^3
# Si number density = 17.368925 Si / 1000 Ang^3
#
#
#
# Elastic Constant Matrix: (Units=GPa)
#
#
# Indices 1 2 3 4 5 6 
#
# 1 66.2096 43.5724 102.6512 0.0000 -2.3248 0.0000
# 2 43.5724 42.0195 68.7221 0.0000 2.2974 0.0000
# 3 102.6512 68.7221 209.4951 0.0000 -2.8620 0.0000
# 4 0.0000 0.0000 0.0000 39.9825 0.0000 1.6629
# 5 -2.3248 2.2974 -2.8620 0.0000 42.8855 0.0000
# 6 0.0000 0.0000 0.0000 1.6629 0.0000 22.5277
#
#
#
# Elastic Compliance Matrix: (Units=1/GPa)
#
#
# Indices 1 2 3 4 5 6 
#
# 1 0.093248 -0.048335 -0.029758 0.000000 0.005658 0.000000
# 2 -0.048335 0.077052 -0.001686 0.000000 -0.006861 0.000000
# 3 -0.029758 -0.001686 0.019905 0.000000 -0.000195 0.000000
# 4 0.000000 0.000000 0.000000 0.025088 0.000000 -0.001852
# 5 0.005658 -0.006861 -0.000195 0.000000 0.023979 0.000000
# 6 0.000000 0.000000 0.000000 -0.001852 0.000000 0.044527
#
#
# Mechanical properties :
#
#
# Convention : Reuss Voigt Hill
#
# Bulk Modulus (GPa) = 32.62915 83.06842 57.84879
# Shear Modulus (GPa) = 11.02360 27.93103 19.47732
#
# Velocity S-wave (km/s) = 2.52201 4.01447 3.35235
# Velocity P-wave (km/s) = 5.22565 8.33173 6.95432
#
# Compressibility (1/GPa) = 0.03064744
#
# Stress axis : x y z
#
# Youngs Moduli (GPa) = 10.72407 12.97825 50.23883
#
# Poissons Ratio (x) = 0.62730 1.49501
# Poissons Ratio (y) = 0.51835 0.08469
# Poissons Ratio (z) = 0.31913 0.02188
#
# Static dielectric constant tensor:
#      x y z
#    x 1.582700 0.000000 -0.003560 
#    y 0.000000 1.580130 0.000000 
#    z -0.003560 0.000000 1.555570 
# 
# From -- ./inp_files/229888.got.cif
#   From: 2010.05.17/outbox.cif.g08.bks.cpg/sg12_115_cif.got.tgz:229888.got - 2010.06.03 13:09:07.
