data_PCOD9193534
_publ_section_title
;
Structure prediction by ZEFSAII (Michael W. Deem and Ramdas Pophale) SiO2 
 PCOD9193534
Probable space group: C 2/M
;
_chemical_formula_sum "Si O2"
_cell_formula_units_Z 64
_cell_length_a 28.137810
_cell_length_b 7.760671
_cell_length_c 22.708890
_cell_angle_alpha 90.000000
_cell_angle_beta 33.504143
_cell_angle_gamma 90.000000
_cell_volume 2737.300084
_symmetry_space_group_name_H-M "C 2/M"
_symmetry_group_IT_number 12
_symmetry_cell_setting 'monoclinic'
loop_
_space_group_symop_operation_xyz
x,y,z
-x,y,-z
-x,-y,-z
x,-y,z
1/2+x,1/2+y,z
1/2-x,1/2+y,-z
1/2-x,1/2-y,-z
1/2+x,1/2-y,z
loop_
_atom_site_type_symbol
_atom_site_label
_atom_site_fract_x
_atom_site_fract_y
_atom_site_fract_z
Si Si1 0.831589 0.202917 0.992855
Si Si2 0.649745 0.699633 0.602454
Si Si3 0.857359 0.708623 0.830482
Si Si4 0.775807 0.711529 0.237085
Si Si5 0.409885 0.302263 0.572119
Si Si6 0.456278 0.199824 0.400132
Si Si7 0.931774 0.697115 0.997289
Si Si8 0.387246 0.791336 0.226749
O O1 0.733149 0.263971 0.104497
O O2 0.837046 0.000000 0.000256
O O3 0.853290 0.230604 0.902162
O O4 0.897736 0.299447 0.965831
O O5 0.643481 0.500000 0.594330
O O6 0.750000 0.750000 0.500000
O O7 0.595009 0.791089 0.608211
O O8 0.614886 0.730210 0.704211
O O9 0.857350 0.500000 0.831242
O O10 0.946118 0.766028 0.709644
O O11 0.772636 0.500000 0.237713
O O12 0.681913 0.776408 0.315660
O O13 0.803995 0.757765 0.274421
O O14 0.853700 0.773551 0.115482
O O15 0.500000 0.221943 0.500000
O O16 0.410275 0.500000 0.593333
O O17 0.411562 0.298909 0.499500
O O18 0.460621 0.000000 0.413475
O O19 0.940098 0.500000 0.009204
O O20 0.027379 0.771941 0.895796
O O21 0.391147 0.000000 0.224162
#
# Coordination Sequence:
#
# PCOD9193534 Si02
#       8
#     8   8   8   8   8   8   8   8
#     4  10  20  34  53  81 114 150 192 240 295 350
#     4  12  25  41  63  91 123 158 197 243 301 360
#     4   9  20  37  55  78 112 152 194 239 291 355
#     4   9  19  37  59  83 115 156 201 247 294 352
#     4  10  22  39  60  88 120 157 204 255 303 356
#     4  11  23  40  62  87 117 154 199 245 298 360
#     4  10  20  34  57  85 114 154 199 242 294 354
#     4  10  20  37  61  88 120 157 201 248 295 353
#
# _framework density 23.380704000000001
#
# number of rings (size 3 to 8) (size 9 to 14) (size 15 to 20)
#    0.000    1.875    0.000    3.750    1.750    7.750 
#    0.000    1.250    0.000    1.500    0.000    0.000 
#    0.000    0.000    0.000    0.000    0.000    0.000 
#
# Total GULP energy -178898.001876 kJ/mol
# GULP energy per Si atom -5590.562559 kJ/mol
# Density = 2.332749 g / cm^3
# Si number density = 23.380704 Si / 1000 Ang^3
#
#
#
# Elastic Constant Matrix: (Units=GPa)
#
#
# Indices 1 2 3 4 5 6 
#
# 1 81.3689 -1.7509 27.7479 -0.0020 -26.8987 0.0037
# 2 -1.7509 49.6757 -0.5060 -0.0089 -5.2897 0.0078
# 3 27.7479 -0.5060 131.6804 0.0046 -25.7703 0.0060
# 4 -0.0020 -0.0089 0.0046 14.6837 0.0051 5.7760
# 5 -26.8987 -5.2897 -25.7703 0.0051 38.7398 -0.0059
# 6 0.0037 0.0078 0.0060 5.7760 -0.0059 12.5222
#
#
#
# Elastic Compliance Matrix: (Units=1/GPa)
#
#
# Indices 1 2 3 4 5 6 
#
# 1 0.016309 0.001696 -0.001344 0.000000 0.010662 0.000000
# 2 0.001696 0.020663 0.000580 0.000019 0.004385 -0.000020
# 3 -0.001344 0.000580 0.008867 -0.000004 0.005045 0.000000
# 4 0.000000 0.000019 -0.000004 0.083198 -0.000017 -0.038376
# 5 0.010662 0.004385 0.005045 -0.000017 0.037171 0.000017
# 6 0.000000 -0.000020 0.000000 -0.038376 0.000017 0.097560
#
#
# Mechanical properties :
#
#
# Convention : Reuss Voigt Hill
#
# Bulk Modulus (GPa) = 20.96219 34.85636 27.90927
# Shear Modulus (GPa) = 17.99834 29.00474 23.50154
#
# Velocity S-wave (km/s) = 2.77753 3.52595 3.17388
# Velocity P-wave (km/s) = 4.38991 5.61400 5.03926
#
# Compressibility (1/GPa) = 0.04770494
#
# Stress axis : x y z
#
# Youngs Moduli (GPa) = 61.31603 48.39517 112.78103
#
# Poissons Ratio (x) = -0.08210 0.15153
# Poissons Ratio (y) = -0.10402 -0.06543
# Poissons Ratio (z) = 0.08238 -0.02808
#
# Static dielectric constant tensor:
#      x y z
#    x 1.821970 -0.000010 -0.016410 
#    y -0.000010 1.865530 0.000010 
#    z -0.016410 0.000010 1.896830 
# 
# From -- ./inp_files/353388.got.cif
#   From: 2010.05.17/outbox.cif.g08.bks.cpg/sg12_177_cif.got.tgz:353388.got - 2010.06.03 13:09:07.
