data_PCOD9193475
_publ_section_title
;
Structure prediction by ZEFSAII (Michael W. Deem and Ramdas Pophale) SiO2 
 PCOD9193475
Probable space group: C 2/M
;
_chemical_formula_sum "Si O2"
_cell_formula_units_Z 40
_cell_length_a 22.094375
_cell_length_b 7.418678
_cell_length_c 29.176172
_cell_angle_alpha 90.000000
_cell_angle_beta 19.521241
_cell_angle_gamma 90.000000
_cell_volume 1598.034691
_symmetry_space_group_name_H-M "C 2/M"
_symmetry_group_IT_number 12
_symmetry_cell_setting 'monoclinic'
loop_
_space_group_symop_operation_xyz
x,y,z
-x,y,-z
-x,-y,-z
x,-y,z
1/2+x,1/2+y,z
1/2-x,1/2+y,-z
1/2-x,1/2-y,-z
1/2+x,1/2-y,z
loop_
_atom_site_type_symbol
_atom_site_label
_atom_site_fract_x
_atom_site_fract_y
_atom_site_fract_z
Si Si1 0.091455 0.212949 0.576348
Si Si2 0.656513 0.279931 0.167749
Si Si3 0.958525 0.279505 0.081340
Si Si4 0.672564 0.295584 0.352599
Si Si5 0.641713 0.292781 0.691589
O O1 0.250000 0.250000 0.500000
O O2 0.174184 0.287052 0.470492
O O3 0.918061 0.277348 0.728830
O O4 0.071052 0.000000 0.584054
O O5 0.646300 0.500000 0.175092
O O6 0.519422 0.219302 0.225737
O O7 0.864771 0.227902 0.015305
O O8 0.948596 0.500000 0.088353
O O9 0.773439 0.215653 0.236811
O O10 0.000000 0.224240 0.000000
O O11 0.500000 0.206860 0.500000
O O12 0.617364 0.500000 0.379491
O O13 0.820200 0.302327 0.287918
O O14 0.600387 0.500000 0.731283
#
# Coordination Sequence:
#
# PCOD9193475 Si02
#       5
#     8   8   8   8   8
#     4   9  16  28  50  80 114 144 179 223 270 322
#     4   8  16  30  51  80 110 141 180 224 269 324
#     4   9  18  33  55  81 109 142 179 224 278 329
#     4  10  22  37  56  84 110 138 184 233 275 329
#     4  10  20  34  53  79 112 148 184 225 277 328
#
# _framework density 25.030746000000001
#
# number of rings (size 3 to 8) (size 9 to 14) (size 15 to 20)
#    0.000    2.800    0.000    2.400    2.800    1.200 
#    0.000    0.000    0.000    6.600    0.000    0.000 
#    0.000    0.000    0.000    0.000    0.000    0.000 
#
# Total GULP energy -111715.807475 kJ/mol
# GULP energy per Si atom -5585.790374 kJ/mol
# Density = 2.497377 g / cm^3
# Si number density = 25.030746 Si / 1000 Ang^3
#
#
#
# Elastic Constant Matrix: (Units=GPa)
#
#
# Indices 1 2 3 4 5 6 
#
# 1 123.2801 3.3864 46.2109 -0.0020 11.9405 -0.0177
# 2 3.3864 88.7512 -2.5845 -0.0074 -0.5153 0.0173
# 3 46.2109 -2.5845 191.9697 -0.0208 9.7723 -0.0203
# 4 -0.0020 -0.0074 -0.0208 0.9177 -0.0006 1.9975
# 5 11.9405 -0.5153 9.7723 -0.0006 36.4564 0.0145
# 6 -0.0177 0.0173 -0.0203 1.9975 0.0145 11.6117
#
#
#
# Elastic Compliance Matrix: (Units=1/GPa)
#
#
# Indices 1 2 3 4 5 6 
#
# 1 0.009140 -0.000424 -0.002082 -0.000100 -0.002442 0.000031
# 2 -0.000424 0.011292 0.000242 0.000214 0.000233 -0.000054
# 3 -0.002082 0.000242 0.005757 0.000177 -0.000858 -0.000023
# 4 -0.000100 0.000214 0.000177 1.742132 0.000137 -0.299699
# 5 -0.002442 0.000233 -0.000858 0.000137 0.028463 -0.000065
# 6 0.000031 -0.000054 -0.000023 -0.299699 -0.000065 0.137678
#
#
# Mechanical properties :
#
#
# Convention : Reuss Voigt Hill
#
# Bulk Modulus (GPa) = 46.16128 55.33630 50.74879
# Shear Modulus (GPa) = 2.56910 33.59635 18.08273
#
# Velocity S-wave (km/s) = 1.01420 3.66758 2.69070
# Velocity P-wave (km/s) = 4.45571 6.33168 5.47465
#
# Compressibility (1/GPa) = 0.02166318
#
# Stress axis : x y z
#
# Youngs Moduli (GPa) = 109.40905 88.55786 173.69579
#
# Poissons Ratio (x) = 0.03751 0.36156
# Poissons Ratio (y) = 0.04634 -0.04205
# Poissons Ratio (z) = 0.22775 -0.02144
#
# Static dielectric constant tensor:
#      x y z
#    x 1.962350 0.000000 -0.020900 
#    y 0.000000 1.935200 0.000020 
#    z -0.020900 0.000020 1.987830 
# 
# From -- ./inp_files/171860.got.cif
#   From: 2010.05.17/outbox.cif.g08.bks.cpg/sg12_86_cif.got.tgz:171860.got - 2010.06.03 13:09:07.
