data_PCOD9193390
_publ_section_title
;
Structure prediction by ZEFSAII (Michael W. Deem and Ramdas Pophale) SiO2 
 PCOD9193390
Probable space group: C 2/M
;
_chemical_formula_sum "Si O2"
_cell_formula_units_Z 56
_cell_length_a 8.720200
_cell_length_b 11.143732
_cell_length_c 35.805650
_cell_angle_alpha 90.000000
_cell_angle_beta 54.893043
_cell_angle_gamma 90.000000
_cell_volume 2846.455412
_symmetry_space_group_name_H-M "C 2/M"
_symmetry_group_IT_number 12
_symmetry_cell_setting 'monoclinic'
loop_
_space_group_symop_operation_xyz
x,y,z
-x,y,-z
-x,-y,-z
x,-y,z
1/2+x,1/2+y,z
1/2-x,1/2+y,-z
1/2-x,1/2-y,-z
1/2+x,1/2-y,z
loop_
_atom_site_type_symbol
_atom_site_label
_atom_site_fract_x
_atom_site_fract_y
_atom_site_fract_z
Si Si1 0.398094 0.633114 0.372016
Si Si2 0.220634 0.636739 0.477171
Si Si3 0.820446 0.703618 0.312995
Si Si4 0.243796 0.364416 0.252546
Si Si5 0.328352 0.137351 0.965203
Si Si6 0.754233 0.274651 0.095814
Si Si7 0.653598 0.637939 0.844214
O O1 0.328068 0.500000 0.372954
O O2 0.328590 0.661700 0.423307
O O3 0.623797 0.635123 0.339232
O O4 0.322777 0.721307 0.351013
O O5 0.276010 0.500000 0.482271
O O6 0.250000 0.750000 0.500000
O O7 0.000000 0.631573 0.500000
O O8 0.817080 0.787572 0.276840
O O9 0.017471 0.635324 0.285259
O O10 0.315601 0.500000 0.245798
O O11 0.304132 0.317220 0.203472
O O12 0.258414 0.168813 0.933198
O O13 0.553435 0.152406 0.935615
O O14 0.276679 0.000000 0.983012
O O15 0.250000 0.250000 0.000000
O O16 0.568481 0.353043 0.117049
O O17 0.752749 0.217312 0.137055
O O18 0.716615 0.500000 0.837575
#
# Coordination Sequence:
#
# PCOD9193390 Si02
#       7
#     8   8   8   8   8   8   8
#     4  10  20  35  54  76 106 142 178 221 273 326
#     4  10  21  37  56  80 109 143 185 231 279 332
#     4  10  20  34  53  78 108 139 178 220 268 322
#     4  10  20  34  54  80 108 140 179 221 266 318
#     4  11  24  40  60  86 115 148 187 230 277 329
#     4  10  22  38  58  82 112 145 184 225 272 325
#     4  10  20  36  57  80 109 144 180 222 270 320
#
# _framework density 19.673590999999998
#
# number of rings (size 3 to 8) (size 9 to 14) (size 15 to 20)
#    0.000    1.857    0.000    3.857    0.000    4.857 
#    0.000    3.571    0.000   13.714    0.000    0.000 
#    0.000    0.000    0.000    0.000    0.000    0.000 
#
# Total GULP energy -156239.923499 kJ/mol
# GULP energy per Si atom -5579.997268 kJ/mol
# Density = 1.962881 g / cm^3
# Si number density = 19.673591 Si / 1000 Ang^3
#
#
#
# Elastic Constant Matrix: (Units=GPa)
#
#
# Indices 1 2 3 4 5 6 
#
# 1 51.2302 18.7725 -1.1270 -0.0001 8.0969 0.0000
# 2 18.7725 106.1740 46.5205 -0.0001 22.6463 0.0000
# 3 -1.1270 46.5205 88.9886 0.0000 10.6548 0.0000
# 4 -0.0001 -0.0001 0.0000 -841.1778 0.0000 -268.3489
# 5 8.0969 22.6463 10.6548 0.0000 25.7625 0.0000
# 6 0.0000 0.0000 0.0000 -268.3489 0.0000 -80.2626
#
#
#
# Elastic Compliance Matrix: (Units=1/GPa)
#
#
# Indices 1 2 3 4 5 6 
#
# 1 0.021836 -0.004252 0.003023 0.000000 -0.004375 0.000000
# 2 -0.004252 0.015125 -0.006869 0.000000 -0.009118 0.000000
# 3 0.003023 -0.006869 0.015000 0.000000 -0.001116 0.000000
# 4 0.000000 0.000000 0.000000 0.017852 0.000000 -0.059686
# 5 -0.004375 -0.009118 -0.001116 0.000000 0.048668 0.000000
# 6 0.000000 0.000000 0.000000 -0.059686 0.000000 0.187095
#
#
# Mechanical properties :
#
#
# Convention : Reuss Voigt Hill
#
# Bulk Modulus (GPa) = 27.96011 41.63608 34.79809
# Shear Modulus (GPa) = 14.98383 -166.98712 -76.00165
#
# Velocity S-wave (km/s) = 2.76274 -9.22297 -6.22215
# Velocity P-wave (km/s) = 4.94164 9.60250 5.82186
#
# Compressibility (1/GPa) = 0.03576524
#
# Stress axis : x y z
#
# Youngs Moduli (GPa) = 45.79608 66.11658 66.66604
#
# Poissons Ratio (x) = 0.28114 -0.20156
# Poissons Ratio (y) = 0.19474 0.45792
# Poissons Ratio (z) = -0.13846 0.45415
#
# Static dielectric constant tensor:
#      x y z
#    x 1.663940 0.000000 -0.002710 
#    y 0.000000 1.526980 0.000000 
#    z -0.002710 0.000000 1.696730 
# 
# From -- ./inp_files/355747.got.cif
#   From: 2010.05.17/outbox.cif.g08.bks.cpg/sg12_178_cif.got.tgz:355747.got - 2010.06.03 13:09:07.
