data_PCOD9193576
_publ_section_title
;
Structure prediction by ZEFSAII (Michael W. Deem and Ramdas Pophale) SiO2 
 PCOD9193576
Probable space group: C 2/M
;
_chemical_formula_sum "Si O2"
_cell_formula_units_Z 64
_cell_length_a 21.890940
_cell_length_b 24.486684
_cell_length_c 5.427082
_cell_angle_alpha 90.000000
_cell_angle_beta 83.802994
_cell_angle_gamma 90.000000
_cell_volume 2892.115105
_symmetry_space_group_name_H-M "C 2/M"
_symmetry_group_IT_number 12
_symmetry_cell_setting 'monoclinic'
loop_
_space_group_symop_operation_xyz
x,y,z
-x,y,-z
-x,-y,-z
x,-y,z
1/2+x,1/2+y,z
1/2-x,1/2+y,-z
1/2-x,1/2-y,-z
1/2+x,1/2-y,z
loop_
_atom_site_type_symbol
_atom_site_label
_atom_site_fract_x
_atom_site_fract_y
_atom_site_fract_z
Si Si1 0.684530 0.152893 0.591696
Si Si2 0.355172 0.443111 0.616837
Si Si3 0.057391 0.795293 0.657579
Si Si4 0.963201 0.085159 0.253108
Si Si5 0.800251 0.148260 0.911916
Si Si6 0.933721 0.685614 0.049104
Si Si7 0.651129 0.753788 0.270922
Si Si8 0.742938 0.938146 0.318340
O O1 0.742233 0.155178 0.752392
O O2 0.621161 0.158725 0.769714
O O3 0.693263 0.203571 0.398534
O O4 0.685034 0.095745 0.444137
O O5 0.367061 0.500000 0.751009
O O6 0.399935 0.441511 0.363892
O O7 0.356114 0.388154 0.773537
O O8 0.287469 0.444384 0.533289
O O9 0.054595 0.852290 0.797561
O O10 0.051352 0.742059 0.821052
O O11 0.120118 0.786359 0.481982
O O12 0.000000 0.796722 0.500000
O O13 0.000000 0.082093 0.500000
O O14 0.000000 0.063973 0.000000
O O15 0.821887 0.211182 0.941651
O O16 0.775823 0.106654 0.129999
O O17 0.901681 0.706514 0.813240
O O18 0.000000 0.656516 0.000000
O O19 0.733263 0.000000 0.223098
#
# Coordination Sequence:
#
# PCOD9193576 Si02
#       8
#     8   8   8   8   8   8   8   8
#     4  10  24  40  59  94 127 161 206 263 327 389
#     4  10  23  40  59  86 118 164 223 280 330 385
#     4  10  20  34  53  85 123 166 213 258 310 381
#     4  11  25  39  60  87 125 174 229 285 341 391
#     4  11  22  40  64  89 123 168 216 265 326 390
#     4  11  22  36  61  90 128 171 206 250 315 405
#     4  11  22  36  60  93 128 164 203 262 316 387
#     4  10  23  42  65  88 119 163 215 274 328 387
#
# _framework density 22.129134000000001
#
# number of rings (size 3 to 8) (size 9 to 14) (size 15 to 20)
#    0.000    1.500    2.500    1.875    5.250    4.000 
#    0.000    0.000    0.000    0.375    0.000    3.500 
#    0.000    0.000    0.000    0.000    0.000    0.000 
#
# Total GULP energy -178537.389754 kJ/mol
# GULP energy per Si atom -5579.293430 kJ/mol
# Density = 2.207877 g / cm^3
# Si number density = 22.129134 Si / 1000 Ang^3
#
#
#
# Elastic Constant Matrix: (Units=GPa)
#
#
# Indices 1 2 3 4 5 6 
#
# 1 66.0407 32.5746 17.5481 0.0000 -13.6262 0.0000
# 2 32.5746 103.6220 22.8301 0.0000 -17.4823 0.0000
# 3 17.5481 22.8301 69.5926 0.0000 -20.2530 0.0000
# 4 0.0000 0.0000 0.0000 192.7859 0.0000 -202.0855
# 5 -13.6262 -17.4823 -20.2530 0.0000 44.4285 0.0000
# 6 0.0000 0.0000 0.0000 -202.0855 0.0000 233.7186
#
#
#
# Elastic Compliance Matrix: (Units=1/GPa)
#
#
# Indices 1 2 3 4 5 6 
#
# 1 0.018753 -0.004920 -0.002311 0.000000 0.002762 0.000000
# 2 -0.004920 0.012034 -0.002039 0.000000 0.002297 0.000000
# 3 -0.002311 -0.002039 0.017503 0.000000 0.006468 0.000000
# 4 0.000000 0.000000 0.000000 0.055395 0.000000 0.047897
# 5 0.002762 0.002297 0.006468 0.000000 0.027208 0.000000
# 6 0.000000 0.000000 0.000000 0.047897 0.000000 0.045693
#
#
# Mechanical properties :
#
#
# Convention : Reuss Voigt Hill
#
# Bulk Modulus (GPa) = 33.61242 42.79566 38.20404
# Shear Modulus (GPa) = 24.38528 105.27343 64.82935
#
# Velocity S-wave (km/s) = 3.32317 6.90475 5.41844
# Velocity P-wave (km/s) = 5.47237 9.10761 7.51317
#
# Compressibility (1/GPa) = 0.02975090
#
# Stress axis : x y z
#
# Youngs Moduli (GPa) = 53.32502 83.09919 57.13257
#
# Poissons Ratio (x) = 0.40885 0.13202
# Poissons Ratio (y) = 0.26236 0.11647
# Poissons Ratio (z) = 0.12322 0.16941
#
# Static dielectric constant tensor:
#      x y z
#    x 1.915550 0.000000 0.013330 
#    y 0.000000 1.847770 0.000000 
#    z 0.013330 0.000000 1.950600 
# 
# From -- ./inp_files/26212.got.cif
#   From: 2010.05.17/outbox.cif.g08.bks.cpg/sg12_14_cif.got.tgz:26212.got - 2010.06.03 13:09:07.
