data_PCOD9193403
_publ_section_title
;
Structure prediction by ZEFSAII (Michael W. Deem and Ramdas Pophale) SiO2 
 PCOD9193403
Probable space group: C 2/M
;
_chemical_formula_sum "Si O2"
_cell_formula_units_Z 64
_cell_length_a 9.120182
_cell_length_b 19.840840
_cell_length_c 17.356479
_cell_angle_alpha 90.000000
_cell_angle_beta 83.458872
_cell_angle_gamma 90.000000
_cell_volume 3120.246006
_symmetry_space_group_name_H-M "C 2/M"
_symmetry_group_IT_number 12
_symmetry_cell_setting 'monoclinic'
loop_
_space_group_symop_operation_xyz
x,y,z
-x,y,-z
-x,-y,-z
x,-y,z
1/2+x,1/2+y,z
1/2-x,1/2+y,-z
1/2-x,1/2-y,-z
1/2+x,1/2-y,z
loop_
_atom_site_type_symbol
_atom_site_label
_atom_site_fract_x
_atom_site_fract_y
_atom_site_fract_z
Si Si1 0.790548 0.578388 0.574958
Si Si2 0.755264 0.168096 0.905623
Si Si3 0.592608 0.305397 0.866033
Si Si4 0.387232 0.922385 0.390968
Si Si5 0.511710 0.743943 0.281308
Si Si6 0.673835 0.577556 0.963266
Si Si7 0.701424 0.841952 0.743841
Si Si8 0.375019 0.291954 0.445747
O O1 0.750020 0.500000 0.593449
O O2 0.826485 0.582683 0.481281
O O3 0.677714 0.638958 0.590844
O O4 0.940411 0.596211 0.611226
O O5 0.664545 0.237328 0.896981
O O6 0.738006 0.128903 0.825137
O O7 0.923919 0.192060 0.904844
O O8 0.732001 0.117154 0.977223
O O9 0.572842 0.304496 0.774602
O O10 0.673955 0.372071 0.890643
O O11 0.291076 0.885062 0.333411
O O12 0.386103 0.000000 0.369115
O O13 0.466870 0.814583 0.245425
O O14 0.678285 0.718178 0.273255
O O15 0.445834 0.748521 0.370647
O O16 0.719340 0.500000 0.948075
O O17 0.500000 0.574906 0.000000
O O18 0.500000 0.307577 0.500000
O O19 0.250000 0.250000 0.500000
#
# Coordination Sequence:
#
# PCOD9193403 Si02
#       8
#     8   8   8   8   8   8   8   8
#     4   9  20  37  54  73 101 139 179 221 268 326
#     4   9  18  32  54  81 107 140 178 220 263 316
#     4   9  18  34  54  77 107 143 181 215 267 322
#     4   9  18  34  55  74  99 137 178 217 266 326
#     4  10  21  35  50  80 109 141 178 223 276 324
#     4   9  17  31  54  83 111 138 176 223 266 316
#     4  10  20  34  53  78 109 140 176 224 272 319
#     4  12  25  36  55  83 110 141 180 232 280 320
#
# _framework density 20.511205
#
# number of rings (size 3 to 8) (size 9 to 14) (size 15 to 20)
#    0.000    2.375    0.000    3.375    5.250    0.750 
#    0.000    3.125    0.000    1.500    0.000    0.000 
#    0.000    0.000    0.000    0.000    0.000    0.000 
#
# Total GULP energy -178209.253276 kJ/mol
# GULP energy per Si atom -5569.039165 kJ/mol
# Density = 2.046452 g / cm^3
# Si number density = 20.511205 Si / 1000 Ang^3
#
#
#
# Elastic Constant Matrix: (Units=GPa)
#
#
# Indices 1 2 3 4 5 6 
#
# 1 51.1241 29.8894 5.9700 0.0000 20.7005 0.0000
# 2 29.8894 88.3972 19.0835 0.0000 18.8296 0.0000
# 3 5.9700 19.0835 50.4241 0.0000 16.2554 0.0000
# 4 0.0000 0.0000 0.0000 22.7362 0.0000 3.1558
# 5 20.7005 18.8296 16.2554 0.0000 21.2012 0.0000
# 6 0.0000 0.0000 0.0000 3.1558 0.0000 23.1377
#
#
#
# Elastic Compliance Matrix: (Units=1/GPa)
#
#
# Indices 1 2 3 4 5 6 
#
# 1 0.038380 -0.006864 0.010851 0.000000 -0.039697 0.000000
# 2 -0.006864 0.015291 -0.003662 0.000000 -0.004071 0.000000
# 3 0.010851 -0.003662 0.029622 0.000000 -0.030054 0.000000
# 4 0.000000 0.000000 0.000000 0.044831 0.000000 -0.006115
# 5 -0.039697 -0.004071 -0.030054 0.000000 0.112586 0.000000
# 6 0.000000 0.000000 0.000000 -0.006115 0.000000 0.044053
#
#
# Mechanical properties :
#
#
# Convention : Reuss Voigt Hill
#
# Bulk Modulus (GPa) = 11.91287 33.31460 22.61374
# Shear Modulus (GPa) = 16.02083 22.41518 19.21800
#
# Velocity S-wave (km/s) = 2.79781 3.30938 3.06429
# Velocity P-wave (km/s) = 4.03207 5.55698 4.85477
#
# Compressibility (1/GPa) = 0.08394280
#
# Stress axis : x y z
#
# Youngs Moduli (GPa) = 26.05550 65.39715 33.75914
#
# Poissons Ratio (x) = 0.44887 -0.36632
# Poissons Ratio (y) = 0.17884 0.12363
# Poissons Ratio (z) = -0.28273 0.23948
#
# Static dielectric constant tensor:
#      x y z
#    x 1.762260 0.000000 -0.025600 
#    y 0.000000 1.763450 0.000000 
#    z -0.025600 0.000000 1.763470 
# 
# From -- ./inp_files/258124.got.cif
#   From: 2010.05.17/outbox.cif.g08.bks.cpg/sg12_130_cif.got.tgz:258124.got - 2010.06.03 13:09:07.
