data_PCOD9193368
_publ_section_title
;
Structure prediction by ZEFSAII (Michael W. Deem and Ramdas Pophale) SiO2 
 PCOD9193368
Probable space group: C 2/M
;
_chemical_formula_sum "Si O2"
_cell_formula_units_Z 56
_cell_length_a 22.132511
_cell_length_b 16.872224
_cell_length_c 9.935400
_cell_angle_alpha 90.000000
_cell_angle_beta 56.660666
_cell_angle_gamma 90.000000
_cell_volume 3099.549507
_symmetry_space_group_name_H-M "C 2/M"
_symmetry_group_IT_number 12
_symmetry_cell_setting 'monoclinic'
loop_
_space_group_symop_operation_xyz
x,y,z
-x,y,-z
-x,-y,-z
x,-y,z
1/2+x,1/2+y,z
1/2-x,1/2+y,-z
1/2-x,1/2-y,-z
1/2+x,1/2-y,z
loop_
_atom_site_type_symbol
_atom_site_label
_atom_site_fract_x
_atom_site_fract_y
_atom_site_fract_z
Si Si1 0.932146 0.233951 0.485406
Si Si2 0.304587 0.591628 0.014175
Si Si3 0.168368 0.909720 0.322362
Si Si4 0.212149 0.346810 0.648696
Si Si5 0.213177 0.317761 0.348005
Si Si6 0.086444 0.086262 0.894110
Si Si7 0.430492 0.244792 0.179506
O O1 0.892721 0.148338 0.544041
O O2 0.868568 0.297033 0.593898
O O3 0.953714 0.252407 0.305887
O O4 0.000000 0.237446 0.500000
O O5 0.279444 0.500000 0.042107
O O6 0.254481 0.642579 0.174136
O O7 0.382125 0.592001 0.994044
O O8 0.312100 0.619668 0.852342
O O9 0.241783 0.907614 0.320088
O O10 0.141993 0.000000 0.344364
O O11 0.216886 0.365823 0.483900
O O12 0.252782 0.265620 0.644645
O O13 0.128405 0.323646 0.775254
O O14 0.106939 0.168590 0.798211
O O15 0.111755 0.000000 0.808087
O O16 0.000000 0.084881 0.000000
O O17 0.500000 0.238010 0.000000
#
# Coordination Sequence:
#
# PCOD9193368 Si02
#       7
#     8   8   8   8   8   8   8
#     4  10  23  36  52  78 110 141 170 217 270 310
#     4  10  20  34  53  78 106 139 181 217 255 313
#     4  10  23  37  52  78 111 141 174 217 266 314
#     4   9  18  35  53  75 105 136 174 225 263 304
#     4   9  18  35  53  76 103 136 182 217 257 313
#     4   9  18  30  47  72 106 143 177 212 247 297
#     4  10  20  34  55  79 105 137 184 215 252 316
#
# _framework density 18.067142
#
# number of rings (size 3 to 8) (size 9 to 14) (size 15 to 20)
#    0.000    2.429    1.429    0.857    4.000    4.857 
#    0.000    0.000    0.000    0.857    0.000    0.000 
#    0.000    0.000    0.000    0.000    0.000    0.000 
#
# Total GULP energy -155925.406091 kJ/mol
# GULP energy per Si atom -5568.764503 kJ/mol
# Density = 1.802602 g / cm^3
# Si number density = 18.067142 Si / 1000 Ang^3
#
#
#
# Elastic Constant Matrix: (Units=GPa)
#
#
# Indices 1 2 3 4 5 6 
#
# 1 136.1663 21.5149 56.1680 0.0000 3.8228 0.0000
# 2 21.5149 24.2495 19.2528 0.0000 0.7116 0.0000
# 3 56.1680 19.2528 102.2884 0.0000 -3.3277 0.0000
# 4 0.0000 0.0000 0.0000 17.9904 0.0000 6.3062
# 5 3.8228 0.7116 -3.3277 0.0000 20.0917 0.0000
# 6 0.0000 0.0000 0.0000 6.3062 0.0000 17.7083
#
#
#
# Elastic Compliance Matrix: (Units=1/GPa)
#
#
# Indices 1 2 3 4 5 6 
#
# 1 0.010174 -0.005234 -0.004684 0.000000 -0.002526 0.000000
# 2 -0.005234 0.051387 -0.006862 0.000000 -0.001961 0.000000
# 3 -0.004684 -0.006862 0.013751 0.000000 0.003412 0.000000
# 4 0.000000 0.000000 0.000000 0.063513 0.000000 -0.022618
# 5 -0.002526 -0.001961 0.003412 0.000000 0.050887 0.000000
# 6 0.000000 0.000000 0.000000 -0.022618 0.000000 0.064525
#
#
# Mechanical properties :
#
#
# Convention : Reuss Voigt Hill
#
# Bulk Modulus (GPa) = 23.95052 50.73062 37.34057
# Shear Modulus (GPa) = 16.57201 22.20933 19.39067
#
# Velocity S-wave (km/s) = 3.03189 3.50989 3.27961
# Velocity P-wave (km/s) = 5.05388 6.67575 5.92062
#
# Compressibility (1/GPa) = 0.04175276
#
# Stress axis : x y z
#
# Youngs Moduli (GPa) = 98.29132 19.46015 72.72365
#
# Poissons Ratio (x) = 0.10185 0.34061
# Poissons Ratio (y) = 0.51444 0.49902
# Poissons Ratio (z) = 0.46036 0.13353
#
# Static dielectric constant tensor:
#      x y z
#    x 1.627350 0.000000 0.001590 
#    y 0.000000 1.663120 0.000000 
#    z 0.001590 0.000000 1.626460 
# 
# From -- ./inp_files/87813.got.cif
#   From: 2010.05.17/outbox.cif.g08.bks.cpg/sg12_44_cif.got.tgz:87813.got - 2010.06.03 13:09:07.
