data_PCOD9193195
_publ_section_title
;
Structure prediction by ZEFSAII (Michael W. Deem and Ramdas Pophale) SiO2 
 PCOD9193195
Probable space group: C 2/M
;
_chemical_formula_sum "Si O2"
_cell_formula_units_Z 64
_cell_length_a 10.554054
_cell_length_b 17.730554
_cell_length_c 21.908264
_cell_angle_alpha 90.000000
_cell_angle_beta 50.972855
_cell_angle_gamma 90.000000
_cell_volume 3184.824308
_symmetry_space_group_name_H-M "C 2/M"
_symmetry_group_IT_number 12
_symmetry_cell_setting 'monoclinic'
loop_
_space_group_symop_operation_xyz
x,y,z
-x,y,-z
-x,-y,-z
x,-y,z
1/2+x,1/2+y,z
1/2-x,1/2+y,-z
1/2-x,1/2-y,-z
1/2+x,1/2-y,z
loop_
_atom_site_type_symbol
_atom_site_label
_atom_site_fract_x
_atom_site_fract_y
_atom_site_fract_z
Si Si1 0.932055 0.321246 0.585630
Si Si2 0.003778 0.085172 0.314845
Si Si3 0.639729 0.821993 0.206764
Si Si4 0.304580 0.412764 0.259709
Si Si5 0.552447 0.841703 0.048319
Si Si6 0.614777 0.739380 0.632987
Si Si7 0.885072 0.412704 0.209260
Si Si8 0.343257 0.322395 0.025361
O O1 0.840282 0.386795 0.650571
O O2 0.789939 0.258560 0.613547
O O3 0.000000 0.345345 0.500000
O O4 0.073823 0.288519 0.586118
O O5 0.191883 0.091960 0.276604
O O6 0.965067 0.096016 0.253750
O O7 0.906461 0.151546 0.376785
O O8 0.948820 0.000000 0.345120
O O9 0.773536 0.858689 0.211397
O O10 0.532571 0.760688 0.275510
O O11 0.502569 0.882729 0.227142
O O12 0.731573 0.797628 0.116969
O O13 0.291256 0.500000 0.245966
O O14 0.425739 0.860915 0.138806
O O15 0.727224 0.870075 0.017636
O O16 0.500000 0.873256 0.000000
O O17 0.585443 0.752088 0.029432
O O18 0.924744 0.500000 0.184297
O O19 0.500000 0.366745 0.000000
#
# Coordination Sequence:
#
# PCOD9193195 Si02
#       8
#     8   8   8   8   8   8   8   8
#     4  10  20  35  55  83 113 144 176 216 265 315
#     4   9  19  34  52  77 108 139 174 216 268 316
#     4  10  20  34  56  81 105 138 183 228 266 312
#     4   9  19  36  55  81 110 140 179 220 266 318
#     4   9  19  33  47  69  97 132 172 215 264 318
#     4  10  20  34  55  83 108 144 177 223 261 314
#     4  10  20  34  53  74 103 142 176 222 273 319
#     4   9  19  34  49  74 100 133 173 225 272 311
#
# _framework density 20.095299000000001
#
# number of rings (size 3 to 8) (size 9 to 14) (size 15 to 20)
#    0.000    2.500    0.000    1.500    3.500    1.500 
#   13.500    0.000    0.000    9.750    0.000    0.000 
#    0.000    0.000    0.000    0.000    0.000    0.000 
#
# Total GULP energy -178225.776542 kJ/mol
# GULP energy per Si atom -5569.555517 kJ/mol
# Density = 2.004956 g / cm^3
# Si number density = 20.095299 Si / 1000 Ang^3
#
#
#
# Elastic Constant Matrix: (Units=GPa)
#
#
# Indices 1 2 3 4 5 6 
#
# 1 79.9638 -7.6100 -5.2361 0.0000 -4.0437 0.0001
# 2 -7.6100 50.2241 10.6002 0.0000 1.0989 0.0000
# 3 -5.2361 10.6002 47.6584 0.0000 9.2842 0.0000
# 4 0.0000 0.0000 0.0000 8.7620 0.0000 -3.3150
# 5 -4.0437 1.0989 9.2842 0.0000 23.4905 0.0000
# 6 0.0001 0.0000 0.0000 -3.3150 0.0000 23.2623
#
#
#
# Elastic Compliance Matrix: (Units=1/GPa)
#
#
# Indices 1 2 3 4 5 6 
#
# 1 0.012810 0.001763 0.000652 0.000000 0.001865 0.000000
# 2 0.001763 0.021153 -0.004743 0.000000 0.001188 0.000000
# 3 0.000652 -0.004743 0.023883 0.000000 -0.009105 0.000000
# 4 0.000000 0.000000 0.000000 0.120633 0.000000 0.017191
# 5 0.001865 0.001188 -0.009105 0.000000 0.046434 0.000000
# 6 0.000000 0.000000 0.000000 0.017191 0.000000 0.045438
#
#
# Mechanical properties :
#
#
# Convention : Reuss Voigt Hill
#
# Bulk Modulus (GPa) = 18.80044 19.26161 19.03103
# Shear Modulus (GPa) = 17.08017 23.10913 20.09465
#
# Velocity S-wave (km/s) = 2.91857 3.39481 3.16566
# Velocity P-wave (km/s) = 4.55339 4.99722 4.78046
#
# Compressibility (1/GPa) = 0.05319023
#
# Stress axis : x y z
#
# Youngs Moduli (GPa) = 78.06152 47.27508 41.87092
#
# Poissons Ratio (x) = -0.08333 -0.02730
# Poissons Ratio (y) = -0.13759 0.19858
# Poissons Ratio (z) = -0.05090 0.22421
#
# Static dielectric constant tensor:
#      x y z
#    x 1.832080 0.000000 0.009280 
#    y 0.000000 1.699550 0.000000 
#    z 0.009280 0.000000 1.705110 
# 
# From -- ./inp_files/306174.got.cif
#   From: 2010.05.17/outbox.cif.g08.bks.cpg/sg12_154_cif.got.tgz:306174.got - 2010.06.03 13:09:07.
