data_PCOD9193703
_publ_section_title
;
Structure prediction by ZEFSAII (Michael W. Deem and Ramdas Pophale) SiO2 
 PCOD9193703
Probable space group: C 2/M
;
_chemical_formula_sum "Si O2"
_cell_formula_units_Z 56
_cell_length_a 19.001002
_cell_length_b 8.602035
_cell_length_c 30.028907
_cell_angle_alpha 90.000000
_cell_angle_beta 141.968875
_cell_angle_gamma 90.000000
_cell_volume 3023.855347
_symmetry_space_group_name_H-M "C 2/M"
_symmetry_group_IT_number 12
_symmetry_cell_setting 'monoclinic'
loop_
_space_group_symop_operation_xyz
x,y,z
-x,y,-z
-x,-y,-z
x,-y,z
1/2+x,1/2+y,z
1/2-x,1/2+y,-z
1/2-x,1/2-y,-z
1/2+x,1/2-y,z
loop_
_atom_site_type_symbol
_atom_site_label
_atom_site_fract_x
_atom_site_fract_y
_atom_site_fract_z
Si Si1 0.803792 0.812365 0.708538
Si Si2 0.461234 0.314057 0.703417
Si Si3 0.000032 0.685668 0.134694
Si Si4 0.580827 0.687849 0.999954
Si Si5 0.457823 0.189786 0.430260
Si Si6 0.842772 0.687713 0.139665
Si Si7 0.377836 0.186328 0.568122
O O1 0.867225 0.767756 0.694031
O O2 0.672576 0.760971 0.643191
O O3 0.879580 0.745923 0.786330
O O4 0.806526 0.000000 0.712432
O O5 0.458889 0.500000 0.698546
O O6 0.582331 0.259043 0.783399
O O7 0.431326 0.240718 0.641319
O O8 0.002020 0.500000 0.133429
O O9 0.906116 0.731916 0.125195
O O10 0.966204 0.753269 0.070393
O O11 0.580662 0.500000 0.998923
O O12 0.711543 0.738156 0.072903
O O13 0.500000 0.739460 0.000000
O O14 0.500000 0.240143 0.500000
O O15 0.543487 0.239742 0.433983
O O16 0.457763 0.000000 0.430433
O O17 0.846816 0.500000 0.145418
O O18 0.250000 0.250000 0.500000
O O19 0.373805 0.000000 0.564963
#
# Coordination Sequence:
#
# PCOD9193703 Si02
#       7
#     8   8   8   8   8   8   8
#     4   9  18  35  58  79 102 137 179 217 254 307
#     4  10  20  35  57  82 107 137 174 216 261 312
#     4  10  20  34  54  79 107 137 171 217 269 315
#     4  10  21  36  54  76 104 140 181 220 258 309
#     4   9  18  34  56  79 102 134 178 219 253 299
#     4   9  19  36  56  78 105 138 176 217 261 311
#     4  11  22  36  56  80 108 140 174 216 262 309
#
# _framework density 18.519404999999999
#
# number of rings (size 3 to 8) (size 9 to 14) (size 15 to 20)
#    0.000    2.286    0.000    2.571    0.000    5.429 
#    0.000    7.143    0.000    3.000    0.000    0.000 
#    0.000    0.000    0.000    0.000    0.000    0.000 
#
# Total GULP energy -156350.201559 kJ/mol
# GULP energy per Si atom -5583.935770 kJ/mol
# Density = 1.847725 g / cm^3
# Si number density = 18.519405 Si / 1000 Ang^3
#
#
#
# Elastic Constant Matrix: (Units=GPa)
#
#
# Indices 1 2 3 4 5 6 
#
# 1 143.4006 32.5158 136.2564 0.0000 6.1782 0.0000
# 2 32.5158 18.0366 37.2382 0.0000 -1.3412 0.0001
# 3 136.2564 37.2382 207.6470 0.0000 3.2033 0.0000
# 4 0.0000 0.0000 0.0000 30.9935 0.0000 -0.7969
# 5 6.1782 -1.3412 3.2033 0.0000 37.7096 0.0000
# 6 0.0000 0.0001 0.0000 -0.7969 0.0000 21.3411
#
#
#
# Elastic Compliance Matrix: (Units=1/GPa)
#
#
# Indices 1 2 3 4 5 6 
#
# 1 0.021075 -0.015511 -0.011000 0.000000 -0.003070 0.000000
# 2 -0.015511 0.100217 -0.007899 0.000000 0.006776 0.000000
# 3 -0.011000 -0.007899 0.013445 0.000000 0.000379 0.000000
# 4 0.000000 0.000000 0.000000 0.032296 0.000000 0.001206
# 5 -0.003070 0.006776 0.000379 0.000000 0.027230 0.000000
# 6 0.000000 0.000000 0.000000 0.001206 0.000000 0.046903
#
#
# Mechanical properties :
#
#
# Convention : Reuss Voigt Hill
#
# Bulk Modulus (GPa) = 15.17060 86.78944 50.98002
# Shear Modulus (GPa) = 15.06217 28.88041 21.97129
#
# Velocity S-wave (km/s) = 2.85497 3.95329 3.44814
# Velocity P-wave (km/s) = 4.36776 8.23431 6.59095
#
# Compressibility (1/GPa) = 0.06591697
#
# Stress axis : x y z
#
# Youngs Moduli (GPa) = 47.44947 9.97839 74.37754
#
# Poissons Ratio (x) = 0.15477 0.81818
# Poissons Ratio (y) = 0.73597 0.58750
# Poissons Ratio (z) = 0.52196 0.07882
#
# Static dielectric constant tensor:
#      x y z
#    x 1.631680 0.000000 0.011770 
#    y 0.000000 1.632940 0.000000 
#    z 0.011770 0.000000 1.601220 
# 
# From -- ./inp_files/362893.got.cif
#   From: 2010.05.17/outbox.cif.g08.bks.cpg/sg12_182_cif.got.tgz:362893.got - 2010.06.03 13:09:07.
