data_PCOD9193547
_publ_section_title
;
Structure prediction by ZEFSAII (Michael W. Deem and Ramdas Pophale) SiO2 
 PCOD9193547
Probable space group: C 2/M
;
_chemical_formula_sum "Si O2"
_cell_formula_units_Z 64
_cell_length_a 13.272603
_cell_length_b 23.660729
_cell_length_c 7.968802
_cell_angle_alpha 90.000000
_cell_angle_beta 89.154124
_cell_angle_gamma 90.000000
_cell_volume 2502.245584
_symmetry_space_group_name_H-M "C 2/M"
_symmetry_group_IT_number 12
_symmetry_cell_setting 'monoclinic'
loop_
_space_group_symop_operation_xyz
x,y,z
-x,y,-z
-x,-y,-z
x,-y,z
1/2+x,1/2+y,z
1/2-x,1/2+y,-z
1/2-x,1/2-y,-z
1/2+x,1/2-y,z
loop_
_atom_site_type_symbol
_atom_site_label
_atom_site_fract_x
_atom_site_fract_y
_atom_site_fract_z
Si Si1 0.908396 0.431451 0.624785
Si Si2 0.961753 0.064051 0.689307
Si Si3 0.748741 0.222910 0.725365
Si Si4 0.617482 0.695017 0.535313
Si Si5 0.612136 0.237707 0.027262
Si Si6 0.722261 0.065526 0.668436
Si Si7 0.809931 0.431177 0.968451
Si Si8 0.889164 0.135269 0.120595
O O1 0.917421 0.500000 0.640483
O O2 0.813595 0.413723 0.511562
O O3 0.885672 0.412440 0.817109
O O4 0.000000 0.412906 0.500000
O O5 0.841879 0.063821 0.689659
O O6 0.000000 0.079121 0.500000
O O7 0.006263 0.104179 0.831712
O O8 0.998285 0.000000 0.720117
O O9 0.665899 0.246310 0.599041
O O10 0.817899 0.178374 0.628641
O O11 0.835039 0.266030 0.793571
O O12 0.687053 0.209704 0.892974
O O13 0.500000 0.700813 0.500000
O O14 0.638518 0.656071 0.691567
O O15 0.500000 0.216901 0.000000
O O16 0.608030 0.305497 0.981623
O O17 0.689613 0.000000 0.662721
O O18 0.668297 0.086724 0.839709
O O19 0.804862 0.500000 0.964751
O O20 0.698609 0.406331 0.934897
#
# Coordination Sequence:
#
# PCOD9193547 Si02
#       8
#     8   8   8   8   8   8   8   8
#     4   9  18  35  59  81 101 141 210 279 319 349
#     4  10  20  34  53  81 127 177 212 243 294 360
#     4   9  19  38  60  84 118 151 180 237 308 362
#     4  10  20  37  62  93 118 146 199 244 295 374
#     4  10  21  36  59  92 123 151 196 241 297 372
#     4   9  19  34  52  80 113 158 212 253 306 365
#     4  10  21  37  56  84 125 173 215 253 304 362
#     4  11  22  34  54  89 127 155 199 246 293 348
#
# _framework density 25.577027000000001
#
# number of rings (size 3 to 8) (size 9 to 14) (size 15 to 20)
#    0.000    2.250    0.000    3.000    1.750    2.500 
#    2.250    4.375    0.000   11.250    9.750    0.000 
#    0.000    0.000    0.000    0.000    0.000    0.125 
#
# Total GULP energy -178752.604538 kJ/mol
# GULP energy per Si atom -5586.018892 kJ/mol
# Density = 2.551881 g / cm^3
# Si number density = 25.577027 Si / 1000 Ang^3
#
#
#
# Elastic Constant Matrix: (Units=GPa)
#
#
# Indices 1 2 3 4 5 6 
#
# 1 103.7098 6.2976 20.2816 0.0000 -3.5694 0.0000
# 2 6.2976 75.9083 3.7467 0.0000 12.7899 0.0000
# 3 20.2816 3.7467 145.2808 0.0000 -12.0850 0.0000
# 4 0.0000 0.0000 0.0000 18.5775 0.0000 16.2686
# 5 -3.5694 12.7899 -12.0850 0.0000 36.5220 0.0000
# 6 0.0000 0.0000 0.0000 16.2686 0.0000 7.0500
#
#
#
# Elastic Compliance Matrix: (Units=1/GPa)
#
#
# Indices 1 2 3 4 5 6 
#
# 1 0.009981 -0.000910 -0.001298 0.000000 0.000865 0.000000
# 2 -0.000910 0.014172 -0.000677 0.000000 -0.005276 0.000000
# 3 -0.001298 -0.000677 0.007292 0.000000 0.002523 0.000000
# 4 0.000000 0.000000 0.000000 -0.052732 0.000000 0.121684
# 5 0.000865 -0.005276 0.002523 0.000000 0.030148 0.000000
# 6 0.000000 0.000000 0.000000 0.121684 0.000000 -0.138954
#
#
# Mechanical properties :
#
#
# Convention : Reuss Voigt Hill
#
# Bulk Modulus (GPa) = 38.94918 42.83895 40.89407
# Shear Modulus (GPa) = -43.19103 32.06809 -5.56147
#
# Velocity S-wave (km/s) = -4.11379 3.54472 -1.47618
# Velocity P-wave (km/s) = 2.70244 5.79127 3.62185
#
# Compressibility (1/GPa) = 0.02567448
#
# Stress axis : x y z
#
# Youngs Moduli (GPa) = 100.18914 70.56343 137.14060
#
# Poissons Ratio (x) = 0.06419 0.17801
# Poissons Ratio (y) = 0.09114 0.09289
# Poissons Ratio (z) = 0.13005 0.04780
#
# Static dielectric constant tensor:
#      x y z
#    x 2.044180 0.000000 -0.060200 
#    y 0.000000 2.068540 0.000000 
#    z -0.060200 0.000000 2.075980 
# 
# From -- ./inp_files/54705.got.cif
#   From: 2010.05.17/outbox.cif.g08.bks.cpg/sg12_28_cif.got.tgz:54705.got - 2010.06.03 13:09:07.
