data_PCOD9193360
_publ_section_title
;
Structure prediction by ZEFSAII (Michael W. Deem and Ramdas Pophale) SiO2 
 PCOD9193360
Probable space group: C 2/M
;
_chemical_formula_sum "Si O2"
_cell_formula_units_Z 64
_cell_length_a 14.556768
_cell_length_b 9.623745
_cell_length_c 26.595993
_cell_angle_alpha 90.000000
_cell_angle_beta 115.200851
_cell_angle_gamma 90.000000
_cell_volume 3371.225619
_symmetry_space_group_name_H-M "C 2/M"
_symmetry_group_IT_number 12
_symmetry_cell_setting 'monoclinic'
loop_
_space_group_symop_operation_xyz
x,y,z
-x,y,-z
-x,-y,-z
x,-y,z
1/2+x,1/2+y,z
1/2-x,1/2+y,-z
1/2-x,1/2-y,-z
1/2+x,1/2-y,z
loop_
_atom_site_type_symbol
_atom_site_label
_atom_site_fract_x
_atom_site_fract_y
_atom_site_fract_z
Si Si1 0.058751 0.333792 0.240164
Si Si2 0.782441 0.163217 0.306033
Si Si3 0.800500 0.838722 0.087899
Si Si4 0.151404 0.665990 0.494641
Si Si5 0.368181 0.661369 0.218539
Si Si6 0.469975 0.338773 0.866316
Si Si7 0.890540 0.162268 0.956691
Si Si8 0.427698 0.834747 0.410471
O O1 0.048875 0.500000 0.234243
O O2 0.166028 0.301165 0.291157
O O3 0.963365 0.263734 0.244886
O O4 0.058074 0.264520 0.184727
O O5 0.796287 0.182576 0.249366
O O6 0.863948 0.252351 0.354698
O O7 0.798052 0.000000 0.320381
O O8 0.817787 0.818066 0.152167
O O9 0.912211 0.811080 0.091393
O O10 0.708546 0.743326 0.049214
O O11 0.775655 0.000000 0.073594
O O12 0.167665 0.500000 0.492201
O O13 0.250000 0.750000 0.500000
O O14 0.123015 0.690331 0.546593
O O15 0.046963 0.703745 0.441150
O O16 0.402044 0.500000 0.227746
O O17 0.468022 0.500000 0.848057
O O18 0.399327 0.328989 0.898221
O O19 0.884008 0.000000 0.969857
O O20 0.000000 0.216652 0.000000
O O21 0.423017 0.000000 0.400266
#
# Coordination Sequence:
#
# PCOD9193360 Si02
#       8
#     8   8   8   8   8   8   8   8
#     4  10  20  34  53  78 104 132 171 213 249 295
#     4  10  21  35  52  77 110 141 169 208 255 301
#     4   9  18  34  54  73  97 132 170 206 248 300
#     4   9  19  37  58  78 102 136 176 217 259 302
#     4   9  19  36  54  74 104 139 170 204 252 306
#     4   9  19  36  54  72 100 136 168 203 253 307
#     4  10  21  35  51  74 102 130 164 208 256 304
#     4   9  20  37  54  76 107 139 173 212 256 305
#
# _framework density 18.984193999999999
#
# number of rings (size 3 to 8) (size 9 to 14) (size 15 to 20)
#    0.000    2.625    0.000    2.625    0.000    7.750 
#    0.000    6.250    0.000    0.000    0.000    0.000 
#    0.000    0.000    0.000    0.000    0.000    0.000 
#
# Total GULP energy -178539.978698 kJ/mol
# GULP energy per Si atom -5579.374334 kJ/mol
# Density = 1.894099 g / cm^3
# Si number density = 18.984194 Si / 1000 Ang^3
#
#
#
# Elastic Constant Matrix: (Units=GPa)
#
#
# Indices 1 2 3 4 5 6 
#
# 1 105.1359 56.7546 23.1230 0.0000 28.9818 0.0000
# 2 56.7546 55.7905 30.2580 0.0000 23.1893 0.0000
# 3 23.1230 30.2580 39.8547 0.0000 19.9245 0.0000
# 4 0.0000 0.0000 0.0000 30.3456 0.0000 7.4378
# 5 28.9818 23.1893 19.9245 0.0000 23.2391 0.0000
# 6 0.0000 0.0000 0.0000 7.4378 0.0000 31.1316
#
#
#
# Elastic Compliance Matrix: (Units=1/GPa)
#
#
# Indices 1 2 3 4 5 6 
#
# 1 0.025300 -0.025933 0.013733 0.000000 -0.017449 0.000000
# 2 -0.025933 0.062394 -0.030395 0.000000 -0.003860 0.000000
# 3 0.013733 -0.030395 0.058804 0.000000 -0.037214 0.000000
# 4 0.000000 0.000000 0.000000 0.035004 0.000000 -0.008363
# 5 -0.017449 -0.003860 -0.037214 0.000000 0.100549 0.000000
# 6 0.000000 0.000000 0.000000 -0.008363 0.000000 0.034120
#
#
# Mechanical properties :
#
#
# Convention : Reuss Voigt Hill
#
# Bulk Modulus (GPa) = 16.31083 46.78357 31.54720
# Shear Modulus (GPa) = 11.85409 22.98629 17.42019
#
# Velocity S-wave (km/s) = 2.50155 3.48345 3.03250
# Velocity P-wave (km/s) = 4.11754 6.39345 5.37728
#
# Compressibility (1/GPa) = 0.06130895
#
# Stress axis : x y z
#
# Youngs Moduli (GPa) = 39.52524 16.02721 17.00577
#
# Poissons Ratio (x) = 0.41563 -0.23354
# Poissons Ratio (y) = 1.02500 0.51688
# Poissons Ratio (z) = -0.54280 0.48714
#
# Static dielectric constant tensor:
#      x y z
#    x 1.662630 0.000000 -0.008960 
#    y 0.000000 1.628810 0.000000 
#    z -0.008960 0.000000 1.665620 
# 
# From -- ./inp_files/375118.got.cif
#   From: 2010.05.17/outbox.cif.g08.bks.cpg/sg12_188_cif.got.tgz:375118.got - 2010.06.03 13:09:07.
