data_PCOD9193729
_publ_section_title
;
Structure prediction by ZEFSAII (Michael W. Deem and Ramdas Pophale) SiO2 
 PCOD9193729
Probable space group: C 2/M
;
_chemical_formula_sum "Si O2"
_cell_formula_units_Z 44
_cell_length_a 21.900643
_cell_length_b 16.488287
_cell_length_c 10.283177
_cell_angle_alpha 90.000000
_cell_angle_beta 26.370551
_cell_angle_gamma 90.000000
_cell_volume 1649.352841
_symmetry_space_group_name_H-M "C 2/M"
_symmetry_group_IT_number 12
_symmetry_cell_setting 'monoclinic'
loop_
_space_group_symop_operation_xyz
x,y,z
-x,y,-z
-x,-y,-z
x,-y,z
1/2+x,1/2+y,z
1/2-x,1/2+y,-z
1/2-x,1/2-y,-z
1/2+x,1/2-y,z
loop_
_atom_site_type_symbol
_atom_site_label
_atom_site_fract_x
_atom_site_fract_y
_atom_site_fract_z
Si Si1 0.456915 0.000000 0.226604
Si Si2 0.125295 0.000000 0.654011
Si Si3 0.795823 0.824942 0.567463
Si Si4 0.555093 0.342403 0.264517
Si Si5 0.897390 0.662082 0.832367
Si Si6 0.222706 0.500000 0.905226
Si Si7 0.312654 0.851621 0.609196
O O1 0.364939 0.923793 0.425825
O O2 0.500000 0.000000 0.000000
O O3 0.586855 0.000000 0.073152
O O4 0.181024 0.905994 0.562068
O O5 0.150295 0.000000 0.441379
O O6 0.000000 0.000000 0.000000
O O7 0.798149 0.727283 0.543168
O O8 0.922918 0.828667 0.427095
O O9 0.654654 0.833882 0.917612
O O10 0.500000 0.384326 0.500000
O O11 0.619901 0.254613 0.181028
O O12 0.672582 0.376075 0.947687
O O13 0.062572 0.653413 0.521699
O O14 0.806987 0.584016 0.960075
#
# Coordination Sequence:
#
# PCOD9193729 Si02
#       7
#     4   4   8   8   8   4   8
#     4  10  20  34  56  80 104 139 181 222 271 322
#     4  10  20  34  56  80 104 139 181 222 271 322
#     4   9  19  35  53  77 110 141 175 223 266 311
#     4  10  20  34  54  79 109 144 177 214 267 322
#     4   8  16  32  53  72 101 142 179 216 259 306
#     4   8  16  34  51  72 104 138 177 230 268 302
#     4   9  19  35  53  77 110 141 175 223 266 311
#
# _framework density 26.677130999999999
#
# number of rings (size 3 to 8) (size 9 to 14) (size 15 to 20)
#    0.000    2.909    0.000    0.000    0.000    9.455 
#    0.000    2.273    0.000   24.000    0.000    0.000 
#    0.000    0.000    0.000    0.000    0.000    0.000 
#
# Total GULP energy -122505.229296 kJ/mol
# GULP energy per Si atom -5568.419513 kJ/mol
# Density = 2.661641 g / cm^3
# Si number density = 26.677131 Si / 1000 Ang^3
#
#
#
# Elastic Constant Matrix: (Units=GPa)
#
#
# Indices 1 2 3 4 5 6 
#
# 1 69.0124 -20.1311 4.8220 0.0000 -10.6583 0.0001
# 2 -20.1311 185.0194 37.1782 0.0000 23.5157 0.0000
# 3 4.8220 37.1782 198.5535 0.0000 14.9050 -0.0001
# 4 0.0000 0.0000 0.0000 68.0435 0.0000 40.4478
# 5 -10.6583 23.5157 14.9050 0.0000 29.3973 0.0000
# 6 0.0001 0.0000 -0.0001 40.4478 0.0000 145.4026
#
#
#
# Elastic Compliance Matrix: (Units=1/GPa)
#
#
# Indices 1 2 3 4 5 6 
#
# 1 0.015731 0.001251 -0.001008 0.000000 0.005213 0.000000
# 2 0.001251 0.006239 -0.000892 0.000000 -0.004085 0.000000
# 3 -0.001008 -0.000892 0.005408 0.000000 -0.002394 0.000000
# 4 0.000000 0.000000 0.000000 0.017608 0.000000 -0.004898
# 5 0.005213 -0.004085 -0.002394 0.000000 0.040388 0.000000
# 6 0.000000 0.000000 0.000000 -0.004898 0.000000 0.008240
#
#
# Mechanical properties :
#
#
# Convention : Reuss Voigt Hill
#
# Bulk Modulus (GPa) = 38.34164 55.14705 46.74435
# Shear Modulus (GPa) = 48.26050 77.28311 62.77180
#
# Velocity S-wave (km/s) = 4.25792 5.38820 4.85606
# Velocity P-wave (km/s) = 6.21102 7.70890 7.00014
#
# Compressibility (1/GPa) = 0.02608130
#
# Stress axis : x y z
#
# Youngs Moduli (GPa) = 63.56982 160.27001 184.92470
#
# Poissons Ratio (x) = -0.20058 0.18635
# Poissons Ratio (y) = -0.07956 0.16496
# Poissons Ratio (z) = 0.06406 0.14297
#
# Static dielectric constant tensor:
#      x y z
#    x 2.130660 0.000000 0.004240 
#    y 0.000000 2.151550 0.000000 
#    z 0.004240 0.000000 1.981160 
# 
# From -- ./inp_files/189993.got.cif
#   From: 2010.05.17/outbox.cif.g08.bks.cpg/sg12_95_cif.got.tgz:189993.got - 2010.06.03 13:09:07.
