data_PCOD9193498
_publ_section_title
;
Structure prediction by ZEFSAII (Michael W. Deem and Ramdas Pophale) SiO2 
 PCOD9193498
Probable space group: C 2/M
;
_chemical_formula_sum "Si O2"
_cell_formula_units_Z 64
_cell_length_a 15.475636
_cell_length_b 7.811843
_cell_length_c 26.427395
_cell_angle_alpha 90.000000
_cell_angle_beta 73.917893
_cell_angle_gamma 90.000000
_cell_volume 3069.863491
_symmetry_space_group_name_H-M "C 2/M"
_symmetry_group_IT_number 12
_symmetry_cell_setting 'monoclinic'
loop_
_space_group_symop_operation_xyz
x,y,z
-x,y,-z
-x,-y,-z
x,-y,z
1/2+x,1/2+y,z
1/2-x,1/2+y,-z
1/2-x,1/2-y,-z
1/2+x,1/2-y,z
loop_
_atom_site_type_symbol
_atom_site_label
_atom_site_fract_x
_atom_site_fract_y
_atom_site_fract_z
Si Si1 0.797837 0.289310 0.828658
Si Si2 0.016183 0.704830 0.247056
Si Si3 0.095313 0.795135 0.833753
Si Si4 0.929786 0.300052 0.054852
Si Si5 0.251109 0.206425 0.440518
Si Si6 0.562528 0.204336 0.635111
Si Si7 0.261047 0.812682 0.941283
Si Si8 0.444087 0.707224 0.558500
O O1 0.797227 0.500000 0.830675
O O2 0.883456 0.232102 0.782565
O O3 0.699998 0.237648 0.822884
O O4 0.808459 0.226054 0.885318
O O5 0.024585 0.500000 0.251262
O O6 0.950980 0.738580 0.210354
O O7 0.974537 0.774130 0.305853
O O8 0.042212 0.725940 0.891682
O O9 0.094265 0.000000 0.835890
O O10 0.905976 0.500000 0.051415
O O11 0.841366 0.187647 0.061793
O O12 0.000000 0.254344 0.000000
O O13 0.250000 0.250000 0.500000
O O14 0.340939 0.273445 0.398974
O O15 0.158368 0.267196 0.430624
O O16 0.251934 0.000000 0.437050
O O17 0.492436 0.234151 0.601392
O O18 0.573570 0.000000 0.639524
O O19 0.302251 0.000000 0.939352
O O20 0.250000 0.750000 0.000000
O O21 0.500000 0.764197 0.500000
O O22 0.444538 0.500000 0.558198
#
# Coordination Sequence:
#
# PCOD9193498 Si02
#       8
#     8   8   8   8   8   8   8   8
#     4   8  18  37  57  75 107 148 183 222 278 340
#     4  10  21  39  60  81 110 152 191 227 277 339
#     4  10  21  38  58  83 111 145 188 237 284 333
#     4  10  21  36  55  80 110 146 184 227 288 350
#     4  10  20  35  55  82 115 149 185 230 281 330
#     4  10  22  37  56  85 115 145 190 236 274 326
#     4  10  20  34  53  80 111 143 182 233 285 339
#     4  10  20  35  56  81 113 152 185 223 281 333
#
# _framework density 20.847832
#
# number of rings (size 3 to 8) (size 9 to 14) (size 15 to 20)
#    0.000    2.250    1.250    1.875    1.750    3.250 
#    0.000    3.125    0.000    0.000    0.000    0.000 
#    0.000    0.000    0.000    0.000    0.000    0.000 
#
# Total GULP energy -178552.184286 kJ/mol
# GULP energy per Si atom -5579.755759 kJ/mol
# Density = 2.080038 g / cm^3
# Si number density = 20.847832 Si / 1000 Ang^3
#
#
#
# Elastic Constant Matrix: (Units=GPa)
#
#
# Indices 1 2 3 4 5 6 
#
# 1 123.9554 -3.4284 86.7505 0.0000 -18.2733 0.0000
# 2 -3.4284 23.9261 0.8107 0.0000 -11.5185 0.0000
# 3 86.7505 0.8107 203.2218 0.0000 -19.6352 0.0000
# 4 0.0000 0.0000 0.0000 22.2032 0.0000 8.3022
# 5 -18.2733 -11.5185 -19.6352 0.0000 35.0399 0.0000
# 6 0.0000 0.0000 0.0000 8.3022 0.0000 18.2342
#
#
#
# Elastic Compliance Matrix: (Units=1/GPa)
#
#
# Indices 1 2 3 4 5 6 
#
# 1 0.012287 0.004422 -0.004761 0.000000 0.005194 0.000000
# 2 0.004422 0.051657 -0.000244 0.000000 0.019151 0.000000
# 3 -0.004761 -0.000244 0.007090 0.000000 0.001410 0.000000
# 4 0.000000 0.000000 0.000000 0.054280 0.000000 -0.024714
# 5 0.005194 0.019151 0.001410 0.000000 0.038333 0.000000
# 6 0.000000 0.000000 0.000000 -0.024714 0.000000 0.066094
#
#
# Mechanical properties :
#
#
# Convention : Reuss Voigt Hill
#
# Bulk Modulus (GPa) = 14.31228 57.70766 36.00997
# Shear Modulus (GPa) = 19.66987 32.89351 26.28169
#
# Velocity S-wave (km/s) = 3.07497 3.97645 3.55441
# Velocity P-wave (km/s) = 4.41444 6.98737 5.84426
#
# Compressibility (1/GPa) = 0.06987009
#
# Stress axis : x y z
#
# Youngs Moduli (GPa) = 81.38425 19.35853 141.03716
#
# Poissons Ratio (x) = -0.08561 0.67148
# Poissons Ratio (y) = -0.35991 0.03435
# Poissons Ratio (z) = 0.38747 0.00471
#
# Static dielectric constant tensor:
#      x y z
#    x 1.740090 0.000000 -0.019170 
#    y 0.000000 1.788330 0.000000 
#    z -0.019170 0.000000 1.762030 
# 
# From -- ./inp_files/359801.got.cif
#   From: 2010.05.17/outbox.cif.g08.bks.cpg/sg12_180_cif.got.tgz:359801.got - 2010.06.03 13:09:07.
