data_PCOD9193972
_publ_section_title
;
Structure prediction by ZEFSAII (Michael W. Deem and Ramdas Pophale) SiO2 
 PCOD9193972
Probable space group: C 2/M
;
_chemical_formula_sum "Si O2"
_cell_formula_units_Z 64
_cell_length_a 26.285472
_cell_length_b 8.511452
_cell_length_c 32.972202
_cell_angle_alpha 90.000000
_cell_angle_beta 154.502314
_cell_angle_gamma 90.000000
_cell_volume 3175.520797
_symmetry_space_group_name_H-M "C 2/M"
_symmetry_group_IT_number 12
_symmetry_cell_setting 'monoclinic'
loop_
_space_group_symop_operation_xyz
x,y,z
-x,y,-z
-x,-y,-z
x,-y,z
1/2+x,1/2+y,z
1/2-x,1/2+y,-z
1/2-x,1/2-y,-z
1/2+x,1/2-y,z
loop_
_atom_site_type_symbol
_atom_site_label
_atom_site_fract_x
_atom_site_fract_y
_atom_site_fract_z
Si Si1 0.588339 0.320310 0.600831
Si Si2 0.248395 0.810054 0.453212
Si Si3 0.847622 0.685881 0.807803
Si Si4 0.509684 0.819992 0.623059
Si Si5 0.748342 0.314521 0.824047
Si Si6 0.769999 0.687466 0.102535
Si Si7 0.951925 0.811390 0.105849
Si Si8 0.991243 0.189965 0.762400
O O1 0.500000 0.313275 0.500000
O O2 0.580351 0.500000 0.612181
O O3 0.727654 0.294672 0.694918
O O4 0.548126 0.194088 0.604372
O O5 0.250000 0.750000 0.500000
O O6 0.376049 0.760523 0.528369
O O7 0.133288 0.754151 0.345946
O O8 0.245139 0.000000 0.450282
O O9 0.872931 0.500000 0.828622
O O10 0.814521 0.738964 0.830101
O O11 0.953497 0.767307 0.860550
O O12 0.608940 0.721158 0.717624
O O13 0.514507 0.000000 0.641164
O O14 0.767575 0.500000 0.841453
O O15 0.779368 0.233582 0.888682
O O16 0.779555 0.500000 0.107434
O O17 0.898094 0.758641 0.185314
O O18 0.676337 0.744713 0.001441
O O19 0.988252 0.753043 0.176656
O O20 0.946880 0.000000 0.104577
O O21 0.988183 0.000000 0.760822
#
# Coordination Sequence:
#
# PCOD9193972 Si02
#       8
#     8   8   8   8   8   8   8   8
#     4   9  19  35  54  79 114 153 191 229 274 335
#     4  10  22  37  55  82 115 147 188 233 279 337
#     4   9  20  37  57  84 116 151 196 239 282 340
#     4  10  20  34  54  84 115 146 188 236 280 333
#     4  10  21  39  61  85 117 157 194 237 290 349
#     4  11  23  39  60  88 114 145 194 248 297 345
#     4  10  23  40  60  85 118 153 189 241 298 347
#     4  10  22  41  61  83 115 156 194 234 289 353
#
# _framework density 20.154174999999999
#
# number of rings (size 3 to 8) (size 9 to 14) (size 15 to 20)
#    0.000    2.125    0.000    3.000    1.750    8.250 
#    0.000    2.500    0.000    0.000    0.000    0.000 
#    0.000    0.000    0.000    0.000    0.000    0.000 
#
# Total GULP energy -178532.312357 kJ/mol
# GULP energy per Si atom -5579.134761 kJ/mol
# Density = 2.010830 g / cm^3
# Si number density = 20.154175 Si / 1000 Ang^3
#
#
#
# Elastic Constant Matrix: (Units=GPa)
#
#
# Indices 1 2 3 4 5 6 
#
# 1 58.2331 -2.2698 13.9095 0.0004 -5.0787 -0.0006
# 2 -2.2698 1.1661 -3.0189 0.0009 -3.0584 -0.0027
# 3 13.9095 -3.0189 51.9715 0.0008 -18.9260 0.0002
# 4 0.0004 0.0009 0.0008 24.5658 0.0003 0.2263
# 5 -5.0787 -3.0584 -18.9260 0.0003 33.2625 0.0000
# 6 -0.0006 -0.0027 0.0002 0.2263 0.0000 31.5616
#
#
#
# Elastic Compliance Matrix: (Units=1/GPa)
#
#
# Indices 1 2 3 4 5 6 
#
# 1 0.020783 0.090765 0.004925 -0.000004 0.014321 0.000008
# 2 0.090765 3.379628 0.366081 -0.000148 0.532901 0.000286
# 3 0.004925 0.366081 0.065236 -0.000017 0.071531 0.000031
# 4 -0.000004 -0.000148 -0.000017 0.040710 -0.000024 -0.000292
# 5 0.014321 0.532901 0.071531 -0.000024 0.121950 0.000045
# 6 0.000008 0.000286 0.000031 -0.000292 0.000045 0.031686
#
#
# Mechanical properties :
#
#
# Convention : Reuss Voigt Hill
#
# Bulk Modulus (GPa) = 0.22783 14.29027 7.25905
# Shear Modulus (GPa) = 1.19061 24.72797 12.95929
#
# Velocity S-wave (km/s) = 0.76944 3.50657 2.53851
# Velocity P-wave (km/s) = 0.95009 4.84774 3.49308
#
# Compressibility (1/GPa) = 4.38919083
#
# Stress axis : x y z
#
# Youngs Moduli (GPa) = 48.11685 0.29589 15.32887
#
# Poissons Ratio (x) = -0.02686 -0.07550
# Poissons Ratio (y) = -4.36733 -5.61162
# Poissons Ratio (z) = -0.23699 -0.10832
#
# Static dielectric constant tensor:
#      x y z
#    x 1.788280 0.000000 0.028590 
#    y 0.000000 1.697480 0.000000 
#    z 0.028590 0.000000 1.763680 
# 
# From -- ./inp_files/382475.got.cif
#   From: 2010.05.17/outbox.cif.g08.bks.cpg/sg12_192_cif.got.tgz:382475.got - 2010.06.03 13:09:07.
