data_PCOD9193137
_publ_section_title
;
Structure prediction by ZEFSAII (Michael W. Deem and Ramdas Pophale) SiO2 
 PCOD9193137
Probable space group: C 2/M
;
_chemical_formula_sum "Si O2"
_cell_formula_units_Z 46
_cell_length_a 20.301179
_cell_length_b 18.345717
_cell_length_c 5.034613
_cell_angle_alpha 90.000000
_cell_angle_beta 92.342921
_cell_angle_gamma 90.000000
_cell_volume 1873.522200
_symmetry_space_group_name_H-M "C 2/M"
_symmetry_group_IT_number 12
_symmetry_cell_setting 'monoclinic'
loop_
_space_group_symop_operation_xyz
x,y,z
-x,y,-z
-x,-y,-z
x,-y,z
1/2+x,1/2+y,z
1/2-x,1/2+y,-z
1/2-x,1/2-y,-z
1/2+x,1/2-y,z
loop_
_atom_site_type_symbol
_atom_site_label
_atom_site_fract_x
_atom_site_fract_y
_atom_site_fract_z
Si Si1 0.548100 0.294721 0.758141
Si Si2 0.267424 0.587972 0.873423
Si Si3 0.183869 0.588842 0.365386
Si Si4 0.421254 0.145870 0.037994
Si Si5 0.047504 0.500000 0.754315
Si Si6 0.000000 0.000000 0.500000
Si Si7 0.887932 0.083305 0.546240
O O1 0.500000 0.277482 0.500000
O O2 0.591543 0.223415 0.834586
O O3 0.597257 0.359085 0.678402
O O4 0.500000 0.307721 0.000000
O O5 0.268002 0.500000 0.861488
O O6 0.242670 0.605683 0.161780
O O7 0.337562 0.608748 0.758865
O O8 0.213746 0.613133 0.649216
O O9 0.172983 0.500000 0.358022
O O10 0.120546 0.628784 0.231680
O O11 0.411720 0.073847 0.217392
O O12 0.500000 0.148349 0.000000
O O13 0.000000 0.500000 0.500000
O O14 0.000000 0.500000 0.000000
O O15 0.960513 0.937181 0.662631
O O16 0.870523 0.000000 0.434765
#
# Coordination Sequence:
#
# PCOD9193137 Si02
#       7
#     8   8   8   8   4   2   8
#     4  11  23  39  58  88 123 153 189 245 305 346
#     4   9  20  36  58  83 117 154 193 239 288 346
#     4  10  20  37  57  84 114 156 199 238 288 347
#     4  10  22  39  59  87 118 155 196 251 294 341
#     4  10  20  34  52  79 108 144 188 229 285 336
#     4   8  16  36  66  94 118 146 200 240 286 364
#     4   9  18  39  63  91 120 154 194 240 293 353
#
# _framework density 24.552683999999999
#
# number of rings (size 3 to 8) (size 9 to 14) (size 15 to 20)
#    0.522    1.739    1.739    0.522    0.000    7.304 
#    0.000    3.478    0.000    0.000    0.000    0.000 
#    0.000    0.000    0.000    0.000    0.000    0.000 
#
# Total GULP energy -128205.010552 kJ/mol
# GULP energy per Si atom -5574.130894 kJ/mol
# Density = 2.449680 g / cm^3
# Si number density = 24.552684 Si / 1000 Ang^3
#
#
#
# Elastic Constant Matrix: (Units=GPa)
#
#
# Indices 1 2 3 4 5 6 
#
# 1 79.6257 -4.0327 3.6370 0.0000 -24.0992 0.0000
# 2 -4.0327 117.7239 23.8928 0.0000 -10.3743 0.0000
# 3 3.6370 23.8928 99.8007 0.0000 2.1950 0.0000
# 4 0.0000 0.0000 0.0000 19.2021 0.0000 -4.5728
# 5 -24.0992 -10.3743 2.1950 0.0000 43.9268 0.0000
# 6 0.0000 0.0000 0.0000 -4.5728 0.0000 5.6312
#
#
#
# Elastic Compliance Matrix: (Units=1/GPa)
#
#
# Indices 1 2 3 4 5 6 
#
# 1 0.015366 0.001534 -0.001122 0.000000 0.008848 0.000000
# 2 0.001534 0.009303 -0.002352 0.000000 0.003156 0.000000
# 3 -0.001122 -0.002352 0.010661 0.000000 -0.001704 0.000000
# 4 0.000000 0.000000 0.000000 0.064563 0.000000 0.052428
# 5 0.008848 0.003156 -0.001704 0.000000 0.028450 0.000000
# 6 0.000000 0.000000 0.000000 0.052428 0.000000 0.220157
#
#
# Mechanical properties :
#
#
# Convention : Reuss Voigt Hill
#
# Bulk Modulus (GPa) = 31.79761 38.23828 35.01795
# Shear Modulus (GPa) = 13.77928 31.99555 22.88742
#
# Velocity S-wave (km/s) = 2.37156 3.61382 3.05647
# Velocity P-wave (km/s) = 4.52526 5.74636 5.17197
#
# Compressibility (1/GPa) = 0.03144890
#
# Stress axis : x y z
#
# Youngs Moduli (GPa) = 65.08031 107.49752 93.79545
#
# Poissons Ratio (x) = -0.16488 0.10522
# Poissons Ratio (y) = -0.09982 0.22064
# Poissons Ratio (z) = 0.07300 0.25288
#
# Static dielectric constant tensor:
#      x y z
#    x 2.182210 0.000000 0.012130 
#    y 0.000000 2.013520 0.000000 
#    z 0.012130 0.000000 1.967590 
# 
# From -- ./inp_files/20948.got.cif
#   From: 2010.05.17/outbox.cif.g08.bks.cpg/sg12_11_cif.got.tgz:20948.got - 2010.06.03 13:09:07.
