data_PCOD9193787
_publ_section_title
;
Structure prediction by ZEFSAII (Michael W. Deem and Ramdas Pophale) SiO2 
 PCOD9193787
Probable space group: C 2/M
;
_chemical_formula_sum "Si O2"
_cell_formula_units_Z 48
_cell_length_a 31.851175
_cell_length_b 8.626472
_cell_length_c 18.553323
_cell_angle_alpha 90.000000
_cell_angle_beta 30.635596
_cell_angle_gamma 90.000000
_cell_volume 2597.702453
_symmetry_space_group_name_H-M "C 2/M"
_symmetry_group_IT_number 12
_symmetry_cell_setting 'monoclinic'
loop_
_space_group_symop_operation_xyz
x,y,z
-x,y,-z
-x,-y,-z
x,-y,z
1/2+x,1/2+y,z
1/2-x,1/2+y,-z
1/2-x,1/2-y,-z
1/2+x,1/2-y,z
loop_
_atom_site_type_symbol
_atom_site_label
_atom_site_fract_x
_atom_site_fract_y
_atom_site_fract_z
Si Si1 0.745940 0.684541 0.586827
Si Si2 0.411942 0.187140 0.096281
Si Si3 0.995474 0.187932 0.587785
Si Si4 0.588036 0.313365 0.589989
Si Si5 0.331094 0.314278 0.917853
Si Si6 0.426224 0.814000 0.907972
O O1 0.746868 0.500000 0.582591
O O2 0.750000 0.750000 0.500000
O O3 0.663622 0.741543 0.748349
O O4 0.826586 0.744605 0.509364
O O5 0.405597 0.000000 0.110417
O O6 0.500000 0.232380 0.000000
O O7 0.410738 0.230062 0.013678
O O8 0.065046 0.236271 0.542231
O O9 0.000000 0.248376 0.500000
O O10 0.908612 0.226832 0.752532
O O11 0.999914 0.000000 0.577957
O O12 0.591355 0.500000 0.587632
O O13 0.511650 0.258017 0.752377
O O14 0.327078 0.500000 0.929931
O O15 0.353946 0.243356 0.961674
O O16 0.250000 0.250000 0.000000
O O17 0.432627 0.000000 0.894500
#
# Coordination Sequence:
#
# PCOD9193787 Si02
#       6
#     8   8   8   8   8   8
#     4  12  25  40  60  85 115 149 187 232 282 337
#     4  10  22  40  61  85 113 147 188 232 281 338
#     4   8  16  32  54  79 107 143 185 227 273 326
#     4  10  20  36  59  85 115 150 190 235 281 334
#     4  10  20  34  54  80 111 148 191 239 289 340
#     4  10  20  36  59  84 114 152 191 234 285 339
#
# _framework density 18.477868000000001
#
# number of rings (size 3 to 8) (size 9 to 14) (size 15 to 20)
#    0.000    2.000    0.000    5.000    0.000    4.333 
#    0.000    3.333    0.000   17.000    0.000    0.000 
#    0.000    0.000    0.000    0.000    0.000    0.000 
#
# Total GULP energy -134031.442777 kJ/mol
# GULP energy per Si atom -5584.643449 kJ/mol
# Density = 1.843581 g / cm^3
# Si number density = 18.477868 Si / 1000 Ang^3
#
#
#
# Elastic Constant Matrix: (Units=GPa)
#
#
# Indices 1 2 3 4 5 6 
#
# 1 224.4787 63.7733 124.2122 -0.0002 -0.1236 0.0000
# 2 63.7733 68.7704 51.8855 -0.0011 1.1825 0.0008
# 3 124.2122 51.8855 123.0355 -0.0006 -3.0180 0.0005
# 4 -0.0002 -0.0011 -0.0006 31.9693 0.0004 -3.5046
# 5 -0.1236 1.1825 -3.0180 0.0004 42.1977 -0.0002
# 6 0.0000 0.0008 0.0005 -3.5046 -0.0002 30.1889
#
#
#
# Elastic Compliance Matrix: (Units=1/GPa)
#
#
# Indices 1 2 3 4 5 6 
#
# 1 0.010397 -0.002496 -0.009458 0.000000 -0.000576 0.000000
# 2 -0.002496 0.021991 -0.006781 0.000001 -0.001109 0.000000
# 3 -0.009458 -0.006781 0.020576 0.000000 0.001634 0.000000
# 4 0.000000 0.000001 0.000000 0.031683 0.000000 0.003678
# 5 -0.000576 -0.001109 0.001634 0.000000 0.023844 0.000000
# 6 0.000000 0.000000 0.000000 0.003678 0.000000 0.033552
#
#
# Mechanical properties :
#
#
# Convention : Reuss Voigt Hill
#
# Bulk Modulus (GPa) = 64.54265 99.55852 82.05058
# Shear Modulus (GPa) = 27.07411 32.63209 29.85310
#
# Velocity S-wave (km/s) = 3.83197 4.20695 4.02383
# Velocity P-wave (km/s) = 7.38811 8.80879 8.12954
#
# Compressibility (1/GPa) = 0.01549363
#
# Stress axis : x y z
#
# Youngs Moduli (GPa) = 96.18219 45.47311 48.60001
#
# Poissons Ratio (x) = 0.11349 0.45966
# Poissons Ratio (y) = 0.24004 0.32958
# Poissons Ratio (z) = 0.90969 0.30838
#
# Static dielectric constant tensor:
#      x y z
#    x 1.638320 0.000000 0.009650 
#    y 0.000000 1.628960 0.000000 
#    z 0.009650 0.000000 1.601000 
# 
# From -- ./inp_files/295352.got.cif
#   From: 2010.05.17/outbox.cif.g08.bks.cpg/sg12_148_cif.got.tgz:295352.got - 2010.06.03 13:09:07.
