data_PCOD9193518
_publ_section_title
;
Structure prediction by ZEFSAII (Michael W. Deem and Ramdas Pophale) SiO2 
 PCOD9193518
Probable space group: C 2/M
;
_chemical_formula_sum "Si O2"
_cell_formula_units_Z 44
_cell_length_a 8.636602
_cell_length_b 24.595251
_cell_length_c 18.046922
_cell_angle_alpha 90.000000
_cell_angle_beta 32.569330
_cell_angle_gamma 90.000000
_cell_volume 2063.657499
_symmetry_space_group_name_H-M "C 2/M"
_symmetry_group_IT_number 12
_symmetry_cell_setting 'monoclinic'
loop_
_space_group_symop_operation_xyz
x,y,z
-x,y,-z
-x,-y,-z
x,-y,z
1/2+x,1/2+y,z
1/2-x,1/2+y,-z
1/2-x,1/2-y,-z
1/2+x,1/2-y,z
loop_
_atom_site_type_symbol
_atom_site_label
_atom_site_fract_x
_atom_site_fract_y
_atom_site_fract_z
Si Si1 0.837220 0.438773 0.496630
Si Si2 0.845010 0.136517 0.638428
Si Si3 0.847861 0.864314 0.941258
Si Si4 0.331737 0.937875 0.791929
Si Si5 0.709893 0.325908 0.186192
Si Si6 0.000000 0.774812 0.000000
O O1 0.764665 0.500000 0.549007
O O2 0.545100 0.411107 0.589680
O O3 0.000000 0.411947 0.500000
O O4 0.036328 0.440279 0.344080
O O5 0.533860 0.108697 0.748266
O O6 0.866728 0.179201 0.696827
O O7 0.000000 0.154867 0.500000
O O8 0.962173 0.855228 0.810890
O O9 0.008530 0.915252 0.912713
O O10 0.503669 0.861953 0.074020
O O11 0.909358 0.812845 0.969089
O O12 0.349000 0.000000 0.814678
O O13 0.769180 0.266975 0.126924
#
# Coordination Sequence:
#
# PCOD9193518 Si02
#       6
#     8   8   8   8   8   4
#     4   9  17  31  52  76 106 148 190 226 268 319
#     4  10  20  34  54  80 115 150 185 223 267 324
#     4  10  20  36  60  84 108 142 184 231 279 329
#     4  10  20  34  53  80 115 150 186 225 269 324
#     4  10  20  36  57  84 110 141 186 231 277 326
#     4  10  20  38  63  82 103 140 182 232 286 336
#
# _framework density 21.321366999999999
#
# number of rings (size 3 to 8) (size 9 to 14) (size 15 to 20)
#    0.000    2.364    0.000    4.909    0.000    2.182 
#    0.000    7.727    0.000   18.545    0.000    0.000 
#    0.000    0.000    0.000    0.000    0.000    0.000 
#
# Total GULP energy -122507.823401 kJ/mol
# GULP energy per Si atom -5568.537427 kJ/mol
# Density = 2.127284 g / cm^3
# Si number density = 21.321367 Si / 1000 Ang^3
#
#
#
# Elastic Constant Matrix: (Units=GPa)
#
#
# Indices 1 2 3 4 5 6 
#
# 1 120.7522 19.5634 32.6231 0.0021 34.1632 -0.0113
# 2 19.5634 55.5212 12.9535 0.0000 7.9287 -0.0029
# 3 32.6231 12.9535 41.1784 0.0094 15.4746 -0.0470
# 4 0.0021 0.0000 0.0094 8.9914 -0.0038 41.2987
# 5 34.1632 7.9287 15.4746 -0.0038 46.7715 0.0162
# 6 -0.0113 -0.0029 -0.0470 41.2987 0.0162 -213.5064
#
#
#
# Elastic Compliance Matrix: (Units=1/GPa)
#
#
# Indices 1 2 3 4 5 6 
#
# 1 0.012188 -0.001824 -0.006684 0.000000 -0.006382 0.000000
# 2 -0.001824 0.019797 -0.004593 0.000001 -0.000504 0.000001
# 3 -0.006684 -0.004593 0.033000 -0.000001 -0.005258 -0.000007
# 4 0.000000 0.000001 -0.000001 0.058893 0.000001 0.011392
# 5 -0.006382 -0.000504 -0.005258 0.000001 0.027867 0.000004
# 6 0.000000 0.000001 -0.000007 0.011392 0.000004 -0.002480
#
#
# Mechanical properties :
#
#
# Convention : Reuss Voigt Hill
#
# Bulk Modulus (GPa) = 25.78379 38.63685 32.21032
# Shear Modulus (GPa) = 26.53975 -21.39456 2.57259
#
# Velocity S-wave (km/s) = 3.53193 -3.17114 1.09964
# Velocity P-wave (km/s) = 5.36208 2.17999 4.09294
#
# Compressibility (1/GPa) = 0.03878406
#
# Stress axis : x y z
#
# Youngs Moduli (GPa) = 82.04600 50.51157 30.30259
#
# Poissons Ratio (x) = 0.09213 0.20254
# Poissons Ratio (y) = 0.14964 0.13919
# Poissons Ratio (z) = 0.54839 0.23201
#
# Static dielectric constant tensor:
#      x y z
#    x 1.855330 0.000000 0.019830 
#    y 0.000000 1.778400 0.000000 
#    z 0.019830 0.000000 1.899300 
# 
# From -- ./inp_files/259093.got.cif
#   From: 2010.05.17/outbox.cif.g08.bks.cpg/sg12_130_cif.got.tgz:259093.got - 2010.06.03 13:09:07.
