data_PCOD9193271
_publ_section_title
;
Structure prediction by ZEFSAII (Michael W. Deem and Ramdas Pophale) SiO2 
 PCOD9193271
Probable space group: C 2/M
;
_chemical_formula_sum "Si O2"
_cell_formula_units_Z 64
_cell_length_a 14.463983
_cell_length_b 8.768444
_cell_length_c 32.694178
_cell_angle_alpha 90.000000
_cell_angle_beta 61.826758
_cell_angle_gamma 90.000000
_cell_volume 3655.232619
_symmetry_space_group_name_H-M "C 2/M"
_symmetry_group_IT_number 12
_symmetry_cell_setting 'monoclinic'
loop_
_space_group_symop_operation_xyz
x,y,z
-x,y,-z
-x,-y,-z
x,-y,z
1/2+x,1/2+y,z
1/2-x,1/2+y,-z
1/2-x,1/2-y,-z
1/2+x,1/2-y,z
loop_
_atom_site_type_symbol
_atom_site_label
_atom_site_fract_x
_atom_site_fract_y
_atom_site_fract_z
Si Si1 0.802615 0.817317 0.448927
Si Si2 0.448873 0.682289 0.799655
Si Si3 0.981513 0.316067 0.131118
Si Si4 0.041344 0.682286 0.697768
Si Si5 0.218452 0.316751 0.880619
Si Si6 0.967500 0.183683 0.628556
Si Si7 0.736280 0.816298 0.372489
Si Si8 0.211467 0.318144 0.050565
O O1 0.750000 0.750000 0.500000
O O2 0.744309 0.773740 0.418894
O O3 0.924509 0.773360 0.417362
O O4 0.799260 0.000000 0.452365
O O5 0.457174 0.500000 0.793491
O O6 0.513544 0.738095 0.825690
O O7 0.488614 0.763093 0.750625
O O8 0.327556 0.721289 0.835073
O O9 0.978903 0.500000 0.137066
O O10 0.881409 0.270183 0.125285
O O11 0.090101 0.277094 0.085402
O O12 0.044148 0.500000 0.694763
O O13 0.158988 0.749097 0.669962
O O14 0.979718 0.750088 0.671607
O O15 0.215226 0.500000 0.886105
O O16 0.223264 0.243295 0.924369
O O17 0.866901 0.250253 0.626898
O O18 0.962222 0.000000 0.631690
O O19 0.738474 0.000000 0.369121
O O20 0.218656 0.500000 0.047554
O O21 0.250000 0.250000 0.000000
#
# Coordination Sequence:
#
# PCOD9193271 Si02
#       8
#     8   8   8   8   8   8   8   8
#     4   9  20  36  55  79 110 144 181 224 268 319
#     4  10  20  35  55  79 107 137 172 220 267 315
#     4   9  19  36  55  76 103 138 177 216 261 318
#     4  11  22  37  57  80 109 146 182 222 269 321
#     4   9  19  36  56  76 102 136 174 214 260 310
#     4  10  21  38  57  81 111 144 182 225 272 324
#     4  10  21  38  57  81 110 142 182 227 272 321
#     4  10  20  34  53  76 105 137 173 216 261 312
#
# _framework density 17.509146000000001
#
# number of rings (size 3 to 8) (size 9 to 14) (size 15 to 20)
#    0.000    2.250    0.000    3.375    0.000    6.500 
#    0.000    8.750    0.000    0.000    0.000    0.000 
#    0.000    0.000    0.000    0.000    0.000    0.000 
#
# Total GULP energy -178641.484361 kJ/mol
# GULP energy per Si atom -5582.546386 kJ/mol
# Density = 1.746929 g / cm^3
# Si number density = 17.509146 Si / 1000 Ang^3
#
#
#
# Elastic Constant Matrix: (Units=GPa)
#
#
# Indices 1 2 3 4 5 6 
#
# 1 168.9627 53.2959 74.8912 0.0000 15.2382 0.0000
# 2 53.2959 66.2057 57.9771 0.0000 5.7982 0.0000
# 3 74.8912 57.9771 156.3541 0.0000 14.2758 0.0000
# 4 0.0000 0.0000 0.0000 36.6137 0.0000 4.0885
# 5 15.2382 5.7982 14.2758 0.0000 7.7110 0.0000
# 6 0.0000 0.0000 0.0000 4.0885 0.0000 29.2580
#
#
#
# Elastic Compliance Matrix: (Units=1/GPa)
#
#
# Indices 1 2 3 4 5 6 
#
# 1 0.009239 -0.005143 -0.001449 0.000000 -0.011707 0.000000
# 2 -0.005143 0.025250 -0.007334 0.000000 0.004754 0.000000
# 3 -0.001449 -0.007334 0.010884 0.000000 -0.011772 0.000000
# 4 0.000000 0.000000 0.000000 0.027745 0.000000 -0.003877
# 5 -0.011707 0.004754 -0.011772 0.000000 0.171038 0.000000
# 6 0.000000 0.000000 0.000000 -0.003877 0.000000 0.034720
#
#
# Mechanical properties :
#
#
# Convention : Reuss Voigt Hill
#
# Bulk Modulus (GPa) = 57.07251 84.87232 70.97241
# Shear Modulus (GPa) = 15.99644 28.40712 22.20178
#
# Velocity S-wave (km/s) = 3.02587 4.03229 3.56478
# Velocity P-wave (km/s) = 6.69884 8.38198 7.58723
#
# Compressibility (1/GPa) = 0.01752157
#
# Stress axis : x y z
#
# Youngs Moduli (GPa) = 108.23761 39.60353 91.87679
#
# Poissons Ratio (x) = 0.20367 0.13317
# Poissons Ratio (y) = 0.55665 0.67379
# Poissons Ratio (z) = 0.15688 0.29044
#
# Static dielectric constant tensor:
#      x y z
#    x 1.579420 0.000000 -0.007710 
#    y 0.000000 1.587520 0.000000 
#    z -0.007710 0.000000 1.568230 
# 
# From -- ./inp_files/359922.got.cif
#   From: 2010.05.17/outbox.cif.g08.bks.cpg/sg12_180_cif.got.tgz:359922.got - 2010.06.03 13:09:07.
