data_PCOD9193439
_publ_section_title
;
Structure prediction by ZEFSAII (Michael W. Deem and Ramdas Pophale) SiO2 
 PCOD9193439
Probable space group: C 2/M
;
_chemical_formula_sum "Si O2"
_cell_formula_units_Z 50
_cell_length_a 18.162714
_cell_length_b 7.947091
_cell_length_c 34.702142
_cell_angle_alpha 90.000000
_cell_angle_beta 157.097309
_cell_angle_gamma 90.000000
_cell_volume 1949.312462
_symmetry_space_group_name_H-M "C 2/M"
_symmetry_group_IT_number 12
_symmetry_cell_setting 'monoclinic'
loop_
_space_group_symop_operation_xyz
x,y,z
-x,y,-z
-x,-y,-z
x,-y,z
1/2+x,1/2+y,z
1/2-x,1/2+y,-z
1/2-x,1/2-y,-z
1/2+x,1/2-y,z
loop_
_atom_site_type_symbol
_atom_site_label
_atom_site_fract_x
_atom_site_fract_y
_atom_site_fract_z
Si Si1 0.446279 0.313164 0.528020
Si Si2 0.021861 0.698080 0.374364
Si Si3 0.094638 0.687021 0.252751
Si Si4 0.000000 0.500000 0.500000
Si Si5 0.429595 0.702095 0.842186
Si Si6 0.537511 0.692675 0.059569
Si Si7 0.450488 0.691364 0.260961
O O1 0.390414 0.500000 0.486518
O O2 0.399094 0.296953 0.550791
O O3 0.678617 0.309457 0.640770
O O4 0.411568 0.149171 0.485499
O O5 0.035521 0.500000 0.388739
O O6 0.795434 0.740308 0.264771
O O7 0.077287 0.740224 0.357160
O O8 0.034192 0.500000 0.234290
O O9 0.008379 0.731609 0.169532
O O10 0.037231 0.803812 0.260328
O O11 0.448330 0.500000 0.851177
O O12 0.519191 0.765319 0.925769
O O13 0.465249 0.500000 0.023074
O O14 0.764460 0.694475 0.170436
O O15 0.500000 0.776632 0.000000
O O16 0.397969 0.500000 0.245001
#
# Coordination Sequence:
#
# PCOD9193439 Si02
#       7
#     8   8   8   2   8   8   8
#     4  10  21  36  58  87 112 145 186 225 270 326
#     4   9  16  32  54  79 106 138 181 227 271 310
#     4  10  20  34  53  79 107 137 180 233 272 314
#     4  12  22  36  60  86 116 152 174 222 272 334
#     4   8  15  28  50  74 102 132 173 225 269 316
#     4   9  18  34  53  74 105 144 181 221 275 335
#     4  11  21  31  52  81 108 140 181 230 273 326
#
# _framework density 25.650069999999999
#
# number of rings (size 3 to 8) (size 9 to 14) (size 15 to 20)
#    0.000    2.400    0.800    3.600    2.240    4.160 
#    0.000    0.800    0.000    0.960    0.000    0.000 
#    0.000    0.000    0.000    0.000    0.000    0.000 
#
# Total GULP energy -139493.721313 kJ/mol
# GULP energy per Si atom -5579.748853 kJ/mol
# Density = 2.559169 g / cm^3
# Si number density = 25.650070 Si / 1000 Ang^3
#
#
#
# Elastic Constant Matrix: (Units=GPa)
#
#
# Indices 1 2 3 4 5 6 
#
# 1 117.9431 34.7392 26.9043 -0.0014 -43.1844 0.0003
# 2 34.7392 127.1292 20.9057 -0.0003 -27.9347 -0.0002
# 3 26.9043 20.9057 115.4001 -0.0029 -48.3745 0.0008
# 4 -0.0014 -0.0003 -0.0029 13.1789 0.0014 -12.2393
# 5 -43.1844 -27.9347 -48.3745 0.0014 54.0039 -0.0006
# 6 0.0003 -0.0002 0.0008 -12.2393 -0.0006 35.4015
#
#
#
# Elastic Compliance Matrix: (Units=1/GPa)
#
#
# Indices 1 2 3 4 5 6 
#
# 1 0.012459 -0.001300 0.001962 0.000001 0.011048 0.000000
# 2 -0.001300 0.009029 0.000303 0.000000 0.003903 0.000000
# 3 0.001962 0.000303 0.014214 0.000002 0.014458 0.000001
# 4 0.000001 0.000000 0.000002 0.111764 0.000000 0.038640
# 5 0.011048 0.003903 0.014458 0.000000 0.042322 0.000000
# 6 0.000000 0.000000 0.000001 0.038640 0.000000 0.041606
#
#
# Mechanical properties :
#
#
# Convention : Reuss Voigt Hill
#
# Bulk Modulus (GPa) = 26.57202 58.39676 42.48439
# Shear Modulus (GPa) = 20.66063 39.04507 29.85285
#
# Velocity S-wave (km/s) = 2.84118 3.90580 3.41523
# Velocity P-wave (km/s) = 4.59837 6.56936 5.67016
#
# Compressibility (1/GPa) = 0.03763357
#
# Stress axis : x y z
#
# Youngs Moduli (GPa) = 80.26228 110.75609 70.35445
#
# Poissons Ratio (x) = 0.14393 -0.13804
# Poissons Ratio (y) = 0.10430 -0.02135
# Poissons Ratio (z) = -0.15748 -0.03360
#
# Static dielectric constant tensor:
#      x y z
#    x 2.138970 0.000000 0.053020 
#    y 0.000000 2.007430 -0.000010 
#    z 0.053020 -0.000010 2.101940 
# 
# From -- ./inp_files/377458.got.cif
#   From: 2010.05.17/outbox.cif.g08.bks.cpg/sg12_189_cif.got.tgz:377458.got - 2010.06.03 13:09:07.
