data_PCOD9193274
_publ_section_title
;
Structure prediction by ZEFSAII (Michael W. Deem and Ramdas Pophale) SiO2 
 PCOD9193274
Probable space group: C 2/M
;
_chemical_formula_sum "Si O2"
_cell_formula_units_Z 64
_cell_length_a 19.565379
_cell_length_b 8.820045
_cell_length_c 19.220070
_cell_angle_alpha 90.000000
_cell_angle_beta 88.419611
_cell_angle_gamma 90.000000
_cell_volume 3315.498225
_symmetry_space_group_name_H-M "C 2/M"
_symmetry_group_IT_number 12
_symmetry_cell_setting 'monoclinic'
loop_
_space_group_symop_operation_xyz
x,y,z
-x,y,-z
-x,-y,-z
x,-y,z
1/2+x,1/2+y,z
1/2-x,1/2+y,-z
1/2-x,1/2-y,-z
1/2+x,1/2-y,z
loop_
_atom_site_type_symbol
_atom_site_label
_atom_site_fract_x
_atom_site_fract_y
_atom_site_fract_z
Si Si1 0.510276 0.820497 0.210785
Si Si2 0.342580 0.818111 0.844972
Si Si3 0.737837 0.317539 0.738851
Si Si4 0.212176 0.317915 0.409265
Si Si5 0.824613 0.819367 0.991971
Si Si6 0.354924 0.179125 0.455458
Si Si7 0.545457 0.682285 0.930327
Si Si8 0.092536 0.818821 0.680299
O O1 0.591279 0.791259 0.204511
O O2 0.479728 0.762516 0.138381
O O3 0.471406 0.740351 0.274753
O O4 0.499922 0.000000 0.216730
O O5 0.273932 0.763343 0.808004
O O6 0.353476 0.736178 0.917468
O O7 0.337614 0.000000 0.857082
O O8 0.732509 0.500000 0.745805
O O9 0.789332 0.288816 0.672770
O O10 0.662439 0.264240 0.718144
O O11 0.225592 0.500000 0.417326
O O12 0.278672 0.225842 0.432512
O O13 0.149127 0.281373 0.462149
O O14 0.820435 0.000000 0.992868
O O15 0.750000 0.750000 0.000000
O O16 0.877156 0.774908 0.051240
O O17 0.403549 0.261905 0.399319
O O18 0.365457 0.000000 0.448665
O O19 0.541904 0.500000 0.920098
O O20 0.500000 0.717616 0.000000
O O21 0.094270 0.000000 0.680119
#
# Coordination Sequence:
#
# PCOD9193274 Si02
#       8
#     8   8   8   8   8   8   8   8
#     4  11  23  36  55  81 108 136 174 225 269 307
#     4  10  21  38  57  78 107 141 175 216 265 316
#     4   8  16  32  53  76 102 136 176 211 255 315
#     4   8  14  26  46  72 102 139 174 210 259 315
#     4  11  24  40  59  82 108 138 174 217 263 313
#     4   9  15  25  45  74 106 133 170 220 264 305
#     4  10  21  40  61  78 102 140 181 213 254 319
#     4  10  20  34  53  76 105 141 179 216 261 320
#
# _framework density 19.303283
#
# number of rings (size 3 to 8) (size 9 to 14) (size 15 to 20)
#    0.000    2.375    1.250    2.250    1.750    2.250 
#    0.000    2.500    0.000    0.750    0.000    5.250 
#    0.000    0.000    0.000    0.000    0.000    0.000 
#
# Total GULP energy -178392.811794 kJ/mol
# GULP energy per Si atom -5574.775369 kJ/mol
# Density = 1.925935 g / cm^3
# Si number density = 19.303283 Si / 1000 Ang^3
#
#
#
# Elastic Constant Matrix: (Units=GPa)
#
#
# Indices 1 2 3 4 5 6 
#
# 1 44.8647 18.5511 -4.5610 0.0000 -12.0051 0.0000
# 2 18.5511 28.1133 5.5656 0.0000 -12.6533 0.0000
# 3 -4.5610 5.5656 18.6935 0.0000 -18.4062 0.0000
# 4 0.0000 0.0000 0.0000 28.0929 0.0000 -9.6600
# 5 -12.0051 -12.6533 -18.4062 0.0000 32.1035 0.0000
# 6 0.0000 0.0000 0.0000 -9.6600 0.0000 21.7229
#
#
#
# Elastic Compliance Matrix: (Units=1/GPa)
#
#
# Indices 1 2 3 4 5 6 
#
# 1 0.053948 -0.027110 0.070216 0.000000 0.049747 0.000000
# 2 -0.027110 0.057529 -0.026175 0.000000 -0.002470 0.000000
# 3 0.070216 -0.026175 0.216121 0.000000 0.139852 0.000000
# 4 0.000000 0.000000 0.000000 0.042022 0.000000 0.018687
# 5 0.049747 -0.002470 0.139852 0.000000 0.128961 0.000000
# 6 0.000000 0.000000 0.000000 0.018687 0.000000 0.054344
#
#
# Mechanical properties :
#
#
# Convention : Reuss Voigt Hill
#
# Bulk Modulus (GPa) = 2.76653 14.53143 8.64898
# Shear Modulus (GPa) = 7.81801 21.19160 14.50480
#
# Velocity S-wave (km/s) = 2.01467 3.31694 2.74417
# Velocity P-wave (km/s) = 2.61690 4.71314 3.81195
#
# Compressibility (1/GPa) = 0.36146308
#
# Stress axis : x y z
#
# Youngs Moduli (GPa) = 18.53621 17.38246 4.62703
#
# Poissons Ratio (x) = 0.47123 -0.32489
# Poissons Ratio (y) = 0.50251 0.12111
# Poissons Ratio (z) = -1.30154 0.45498
#
# Static dielectric constant tensor:
#      x y z
#    x 1.689050 0.000000 -0.032890 
#    y 0.000000 1.645070 0.000000 
#    z -0.032890 0.000000 1.707400 
# 
# From -- ./inp_files/281350.got.cif
#   From: 2010.05.17/outbox.cif.g08.bks.cpg/sg12_141_cif.got.tgz:281350.got - 2010.06.03 13:09:07.
