data_PCOD9193443
_publ_section_title
;
Structure prediction by ZEFSAII (Michael W. Deem and Ramdas Pophale) SiO2 
 PCOD9193443
Probable space group: C 2/M
;
_chemical_formula_sum "Si O2"
_cell_formula_units_Z 56
_cell_length_a 18.354205
_cell_length_b 7.602202
_cell_length_c 19.258338
_cell_angle_alpha 90.000000
_cell_angle_beta 76.406654
_cell_angle_gamma 90.000000
_cell_volume 2611.889660
_symmetry_space_group_name_H-M "C 2/M"
_symmetry_group_IT_number 12
_symmetry_cell_setting 'monoclinic'
loop_
_space_group_symop_operation_xyz
x,y,z
-x,y,-z
-x,-y,-z
x,-y,z
1/2+x,1/2+y,z
1/2-x,1/2+y,-z
1/2-x,1/2-y,-z
1/2+x,1/2-y,z
loop_
_atom_site_type_symbol
_atom_site_label
_atom_site_fract_x
_atom_site_fract_y
_atom_site_fract_z
Si Si1 0.546873 0.790141 0.138989
Si Si2 0.760268 0.715221 0.288317
Si Si3 0.406544 0.712367 0.714568
Si Si4 0.620983 0.784450 0.854859
Si Si5 0.335166 0.211239 0.001029
Si Si6 0.812154 0.709383 0.428402
Si Si7 0.981176 0.793106 0.428373
O O1 0.572587 0.759707 0.211739
O O2 0.462817 0.723987 0.144483
O O3 0.543401 0.000000 0.129460
O O4 0.607100 0.720446 0.069998
O O5 0.759626 0.500000 0.289201
O O6 0.676483 0.773016 0.287942
O O7 0.819526 0.770763 0.216654
O O8 0.785603 0.774737 0.358933
O O9 0.405902 0.500000 0.712230
O O10 0.467915 0.779151 0.645534
O O11 0.644872 0.725582 0.926247
O O12 0.621200 0.000000 0.854497
O O13 0.342734 0.000000 0.001078
O O14 0.250000 0.250000 0.000000
O O15 0.819351 0.500000 0.421836
O O16 0.750000 0.750000 0.500000
O O17 0.893615 0.778131 0.431325
O O18 0.000000 0.716946 0.500000
O O19 0.000221 0.000000 0.427692
#
# Coordination Sequence:
#
# PCOD9193443 Si02
#       7
#     8   8   8   8   8   8   8
#     4  10  20  34  53  79 108 137 174 221 267 312
#     4   9  18  33  54  78 104 139 179 218 264 319
#     4  10  20  35  56  80 107 141 177 214 265 323
#     4   9  17  32  54  77 103 137 177 217 259 312
#     4  10  20  34  54  78 104 137 176 218 265 316
#     4  11  22  37  58  83 111 143 182 226 273 325
#     4  10  21  38  58  80 110 146 183 225 271 319
#
# _framework density 21.440415000000002
#
# number of rings (size 3 to 8) (size 9 to 14) (size 15 to 20)
#    0.000    2.143    0.000    3.429    0.000    7.714 
#    0.000    3.571    0.000    7.714    0.000    0.000 
#    0.000    0.000    0.000    0.000    0.000    0.000 
#
# Total GULP energy -156516.791586 kJ/mol
# GULP energy per Si atom -5589.885414 kJ/mol
# Density = 2.139162 g / cm^3
# Si number density = 21.440415 Si / 1000 Ang^3
#
#
#
# Elastic Constant Matrix: (Units=GPa)
#
#
# Indices 1 2 3 4 5 6 
#
# 1 206.5261 -15.5537 137.1837 0.0000 -0.1481 0.0000
# 2 -15.5537 41.8996 -3.9534 0.0000 -1.2947 0.0000
# 3 137.1837 -3.9534 253.0329 0.0000 -2.6464 0.0000
# 4 0.0000 0.0000 0.0000 18.4618 0.0000 4.6514
# 5 -0.1481 -1.2947 -2.6464 0.0000 49.3518 0.0000
# 6 0.0000 0.0000 0.0000 4.6514 0.0000 22.2279
#
#
#
# Elastic Compliance Matrix: (Units=1/GPa)
#
#
# Indices 1 2 3 4 5 6 
#
# 1 0.007822 0.002503 -0.004203 0.000000 -0.000136 0.000000
# 2 0.002503 0.024723 -0.000964 0.000000 0.000604 0.000000
# 3 -0.004203 -0.000964 0.006219 0.000000 0.000296 0.000000
# 4 0.000000 0.000000 0.000000 0.057181 0.000000 -0.011966
# 5 -0.000136 0.000604 0.000296 0.000000 0.020294 0.000000
# 6 0.000000 0.000000 0.000000 -0.011966 0.000000 0.047492
#
#
# Mechanical properties :
#
#
# Convention : Reuss Voigt Hill
#
# Bulk Modulus (GPa) = 29.90849 81.86796 55.88822
# Shear Modulus (GPa) = 27.74596 43.59376 35.66986
#
# Velocity S-wave (km/s) = 3.60126 4.51405 4.08324
# Velocity P-wave (km/s) = 5.59213 8.08923 6.95369
#
# Compressibility (1/GPa) = 0.03343533
#
# Stress axis : x y z
#
# Youngs Moduli (GPa) = 127.83755 40.44746 160.79931
#
# Poissons Ratio (x) = -0.10124 0.67589
# Poissons Ratio (y) = -0.31998 0.15508
# Poissons Ratio (z) = 0.53734 0.03901
#
# Static dielectric constant tensor:
#      x y z
#    x 1.709990 0.000000 -0.001070 
#    y 0.000000 1.827850 0.000000 
#    z -0.001070 0.000000 1.743820 
# 
# From -- ./inp_files/275069.got.cif
#   From: 2010.05.17/outbox.cif.g08.bks.cpg/sg12_138_cif.got.tgz:275069.got - 2010.06.03 13:09:07.
