data_PCOD9193919
_publ_section_title
;
Structure prediction by ZEFSAII (Michael W. Deem and Ramdas Pophale) SiO2 
 PCOD9193919
Probable space group: C 2/M
;
_chemical_formula_sum "Si O2"
_cell_formula_units_Z 64
_cell_length_a 14.548405
_cell_length_b 8.859584
_cell_length_c 30.904647
_cell_angle_alpha 90.000000
_cell_angle_beta 125.853617
_cell_angle_gamma 90.000000
_cell_volume 3228.599142
_symmetry_space_group_name_H-M "C 2/M"
_symmetry_group_IT_number 12
_symmetry_cell_setting 'monoclinic'
loop_
_space_group_symop_operation_xyz
x,y,z
-x,y,-z
-x,-y,-z
x,-y,z
1/2+x,1/2+y,z
1/2-x,1/2+y,-z
1/2-x,1/2-y,-z
1/2+x,1/2-y,z
loop_
_atom_site_type_symbol
_atom_site_label
_atom_site_fract_x
_atom_site_fract_y
_atom_site_fract_z
Si Si1 0.418599 0.322532 0.370414
Si Si2 0.541519 0.821260 0.328269
Si Si3 0.860517 0.178685 0.508281
Si Si4 0.200348 0.320530 0.942927
Si Si5 0.280142 0.821591 0.403819
Si Si6 0.757741 0.322068 0.869969
Si Si7 0.059957 0.681874 0.151626
Si Si8 0.507324 0.677219 0.226627
O O1 0.389889 0.500000 0.362090
O O2 0.446582 0.262201 0.330627
O O3 0.531988 0.302600 0.430858
O O4 0.324232 0.226411 0.368982
O O5 0.662020 0.762750 0.378959
O O6 0.536432 0.770492 0.277251
O O7 0.531981 0.000000 0.330316
O O8 0.750000 0.250000 0.500000
O O9 0.866722 0.260477 0.463798
O O10 0.845442 0.000000 0.497098
O O11 0.209556 0.500000 0.947493
O O12 0.263776 0.261456 0.917494
O O13 0.066655 0.282588 0.900610
O O14 0.250000 0.250000 0.000000
O O15 0.265295 0.000000 0.403706
O O16 0.778644 0.500000 0.883085
O O17 0.628008 0.305610 0.818403
O O18 0.845698 0.271059 0.857343
O O19 0.067748 0.500000 0.159497
O O20 0.068804 0.760946 0.200665
O O21 0.532020 0.500000 0.239988
#
# Coordination Sequence:
#
# PCOD9193919 Si02
#       8
#     8   8   8   8   8   8   8   8
#     4  11  24  42  63  89 120 154 194 239 291 355
#     4  12  25  42  63  86 118 156 196 243 295 352
#     4  11  22  38  63  89 119 156 194 236 288 349
#     4  10  20  34  54  82 119 156 194 239 284 338
#     4  12  25  41  62  89 120 154 195 242 291 350
#     4   9  19  37  60  83 111 150 193 237 286 342
#     4   9  19  37  59  83 112 152 197 237 286 347
#     4  10  21  38  60  85 114 146 187 242 296 347
#
# _framework density 19.822837
#
# number of rings (size 3 to 8) (size 9 to 14) (size 15 to 20)
#    0.000    1.500    1.250    4.125    0.000    6.000 
#    0.000    6.250    0.000    0.000    0.000    0.000 
#    0.000    0.000    0.000    0.000    0.000    0.000 
#
# Total GULP energy -178900.757122 kJ/mol
# GULP energy per Si atom -5590.648660 kJ/mol
# Density = 1.977772 g / cm^3
# Si number density = 19.822837 Si / 1000 Ang^3
#
#
#
# Elastic Constant Matrix: (Units=GPa)
#
#
# Indices 1 2 3 4 5 6 
#
# 1 106.4710 9.9884 10.1325 0.0000 -27.6908 0.0000
# 2 9.9884 66.1690 31.1630 0.0000 -9.8306 0.0000
# 3 10.1325 31.1630 56.1698 0.0000 -28.4850 0.0000
# 4 0.0000 0.0000 0.0000 32.9185 0.0000 -9.3660
# 5 -27.6908 -9.8306 -28.4850 0.0000 24.5394 0.0000
# 6 0.0000 0.0000 0.0000 -9.3660 0.0000 32.9140
#
#
#
# Elastic Compliance Matrix: (Units=1/GPa)
#
#
# Indices 1 2 3 4 5 6 
#
# 1 0.021125 -0.008251 0.027178 0.000000 0.052080 0.000000
# 2 -0.008251 0.025276 -0.029468 0.000000 -0.033392 0.000000
# 3 0.027178 -0.029468 0.094364 0.000000 0.128400 0.000000
# 4 0.000000 0.000000 0.000000 0.033054 0.000000 0.009406
# 5 0.052080 -0.033392 0.128400 0.000000 0.235188 0.000000
# 6 0.000000 0.000000 0.000000 0.009406 0.000000 0.033059
#
#
# Mechanical properties :
#
#
# Convention : Reuss Voigt Hill
#
# Bulk Modulus (GPa) = 8.35546 36.81975 22.58761
# Shear Modulus (GPa) = 9.93954 29.90945 19.92449
#
# Velocity S-wave (km/s) = 2.24167 3.88859 3.17382
# Velocity P-wave (km/s) = 3.30520 6.22706 4.98501
#
# Compressibility (1/GPa) = 0.11968217
#
# Stress axis : x y z
#
# Youngs Moduli (GPa) = 47.33758 39.56354 10.59728
#
# Poissons Ratio (x) = 0.32645 -0.28802
# Poissons Ratio (y) = 0.39059 0.31228
# Poissons Ratio (z) = -1.28655 1.16587
#
# Static dielectric constant tensor:
#      x y z
#    x 1.725980 0.000000 0.008560 
#    y 0.000000 1.656020 0.000000 
#    z 0.008560 0.000000 1.691580 
# 
# From -- ./inp_files/359691.got.cif
#   From: 2010.05.17/outbox.cif.g08.bks.cpg/sg12_180_cif.got.tgz:359691.got - 2010.06.03 13:09:07.
