data_PCOD9193924
_publ_section_title
;
Structure prediction by ZEFSAII (Michael W. Deem and Ramdas Pophale) SiO2 
 PCOD9193924
Probable space group: C 2/M
;
_chemical_formula_sum "Si O2"
_cell_formula_units_Z 60
_cell_length_a 11.562095
_cell_length_b 20.153829
_cell_length_c 10.945112
_cell_angle_alpha 90.000000
_cell_angle_beta 89.586364
_cell_angle_gamma 90.000000
_cell_volume 2550.368850
_symmetry_space_group_name_H-M "C 2/M"
_symmetry_group_IT_number 12
_symmetry_cell_setting 'monoclinic'
loop_
_space_group_symop_operation_xyz
x,y,z
-x,y,-z
-x,-y,-z
x,-y,z
1/2+x,1/2+y,z
1/2-x,1/2+y,-z
1/2-x,1/2-y,-z
1/2+x,1/2-y,z
loop_
_atom_site_type_symbol
_atom_site_label
_atom_site_fract_x
_atom_site_fract_y
_atom_site_fract_z
Si Si1 0.081441 0.377180 0.384919
Si Si2 0.630752 0.720027 0.358141
Si Si3 0.964368 0.610629 0.871104
Si Si4 0.837716 0.894551 0.463056
Si Si5 0.007942 0.888756 0.772420
Si Si6 0.204988 0.151758 0.938083
Si Si7 0.626152 0.500000 0.317989
Si Si8 0.315658 0.798621 0.165152
O O1 0.096524 0.297025 0.364995
O O2 0.032058 0.415723 0.266992
O O3 0.209323 0.399846 0.414911
O O4 0.000000 0.387456 0.500000
O O5 0.634034 0.679453 0.485403
O O6 0.541633 0.682714 0.267975
O O7 0.758639 0.708213 0.298574
O O8 0.829936 0.629899 0.885600
O O9 0.058928 0.669583 0.856985
O O10 0.000000 0.577228 0.000000
O O11 0.919813 0.911878 0.349216
O O12 0.850789 0.942504 0.577547
O O13 0.097120 0.887420 0.883764
O O14 0.907654 0.942017 0.780710
O O15 0.183295 0.225568 0.889306
O O16 0.227901 0.158799 0.081317
#
# Coordination Sequence:
#
# PCOD9193924 Si02
#       8
#     8   8   8   8   8   8   4   8
#     4  12  22  35  57  91 124 162 201 245 304 371
#     4  11  21  34  54  88 125 162 190 246 305 365
#     4  10  20  36  52  77 120 162 198 239 292 354
#     4  11  21  37  58  84 120 150 200 248 310 359
#     4  11  20  37  60  85 119 150 205 247 310 354
#     4  10  20  34  55  84 114 164 201 246 284 361
#     4  10  23  40  63  89 111 155 199 266 301 363
#     4  10  20  34  54  82 124 161 201 234 293 362
#
# _framework density 23.526007
#
# number of rings (size 3 to 8) (size 9 to 14) (size 15 to 20)
#    0.000    1.333    2.667    5.200    0.000    0.533 
#    0.000    0.333    0.000    6.400    0.000    8.400 
#    0.000    0.000    0.000    0.000    0.000    0.000 
#
# Total GULP energy -167073.676289 kJ/mol
# GULP energy per Si atom -5569.122543 kJ/mol
# Density = 2.347246 g / cm^3
# Si number density = 23.526007 Si / 1000 Ang^3
#
#
#
# Elastic Constant Matrix: (Units=GPa)
#
#
# Indices 1 2 3 4 5 6 
#
# 1 62.7506 14.2864 28.4716 0.0000 19.6190 0.0000
# 2 14.2864 70.6091 17.1559 0.0000 12.4803 0.0000
# 3 28.4716 17.1559 119.1558 0.0000 11.6401 0.0000
# 4 0.0000 0.0000 0.0000 -0.2927 0.0000 7.7613
# 5 19.6190 12.4803 11.6401 0.0000 44.1873 0.0000
# 6 0.0000 0.0000 0.0000 7.7613 0.0000 -6.7215
#
#
#
# Elastic Compliance Matrix: (Units=1/GPa)
#
#
# Indices 1 2 3 4 5 6 
#
# 1 0.020484 -0.001866 -0.003889 0.000000 -0.007543 0.000000
# 2 -0.001866 0.015454 -0.001472 0.000000 -0.003149 0.000000
# 3 -0.003889 -0.001472 0.009570 0.000000 -0.000379 0.000000
# 4 0.000000 0.000000 0.000000 0.115349 0.000000 0.133194
# 5 -0.007543 -0.003149 -0.000379 0.000000 0.026969 0.000000
# 6 0.000000 0.000000 0.000000 0.133194 0.000000 0.005023
#
#
# Mechanical properties :
#
#
# Convention : Reuss Voigt Hill
#
# Bulk Modulus (GPa) = 32.20098 41.37146 36.78622
# Shear Modulus (GPa) = 22.97208 20.27472 21.62340
#
# Velocity S-wave (km/s) = 3.12822 2.93883 3.03500
# Velocity P-wave (km/s) = 5.17347 5.39807 5.28696
#
# Compressibility (1/GPa) = 0.03105496
#
# Stress axis : x y z
#
# Youngs Moduli (GPa) = 48.81881 64.70746 104.48790
#
# Poissons Ratio (x) = 0.12077 0.40634
# Poissons Ratio (y) = 0.09111 0.15376
# Poissons Ratio (z) = 0.18985 0.09522
#
# Static dielectric constant tensor:
#      x y z
#    x 1.934840 0.000000 0.009960 
#    y 0.000000 1.874370 0.000000 
#    z 0.009960 0.000000 1.938640 
# 
# From -- ./inp_files/133933.got.cif
#   From: 2010.05.17/outbox.cif.g08.bks.cpg/sg12_67_cif.got.tgz:133933.got - 2010.06.03 13:09:07.
