data_PCOD9193931
_publ_section_title
;
Structure prediction by ZEFSAII (Michael W. Deem and Ramdas Pophale) SiO2 
 PCOD9193931
Probable space group: C 2/M
;
_chemical_formula_sum "Si O2"
_cell_formula_units_Z 56
_cell_length_a 19.518106
_cell_length_b 15.729790
_cell_length_c 9.933456
_cell_angle_alpha 90.000000
_cell_angle_beta 115.168348
_cell_angle_gamma 90.000000
_cell_volume 2760.192439
_symmetry_space_group_name_H-M "C 2/M"
_symmetry_group_IT_number 12
_symmetry_cell_setting 'monoclinic'
loop_
_space_group_symop_operation_xyz
x,y,z
-x,y,-z
-x,-y,-z
x,-y,z
1/2+x,1/2+y,z
1/2-x,1/2+y,-z
1/2-x,1/2-y,-z
1/2+x,1/2-y,z
loop_
_atom_site_type_symbol
_atom_site_label
_atom_site_fract_x
_atom_site_fract_y
_atom_site_fract_z
Si Si1 0.138400 0.602854 0.774258
Si Si2 0.440980 0.403968 0.549776
Si Si3 0.627126 0.897189 0.455721
Si Si4 0.310046 0.397440 0.895691
Si Si5 0.471335 0.363631 0.118111
Si Si6 0.495090 0.164399 0.150500
Si Si7 0.201108 0.104074 0.422250
O O1 0.136334 0.500000 0.774901
O O2 0.115510 0.628821 0.602347
O O3 0.225820 0.629479 0.868488
O O4 0.081290 0.635968 0.838215
O O5 0.500000 0.358706 0.500000
O O6 0.426428 0.500000 0.484156
O O7 0.487002 0.409494 0.726529
O O8 0.360274 0.364462 0.521232
O O9 0.564394 0.865752 0.300662
O O10 0.712054 0.870769 0.483788
O O11 0.625730 0.000000 0.454493
O O12 0.310608 0.500000 0.896826
O O13 0.320756 0.370444 0.748431
O O14 0.380593 0.368120 0.042699
O O15 0.495701 0.265976 0.146621
O O16 0.500000 0.399121 0.000000
O O17 0.500000 0.132998 0.000000
O O18 0.197867 0.000000 0.422483
#
# Coordination Sequence:
#
# PCOD9193931 Si02
#       7
#     8   8   8   8   8   8   8
#     4   9  19  37  62  86 105 134 187 236 273 329
#     4  10  20  34  54  83 114 141 181 233 279 323
#     4   9  18  36  62  83 102 139 187 231 275 325
#     4   9  17  33  61  88 103 135 189 233 269 316
#     4  11  22  36  56  77 113 156 189 214 260 331
#     4  11  24  37  51  79 119 150 182 222 272 327
#     4   8  15  31  57  84 106 132 176 232 277 317
#
# _framework density 20.288440999999999
#
# number of rings (size 3 to 8) (size 9 to 14) (size 15 to 20)
#    0.000    2.429    1.429    3.000    0.000    4.571 
#    2.571    0.714    0.000    0.000    0.000    0.000 
#    0.000    0.000    0.000    0.000    0.000    0.000 
#
# Total GULP energy -156233.524346 kJ/mol
# GULP energy per Si atom -5579.768727 kJ/mol
# Density = 2.024226 g / cm^3
# Si number density = 20.288441 Si / 1000 Ang^3
#
#
#
# Elastic Constant Matrix: (Units=GPa)
#
#
# Indices 1 2 3 4 5 6 
#
# 1 172.1002 14.5513 53.7391 0.0000 -14.6860 0.0000
# 2 14.5513 21.6379 8.8742 0.0000 -1.6283 0.0000
# 3 53.7391 8.8742 67.1723 0.0000 0.1468 0.0000
# 4 0.0000 0.0000 0.0000 -111.2842 0.0000 -103.2841
# 5 -14.6860 -1.6283 0.1468 0.0000 34.5146 0.0000
# 6 0.0000 0.0000 0.0000 -103.2841 0.0000 -62.8537
#
#
#
# Elastic Compliance Matrix: (Units=1/GPa)
#
#
# Indices 1 2 3 4 5 6 
#
# 1 0.008297 -0.002745 -0.006283 0.000000 0.003428 0.000000
# 2 -0.002745 0.049959 -0.004407 0.000000 0.001208 0.000000
# 3 -0.006283 -0.004407 0.020502 0.000000 -0.002968 0.000000
# 4 0.000000 0.000000 0.000000 0.017112 0.000000 -0.028120
# 5 0.003428 0.001208 -0.002968 0.000000 0.030501 0.000000
# 6 0.000000 0.000000 0.000000 -0.028120 0.000000 0.030298
#
#
# Mechanical properties :
#
#
# Convention : Reuss Voigt Hill
#
# Bulk Modulus (GPa) = 19.27166 46.13773 32.70469
# Shear Modulus (GPa) = 24.89603 -15.67493 4.61055
#
# Velocity S-wave (km/s) = 3.50680 -2.78259 1.50912
# Velocity P-wave (km/s) = 5.09081 3.53079 4.38080
#
# Compressibility (1/GPa) = 0.05188966
#
# Stress axis : x y z
#
# Youngs Moduli (GPa) = 120.52678 20.01623 48.77594
#
# Poissons Ratio (x) = 0.05495 0.30644
# Poissons Ratio (y) = 0.33086 0.21494
# Poissons Ratio (z) = 0.75721 0.08821
#
# Static dielectric constant tensor:
#      x y z
#    x 1.760470 0.000000 -0.014290 
#    y 0.000000 1.723830 0.000000 
#    z -0.014290 0.000000 1.699150 
# 
# From -- ./inp_files/88072.got.cif
#   From: 2010.05.17/outbox.cif.g08.bks.cpg/sg12_45_cif.got.tgz:88072.got - 2010.06.03 13:09:07.
