data_PCOD9193765
_publ_section_title
;
Structure prediction by ZEFSAII (Michael W. Deem and Ramdas Pophale) SiO2 
 PCOD9193765
Probable space group: C 2/M
;
_chemical_formula_sum "Si O2"
_cell_formula_units_Z 40
_cell_length_a 18.338304
_cell_length_b 7.631072
_cell_length_c 26.673000
_cell_angle_alpha 90.000000
_cell_angle_beta 149.988637
_cell_angle_gamma 90.000000
_cell_volume 1866.963107
_symmetry_space_group_name_H-M "C 2/M"
_symmetry_group_IT_number 12
_symmetry_cell_setting 'monoclinic'
loop_
_space_group_symop_operation_xyz
x,y,z
-x,y,-z
-x,-y,-z
x,-y,z
1/2+x,1/2+y,z
1/2-x,1/2+y,-z
1/2-x,1/2-y,-z
1/2+x,1/2-y,z
loop_
_atom_site_type_symbol
_atom_site_label
_atom_site_fract_x
_atom_site_fract_y
_atom_site_fract_z
Si Si1 0.926189 0.290711 0.207456
Si Si2 0.579229 0.784751 0.196549
Si Si3 0.415210 0.211208 0.998743
Si Si4 0.589681 0.294079 0.600266
Si Si5 0.578989 0.209073 0.399519
O O1 0.948425 0.500000 0.220946
O O2 0.754486 0.256583 0.104429
O O3 0.001841 0.225676 0.201639
O O4 0.000732 0.222071 0.302602
O O5 0.746867 0.724266 0.295532
O O6 0.577175 0.000000 0.194507
O O7 0.491516 0.726061 0.095194
O O8 0.425636 0.000000 0.004906
O O9 0.500000 0.276026 0.000000
O O10 0.500000 0.217648 0.500000
O O11 0.610353 0.500000 0.601409
O O12 0.497554 0.278689 0.596086
O O13 0.750000 0.250000 0.500000
O O14 0.561646 0.000000 0.390441
#
# Coordination Sequence:
#
# PCOD9193765 Si02
#       5
#     8   8   8   8   8
#     4  10  21  37  56  79 108 143 183 225 271 325
#     4   9  18  34  55  79 109 144 182 224 273 331
#     4  10  20  34  54  80 109 142 181 226 274 324
#     4  10  20  37  61  84 110 147 185 224 277 335
#     4  11  23  38  57  82 112 146 186 231 277 328
#
# _framework density 21.425170000000001
#
# number of rings (size 3 to 8) (size 9 to 14) (size 15 to 20)
#    0.000    2.000    0.000    3.600    0.000    7.200 
#    0.000    2.000    0.000    0.000    0.000    0.000 
#    0.000    0.000    0.000    0.000    0.000    0.000 
#
# Total GULP energy -111805.338039 kJ/mol
# GULP energy per Si atom -5590.266902 kJ/mol
# Density = 2.137641 g / cm^3
# Si number density = 21.425170 Si / 1000 Ang^3
#
#
#
# Elastic Constant Matrix: (Units=GPa)
#
#
# Indices 1 2 3 4 5 6 
#
# 1 195.3145 -23.6972 128.3433 0.0000 -5.8126 0.0000
# 2 -23.6972 35.4138 -10.6808 -0.0001 -7.8799 0.0001
# 3 128.3433 -10.6808 246.1491 0.0000 -10.0239 0.0000
# 4 0.0000 -0.0001 0.0000 10.1372 0.0000 12.4296
# 5 -5.8126 -7.8799 -10.0239 0.0000 49.2248 0.0000
# 6 0.0000 0.0001 0.0000 12.4296 0.0000 14.1730
#
#
#
# Elastic Compliance Matrix: (Units=1/GPa)
#
#
# Indices 1 2 3 4 5 6 
#
# 1 0.008440 0.004588 -0.004166 -0.000001 0.000883 0.000001
# 2 0.004588 0.032314 -0.000764 -0.000006 0.005559 0.000005
# 3 -0.004166 -0.000764 0.006228 0.000000 0.000654 0.000000
# 4 -0.000001 -0.000006 0.000000 -1.310030 -0.000001 1.148879
# 5 0.000883 0.005559 0.000654 -0.000001 0.021442 0.000001
# 6 0.000001 0.000005 0.000000 1.148879 0.000001 -0.936994
#
#
# Mechanical properties :
#
#
# Convention : Reuss Voigt Hill
#
# Bulk Modulus (GPa) = 21.59847 73.86753 47.73300
# Shear Modulus (GPa) = -2.31216 40.23449 18.96117
#
# Velocity S-wave (km/s) = -1.03996 4.33818 2.97811
# Velocity P-wave (km/s) = 2.94291 7.72301 5.84404
#
# Compressibility (1/GPa) = 0.04629958
#
# Stress axis : x y z
#
# Youngs Moduli (GPa) = 118.48049 30.94615 160.56212
#
# Poissons Ratio (x) = -0.14198 0.66886
# Poissons Ratio (y) = -0.54357 0.12260
# Poissons Ratio (z) = 0.49356 0.02363
#
# Static dielectric constant tensor:
#      x y z
#    x 1.710780 0.000000 -0.021460 
#    y 0.000000 1.814670 0.000000 
#    z -0.021460 0.000000 1.744890 
# 
# From -- ./inp_files/151746.got.cif
#   From: 2010.05.17/outbox.cif.g08.bks.cpg/sg12_76_cif.got.tgz:151746.got - 2010.06.03 13:09:07.
