data_PCOD9193980
_publ_section_title
;
Structure prediction by ZEFSAII (Michael W. Deem and Ramdas Pophale) SiO2 
 PCOD9193980
Probable space group: C 2/M
;
_chemical_formula_sum "Si O2"
_cell_formula_units_Z 58
_cell_length_a 14.723305
_cell_length_b 9.412971
_cell_length_c 21.263833
_cell_angle_alpha 90.000000
_cell_angle_beta 85.770639
_cell_angle_gamma 90.000000
_cell_volume 2938.930426
_symmetry_space_group_name_H-M "C 2/M"
_symmetry_group_IT_number 12
_symmetry_cell_setting 'monoclinic'
loop_
_space_group_symop_operation_xyz
x,y,z
-x,y,-z
-x,-y,-z
x,-y,z
1/2+x,1/2+y,z
1/2-x,1/2+y,-z
1/2-x,1/2-y,-z
1/2+x,1/2-y,z
loop_
_atom_site_type_symbol
_atom_site_label
_atom_site_fract_x
_atom_site_fract_y
_atom_site_fract_z
Si Si1 0.672788 0.342201 0.537676
Si Si2 0.725435 0.834118 0.751777
Si Si3 0.920662 0.833067 0.049728
Si Si4 0.583792 0.832357 0.653675
Si Si5 0.754961 0.666604 0.100734
Si Si6 0.000000 0.000000 0.500000
Si Si7 0.402474 0.830188 0.723734
Si Si8 0.441447 0.666316 0.848826
O O1 0.709806 0.500000 0.552355
O O2 0.750000 0.250000 0.500000
O O3 0.636469 0.260662 0.600681
O O4 0.581710 0.378297 0.502305
O O5 0.632732 0.813003 0.718717
O O6 0.721694 0.806316 0.826506
O O7 0.804199 0.737979 0.717988
O O8 0.750978 0.000000 0.743487
O O9 0.824358 0.756125 0.055820
O O10 0.967372 0.819482 0.115904
O O11 0.907838 0.000000 0.036023
O O12 0.000000 0.777132 0.000000
O O13 0.478412 0.792116 0.668281
O O14 0.589775 0.000000 0.637727
O O15 0.768342 0.500000 0.087498
O O16 0.647169 0.697562 0.103121
O O17 0.434861 0.764608 0.788599
O O18 0.397864 0.000000 0.728390
O O19 0.431860 0.500000 0.830610
#
# Coordination Sequence:
#
# PCOD9193980 Si02
#       8
#     8   8   8   8   8   2   8   8
#     4  10  22  43  66  90 123 163 213 254 302 363
#     4   9  19  36  56  81 115 153 180 224 290 347
#     4  10  21  35  51  74 102 136 183 236 284 333
#     4  10  21  37  58  89 123 152 192 240 289 347
#     4   9  18  34  54  75 104 142 182 219 277 346
#     4   8  24  44  66  90 124 164 206 256 310 350
#     4  10  20  34  54  84 119 144 186 233 282 346
#     4   9  19  36  54  72 105 150 182 222 288 351
#
# _framework density 19.73507
#
# number of rings (size 3 to 8) (size 9 to 14) (size 15 to 20)
#    0.414    2.069    0.000    2.483    0.000    7.448 
#    2.483    2.759    0.000    0.000    0.000    0.000 
#    0.000    0.000    0.000    0.000    0.000    0.000 
#
# Total GULP energy -161471.839735 kJ/mol
# GULP energy per Si atom -5567.994474 kJ/mol
# Density = 1.969015 g / cm^3
# Si number density = 19.735070 Si / 1000 Ang^3
#
#
#
# Elastic Constant Matrix: (Units=GPa)
#
#
# Indices 1 2 3 4 5 6 
#
# 1 102.3746 49.2466 21.4140 0.0000 -21.9515 0.0000
# 2 49.2466 61.1615 30.4686 0.0000 -27.6042 0.0000
# 3 21.4140 30.4686 37.6695 0.0000 -24.1744 0.0000
# 4 0.0000 0.0000 0.0000 25.4286 0.0000 -9.5503
# 5 -21.9515 -27.6042 -24.1744 0.0000 32.1243 0.0000
# 6 0.0000 0.0000 0.0000 -9.5503 0.0000 35.4787
#
#
#
# Elastic Compliance Matrix: (Units=1/GPa)
#
#
# Indices 1 2 3 4 5 6 
#
# 1 0.016078 -0.013777 0.002817 0.000000 0.001268 0.000000
# 2 -0.013777 0.042466 -0.017677 0.000000 0.013774 0.000000
# 3 0.002817 -0.017677 0.059432 0.000000 0.031460 0.000000
# 4 0.000000 0.000000 0.000000 0.043749 0.000000 0.011777
# 5 0.001268 0.013774 0.031460 0.000000 0.067507 0.000000
# 6 0.000000 0.000000 0.000000 0.011777 0.000000 0.031356
#
#
# Mechanical properties :
#
#
# Convention : Reuss Voigt Hill
#
# Bulk Modulus (GPa) = 16.47343 44.82935 30.65139
# Shear Modulus (GPa) = 14.78878 25.27808 20.03343
#
# Velocity S-wave (km/s) = 2.74042 3.58281 3.18955
# Velocity P-wave (km/s) = 4.28703 6.31508 5.39717
#
# Compressibility (1/GPa) = 0.06070382
#
# Stress axis : x y z
#
# Youngs Moduli (GPa) = 62.19692 23.54835 16.82591
#
# Poissons Ratio (x) = 0.32442 -0.04740
# Poissons Ratio (y) = 0.85688 0.29742
# Poissons Ratio (z) = -0.17523 0.41625
#
# Static dielectric constant tensor:
#      x y z
#    x 1.723810 0.000000 -0.014930 
#    y 0.000000 1.666180 0.000000 
#    z -0.014930 0.000000 1.741170 
# 
# From -- ./inp_files/337968.got.cif
#   From: 2010.05.17/outbox.cif.g08.bks.cpg/sg12_169_cif.got.tgz:337968.got - 2010.06.03 13:09:07.
