data_PCOD9193622
_publ_section_title
;
Structure prediction by ZEFSAII (Michael W. Deem and Ramdas Pophale) SiO2 
 PCOD9193622
Probable space group: C 2/M
;
_chemical_formula_sum "Si O2"
_cell_formula_units_Z 56
_cell_length_a 9.071407
_cell_length_b 10.971330
_cell_length_c 33.374844
_cell_angle_alpha 90.000000
_cell_angle_beta 63.758074
_cell_angle_gamma 90.000000
_cell_volume 2979.299577
_symmetry_space_group_name_H-M "C 2/M"
_symmetry_group_IT_number 12
_symmetry_cell_setting 'monoclinic'
loop_
_space_group_symop_operation_xyz
x,y,z
-x,y,-z
-x,-y,-z
x,-y,z
1/2+x,1/2+y,z
1/2-x,1/2+y,-z
1/2-x,1/2-y,-z
1/2+x,1/2-y,z
loop_
_atom_site_type_symbol
_atom_site_label
_atom_site_fract_x
_atom_site_fract_y
_atom_site_fract_z
Si Si1 0.591647 0.138973 0.762030
Si Si2 0.589520 0.637906 0.125459
Si Si3 0.247076 0.249016 0.181499
Si Si4 0.141918 0.357002 0.662803
Si Si5 0.303455 0.140038 0.022142
Si Si6 0.887787 0.361443 0.623955
Si Si7 0.868535 0.635642 0.479948
O O1 0.706268 0.210903 0.779096
O O2 0.400894 0.154581 0.797322
O O3 0.610408 0.171484 0.713249
O O4 0.640742 0.000000 0.760438
O O5 0.536789 0.500000 0.126468
O O6 0.422644 0.713829 0.142376
O O7 0.669698 0.653433 0.159646
O O8 0.721694 0.665344 0.075214
O O9 0.199206 0.500000 0.652621
O O10 0.264879 0.251485 0.633008
O O11 0.977169 0.350372 0.656131
O O12 0.254215 0.000000 0.016197
O O13 0.500000 0.140643 0.000000
O O14 0.250000 0.250000 0.000000
O O15 0.815820 0.500000 0.629481
O O16 0.030293 0.354079 0.573435
O O17 0.788272 0.500000 0.490200
O O18 0.750000 0.750000 0.500000
O O19 0.000000 0.637764 0.500000
#
# Coordination Sequence:
#
# PCOD9193622 Si02
#       7
#     8   8   8   8   8   8   8
#     4  10  20  35  53  76 105 135 172 217 262 311
#     4  10  20  35  54  77 105 137 175 216 261 314
#     4  10  20  34  54  77 103 136 173 213 264 314
#     4  10  21  36  55  79 107 140 178 219 265 319
#     4  10  21  37  56  80 110 142 178 221 266 315
#     4  10  21  37  55  79 110 142 179 223 269 318
#     4  10  21  36  55  80 109 141 180 224 269 320
#
# _framework density 18.796364000000001
#
# number of rings (size 3 to 8) (size 9 to 14) (size 15 to 20)
#    0.000    2.000    0.000    3.429    0.000    1.714 
#    0.000    7.143    0.000    0.000    0.000    0.000 
#    0.000    0.000    0.000    0.000    0.000    0.000 
#
# Total GULP energy -156005.612659 kJ/mol
# GULP energy per Si atom -5571.629024 kJ/mol
# Density = 1.875358 g / cm^3
# Si number density = 18.796364 Si / 1000 Ang^3
#
#
#
# Elastic Constant Matrix: (Units=GPa)
#
#
# Indices 1 2 3 4 5 6 
#
# 1 54.5555 26.1010 -6.2791 0.0000 1.0963 0.0000
# 2 26.1010 90.6569 18.4779 0.0000 -11.6778 0.0000
# 3 -6.2791 18.4779 45.7347 0.0000 3.5485 0.0000
# 4 0.0000 0.0000 0.0000 33.1147 0.0000 -1.9206
# 5 1.0963 -11.6778 3.5485 0.0000 32.8874 0.0000
# 6 0.0000 0.0000 0.0000 -1.9206 0.0000 24.0085
#
#
#
# Elastic Compliance Matrix: (Units=1/GPa)
#
#
# Indices 1 2 3 4 5 6 
#
# 1 0.023464 -0.008816 0.007147 0.000000 -0.004684 0.000000
# 2 -0.008816 0.016146 -0.008270 0.000000 0.006919 0.000000
# 3 0.007147 -0.008270 0.026657 0.000000 -0.006051 0.000000
# 4 0.000000 0.000000 0.000000 0.030339 0.000000 0.002427
# 5 -0.004684 0.006919 -0.006051 0.000000 0.033673 0.000000
# 6 0.000000 0.000000 0.000000 0.002427 0.000000 0.041846
#
#
# Mechanical properties :
#
#
# Convention : Reuss Voigt Hill
#
# Bulk Modulus (GPa) = 21.55706 29.72743 25.64225
# Shear Modulus (GPa) = 24.10026 28.17859 26.13943
#
# Velocity S-wave (km/s) = 3.58463 3.87609 3.73321
# Velocity P-wave (km/s) = 5.35037 5.99015 5.67928
#
# Compressibility (1/GPa) = 0.04638851
#
# Stress axis : x y z
#
# Youngs Moduli (GPa) = 42.61807 61.93612 37.51308
#
# Poissons Ratio (x) = 0.54600 -0.26809
# Poissons Ratio (y) = 0.37570 0.31025
# Poissons Ratio (z) = -0.30457 0.51224
#
# Static dielectric constant tensor:
#      x y z
#    x 1.614460 0.000000 0.010640 
#    y 0.000000 1.668200 0.000000 
#    z 0.010640 0.000000 1.668730 
# 
# From -- ./inp_files/355749.got.cif
#   From: 2010.05.17/outbox.cif.g08.bks.cpg/sg12_178_cif.got.tgz:355749.got - 2010.06.03 13:09:07.
