data_PCOD9193648
_publ_section_title
;
Structure prediction by ZEFSAII (Michael W. Deem and Ramdas Pophale) SiO2 
 PCOD9193648
Probable space group: C 2/M
;
_chemical_formula_sum "Si O2"
_cell_formula_units_Z 44
_cell_length_a 24.545317
_cell_length_b 9.614913
_cell_length_c 8.932734
_cell_angle_alpha 90.000000
_cell_angle_beta 87.722365
_cell_angle_gamma 90.000000
_cell_volume 2106.469478
_symmetry_space_group_name_H-M "C 2/M"
_symmetry_group_IT_number 12
_symmetry_cell_setting 'monoclinic'
loop_
_space_group_symop_operation_xyz
x,y,z
-x,y,-z
-x,-y,-z
x,-y,z
1/2+x,1/2+y,z
1/2-x,1/2+y,-z
1/2-x,1/2-y,-z
1/2+x,1/2-y,z
loop_
_atom_site_type_symbol
_atom_site_label
_atom_site_fract_x
_atom_site_fract_y
_atom_site_fract_z
Si Si1 0.401154 0.845917 0.937377
Si Si2 0.168543 0.832455 0.634540
Si Si3 0.500000 0.260678 0.500000
Si Si4 0.932675 0.660042 0.243013
Si Si5 0.716133 0.160471 0.884720
Si Si6 0.887866 0.843772 0.652896
O O1 0.395030 0.745895 0.799290
O O2 0.412606 0.000000 0.877688
O O3 0.443373 0.815848 0.066808
O O4 0.343751 0.846620 0.033029
O O5 0.111486 0.776505 0.708558
O O6 0.211456 0.744454 0.728145
O O7 0.158942 0.797887 0.460109
O O8 0.174864 0.000000 0.649295
O O9 0.480997 0.175034 0.356344
O O10 0.446109 0.340863 0.560377
O O11 0.911672 0.500000 0.259624
O O12 0.734817 0.000000 0.863316
O O13 0.750000 0.250000 0.000000
O O14 0.874792 0.000000 0.698363
#
# Coordination Sequence:
#
# PCOD9193648 Si02
#       6
#     8   8   4   8   8   8
#     4   9  20  36  53  77 109 138 171 218 267 313
#     4   9  18  33  53  77 106 140 175 217 264 312
#     4  10  20  34  54  78 104 140 184 228 264 310
#     4   9  18  33  52  76 104 138 179 221 266 316
#     4  10  20  36  59  85 109 137 174 215 260 317
#     4  10  21  36  54  76 106 142 181 221 265 313
#
# _framework density 20.888031000000002
#
# number of rings (size 3 to 8) (size 9 to 14) (size 15 to 20)
#    0.000    2.545    0.000    2.727    0.000    9.455 
#    0.000    3.636    0.000    0.000    0.000    0.000 
#    0.000    0.000    0.000    0.000    0.000    0.000 
#
# Total GULP energy -122525.261237 kJ/mol
# GULP energy per Si atom -5569.330056 kJ/mol
# Density = 2.084049 g / cm^3
# Si number density = 20.888031 Si / 1000 Ang^3
#
#
#
# Elastic Constant Matrix: (Units=GPa)
#
#
# Indices 1 2 3 4 5 6 
#
# 1 43.7580 11.6088 23.8255 0.0000 17.8408 0.0000
# 2 11.6088 118.1330 104.4104 0.0000 27.1069 0.0000
# 3 23.8255 104.4104 200.2798 0.0000 52.7404 0.0000
# 4 0.0000 0.0000 0.0000 31.0274 0.0000 6.3879
# 5 17.8408 27.1069 52.7404 0.0000 41.7899 0.0000
# 6 0.0000 0.0000 0.0000 6.3879 0.0000 23.7162
#
#
#
# Elastic Compliance Matrix: (Units=1/GPa)
#
#
# Indices 1 2 3 4 5 6 
#
# 1 0.027684 0.000283 -0.000420 0.000000 -0.011473 0.000000
# 2 0.000283 0.015702 -0.008246 0.000000 0.000101 0.000000
# 3 -0.000420 -0.008246 0.011812 0.000000 -0.009379 0.000000
# 4 0.000000 0.000000 0.000000 0.034122 0.000000 -0.009191
# 5 -0.011473 0.000101 -0.009379 0.000000 0.040598 0.000000
# 6 0.000000 0.000000 0.000000 -0.009191 0.000000 0.044641
#
#
# Mechanical properties :
#
#
# Convention : Reuss Voigt Hill
#
# Bulk Modulus (GPa) = 26.01992 71.31779 48.66886
# Shear Modulus (GPa) = 24.49362 34.12845 29.31103
#
# Velocity S-wave (km/s) = 3.42806 4.04651 3.75006
# Velocity P-wave (km/s) = 5.30591 7.48661 6.48853
#
# Compressibility (1/GPa) = 0.03843210
#
# Stress axis : x y z
#
# Youngs Moduli (GPa) = 36.12193 63.68440 84.66248
#
# Poissons Ratio (x) = -0.01803 0.03554
# Poissons Ratio (y) = -0.01022 0.69815
# Poissons Ratio (z) = 0.01516 0.52516
#
# Static dielectric constant tensor:
#      x y z
#    x 1.828050 0.000000 0.033440 
#    y 0.000000 1.722730 0.000000 
#    z 0.033440 0.000000 1.789500 
# 
# From -- ./inp_files/108220.got.cif
#   From: 2010.05.17/outbox.cif.g08.bks.cpg/sg12_55_cif.got.tgz:108220.got - 2010.06.03 13:09:07.
