data_PCOD9193714
_publ_section_title
;
Structure prediction by ZEFSAII (Michael W. Deem and Ramdas Pophale) SiO2 
 PCOD9193714
Probable space group: C 2/M
;
_chemical_formula_sum "Si O2"
_cell_formula_units_Z 48
_cell_length_a 14.873102
_cell_length_b 9.375196
_cell_length_c 17.192162
_cell_angle_alpha 90.000000
_cell_angle_beta 89.463937
_cell_angle_gamma 90.000000
_cell_volume 2397.139999
_symmetry_space_group_name_H-M "C 2/M"
_symmetry_group_IT_number 12
_symmetry_cell_setting 'monoclinic'
loop_
_space_group_symop_operation_xyz
x,y,z
-x,y,-z
-x,-y,-z
x,-y,z
1/2+x,1/2+y,z
1/2-x,1/2+y,-z
1/2-x,1/2-y,-z
1/2+x,1/2-y,z
loop_
_atom_site_type_symbol
_atom_site_label
_atom_site_fract_x
_atom_site_fract_y
_atom_site_fract_z
Si Si1 0.807087 0.169691 0.668009
Si Si2 0.100870 0.330473 0.712175
Si Si3 0.864582 0.159731 0.138512
Si Si4 0.655661 0.838531 0.182636
Si Si5 0.452936 0.170078 0.581952
Si Si6 0.605595 0.161100 0.012882
O O1 0.700417 0.202700 0.676423
O O2 0.853491 0.233709 0.745273
O O3 0.860960 0.245781 0.598442
O O4 0.816609 0.000000 0.663976
O O5 0.100377 0.500000 0.728054
O O6 0.087055 0.248976 0.793808
O O7 0.025008 0.298011 0.649427
O O8 0.762260 0.149534 0.168218
O O9 0.901743 0.000000 0.129728
O O10 0.860059 0.239842 0.056270
O O11 0.618580 0.785918 0.100512
O O12 0.620454 0.000000 0.198960
O O13 0.500000 0.204779 0.500000
O O14 0.435004 0.000000 0.583625
O O15 0.645272 0.000000 0.008595
O O16 0.500000 0.150016 0.000000
#
# Coordination Sequence:
#
# PCOD9193714 Si02
#       6
#     8   8   8   8   8   8
#     4  10  21  37  59  87 116 148 186 232 283 331
#     4   9  20  39  60  82 114 153 188 225 279 342
#     4  10  20  34  54  79 107 141 185 234 276 318
#     4   9  19  36  55  76 106 147 188 225 272 330
#     4  10  22  40  62  86 113 149 188 226 276 341
#     4  10  21  34  50  75 107 146 187 225 272 327
#
# _framework density 20.023861
#
# number of rings (size 3 to 8) (size 9 to 14) (size 15 to 20)
#    0.000    2.333    0.000    1.500    2.333    4.000 
#    0.000    0.000    0.000    0.000    0.000    0.000 
#    0.000    0.000    0.000    0.000    0.000    0.000 
#
# Total GULP energy -133967.057612 kJ/mol
# GULP energy per Si atom -5581.960734 kJ/mol
# Density = 1.997829 g / cm^3
# Si number density = 20.023861 Si / 1000 Ang^3
#
#
#
# Elastic Constant Matrix: (Units=GPa)
#
#
# Indices 1 2 3 4 5 6 
#
# 1 51.2317 24.1263 13.4766 0.0000 -11.0285 0.0000
# 2 24.1263 50.9462 22.3234 0.0000 -19.3351 0.0000
# 3 13.4766 22.3234 44.1965 0.0000 -15.6861 0.0000
# 4 0.0000 0.0000 0.0000 129.7968 0.0000 57.3579
# 5 -11.0285 -19.3351 -15.6861 0.0000 34.5515 0.0000
# 6 0.0000 0.0000 0.0000 57.3579 0.0000 46.1659
#
#
#
# Elastic Compliance Matrix: (Units=1/GPa)
#
#
# Indices 1 2 3 4 5 6 
#
# 1 0.025317 -0.010695 -0.001876 0.000000 0.001244 0.000000
# 2 -0.010695 0.032945 -0.009593 0.000000 0.010667 0.000000
# 3 -0.001876 -0.009593 0.030906 0.000000 0.008064 0.000000
# 4 0.000000 0.000000 0.000000 0.017084 0.000000 -0.021226
# 5 0.001244 0.010667 0.008064 0.000000 0.038970 0.000000
# 6 0.000000 0.000000 0.000000 -0.021226 0.000000 0.048033
#
#
# Mechanical properties :
#
#
# Convention : Reuss Voigt Hill
#
# Bulk Modulus (GPa) = 22.30190 29.58078 25.94134
# Shear Modulus (GPa) = 19.79958 47.86603 33.83281
#
# Velocity S-wave (km/s) = 3.14793 4.89453 4.11496
# Velocity P-wave (km/s) = 4.93705 6.83716 5.96327
#
# Compressibility (1/GPa) = 0.04483922
#
# Stress axis : x y z
#
# Youngs Moduli (GPa) = 39.49905 30.35331 32.35630
#
# Poissons Ratio (x) = 0.32463 0.06071
# Poissons Ratio (y) = 0.42244 0.31041
# Poissons Ratio (z) = 0.07411 0.29119
#
# Static dielectric constant tensor:
#      x y z
#    x 1.733460 0.000000 -0.012260 
#    y 0.000000 1.716850 0.000000 
#    z -0.012260 0.000000 1.714940 
# 
# From -- ./inp_files/221606.got.cif
#   From: 2010.05.17/outbox.cif.g08.bks.cpg/sg12_111_cif.got.tgz:221606.got - 2010.06.03 13:09:07.
