data_PCOD9193602
_publ_section_title
;
Structure prediction by ZEFSAII (Michael W. Deem and Ramdas Pophale) SiO2 
 PCOD9193602
Probable space group: C 2/M
;
_chemical_formula_sum "Si O2"
_cell_formula_units_Z 64
_cell_length_a 9.415709
_cell_length_b 13.431840
_cell_length_c 26.498859
_cell_angle_alpha 90.000000
_cell_angle_beta 63.960493
_cell_angle_gamma 90.000000
_cell_volume 3011.131456
_symmetry_space_group_name_H-M "C 2/M"
_symmetry_group_IT_number 12
_symmetry_cell_setting 'monoclinic'
loop_
_space_group_symop_operation_xyz
x,y,z
-x,y,-z
-x,-y,-z
x,-y,z
1/2+x,1/2+y,z
1/2-x,1/2+y,-z
1/2-x,1/2-y,-z
1/2+x,1/2-y,z
loop_
_atom_site_type_symbol
_atom_site_label
_atom_site_fract_x
_atom_site_fract_y
_atom_site_fract_z
Si Si1 0.303503 0.380481 0.351001
Si Si2 0.627097 0.614348 0.268993
Si Si3 0.414683 0.739830 0.878313
Si Si4 0.544471 0.882594 0.318314
Si Si5 0.090345 0.617292 0.932584
Si Si6 0.315548 0.616932 0.620424
Si Si7 0.665239 0.780330 0.462153
Si Si8 0.754248 0.699558 0.802922
O O1 0.310010 0.500000 0.350719
O O2 0.445292 0.352809 0.290909
O O3 0.143219 0.343428 0.349952
O O4 0.288415 0.344391 0.410186
O O5 0.654095 0.500000 0.250680
O O6 0.634306 0.621638 0.328754
O O7 0.737436 0.687974 0.221208
O O8 0.263579 0.668712 0.913472
O O9 0.486313 0.814723 0.909762
O O10 0.569828 0.675870 0.838402
O O11 0.347506 0.801040 0.841028
O O12 0.366806 0.846831 0.347198
O O13 0.645059 0.861359 0.253039
O O14 0.532856 0.000000 0.325637
O O15 0.104402 0.500000 0.914852
O O16 0.000000 0.619382 0.000000
O O17 0.326369 0.500000 0.604890
O O18 0.381495 0.685750 0.565805
O O19 0.500000 0.834798 0.500000
O O20 0.750000 0.750000 0.500000
#
# Coordination Sequence:
#
# PCOD9193602 Si02
#       8
#     8   8   8   8   8   8   8   8
#     4  10  21  37  54  74 101 136 181 226 272 343
#     4  10  20  35  58  82 110 154 195 227 280 359
#     4  10  23  37  60  98 133 167 210 265 318 368
#     4  10  20  34  54  76 105 147 185 222 277 351
#     4  10  22  44  70  92 126 178 226 270 316 363
#     4  10  21  37  54  74 101 136 182 230 278 348
#     4  12  24  36  54  75  96 127 168 225 293 349
#     4  11  20  34  56  88 129 160 191 247 306 358
#
# _framework density 21.254467000000002
#
# number of rings (size 3 to 8) (size 9 to 14) (size 15 to 20)
#    0.000    1.625    0.000    4.875    0.000    4.000 
#    0.000    1.875    0.000    6.750    0.000    0.000 
#    0.000    0.000    0.000    0.000    0.000    0.000 
#
# Total GULP energy -178586.235611 kJ/mol
# GULP energy per Si atom -5580.819863 kJ/mol
# Density = 2.120609 g / cm^3
# Si number density = 21.254467 Si / 1000 Ang^3
#
#
#
# Elastic Constant Matrix: (Units=GPa)
#
#
# Indices 1 2 3 4 5 6 
#
# 1 108.7786 1.8088 34.0119 0.0000 -10.7518 0.0000
# 2 1.8088 75.2903 10.8833 0.0000 -5.6412 0.0000
# 3 34.0119 10.8833 87.9377 0.0000 -4.6979 0.0000
# 4 0.0000 0.0000 0.0000 25.1674 0.0000 0.2079
# 5 -10.7518 -5.6412 -4.6979 0.0000 36.0598 0.0000
# 6 0.0000 0.0000 0.0000 0.2079 0.0000 16.8624
#
#
#
# Elastic Compliance Matrix: (Units=1/GPa)
#
#
# Indices 1 2 3 4 5 6 
#
# 1 0.010728 0.000537 -0.004069 0.000000 0.002753 0.000000
# 2 0.000537 0.013683 -0.001791 0.000000 0.002067 0.000000
# 3 -0.004069 -0.001791 0.013179 0.000000 0.000224 0.000000
# 4 0.000000 0.000000 0.000000 0.039738 0.000000 -0.000490
# 5 0.002753 0.002067 0.000224 0.000000 0.028905 0.000000
# 6 0.000000 0.000000 0.000000 -0.000490 0.000000 0.059310
#
#
# Mechanical properties :
#
#
# Convention : Reuss Voigt Hill
#
# Bulk Modulus (GPa) = 37.11306 40.60163 38.85735
# Shear Modulus (GPa) = 27.00228 30.63808 28.82018
#
# Velocity S-wave (km/s) = 3.56817 3.80081 3.68633
# Velocity P-wave (km/s) = 5.87154 6.19723 6.03658
#
# Compressibility (1/GPa) = 0.02694470
#
# Stress axis : x y z
#
# Youngs Moduli (GPa) = 93.21114 73.08475 75.87867
#
# Poissons Ratio (x) = -0.03922 0.30873
# Poissons Ratio (y) = -0.05002 0.13586
# Poissons Ratio (z) = 0.37926 0.13086
#
# Static dielectric constant tensor:
#      x y z
#    x 1.850830 0.000000 0.009990 
#    y 0.000000 1.816370 0.000000 
#    z 0.009990 0.000000 1.725540 
# 
# From -- ./inp_files/356146.got.cif
#   From: 2010.05.17/outbox.cif.g08.bks.cpg/sg12_179_cif.got.tgz:356146.got - 2010.06.03 13:09:07.
