data_PCOD9193319
_publ_section_title
;
Structure prediction by ZEFSAII (Michael W. Deem and Ramdas Pophale) SiO2 
 PCOD9193319
Probable space group: C 2/M
;
_chemical_formula_sum "Si O2"
_cell_formula_units_Z 48
_cell_length_a 27.972788
_cell_length_b 7.696646
_cell_length_c 10.707563
_cell_angle_alpha 90.000000
_cell_angle_beta 79.322215
_cell_angle_gamma 90.000000
_cell_volume 2265.385431
_symmetry_space_group_name_H-M "C 2/M"
_symmetry_group_IT_number 12
_symmetry_cell_setting 'monoclinic'
loop_
_space_group_symop_operation_xyz
x,y,z
-x,y,-z
-x,-y,-z
x,-y,z
1/2+x,1/2+y,z
1/2-x,1/2+y,-z
1/2-x,1/2-y,-z
1/2+x,1/2-y,z
loop_
_atom_site_type_symbol
_atom_site_label
_atom_site_fract_x
_atom_site_fract_y
_atom_site_fract_z
Si Si1 0.306888 0.291067 0.479365
Si Si2 0.527627 0.792535 0.862889
Si Si3 0.806790 0.208949 0.979666
Si Si4 0.358750 0.292261 0.204081
Si Si5 0.860632 0.786656 0.703738
Si Si6 0.528305 0.707789 0.364686
O O1 0.311798 0.500000 0.477890
O O2 0.250000 0.250000 0.500000
O O3 0.335267 0.223867 0.343571
O O4 0.331195 0.228494 0.595863
O O5 0.583802 0.738058 0.832036
O O6 0.500564 0.739446 0.749071
O O7 0.526519 0.000000 0.869235
O O8 0.500000 0.724216 0.000000
O O9 0.834619 0.272338 0.842982
O O10 0.811769 0.000000 0.978198
O O11 0.750000 0.250000 0.000000
O O12 0.831335 0.276717 0.094711
O O13 0.351297 0.500000 0.209145
O O14 0.916444 0.727518 0.670856
O O15 0.860442 0.000000 0.704710
O O16 0.500000 0.776880 0.500000
O O17 0.531870 0.500000 0.378885
#
# Coordination Sequence:
#
# PCOD9193319 Si02
#       6
#     8   8   8   8   8   8
#     4  10  20  35  55  80 109 140 178 222 269 324
#     4  11  24  39  56  83 117 150 186 233 289 342
#     4  10  20  34  53  77 105 138 177 220 267 319
#     4  10  21  37  57  80 107 144 189 230 270 329
#     4   9  18  33  53  77 105 137 173 215 264 319
#     4  10  20  37  62  86 109 144 188 231 278 335
#
# _framework density 21.188447
#
# number of rings (size 3 to 8) (size 9 to 14) (size 15 to 20)
#    0.000    2.000    0.000    3.500    0.000    7.000 
#    0.000    1.667    0.000    0.000    0.000    0.000 
#    0.000    0.000    0.000    0.000    0.000    0.000 
#
# Total GULP energy -134163.356014 kJ/mol
# GULP energy per Si atom -5590.139834 kJ/mol
# Density = 2.114022 g / cm^3
# Si number density = 21.188447 Si / 1000 Ang^3
#
#
#
# Elastic Constant Matrix: (Units=GPa)
#
#
# Indices 1 2 3 4 5 6 
#
# 1 154.5980 -15.3992 72.7079 0.0000 -2.2091 0.0000
# 2 -15.3992 31.6113 2.9016 0.0000 -2.6066 0.0000
# 3 72.7079 2.9016 197.7866 0.0000 2.2974 0.0000
# 4 0.0000 0.0000 0.0000 5.5852 0.0000 0.1998
# 5 -2.2091 -2.6066 2.2974 0.0000 52.9470 0.0000
# 6 0.0000 0.0000 0.0000 0.1998 0.0000 34.1064
#
#
#
# Elastic Compliance Matrix: (Units=1/GPa)
#
#
# Indices 1 2 3 4 5 6 
#
# 1 0.008410 0.004446 -0.003165 0.000000 0.000707 0.000000
# 2 0.004446 0.034160 -0.002158 0.000000 0.001961 0.000000
# 3 -0.003165 -0.002158 0.006257 0.000000 -0.000510 0.000000
# 4 0.000000 0.000000 0.000000 0.179082 0.000000 -0.001049
# 5 0.000707 0.001961 -0.000510 0.000000 0.019035 0.000000
# 6 0.000000 0.000000 0.000000 -0.001049 0.000000 0.029326
#
#
# Mechanical properties :
#
#
# Convention : Reuss Voigt Hill
#
# Bulk Modulus (GPa) = 21.24430 56.04628 38.64529
# Shear Modulus (GPa) = 17.02332 40.11344 28.56838
#
# Velocity S-wave (km/s) = 2.83755 4.35578 3.67590
# Velocity P-wave (km/s) = 4.55892 7.19763 6.02452
#
# Compressibility (1/GPa) = 0.04707145
#
# Stress axis : x y z
#
# Youngs Moduli (GPa) = 118.90911 29.27429 159.82128
#
# Poissons Ratio (x) = -0.13014 0.50582
# Poissons Ratio (y) = -0.52862 0.34492
# Poissons Ratio (z) = 0.37634 0.06318
#
# Static dielectric constant tensor:
#      x y z
#    x 1.708950 0.000000 -0.013020 
#    y 0.000000 1.780800 0.000000 
#    z -0.013020 0.000000 1.755530 
# 
# From -- ./inp_files/108568.got.cif
#   From: 2010.05.17/outbox.cif.g08.bks.cpg/sg12_55_cif.got.tgz:108568.got - 2010.06.03 13:09:07.
