data_PCOD9193810
_publ_section_title
;
Structure prediction by ZEFSAII (Michael W. Deem and Ramdas Pophale) SiO2 
 PCOD9193810
Probable space group: C 2/M
;
_chemical_formula_sum "Si O2"
_cell_formula_units_Z 52
_cell_length_a 24.829214
_cell_length_b 9.639042
_cell_length_c 13.491738
_cell_angle_alpha 90.000000
_cell_angle_beta 50.289796
_cell_angle_gamma 90.000000
_cell_volume 2484.004906
_symmetry_space_group_name_H-M "C 2/M"
_symmetry_group_IT_number 12
_symmetry_cell_setting 'monoclinic'
loop_
_space_group_symop_operation_xyz
x,y,z
-x,y,-z
-x,-y,-z
x,-y,z
1/2+x,1/2+y,z
1/2-x,1/2+y,-z
1/2-x,1/2-y,-z
1/2+x,1/2-y,z
loop_
_atom_site_type_symbol
_atom_site_label
_atom_site_fract_x
_atom_site_fract_y
_atom_site_fract_z
Si Si1 0.412930 0.841253 0.196590
Si Si2 0.783030 0.000000 0.462165
Si Si3 0.334229 0.338289 0.126091
Si Si4 0.326935 0.160529 0.717212
Si Si5 0.028191 0.839523 0.153053
Si Si6 0.550285 0.334125 0.349366
Si Si7 0.825158 0.288295 0.495713
O O1 0.364390 0.760675 0.175864
O O2 0.483813 0.757586 0.133216
O O3 0.373771 0.838072 0.348535
O O4 0.423389 0.000000 0.154190
O O5 0.814380 0.875630 0.495986
O O6 0.745339 0.877777 0.438233
O O7 0.335897 0.500000 0.158121
O O8 0.255592 0.302685 0.186797
O O9 0.390404 0.329528 0.971301
O O10 0.376402 0.256353 0.724197
O O11 0.350948 0.177458 0.574825
O O12 0.333258 0.000000 0.739380
O O13 0.017849 0.802127 0.279881
O O14 0.005591 0.000000 0.164418
O O15 0.500000 0.296298 0.500000
O O16 0.560906 0.500000 0.339393
#
# Coordination Sequence:
#
# PCOD9193810 Si02
#       7
#     8   4   8   8   8   8   8
#     4  12  24  37  61  94 128 164 206 258 313 367
#     4  10  20  34  54  80 128 166 194 238 308 364
#     4  10  23  41  63  89 124 166 209 252 309 379
#     4  11  23  39  62  93 127 163 204 255 312 364
#     4  10  23  44  64  86 120 167 216 257 304 372
#     4  10  23  43  67  92 120 159 208 258 309 368
#     4  11  22  35  56  91 125 161 200 249 304 369
#
# _framework density 20.933935000000002
#
# number of rings (size 3 to 8) (size 9 to 14) (size 15 to 20)
#    0.000    1.385    1.538    3.692    5.385    4.615 
#    0.000    0.000    0.000    0.000    0.000    0.000 
#    0.000    0.000    0.000    0.000    0.000    0.000 
#
# Total GULP energy -144874.309604 kJ/mol
# GULP energy per Si atom -5572.088831 kJ/mol
# Density = 2.088629 g / cm^3
# Si number density = 20.933935 Si / 1000 Ang^3
#
#
#
# Elastic Constant Matrix: (Units=GPa)
#
#
# Indices 1 2 3 4 5 6 
#
# 1 104.1821 69.6996 15.8790 0.0000 -11.5658 0.0000
# 2 69.6996 136.6480 22.8762 0.0000 -9.0380 0.0000
# 3 15.8790 22.8762 79.2539 0.0000 -4.1140 0.0000
# 4 0.0000 0.0000 0.0000 10.4038 0.0000 -2.4621
# 5 -11.5658 -9.0380 -4.1140 0.0000 23.8731 0.0000
# 6 0.0000 0.0000 0.0000 -2.4621 0.0000 38.6373
#
#
#
# Elastic Compliance Matrix: (Units=1/GPa)
#
#
# Indices 1 2 3 4 5 6 
#
# 1 0.015061 -0.007274 -0.000688 0.000000 0.004424 0.000000
# 2 -0.007274 0.011360 -0.001797 0.000000 0.000467 0.000000
# 3 -0.000688 -0.001797 0.013341 0.000000 0.001285 0.000000
# 4 0.000000 0.000000 0.000000 0.097591 0.000000 0.006219
# 5 0.004424 0.000467 0.001285 0.000000 0.044430 0.000000
# 6 0.000000 0.000000 0.000000 0.006219 0.000000 0.026278
#
#
# Mechanical properties :
#
#
# Convention : Reuss Voigt Hill
#
# Bulk Modulus (GPa) = 49.40080 59.66598 54.53339
# Shear Modulus (GPa) = 21.33753 28.69145 25.01449
#
# Velocity S-wave (km/s) = 3.19608 3.70614 3.46052
# Velocity P-wave (km/s) = 6.10488 6.84674 6.48643
#
# Compressibility (1/GPa) = 0.02024259
#
# Stress axis : x y z
#
# Youngs Moduli (GPa) = 66.39503 88.02575 74.95637
#
# Poissons Ratio (x) = 0.64034 0.05159
# Poissons Ratio (y) = 0.48299 0.13472
# Poissons Ratio (z) = 0.04570 0.15822
#
# Static dielectric constant tensor:
#      x y z
#    x 1.731790 0.000000 -0.027000 
#    y 0.000000 1.722620 0.000000 
#    z -0.027000 0.000000 1.853050 
# 
# From -- ./inp_files/237259.got.cif
#   From: 2010.05.17/outbox.cif.g08.bks.cpg/sg12_119_cif.got.tgz:237259.got - 2010.06.03 13:09:07.
