data_PCOD9193072
_publ_section_title
;
Structure prediction by ZEFSAII (Michael W. Deem and Ramdas Pophale) SiO2 
 PCOD9193072
Probable space group: C 2/M
;
_chemical_formula_sum "Si O2"
_cell_formula_units_Z 40
_cell_length_a 24.786890
_cell_length_b 8.631500
_cell_length_c 21.268589
_cell_angle_alpha 90.000000
_cell_angle_beta 31.262737
_cell_angle_gamma 90.000000
_cell_volume 2361.476538
_symmetry_space_group_name_H-M "C 2/M"
_symmetry_group_IT_number 12
_symmetry_cell_setting 'monoclinic'
loop_
_space_group_symop_operation_xyz
x,y,z
-x,y,-z
-x,-y,-z
x,-y,z
1/2+x,1/2+y,z
1/2-x,1/2+y,-z
1/2-x,1/2-y,-z
1/2+x,1/2-y,z
loop_
_atom_site_type_symbol
_atom_site_label
_atom_site_fract_x
_atom_site_fract_y
_atom_site_fract_z
Si Si1 0.759062 0.314489 0.421054
Si Si2 0.923822 0.184899 0.161097
Si Si3 0.138521 0.315122 0.308043
Si Si4 0.076958 0.185427 0.505770
Si Si5 0.139525 0.685075 0.911731
O O1 0.771321 0.500000 0.409655
O O2 0.750000 0.250000 0.500000
O O3 0.854888 0.239830 0.287954
O O4 0.655280 0.278551 0.484161
O O5 0.877072 0.259770 0.143941
O O6 0.921186 0.000000 0.157292
O O7 0.042436 0.243272 0.045827
O O8 0.139597 0.500000 0.304204
O O9 0.119509 0.261644 0.399183
O O10 0.248871 0.246426 0.177679
O O11 0.039512 0.248234 0.369485
O O12 0.074313 0.000000 0.499330
O O13 0.135532 0.500000 0.917672
#
# Coordination Sequence:
#
# PCOD9193072 Si02
#       5
#     8   8   8   8   8
#     4  11  23  38  57  79 109 147 185 224 266 317
#     4  11  21  34  53  79 109 140 181 224 270 322
#     4  11  20  31  52  80 110 141 176 222 273 321
#     4  10  20  34  52  76 108 143 180 220 270 323
#     4  11  20  33  53  78 111 144 176 219 274 327
#
# _framework density 16.938555000000001
#
# number of rings (size 3 to 8) (size 9 to 14) (size 15 to 20)
#    0.000    1.200    2.000    9.000    0.000    2.400 
#    0.000    0.000    0.000    1.200    0.000    0.000 
#    0.000    0.000    0.000    0.000    0.000    0.000 
#
# Total GULP energy -111757.901456 kJ/mol
# GULP energy per Si atom -5587.895073 kJ/mol
# Density = 1.690000 g / cm^3
# Si number density = 16.938555 Si / 1000 Ang^3
#
#
#
# Elastic Constant Matrix: (Units=GPa)
#
#
# Indices 1 2 3 4 5 6 
#
# 1 74.5348 38.7125 60.1762 -0.0013 -5.6764 0.0006
# 2 38.7125 122.3420 45.9332 -0.0046 -5.3008 0.0028
# 3 60.1762 45.9332 140.8424 -0.0041 -18.5014 0.0031
# 4 -0.0013 -0.0046 -0.0041 32.0126 0.0022 -1.1756
# 5 -5.6764 -5.3008 -18.5014 0.0022 29.7403 -0.0011
# 6 0.0006 0.0028 0.0031 -1.1756 -0.0011 16.8259
#
#
#
# Elastic Compliance Matrix: (Units=1/GPa)
#
#
# Indices 1 2 3 4 5 6 
#
# 1 0.022090 -0.003916 -0.008384 -0.000001 -0.001697 0.000001
# 2 -0.003916 0.010010 -0.001585 0.000001 0.000051 -0.000001
# 3 -0.008384 -0.001585 0.011927 0.000001 0.005537 -0.000001
# 4 -0.000001 0.000001 0.000001 0.031318 -0.000002 0.002188
# 5 -0.001697 0.000051 0.005537 -0.000002 0.036754 0.000001
# 6 0.000001 -0.000001 -0.000001 0.002188 0.000001 0.059585
#
#
# Mechanical properties :
#
#
# Convention : Reuss Voigt Hill
#
# Bulk Modulus (GPa) = 61.51110 69.70702 65.60906
# Shear Modulus (GPa) = 24.40550 28.57560 26.49055
#
# Velocity S-wave (km/s) = 3.79994 4.11179 3.95893
# Velocity P-wave (km/s) = 7.45961 7.98653 7.72756
#
# Compressibility (1/GPa) = 0.01625723
#
# Stress axis : x y z
#
# Youngs Moduli (GPa) = 45.26941 99.89910 83.84663
#
# Poissons Ratio (x) = 0.39117 0.70298
# Poissons Ratio (y) = 0.17726 0.13289
# Poissons Ratio (z) = 0.37954 0.15833
#
# Static dielectric constant tensor:
#      x y z
#    x 1.552650 0.000000 -0.030680 
#    y 0.000000 1.562640 0.000000 
#    z -0.030680 0.000000 1.579050 
# 
# From -- ./inp_files/162720.got.cif
#   From: 2010.05.17/outbox.cif.g08.bks.cpg/sg12_82_cif.got.tgz:162720.got - 2010.06.03 13:09:07.
