data_PCOD9193136
_publ_section_title
;
Structure prediction by ZEFSAII (Michael W. Deem and Ramdas Pophale) SiO2 
 PCOD9193136
Probable space group: C 2/M
;
_chemical_formula_sum "Si O2"
_cell_formula_units_Z 56
_cell_length_a 28.997483
_cell_length_b 7.477003
_cell_length_c 21.324602
_cell_angle_alpha 90.000000
_cell_angle_beta 146.557893
_cell_angle_gamma 90.000000
_cell_volume 2547.971545
_symmetry_space_group_name_H-M "C 2/M"
_symmetry_group_IT_number 12
_symmetry_cell_setting 'monoclinic'
loop_
_space_group_symop_operation_xyz
x,y,z
-x,y,-z
-x,-y,-z
x,-y,z
1/2+x,1/2+y,z
1/2-x,1/2+y,-z
1/2-x,1/2-y,-z
1/2+x,1/2-y,z
loop_
_atom_site_type_symbol
_atom_site_label
_atom_site_fract_x
_atom_site_fract_y
_atom_site_fract_z
Si Si1 0.359440 0.708177 0.060441
Si Si2 0.967417 0.211865 0.788715
Si Si3 0.771069 0.280829 0.334773
Si Si4 0.822010 0.288770 0.531066
Si Si5 0.583104 0.718400 0.131939
Si Si6 0.171363 0.282850 0.835483
Si Si7 0.595010 0.218403 0.617551
O O1 0.354746 0.500000 0.036626
O O2 0.440344 0.787658 0.118849
O O3 0.370426 0.719416 0.147758
O O4 0.267407 0.783283 0.943108
O O5 0.908243 0.232540 0.661445
O O6 0.925954 0.277887 0.805905
O O7 0.976850 0.000000 0.808842
O O8 0.770851 0.500000 0.334661
O O9 0.798630 0.218706 0.435633
O O10 0.674985 0.225895 0.212365
O O11 0.838721 0.223881 0.360000
O O12 0.826687 0.500000 0.528956
O O13 0.750000 0.250000 0.500000
O O14 0.583439 0.500000 0.130329
O O15 0.500000 0.775432 0.000000
O O16 0.172277 0.500000 0.839343
O O17 0.125466 0.227236 0.720705
O O18 0.500000 0.277290 0.500000
O O19 0.595053 0.000000 0.616059
#
# Coordination Sequence:
#
# PCOD9193136 Si02
#       7
#     8   8   8   8   8   8   8
#     4   9  19  33  51  75 105 137 169 213 260 311
#     4  10  20  34  52  79 107 134 174 218 264 310
#     4   9  18  31  48  74 102 131 169 213 259 302
#     4  11  21  35  55  78 107 138 172 212 258 312
#     4   9  17  29  49  75 102 131 169 216 260 306
#     4   9  18  33  53  76 102 134 175 216 261 309
#     4   9  18  30  47  73 103 131 167 218 263 301
#
# _framework density 21.978266999999999
#
# number of rings (size 3 to 8) (size 9 to 14) (size 15 to 20)
#    0.000    2.571    1.429    0.429    4.000    0.571 
#    0.000    0.000    0.000    2.571    0.000    0.000 
#    0.000    0.000    0.000    0.000    0.000    0.000 
#
# Total GULP energy -156328.637940 kJ/mol
# GULP energy per Si atom -5583.165641 kJ/mol
# Density = 2.192824 g / cm^3
# Si number density = 21.978267 Si / 1000 Ang^3
#
#
#
# Elastic Constant Matrix: (Units=GPa)
#
#
# Indices 1 2 3 4 5 6 
#
# 1 75.5091 -3.1432 71.9133 0.0000 26.4112 0.0000
# 2 -3.1432 59.7690 -4.8295 0.0000 4.3629 0.0000
# 3 71.9133 -4.8295 140.6037 0.0000 4.7446 0.0000
# 4 0.0000 0.0000 0.0000 10.8302 0.0000 -6.0161
# 5 26.4112 4.3629 4.7446 0.0000 41.2556 0.0000
# 6 0.0000 0.0000 0.0000 -6.0161 0.0000 10.3262
#
#
#
# Elastic Compliance Matrix: (Units=1/GPa)
#
#
# Indices 1 2 3 4 5 6 
#
# 1 0.040743 0.002285 -0.019949 0.000000 -0.024030 0.000000
# 2 0.002285 0.017047 -0.000475 0.000000 -0.003211 0.000000
# 3 -0.019949 -0.000475 0.016932 0.000000 0.010874 0.000000
# 4 0.000000 0.000000 0.000000 0.136514 0.000000 0.079533
# 5 -0.024030 -0.003211 0.010874 0.000000 0.038712 0.000000
# 6 0.000000 0.000000 0.000000 0.079533 0.000000 0.143176
#
#
# Mechanical properties :
#
#
# Convention : Reuss Voigt Hill
#
# Bulk Modulus (GPa) = 26.01158 44.86255 35.43707
# Shear Modulus (GPa) = 11.30669 26.61181 18.95925
#
# Velocity S-wave (km/s) = 2.27061 3.48346 2.94025
# Velocity P-wave (km/s) = 4.32840 6.05276 5.26170
#
# Compressibility (1/GPa) = 0.03844441
#
# Stress axis : x y z
#
# Youngs Moduli (GPa) = 24.54430 58.66038 59.05972
#
# Poissons Ratio (x) = -0.13403 1.17818
# Poissons Ratio (y) = -0.05608 0.02804
# Poissons Ratio (z) = 0.48963 0.02785
#
# Static dielectric constant tensor:
#      x y z
#    x 1.775670 0.000000 0.004740 
#    y 0.000000 1.693190 0.000000 
#    z 0.004740 0.000000 1.783220 
# 
# From -- ./inp_files/327617.got.cif
#   From: 2010.05.17/outbox.cif.g08.bks.cpg/sg12_164_cif.got.tgz:327617.got - 2010.06.03 13:09:07.
