data_PCOD9193107
_publ_section_title
;
Structure prediction by ZEFSAII (Michael W. Deem and Ramdas Pophale) SiO2 
 PCOD9193107
Probable space group: C 2/M
;
_chemical_formula_sum "Si O2"
_cell_formula_units_Z 64
_cell_length_a 8.529554
_cell_length_b 22.051525
_cell_length_c 18.514630
_cell_angle_alpha 90.000000
_cell_angle_beta 52.163542
_cell_angle_gamma 90.000000
_cell_volume 2750.285578
_symmetry_space_group_name_H-M "C 2/M"
_symmetry_group_IT_number 12
_symmetry_cell_setting 'monoclinic'
loop_
_space_group_symop_operation_xyz
x,y,z
-x,y,-z
-x,-y,-z
x,-y,z
1/2+x,1/2+y,z
1/2-x,1/2+y,-z
1/2-x,1/2-y,-z
1/2+x,1/2-y,z
loop_
_atom_site_type_symbol
_atom_site_label
_atom_site_fract_x
_atom_site_fract_y
_atom_site_fract_z
Si Si1 0.753323 0.392452 0.721494
Si Si2 0.926909 0.240403 0.897521
Si Si3 0.157557 0.269898 0.217142
Si Si4 0.164509 0.106946 0.108290
Si Si5 0.269457 0.188203 0.582802
Si Si6 0.888810 0.431235 0.297555
Si Si7 0.125289 0.810473 0.363245
Si Si8 0.952771 0.429226 0.906555
O O1 0.814314 0.329768 0.744649
O O2 0.550787 0.421467 0.811923
O O3 0.715738 0.367652 0.651761
O O4 0.952055 0.429786 0.682027
O O5 0.973563 0.282630 0.815751
O O6 0.891118 0.176732 0.869313
O O7 0.131001 0.239445 0.882007
O O8 0.750000 0.250000 0.000000
O O9 0.116395 0.215096 0.282896
O O10 0.342970 0.090696 0.111829
O O11 0.262654 0.099749 0.000780
O O12 0.500000 0.178446 0.500000
O O13 0.275239 0.255310 0.619657
O O14 0.115123 0.186034 0.559400
O O15 0.801989 0.500000 0.317528
O O16 0.733557 0.374918 0.344057
O O17 0.017196 0.422406 0.187191
O O18 0.929012 0.500000 0.929026
#
# Coordination Sequence:
#
# PCOD9193107 Si02
#       8
#     8   8   8   8   8   8   8   8
#     4  10  22  40  59  90 126 165 211 261 330 383
#     4  11  22  29  44  76 109 154 198 238 305 364
#     4  10  20  34  52  77 115 154 195 253 306 368
#     4  10  21  35  56  80 118 161 213 273 319 363
#     4  11  23  42  73 106 128 159 202 263 332 400
#     4  11  24  40  63  91 129 179 223 264 315 376
#     4  11  21  40  68  96 132 162 208 258 326 390
#     4  10  22  38  58  83 113 166 228 273 304 355
#
# _framework density 23.270312000000001
#
# number of rings (size 3 to 8) (size 9 to 14) (size 15 to 20)
#    0.000    1.500    0.000    7.500    7.000    1.500 
#    0.000    1.875    0.000    4.125    0.000    0.000 
#    0.000    0.000    0.000    0.000    0.000    0.000 
#
# Total GULP energy -178478.595524 kJ/mol
# GULP energy per Si atom -5577.456110 kJ/mol
# Density = 2.321735 g / cm^3
# Si number density = 23.270312 Si / 1000 Ang^3
#
#
#
# Elastic Constant Matrix: (Units=GPa)
#
#
# Indices 1 2 3 4 5 6 
#
# 1 96.0765 29.2200 14.0823 0.0000 -21.7674 0.0000
# 2 29.2200 112.1127 13.6772 0.0000 -12.7105 0.0000
# 3 14.0823 13.6772 60.2171 0.0000 -15.4693 0.0000
# 4 0.0000 0.0000 0.0000 11.4271 0.0000 5.1039
# 5 -21.7674 -12.7105 -15.4693 0.0000 41.3454 0.0000
# 6 0.0000 0.0000 0.0000 5.1039 0.0000 23.8215
#
#
#
# Elastic Compliance Matrix: (Units=1/GPa)
#
#
# Indices 1 2 3 4 5 6 
#
# 1 0.012560 -0.002536 -0.000955 0.000000 0.005476 0.000000
# 2 -0.002536 0.009880 -0.001343 0.000000 0.001200 0.000000
# 3 -0.000955 -0.001343 0.018697 0.000000 0.006080 0.000000
# 4 0.000000 0.000000 0.000000 0.096772 0.000000 -0.020734
# 5 0.005476 0.001200 0.006080 0.000000 0.029713 0.000000
# 6 0.000000 0.000000 0.000000 -0.020734 0.000000 0.046421
#
#
# Mechanical properties :
#
#
# Convention : Reuss Voigt Hill
#
# Bulk Modulus (GPa) = 31.77624 42.48502 37.13063
# Shear Modulus (GPa) = 21.34918 29.41394 25.38156
#
# Velocity S-wave (km/s) = 3.03222 3.55915 3.30620
# Velocity P-wave (km/s) = 5.09353 5.93185 5.52860
#
# Compressibility (1/GPa) = 0.03147005
#
# Stress axis : x y z
#
# Youngs Moduli (GPa) = 79.61602 101.20969 53.48534
#
# Poissons Ratio (x) = 0.25670 0.05106
# Poissons Ratio (y) = 0.20193 0.07182
# Poissons Ratio (z) = 0.07600 0.13591
#
# Static dielectric constant tensor:
#      x y z
#    x 1.963030 0.000000 -0.080580 
#    y 0.000000 1.908200 0.000000 
#    z -0.080580 0.000000 2.050580 
# 
# From -- ./inp_files/302289.got.cif
#   From: 2010.05.17/outbox.cif.g08.bks.cpg/sg12_152_cif.got.tgz:302289.got - 2010.06.03 13:09:07.
