data_PCOD9193647
_publ_section_title
;
Structure prediction by ZEFSAII (Michael W. Deem and Ramdas Pophale) SiO2 
 PCOD9193647
Probable space group: C 2/M
;
_chemical_formula_sum "Si O2"
_cell_formula_units_Z 44
_cell_length_a 25.142842
_cell_length_b 9.731630
_cell_length_c 8.636354
_cell_angle_alpha 90.000000
_cell_angle_beta 91.123726
_cell_angle_gamma 90.000000
_cell_volume 2112.743904
_symmetry_space_group_name_H-M "C 2/M"
_symmetry_group_IT_number 12
_symmetry_cell_setting 'monoclinic'
loop_
_space_group_symop_operation_xyz
x,y,z
-x,y,-z
-x,-y,-z
x,-y,z
1/2+x,1/2+y,z
1/2-x,1/2+y,-z
1/2-x,1/2-y,-z
1/2+x,1/2-y,z
loop_
_atom_site_type_symbol
_atom_site_label
_atom_site_fract_x
_atom_site_fract_y
_atom_site_fract_z
Si Si1 0.000000 0.756239 0.500000
Si Si2 0.294575 0.167802 0.908685
Si Si3 0.053076 0.649424 0.215630
Si Si4 0.334525 0.153330 0.589723
Si Si5 0.101305 0.837068 0.987581
Si Si6 0.609165 0.347699 0.627672
O O1 0.990745 0.668673 0.654336
O O2 0.945841 0.839295 0.471284
O O3 0.293379 0.194237 0.722492
O O4 0.294085 0.000000 0.929173
O O5 0.250000 0.250000 0.000000
O O6 0.348432 0.240685 0.970154
O O7 0.048223 0.500000 0.139090
O O8 0.109052 0.648811 0.313464
O O9 0.055832 0.773008 0.094142
O O10 0.347661 0.247952 0.445606
O O11 0.321612 0.000000 0.536665
O O12 0.093746 0.821307 0.804188
O O13 0.109362 0.000000 0.021148
O O14 0.631616 0.500000 0.620322
#
# Coordination Sequence:
#
# PCOD9193647 Si02
#       6
#     4   8   8   8   8   8
#     4  10  20  34  54  78 104 140 184 228 264 310
#     4  10  20  36  59  85 108 136 174 215 261 318
#     4   9  18  34  53  75 103 138 179 221 266 316
#     4   8  17  33  53  76 104 136 172 214 261 312
#     4  10  21  36  53  78 110 141 174 219 267 314
#     4  10  21  35  53  77 107 142 181 221 265 313
#
# _framework density 20.825997999999998
#
# number of rings (size 3 to 8) (size 9 to 14) (size 15 to 20)
#    0.000    2.545    0.000    2.727    0.000   10.909 
#    0.000    3.636    0.000    0.000    0.000    0.000 
#    0.000    0.000    0.000    0.000    0.000    0.000 
#
# Total GULP energy -122589.140050 kJ/mol
# GULP energy per Si atom -5572.233639 kJ/mol
# Density = 2.077860 g / cm^3
# Si number density = 20.825998 Si / 1000 Ang^3
#
#
#
# Elastic Constant Matrix: (Units=GPa)
#
#
# Indices 1 2 3 4 5 6 
#
# 1 42.9693 22.8600 19.3296 0.0000 -26.6642 0.0000
# 2 22.8600 137.6542 84.0184 0.0000 -29.7032 0.0000
# 3 19.3296 84.0184 101.7003 0.0000 -36.2593 0.0000
# 4 0.0000 0.0000 0.0000 34.4674 0.0000 -8.2193
# 5 -26.6642 -29.7032 -36.2593 0.0000 38.7083 0.0000
# 6 0.0000 0.0000 0.0000 -8.2193 0.0000 0.7991
#
#
#
# Elastic Compliance Matrix: (Units=1/GPa)
#
#
# Indices 1 2 3 4 5 6 
#
# 1 0.042744 -0.004437 0.007245 0.000000 0.032826 0.000000
# 2 -0.004437 0.015115 -0.012909 0.000000 -0.003551 0.000000
# 3 0.007245 -0.012909 0.026077 0.000000 0.019512 0.000000
# 4 0.000000 0.000000 0.000000 -0.019971 0.000000 -0.205411
# 5 0.032826 -0.003551 0.019512 0.000000 0.063999 0.000000
# 6 0.000000 0.000000 0.000000 -0.205411 0.000000 -0.861384
#
#
# Mechanical properties :
#
#
# Convention : Reuss Voigt Hill
#
# Bulk Modulus (GPa) = 15.69062 59.41553 37.55308
# Shear Modulus (GPa) = -7.22571 25.20269 8.98849
#
# Velocity S-wave (km/s) = -1.86470 3.48250 2.07975
# Velocity P-wave (km/s) = 1.70716 6.69043 4.88243
#
# Compressibility (1/GPa) = 0.06373233
#
# Stress axis : x y z
#
# Youngs Moduli (GPa) = 23.39537 66.16138 38.34757
#
# Poissons Ratio (x) = 0.29358 -0.27783
# Poissons Ratio (y) = 0.10381 0.49504
# Poissons Ratio (z) = -0.16950 0.85410
#
# Static dielectric constant tensor:
#      x y z
#    x 1.802340 0.000000 -0.021630 
#    y 0.000000 1.757450 0.000000 
#    z -0.021630 0.000000 1.775330 
# 
# From -- ./inp_files/108157.got.cif
#   From: 2010.05.17/outbox.cif.g08.bks.cpg/sg12_55_cif.got.tgz:108157.got - 2010.06.03 13:09:07.
