data_PCOD9193991
_publ_section_title
;
Structure prediction by ZEFSAII (Michael W. Deem and Ramdas Pophale) SiO2 
 PCOD9193991
Probable space group: C 2/M
;
_chemical_formula_sum "Si O2"
_cell_formula_units_Z 64
_cell_length_a 14.966312
_cell_length_b 8.567481
_cell_length_c 28.261742
_cell_angle_alpha 90.000000
_cell_angle_beta 129.110199
_cell_angle_gamma 90.000000
_cell_volume 2811.847269
_symmetry_space_group_name_H-M "C 2/M"
_symmetry_group_IT_number 12
_symmetry_cell_setting 'monoclinic'
loop_
_space_group_symop_operation_xyz
x,y,z
-x,y,-z
-x,-y,-z
x,-y,z
1/2+x,1/2+y,z
1/2-x,1/2+y,-z
1/2-x,1/2-y,-z
1/2+x,1/2-y,z
loop_
_atom_site_type_symbol
_atom_site_label
_atom_site_fract_x
_atom_site_fract_y
_atom_site_fract_z
Si Si1 0.424765 0.680654 0.540503
Si Si2 0.122660 0.315728 0.662367
Si Si3 0.649501 0.687071 0.136032
Si Si4 0.422343 0.183689 0.090311
Si Si5 0.821997 0.188550 0.959295
Si Si6 0.093153 0.690423 0.758075
Si Si7 0.648227 0.183469 0.292734
Si Si8 0.768831 0.180024 0.582836
O O1 0.422102 0.500000 0.525837
O O2 0.552073 0.732614 0.597426
O O3 0.357945 0.779072 0.478887
O O4 0.350946 0.698252 0.564463
O O5 0.073434 0.266529 0.696799
O O6 0.257131 0.274243 0.705770
O O7 0.607109 0.000000 0.652296
O O8 0.653114 0.500000 0.139675
O O9 0.548115 0.743053 0.136087
O O10 0.622879 0.728697 0.072478
O O11 0.778495 0.746273 0.187933
O O12 0.314672 0.228421 0.087495
O O13 0.436152 0.000000 0.099643
O O14 0.376095 0.228395 0.022522
O O15 0.831544 0.000000 0.969333
O O16 0.094483 0.500000 0.761304
O O17 0.984060 0.740186 0.752709
O O18 0.689626 0.210926 0.360791
O O19 0.652236 0.000000 0.282586
O O20 0.773844 0.000000 0.600592
#
# Coordination Sequence:
#
# PCOD9193991 Si02
#       8
#     8   8   8   8   8   8   8   8
#     4  10  20  35  58  87 116 148 185 228 282 343
#     4  11  22  39  60  84 113 148 188 234 288 339
#     4  10  20  37  59  81 108 150 195 229 274 335
#     4  10  20  34  54  85 119 148 182 232 283 326
#     4   9  19  35  56  81 114 153 188 224 273 337
#     4   9  21  40  60  80 110 149 190 235 281 333
#     4  11  22  39  61  85 112 149 192 234 283 340
#     4  10  20  35  58  87 117 148 183 230 286 340
#
# _framework density 22.760836999999999
#
# number of rings (size 3 to 8) (size 9 to 14) (size 15 to 20)
#    0.000    2.000    1.250    2.250    0.000    5.000 
#    0.000    6.250    0.000    0.000    0.000    0.000 
#    0.000    0.000    0.000    0.000    0.000    0.000 
#
# Total GULP energy -178886.958037 kJ/mol
# GULP energy per Si atom -5590.217439 kJ/mol
# Density = 2.270903 g / cm^3
# Si number density = 22.760837 Si / 1000 Ang^3
#
#
#
# Elastic Constant Matrix: (Units=GPa)
#
#
# Indices 1 2 3 4 5 6 
#
# 1 113.2311 3.7236 10.6492 0.0000 23.0940 0.0000
# 2 3.7236 7.9264 -3.0316 0.0000 0.0063 0.0000
# 3 10.6492 -3.0316 51.8598 0.0000 27.6242 0.0000
# 4 0.0000 0.0000 0.0000 17.1682 0.0000 12.1119
# 5 23.0940 0.0063 27.6242 0.0000 40.5334 0.0000
# 6 0.0000 0.0000 0.0000 12.1119 0.0000 26.3207
#
#
#
# Elastic Compliance Matrix: (Units=1/GPa)
#
#
# Indices 1 2 3 4 5 6 
#
# 1 0.010214 -0.004344 0.001175 0.000000 -0.006619 0.000000
# 2 -0.004344 0.132611 0.011518 0.000000 -0.005396 0.000000
# 3 0.001175 0.011518 0.031512 0.000000 -0.022147 0.000000
# 4 0.000000 0.000000 0.000000 0.086246 0.000000 -0.039687
# 5 -0.006619 -0.005396 -0.022147 0.000000 0.043537 0.000000
# 6 0.000000 0.000000 0.000000 -0.039687 0.000000 0.056256
#
#
# Mechanical properties :
#
#
# Convention : Reuss Voigt Hill
#
# Bulk Modulus (GPa) = 5.23466 21.74440 13.48953
# Shear Modulus (GPa) = 12.27432 27.58288 19.92860
#
# Velocity S-wave (km/s) = 2.32475 3.48495 2.96221
# Velocity P-wave (km/s) = 3.08395 5.07615 4.19989
#
# Compressibility (1/GPa) = 0.19103439
#
# Stress axis : x y z
#
# Youngs Moduli (GPa) = 97.90591 7.54088 31.73403
#
# Poissons Ratio (x) = 0.03275 -0.03727
# Poissons Ratio (y) = 0.42527 -0.36551
# Poissons Ratio (z) = -0.11500 -0.08686
#
# Static dielectric constant tensor:
#      x y z
#    x 1.877940 0.000000 0.019130 
#    y 0.000000 1.762380 0.000000 
#    z 0.019130 0.000000 1.865080 
# 
# From -- ./inp_files/359727.got.cif
#   From: 2010.05.17/outbox.cif.g08.bks.cpg/sg12_180_cif.got.tgz:359727.got - 2010.06.03 13:09:07.
