data_PCOD9193894
_publ_section_title
;
Structure prediction by ZEFSAII (Michael W. Deem and Ramdas Pophale) SiO2 
 PCOD9193894
Probable space group: C 2/M
;
_chemical_formula_sum "Si O2"
_cell_formula_units_Z 40
_cell_length_a 17.346870
_cell_length_b 14.717050
_cell_length_c 12.391214
_cell_angle_alpha 90.000000
_cell_angle_beta 146.770099
_cell_angle_gamma 90.000000
_cell_volume 1733.549200
_symmetry_space_group_name_H-M "C 2/M"
_symmetry_group_IT_number 12
_symmetry_cell_setting 'monoclinic'
loop_
_space_group_symop_operation_xyz
x,y,z
-x,y,-z
-x,-y,-z
x,-y,z
1/2+x,1/2+y,z
1/2-x,1/2+y,-z
1/2-x,1/2-y,-z
1/2+x,1/2-y,z
loop_
_atom_site_type_symbol
_atom_site_label
_atom_site_fract_x
_atom_site_fract_y
_atom_site_fract_z
Si Si1 0.246790 0.756279 0.776899
Si Si2 0.603197 0.898870 0.723053
Si Si3 0.479095 0.897922 0.129695
Si Si4 0.791059 0.164118 0.472358
Si Si5 0.138386 0.904829 0.232676
O O1 0.189355 0.694479 0.806519
O O2 0.152492 0.815468 0.581796
O O3 0.289766 0.678282 0.742445
O O4 0.375555 0.819618 0.965038
O O5 0.500000 0.899332 0.500000
O O6 0.524488 0.891801 0.744651
O O7 0.675212 0.000000 0.808410
O O8 0.639513 0.884196 0.280871
O O9 0.431553 0.000000 0.044507
O O10 0.750000 0.250000 0.500000
O O11 0.887714 0.110889 0.670877
O O12 0.220250 0.000000 0.319729
O O13 0.000000 0.912521 0.000000
#
# Coordination Sequence:
#
# PCOD9193894 Si02
#       5
#     8   8   8   8   8
#     4  11  21  36  58  86 118 153 196 243 292 348
#     4  10  21  38  61  87 117 156 199 244 296 353
#     4  11  23  38  58  86 121 160 199 241 293 353
#     4  10  20  35  56  83 117 152 190 240 293 346
#     4  10  20  34  54  82 115 150 190 240 297 351
#
# _framework density 23.074048000000001
#
# number of rings (size 3 to 8) (size 9 to 14) (size 15 to 20)
#    0.000    1.600    0.000    7.200    0.000    4.000 
#    0.000    0.000    0.000    0.600    0.000    0.000 
#    0.000    0.000    0.000    0.000    0.000    0.000 
#
# Total GULP energy -111430.812730 kJ/mol
# GULP energy per Si atom -5571.540636 kJ/mol
# Density = 2.302153 g / cm^3
# Si number density = 23.074048 Si / 1000 Ang^3
#
#
#
# Elastic Constant Matrix: (Units=GPa)
#
#
# Indices 1 2 3 4 5 6 
#
# 1 79.4092 23.2668 16.6375 0.0000 -27.9145 0.0000
# 2 23.2668 130.6090 42.4619 0.0000 -3.0291 0.0000
# 3 16.6375 42.4619 97.2666 0.0000 -22.0422 0.0000
# 4 0.0000 0.0000 0.0000 -147.0736 0.0000 124.6548
# 5 -27.9145 -3.0291 -22.0422 0.0000 30.5857 0.0000
# 6 0.0000 0.0000 0.0000 124.6548 0.0000 -52.6789
#
#
#
# Elastic Compliance Matrix: (Units=1/GPa)
#
#
# Indices 1 2 3 4 5 6 
#
# 1 0.020280 -0.004084 0.002888 0.000000 0.020186 0.000000
# 2 -0.004084 0.009882 -0.005066 0.000000 -0.006399 0.000000
# 3 0.002888 -0.005066 0.014919 0.000000 0.012886 0.000000
# 4 0.000000 0.000000 0.000000 0.006761 0.000000 0.016000
# 5 0.020186 -0.006399 0.012886 0.000000 0.059771 0.000000
# 6 0.000000 0.000000 0.000000 0.016000 0.000000 0.018877
#
#
# Mechanical properties :
#
#
# Convention : Reuss Voigt Hill
#
# Bulk Modulus (GPa) = 30.71342 52.44637 41.57989
# Shear Modulus (GPa) = 32.49583 -18.83880 6.82852
#
# Velocity S-wave (km/s) = 3.75684 -2.86046 1.72215
# Velocity P-wave (km/s) = 5.67082 3.44519 4.69188
#
# Compressibility (1/GPa) = 0.03255906
#
# Stress axis : x y z
#
# Youngs Moduli (GPa) = 49.30883 101.18985 67.03055
#
# Poissons Ratio (x) = 0.41322 -0.19360
# Poissons Ratio (y) = 0.20136 0.33956
# Poissons Ratio (z) = -0.14242 0.51261
#
# Static dielectric constant tensor:
#      x y z
#    x 1.918070 0.000000 -0.027400 
#    y 0.000000 2.097840 0.000000 
#    z -0.027400 0.000000 1.947340 
# 
# From -- ./inp_files/142517.got.cif
#   From: 2010.05.17/outbox.cif.g08.bks.cpg/sg12_72_cif.got.tgz:142517.got - 2010.06.03 13:09:07.
