data_PCOD9193381
_publ_section_title
;
Structure prediction by ZEFSAII (Michael W. Deem and Ramdas Pophale) SiO2 
 PCOD9193381
Probable space group: C 2/M
;
_chemical_formula_sum "Si O2"
_cell_formula_units_Z 64
_cell_length_a 29.187939
_cell_length_b 8.683438
_cell_length_c 14.299597
_cell_angle_alpha 90.000000
_cell_angle_beta 106.202823
_cell_angle_gamma 90.000000
_cell_volume 3480.300883
_symmetry_space_group_name_H-M "C 2/M"
_symmetry_group_IT_number 12
_symmetry_cell_setting 'monoclinic'
loop_
_space_group_symop_operation_xyz
x,y,z
-x,y,-z
-x,-y,-z
x,-y,z
1/2+x,1/2+y,z
1/2-x,1/2+y,-z
1/2-x,1/2-y,-z
1/2+x,1/2-y,z
loop_
_atom_site_type_symbol
_atom_site_label
_atom_site_fract_x
_atom_site_fract_y
_atom_site_fract_z
Si Si1 0.555905 0.686153 0.836905
Si Si2 0.816969 0.185763 0.417425
Si Si3 0.260831 0.685065 0.108036
Si Si4 0.645194 0.817387 0.366695
Si Si5 0.279150 0.315974 0.728854
Si Si6 0.055058 0.817221 0.232034
Si Si7 0.862501 0.813675 0.253603
Si Si8 0.557884 0.824446 0.036285
O O1 0.557461 0.500000 0.844179
O O2 0.500546 0.728410 0.789245
O O3 0.590671 0.739936 0.774041
O O4 0.572870 0.753293 0.945967
O O5 0.833242 0.249292 0.525845
O O6 0.766095 0.251890 0.355663
O O7 0.853876 0.232303 0.355945
O O8 0.813753 0.000000 0.418497
O O9 0.257603 0.500000 0.106636
O O10 0.226859 0.752166 0.169618
O O11 0.314611 0.729267 0.170026
O O12 0.250000 0.750000 0.000000
O O13 0.674352 0.744973 0.297141
O O14 0.590373 0.769159 0.321715
O O15 0.650571 0.000000 0.369002
O O16 0.278304 0.500000 0.729047
O O17 0.069976 0.773566 0.134556
O O18 0.058941 0.000000 0.247653
O O19 0.864331 0.000000 0.254807
O O20 0.574715 0.000000 0.056439
O O21 0.500000 0.826354 0.000000
#
# Coordination Sequence:
#
# PCOD9193381 Si02
#       8
#     8   8   8   8   8   8   8   8
#     4   9  17  33  56  79 104 140 185 225 264 315
#     4  10  20  38  60  82 108 138 177 222 270 325
#     4  10  20  36  56  82 117 152 186 225 269 317
#     4  12  24  38  56  79 108 141 178 223 276 328
#     4  11  22  38  59  83 110 142 181 222 270 327
#     4  10  20  34  53  78 107 139 179 227 273 318
#     4   8  17  34  57  80 104 139 181 222 262 314
#     4   9  17  30  48  72 104 140 175 215 264 314
#
# _framework density 18.389213999999999
#
# number of rings (size 3 to 8) (size 9 to 14) (size 15 to 20)
#    0.000    2.125    0.000    4.875    0.000    3.000 
#    0.000    8.125    0.000    3.750    0.000    0.000 
#    0.000    0.000    0.000    0.000    0.000    0.000 
#
# Total GULP energy -178643.141659 kJ/mol
# GULP energy per Si atom -5582.598177 kJ/mol
# Density = 1.834736 g / cm^3
# Si number density = 18.389214 Si / 1000 Ang^3
#
#
#
# Elastic Constant Matrix: (Units=GPa)
#
#
# Indices 1 2 3 4 5 6 
#
# 1 85.9315 30.4247 45.6649 0.0000 -24.0088 0.0000
# 2 30.4247 94.8959 42.7317 0.0000 -4.0099 0.0000
# 3 45.6649 42.7317 109.5311 0.0000 -8.5783 0.0000
# 4 0.0000 0.0000 0.0000 31.4648 0.0000 2.0673
# 5 -24.0088 -4.0099 -8.5783 0.0000 20.3984 0.0000
# 6 0.0000 0.0000 0.0000 2.0673 0.0000 19.9870
#
#
#
# Elastic Compliance Matrix: (Units=1/GPa)
#
#
# Indices 1 2 3 4 5 6 
#
# 1 0.022773 -0.003472 -0.006302 0.000000 0.023471 0.000000
# 2 -0.003472 0.013317 -0.003994 0.000000 -0.003148 0.000000
# 3 -0.006302 -0.003994 0.013105 0.000000 -0.002691 0.000000
# 4 0.000000 0.000000 0.000000 0.031999 0.000000 -0.003310
# 5 0.023471 -0.003148 -0.002691 0.000000 0.074898 0.000000
# 6 0.000000 0.000000 0.000000 -0.003310 0.000000 0.050375
#
#
# Mechanical properties :
#
#
# Convention : Reuss Voigt Hill
#
# Bulk Modulus (GPa) = 46.17143 58.66679 52.41911
# Shear Modulus (GPa) = 20.72790 25.80584 23.26687
#
# Velocity S-wave (km/s) = 3.36099 3.75015 3.56089
# Velocity P-wave (km/s) = 6.34224 7.12205 6.74343
#
# Compressibility (1/GPa) = 0.02165841
#
# Stress axis : x y z
#
# Youngs Moduli (GPa) = 43.91209 75.09419 76.30901
#
# Poissons Ratio (x) = 0.26071 0.48087
# Poissons Ratio (y) = 0.15245 0.30481
# Poissons Ratio (z) = 0.27672 0.29995
#
# Static dielectric constant tensor:
#      x y z
#    x 1.646470 0.000000 -0.003820 
#    y 0.000000 1.618310 0.000000 
#    z -0.003820 0.000000 1.611070 
# 
# From -- ./inp_files/244019.got.cif
#   From: 2010.05.17/outbox.cif.g08.bks.cpg/sg12_123_cif.got.tgz:244019.got - 2010.06.03 13:09:07.
