data_PCOD9193702
_publ_section_title
;
Structure prediction by ZEFSAII (Michael W. Deem and Ramdas Pophale) SiO2 
 PCOD9193702
Probable space group: C 2/M
;
_chemical_formula_sum "Si O2"
_cell_formula_units_Z 40
_cell_length_a 31.472424
_cell_length_b 7.445885
_cell_length_c 6.855276
_cell_angle_alpha 90.000000
_cell_angle_beta 93.356371
_cell_angle_gamma 90.000000
_cell_volume 1603.710146
_symmetry_space_group_name_H-M "C 2/M"
_symmetry_group_IT_number 12
_symmetry_cell_setting 'monoclinic'
loop_
_space_group_symop_operation_xyz
x,y,z
-x,y,-z
-x,-y,-z
x,-y,z
1/2+x,1/2+y,z
1/2-x,1/2+y,-z
1/2-x,1/2-y,-z
1/2+x,1/2-y,z
loop_
_atom_site_type_symbol
_atom_site_label
_atom_site_fract_x
_atom_site_fract_y
_atom_site_fract_z
Si Si1 0.046476 0.290148 0.054097
Si Si2 0.605711 0.284399 0.391218
Si Si3 0.215715 0.716022 0.765906
Si Si4 0.625898 0.209766 0.842460
Si Si5 0.695099 0.286573 0.302567
O O1 0.044470 0.500000 0.996095
O O2 0.062186 0.276864 0.280456
O O3 0.086298 0.207777 0.947566
O O4 0.000000 0.213271 0.000000
O O5 0.606736 0.500000 0.393705
O O6 0.612703 0.220349 0.611889
O O7 0.646729 0.218653 0.275599
O O8 0.216421 0.500000 0.785034
O O9 0.174001 0.787207 0.867606
O O10 0.264026 0.787026 0.804437
O O11 0.205578 0.755410 0.534882
O O12 0.629419 0.000000 0.893754
O O13 0.694413 0.500000 0.272151
#
# Coordination Sequence:
#
# PCOD9193702 Si02
#       5
#     8   8   8   8   8
#     4  10  22  39  56  74  99 133 174 218 259 301
#     4  10  20  34  54  79 107 136 165 205 257 309
#     4   8  13  24  45  71  98 129 165 201 237 286
#     4   9  18  34  56  78 101 134 174 212 249 295
#     4   8  14  25  43  70 102 132 160 194 242 296
#
# _framework density 24.942163000000001
#
# number of rings (size 3 to 8) (size 9 to 14) (size 15 to 20)
#    0.000    3.000    0.000    0.600    0.000    2.800 
#    0.000    5.000    0.000    0.000    0.000    0.000 
#    0.000    0.000    0.000    0.000    0.000    0.000 
#
# Total GULP energy -111728.796320 kJ/mol
# GULP energy per Si atom -5586.439816 kJ/mol
# Density = 2.488539 g / cm^3
# Si number density = 24.942163 Si / 1000 Ang^3
#
#
#
# Elastic Constant Matrix: (Units=GPa)
#
#
# Indices 1 2 3 4 5 6 
#
# 1 213.9626 13.2498 44.6500 0.0000 24.2999 0.0000
# 2 13.2498 111.6848 11.7102 0.0000 -5.1766 0.0000
# 3 44.6500 11.7102 75.2624 0.0000 1.0709 0.0000
# 4 0.0000 0.0000 0.0000 15.4791 0.0000 0.1365
# 5 24.2999 -5.1766 1.0709 0.0000 36.1423 0.0000
# 6 0.0000 0.0000 0.0000 0.1365 0.0000 2.5430
#
#
#
# Elastic Compliance Matrix: (Units=1/GPa)
#
#
# Indices 1 2 3 4 5 6 
#
# 1 0.005845 -0.000525 -0.003330 0.000000 -0.003906 0.000000
# 2 -0.000525 0.009215 -0.001147 0.000000 0.001707 0.000000
# 3 -0.003330 -0.001147 0.015418 0.000000 0.001618 0.000000
# 4 0.000000 0.000000 0.000000 0.064634 0.000000 -0.003470
# 5 -0.003906 0.001707 0.001618 0.000000 0.030491 0.000000
# 6 0.000000 0.000000 0.000000 -0.003470 0.000000 0.393425
#
#
# Mechanical properties :
#
#
# Convention : Reuss Voigt Hill
#
# Bulk Modulus (GPa) = 48.84202 60.01444 54.42823
# Shear Modulus (GPa) = 9.33086 32.91953 21.12519
#
# Velocity S-wave (km/s) = 1.93626 3.63689 2.91343
# Velocity P-wave (km/s) = 4.96220 6.46140 5.76078
#
# Compressibility (1/GPa) = 0.02047417
#
# Stress axis : x y z
#
# Youngs Moduli (GPa) = 171.09138 108.51378 64.85977
#
# Poissons Ratio (x) = 0.05700 0.21599
# Poissons Ratio (y) = 0.08987 0.07436
# Poissons Ratio (z) = 0.56977 0.12441
#
# Static dielectric constant tensor:
#      x y z
#    x 2.027210 0.000000 -0.017870 
#    y 0.000000 1.911430 0.000000 
#    z -0.017870 0.000000 2.041000 
# 
# From -- ./inp_files/101210.got.cif
#   From: 2010.05.17/outbox.cif.g08.bks.cpg/sg12_51_cif.got.tgz:101210.got - 2010.06.03 13:09:07.
