data_PCOD9193244
_publ_section_title
;
Structure prediction by ZEFSAII (Michael W. Deem and Ramdas Pophale) SiO2 
 PCOD9193244
Probable space group: C 2/M
;
_chemical_formula_sum "Si O2"
_cell_formula_units_Z 64
_cell_length_a 20.215724
_cell_length_b 8.564500
_cell_length_c 33.237704
_cell_angle_alpha 90.000000
_cell_angle_beta 35.055762
_cell_angle_gamma 90.000000
_cell_volume 3305.343806
_symmetry_space_group_name_H-M "C 2/M"
_symmetry_group_IT_number 12
_symmetry_cell_setting 'monoclinic'
loop_
_space_group_symop_operation_xyz
x,y,z
-x,y,-z
-x,-y,-z
x,-y,z
1/2+x,1/2+y,z
1/2-x,1/2+y,-z
1/2-x,1/2-y,-z
1/2+x,1/2-y,z
loop_
_atom_site_type_symbol
_atom_site_label
_atom_site_fract_x
_atom_site_fract_y
_atom_site_fract_z
Si Si1 0.816623 0.677528 0.777997
Si Si2 0.005339 0.814311 0.370376
Si Si3 0.578400 0.180184 0.925081
Si Si4 0.012317 0.320818 0.748423
Si Si5 0.942210 0.688700 0.486459
Si Si6 0.818739 0.185656 0.397667
Si Si7 0.106364 0.820516 0.032166
Si Si8 0.360021 0.187453 0.898211
O O1 0.803803 0.500000 0.770082
O O2 0.879236 0.775730 0.712044
O O3 0.696194 0.738598 0.854531
O O4 0.905841 0.679294 0.770484
O O5 0.007177 0.739587 0.413531
O O6 0.896818 0.754563 0.396544
O O7 0.993335 0.000000 0.380230
O O8 0.491480 0.200824 0.931477
O O9 0.602348 0.000000 0.922789
O O10 0.500000 0.250099 0.000000
O O11 0.052652 0.500000 0.732388
O O12 0.110195 0.221370 0.678228
O O13 0.957231 0.269255 0.817780
O O14 0.939244 0.500000 0.489609
O O15 0.810750 0.746394 0.544110
O O16 0.000000 0.741605 0.500000
O O17 0.811124 0.000000 0.407099
O O18 0.128814 0.791254 0.067870
O O19 0.071736 0.000000 0.042116
O O20 0.228085 0.790999 0.949144
O O21 0.369052 0.000000 0.902173
#
# Coordination Sequence:
#
# PCOD9193244 Si02
#       8
#     8   8   8   8   8   8   8   8
#     4  10  20  36  58  83 111 144 185 227 273 331
#     4  10  20  36  59  85 113 146 187 235 284 336
#     4  11  23  37  54  79 111 145 182 229 282 329
#     4   9  18  33  55  81 107 139 177 224 275 323
#     4  10  21  38  58  82 114 151 187 230 283 337
#     4   9  19  35  56  83 111 142 186 233 276 332
#     4  10  20  34  53  76 102 140 186 227 273 332
#     4   9  18  34  53  75 106 140 179 227 277 326
#
# _framework density 19.362583999999998
#
# number of rings (size 3 to 8) (size 9 to 14) (size 15 to 20)
#    0.000    2.250    0.000    2.625    0.000    4.750 
#    2.250    0.000    0.000    0.000    0.000    0.000 
#    0.000    0.000    0.000    0.000    0.000    0.000 
#
# Total GULP energy -178401.858249 kJ/mol
# GULP energy per Si atom -5575.058070 kJ/mol
# Density = 1.931851 g / cm^3
# Si number density = 19.362584 Si / 1000 Ang^3
#
#
#
# Elastic Constant Matrix: (Units=GPa)
#
#
# Indices 1 2 3 4 5 6 
#
# 1 55.9304 11.2756 41.0781 0.0009 4.9355 0.0139
# 2 11.2756 15.3151 6.6387 0.0083 -2.5319 0.0068
# 3 41.0781 6.6387 100.6206 0.0039 5.4680 0.0022
# 4 0.0009 0.0083 0.0039 26.3136 -0.0001 7.2185
# 5 4.9355 -2.5319 5.4680 -0.0001 27.1417 0.0015
# 6 0.0139 0.0068 0.0022 7.2185 0.0015 17.3078
#
#
#
# Elastic Compliance Matrix: (Units=1/GPa)
#
#
# Indices 1 2 3 4 5 6 
#
# 1 0.029848 -0.018150 -0.010718 0.000012 -0.004961 -0.000020
# 2 -0.018150 0.079692 0.001586 -0.000023 0.010415 -0.000008
# 3 -0.010718 0.001586 0.014252 -0.000004 -0.000774 0.000008
# 4 0.000012 -0.000023 -0.000004 0.042913 -0.000002 -0.017898
# 5 -0.004961 0.010415 -0.000774 -0.000002 0.038873 -0.000002
# 6 -0.000020 -0.000008 0.000008 -0.017898 -0.000002 0.065242
#
#
# Mechanical properties :
#
#
# Convention : Reuss Voigt Hill
#
# Bulk Modulus (GPa) = 14.44520 32.20567 23.32544
# Shear Modulus (GPa) = 14.34882 21.67751 18.01316
#
# Velocity S-wave (km/s) = 2.72519 3.34961 3.05340
# Velocity P-wave (km/s) = 4.16879 5.62396 4.95014
#
# Compressibility (1/GPa) = 0.06922715
#
# Stress axis : x y z
#
# Youngs Moduli (GPa) = 33.50275 12.54831 70.16790
#
# Poissons Ratio (x) = 0.22775 0.75209
# Poissons Ratio (y) = 0.60806 -0.11126
# Poissons Ratio (z) = 0.35910 -0.01990
#
# Static dielectric constant tensor:
#      x y z
#    x 1.716770 0.000000 -0.000470 
#    y 0.000000 1.677580 0.000000 
#    z -0.000470 0.000000 1.681370 
# 
# From -- ./inp_files/378189.got.cif
#   From: 2010.05.17/outbox.cif.g08.bks.cpg/sg12_190_cif.got.tgz:378189.got - 2010.06.03 13:09:07.
