data_PCOD9193378
_publ_section_title
;
Structure prediction by ZEFSAII (Michael W. Deem and Ramdas Pophale) SiO2 
 PCOD9193378
Probable space group: C 2/M
;
_chemical_formula_sum "Si O2"
_cell_formula_units_Z 64
_cell_length_a 31.369132
_cell_length_b 7.433453
_cell_length_c 14.378363
_cell_angle_alpha 90.000000
_cell_angle_beta 51.880915
_cell_angle_gamma 90.000000
_cell_volume 2637.715496
_symmetry_space_group_name_H-M "C 2/M"
_symmetry_group_IT_number 12
_symmetry_cell_setting 'monoclinic'
loop_
_space_group_symop_operation_xyz
x,y,z
-x,y,-z
-x,-y,-z
x,-y,z
1/2+x,1/2+y,z
1/2-x,1/2+y,-z
1/2-x,1/2-y,-z
1/2+x,1/2-y,z
loop_
_atom_site_type_symbol
_atom_site_label
_atom_site_fract_x
_atom_site_fract_y
_atom_site_fract_z
Si Si1 0.921062 0.710716 0.915452
Si Si2 0.347540 0.710589 0.550713
Si Si3 0.266549 0.204545 0.822469
Si Si4 0.650514 0.709139 0.657773
Si Si5 0.143580 0.719564 0.172270
Si Si6 0.025651 0.281452 0.866305
Si Si7 0.559303 0.783686 0.447578
Si Si8 0.171013 0.218328 0.828357
O O1 0.927161 0.500000 0.884860
O O2 0.881721 0.787242 0.889386
O O3 0.981501 0.780440 0.849220
O O4 0.888057 0.729182 0.055495
O O5 0.333656 0.500000 0.570947
O O6 0.310272 0.800037 0.679242
O O7 0.339279 0.785723 0.458388
O O8 0.409999 0.726151 0.500049
O O9 0.298881 0.286128 0.865957
O O10 0.214010 0.289233 0.845781
O O11 0.252130 0.000000 0.866408
O O12 0.666073 0.500000 0.631339
O O13 0.586079 0.717693 0.764808
O O14 0.678883 0.784079 0.712308
O O15 0.148070 0.500000 0.162751
O O16 0.099580 0.765376 0.309827
O O17 0.027282 0.500000 0.863618
O O18 0.000000 0.226574 0.000000
O O19 0.500000 0.716442 0.500000
O O20 0.556350 0.000000 0.456150
O O21 0.174319 0.000000 0.822262
#
# Coordination Sequence:
#
# PCOD9193378 Si02
#       8
#     8   8   8   8   8   8   8   8
#     4  10  20  34  53  79 109 138 172 219 268 314
#     4  10  21  36  53  78 110 140 174 221 271 316
#     4   9  19  38  59  77 102 139 181 223 266 317
#     4  10  22  37  53  77 110 145 177 214 269 324
#     4   8  16  32  52  76 105 135 170 215 263 311
#     4  10  20  34  53  78 107 138 178 223 261 308
#     4   9  18  33  55  79 104 141 182 216 259 316
#     4  10  21  37  56  77 104 140 182 222 263 320
#
# _framework density 24.263421000000001
#
# number of rings (size 3 to 8) (size 9 to 14) (size 15 to 20)
#    0.000    2.500    1.250    1.125    1.750    3.500 
#    0.000    2.500    0.000    0.000    0.000    0.000 
#    0.000    0.000    0.000    0.000    0.000    0.000 
#
# Total GULP energy -178726.558126 kJ/mol
# GULP energy per Si atom -5585.204941 kJ/mol
# Density = 2.420820 g / cm^3
# Si number density = 24.263421 Si / 1000 Ang^3
#
#
#
# Elastic Constant Matrix: (Units=GPa)
#
#
# Indices 1 2 3 4 5 6 
#
# 1 131.9429 3.7228 0.4838 0.0000 11.0318 0.0000
# 2 3.7228 82.3589 -6.1023 0.0000 4.9607 -0.0003
# 3 0.4838 -6.1023 34.0438 0.0000 9.4436 0.0000
# 4 0.0000 0.0000 0.0000 11.9987 0.0000 2.7610
# 5 11.0318 4.9607 9.4436 0.0000 43.2757 0.0000
# 6 0.0000 -0.0003 0.0000 2.7610 0.0000 9.7453
#
#
#
# Elastic Compliance Matrix: (Units=1/GPa)
#
#
# Indices 1 2 3 4 5 6 
#
# 1 0.007754 -0.000196 0.000422 0.000000 -0.002046 0.000000
# 2 -0.000196 0.012477 0.002791 0.000000 -0.001989 0.000000
# 3 0.000422 0.002791 0.031919 0.000000 -0.007393 0.000000
# 4 0.000000 0.000000 0.000000 0.089155 0.000000 -0.025259
# 5 -0.002046 -0.001989 -0.007393 0.000000 0.025471 0.000000
# 6 0.000000 0.000000 0.000000 -0.025259 0.000000 0.109770
#
#
# Mechanical properties :
#
#
# Convention : Reuss Voigt Hill
#
# Bulk Modulus (GPa) = 17.18632 27.17269 22.17950
# Shear Modulus (GPa) = 17.24693 29.68667 23.46680
#
# Velocity S-wave (km/s) = 2.66901 3.50167 3.11331
# Velocity P-wave (km/s) = 4.07391 5.25093 4.69942
#
# Compressibility (1/GPa) = 0.05818582
#
# Stress axis : x y z
#
# Youngs Moduli (GPa) = 128.96376 80.14435 31.32928
#
# Poissons Ratio (x) = 0.01570 -0.01323
# Poissons Ratio (y) = 0.02527 -0.08745
# Poissons Ratio (z) = -0.05447 -0.22370
#
# Static dielectric constant tensor:
#      x y z
#    x 1.981940 0.000000 0.028780 
#    y 0.000000 1.792080 0.000000 
#    z 0.028780 0.000000 1.895270 
# 
# From -- ./inp_files/248969.got.cif
#   From: 2010.05.17/outbox.cif.g08.bks.cpg/sg12_125_cif.got.tgz:248969.got - 2010.06.03 13:09:07.
