data_PCOD9193937
_publ_section_title
;
Structure prediction by ZEFSAII (Michael W. Deem and Ramdas Pophale) SiO2 
 PCOD9193937
Probable space group: C 2/M
;
_chemical_formula_sum "Si O2"
_cell_formula_units_Z 56
_cell_length_a 25.384297
_cell_length_b 8.825502
_cell_length_c 17.043508
_cell_angle_alpha 90.000000
_cell_angle_beta 59.973082
_cell_angle_gamma 90.000000
_cell_volume 3305.798019
_symmetry_space_group_name_H-M "C 2/M"
_symmetry_group_IT_number 12
_symmetry_cell_setting 'monoclinic'
loop_
_space_group_symop_operation_xyz
x,y,z
-x,y,-z
-x,-y,-z
x,-y,z
1/2+x,1/2+y,z
1/2-x,1/2+y,-z
1/2-x,1/2-y,-z
1/2+x,1/2-y,z
loop_
_atom_site_type_symbol
_atom_site_label
_atom_site_fract_x
_atom_site_fract_y
_atom_site_fract_z
Si Si1 0.077521 0.680979 0.087163
Si Si2 0.692554 0.318850 0.088959
Si Si3 0.258370 0.319470 0.776818
Si Si4 0.156696 0.680866 0.606362
Si Si5 0.725089 0.819245 0.398171
Si Si6 0.447551 0.680818 0.217482
Si Si7 0.876482 0.818846 0.108211
O O1 0.079106 0.500000 0.084585
O O2 0.131804 0.744509 0.100557
O O3 0.012841 0.740969 0.165049
O O4 0.089894 0.744707 0.990670
O O5 0.690834 0.500000 0.077884
O O6 0.703684 0.289410 0.172655
O O7 0.750000 0.250000 0.000000
O O8 0.251155 0.500000 0.774080
O O9 0.287788 0.251326 0.676638
O O10 0.191658 0.245937 0.835960
O O11 0.154545 0.500000 0.619068
O O12 0.211912 0.748462 0.616888
O O13 0.175068 0.711904 0.502486
O O14 0.094879 0.755855 0.681841
O O15 0.732817 0.000000 0.385880
O O16 0.454344 0.500000 0.218932
O O17 0.412076 0.713063 0.162297
O O18 0.874043 0.000000 0.099362
#
# Coordination Sequence:
#
# PCOD9193937 Si02
#       7
#     8   8   8   8   8   8   8
#     4  12  25  39  57  81 112 152 193 232 279 333
#     4  11  23  39  59  82 110 147 191 236 281 328
#     4  11  22  35  57  85 114 147 187 233 281 330
#     4  10  20  34  55  82 114 148 187 230 275 333
#     4  10  20  34  54  83 115 149 184 227 283 333
#     4  11  23  38  57  82 114 152 189 229 282 336
#     4  11  22  36  56  82 115 151 188 229 278 333
#
# _framework density 16.939933
#
# number of rings (size 3 to 8) (size 9 to 14) (size 15 to 20)
#    0.000    1.143    2.857    4.286    0.000    6.857 
#    0.000    0.000    0.000    0.857    0.000    6.000 
#    0.000    0.000    0.000    0.000    0.000    0.000 
#
# Total GULP energy -156534.025464 kJ/mol
# GULP energy per Si atom -5590.500909 kJ/mol
# Density = 1.690138 g / cm^3
# Si number density = 16.939933 Si / 1000 Ang^3
#
#
#
# Elastic Constant Matrix: (Units=GPa)
#
#
# Indices 1 2 3 4 5 6 
#
# 1 73.5613 54.7648 63.1611 0.0000 -9.3072 0.0000
# 2 54.7648 93.7224 70.1709 0.0000 1.1330 0.0002
# 3 63.1611 70.1709 142.8953 0.0000 1.7174 0.0000
# 4 0.0000 0.0000 0.0000 34.5759 0.0000 0.0958
# 5 -9.3072 1.1330 1.7174 0.0000 26.4313 0.0000
# 6 0.0000 0.0002 0.0000 0.0958 0.0000 26.7717
#
#
#
# Elastic Compliance Matrix: (Units=1/GPa)
#
#
# Indices 1 2 3 4 5 6 
#
# 1 0.031055 -0.012503 -0.007731 0.000000 0.011974 0.000000
# 2 -0.012503 0.021908 -0.005172 0.000000 -0.005006 0.000000
# 3 -0.007731 -0.005172 0.012995 0.000000 -0.003345 0.000000
# 4 0.000000 0.000000 0.000000 0.028922 0.000000 -0.000104
# 5 0.011974 -0.005006 -0.003345 0.000000 0.042482 0.000000
# 6 0.000000 0.000000 0.000000 -0.000104 0.000000 0.037353
#
#
# Mechanical properties :
#
#
# Convention : Reuss Voigt Hill
#
# Bulk Modulus (GPa) = 66.01818 76.26363 71.14091
# Shear Modulus (GPa) = 21.68477 25.69458 23.68968
#
# Velocity S-wave (km/s) = 3.58173 3.89884 3.74364
# Velocity P-wave (km/s) = 7.49410 8.08615 7.79575
#
# Compressibility (1/GPa) = 0.01514734
#
# Stress axis : x y z
#
# Youngs Moduli (GPa) = 32.20083 45.64449 76.95208
#
# Poissons Ratio (x) = 0.57070 0.59490
# Poissons Ratio (y) = 0.40261 0.39798
# Poissons Ratio (z) = 0.24894 0.23607
#
# Static dielectric constant tensor:
#      x y z
#    x 1.543940 0.000000 0.014340 
#    y 0.000000 1.564310 0.000000 
#    z 0.014340 0.000000 1.569600 
# 
# From -- ./inp_files/288210.got.cif
#   From: 2010.05.17/outbox.cif.g08.bks.cpg/sg12_145_cif.got.tgz:288210.got - 2010.06.03 13:09:07.
