data_PCOD9193173
_publ_section_title
;
Structure prediction by ZEFSAII (Michael W. Deem and Ramdas Pophale) SiO2 
 PCOD9193173
Probable space group: C 2/M
;
_chemical_formula_sum "Si O2"
_cell_formula_units_Z 50
_cell_length_a 14.849799
_cell_length_b 7.595204
_cell_length_c 25.019608
_cell_angle_alpha 90.000000
_cell_angle_beta 140.014412
_cell_angle_gamma 90.000000
_cell_volume 1813.333957
_symmetry_space_group_name_H-M "C 2/M"
_symmetry_group_IT_number 12
_symmetry_cell_setting 'monoclinic'
loop_
_space_group_symop_operation_xyz
x,y,z
-x,y,-z
-x,-y,-z
x,-y,z
1/2+x,1/2+y,z
1/2-x,1/2+y,-z
1/2-x,1/2-y,-z
1/2+x,1/2-y,z
loop_
_atom_site_type_symbol
_atom_site_label
_atom_site_fract_x
_atom_site_fract_y
_atom_site_fract_z
Si Si1 0.500000 0.000000 0.500000
Si Si2 0.538789 0.797840 0.955145
Si Si3 0.837586 0.706275 0.606144
Si Si4 0.260169 0.197418 0.212890
Si Si5 0.826740 0.791959 0.122396
Si Si6 0.363898 0.712839 0.742289
Si Si7 0.023053 0.204069 0.431132
O O1 0.554007 0.154767 0.567195
O O2 0.409299 0.691620 0.872727
O O3 0.537636 0.000000 0.934945
O O4 0.500000 0.811608 0.000000
O O5 0.693990 0.716545 0.029978
O O6 0.840438 0.500000 0.597252
O O7 0.848223 0.739420 0.673421
O O8 0.962291 0.786087 0.626869
O O9 0.683978 0.770179 0.518693
O O10 0.312693 0.273115 0.180512
O O11 0.252839 0.283487 0.268910
O O12 0.318186 0.000000 0.242916
O O13 0.977322 0.723011 0.173645
O O14 0.822397 0.000000 0.110090
O O15 0.362128 0.500000 0.745020
O O16 0.004675 0.000000 0.438387
#
# Coordination Sequence:
#
# PCOD9193173 Si02
#       7
#     2   8   8   8   8   8   8
#     4  12  22  40  68 110 124 158 206 262 288 366
#     4   8  15  30  53  74 103 145 188 237 297 357
#     4  10  21  41  64  89 118 167 204 242 300 373
#     4  10  20  34  52  81 111 143 189 247 302 356
#     4   9  19  37  55  76 107 150 196 238 293 366
#     4  10  22  38  57  80 116 158 197 238 302 363
#     4  10  22  41  67  95 132 161 203 253 305 354
#
# _framework density 27.573519000000001
#
# number of rings (size 3 to 8) (size 9 to 14) (size 15 to 20)
#    0.000    2.400    0.800    2.160    2.240    5.440 
#    2.880    0.000    0.000    0.000    0.000    0.000 
#    0.000    0.000    0.000    0.000    0.000    0.000 
#
# Total GULP energy -139584.154998 kJ/mol
# GULP energy per Si atom -5583.366200 kJ/mol
# Density = 2.751076 g / cm^3
# Si number density = 27.573519 Si / 1000 Ang^3
#
#
#
# Elastic Constant Matrix: (Units=GPa)
#
#
# Indices 1 2 3 4 5 6 
#
# 1 179.8710 19.2065 9.9588 0.0000 -12.8707 0.0000
# 2 19.2065 129.5861 3.8918 0.0000 -15.6230 0.0000
# 3 9.9588 3.8918 21.7682 0.0000 -6.7564 0.0000
# 4 0.0000 0.0000 0.0000 33.8232 0.0000 -14.5996
# 5 -12.8707 -15.6230 -6.7564 0.0000 49.3395 0.0000
# 6 0.0000 0.0000 0.0000 -14.5996 0.0000 18.5622
#
#
#
# Elastic Compliance Matrix: (Units=1/GPa)
#
#
# Indices 1 2 3 4 5 6 
#
# 1 0.005827 -0.000676 -0.002235 0.000000 0.001000 0.000000
# 2 -0.000676 0.008111 -0.000416 0.000000 0.002335 0.000000
# 3 -0.002235 -0.000416 0.048891 0.000000 0.005980 0.000000
# 4 0.000000 0.000000 0.000000 0.044762 0.000000 0.035206
# 5 0.001000 0.002335 0.005980 0.000000 0.022087 0.000000
# 6 0.000000 0.000000 0.000000 0.035206 0.000000 0.081563
#
#
# Mechanical properties :
#
#
# Convention : Reuss Voigt Hill
#
# Bulk Modulus (GPa) = 17.80121 44.14885 30.97503
# Shear Modulus (GPa) = 21.13091 40.22287 30.67689
#
# Velocity S-wave (km/s) = 2.77130 3.82350 3.33911
# Velocity P-wave (km/s) = 4.08780 5.96140 5.11118
#
# Compressibility (1/GPa) = 0.05617595
#
# Stress axis : x y z
#
# Youngs Moduli (GPa) = 171.61503 123.28824 20.45353
#
# Poissons Ratio (x) = 0.08334 0.04571
# Poissons Ratio (y) = 0.11601 0.00851
# Poissons Ratio (z) = 0.38349 0.05131
#
# Static dielectric constant tensor:
#      x y z
#    x 2.274840 0.000000 0.055840 
#    y 0.000000 2.001900 0.000000 
#    z 0.055840 0.000000 2.419160 
# 
# From -- ./inp_files/360058.got.cif
#   From: 2010.05.17/outbox.cif.g08.bks.cpg/sg12_181_cif.got.tgz:360058.got - 2010.06.03 13:09:07.
