data_PCOD9193841
_publ_section_title
;
Structure prediction by ZEFSAII (Michael W. Deem and Ramdas Pophale) SiO2 
 PCOD9193841
Probable space group: C 2/M
;
_chemical_formula_sum "Si O2"
_cell_formula_units_Z 56
_cell_length_a 25.799006
_cell_length_b 8.793963
_cell_length_c 15.324118
_cell_angle_alpha 90.000000
_cell_angle_beta 74.616714
_cell_angle_gamma 90.000000
_cell_volume 3352.107857
_symmetry_space_group_name_H-M "C 2/M"
_symmetry_group_IT_number 12
_symmetry_cell_setting 'monoclinic'
loop_
_space_group_symop_operation_xyz
x,y,z
-x,y,-z
-x,-y,-z
x,-y,z
1/2+x,1/2+y,z
1/2-x,1/2+y,-z
1/2-x,1/2-y,-z
1/2+x,1/2-y,z
loop_
_atom_site_type_symbol
_atom_site_label
_atom_site_fract_x
_atom_site_fract_y
_atom_site_fract_z
Si Si1 0.171184 0.818489 0.091250
Si Si2 0.622133 0.317283 0.592764
Si Si3 0.683147 0.317153 0.387140
Si Si4 0.298611 0.317168 0.289285
Si Si5 0.491862 0.816952 0.403124
Si Si6 0.208019 0.681603 0.896938
Si Si7 0.105747 0.682629 0.272797
O O1 0.228941 0.784856 0.111254
O O2 0.125585 0.744555 0.171229
O O3 0.165197 0.000000 0.090497
O O4 0.175389 0.750388 0.992638
O O5 0.617694 0.500000 0.594886
O O6 0.657033 0.275389 0.491730
O O7 0.654409 0.271214 0.664849
O O8 0.563145 0.248407 0.609828
O O9 0.686098 0.500000 0.378846
O O10 0.742120 0.248059 0.349106
O O11 0.644813 0.253397 0.328439
O O12 0.295556 0.500000 0.288436
O O13 0.307065 0.253847 0.188496
O O14 0.500000 0.766110 0.500000
O O15 0.544816 0.774841 0.324862
O O16 0.488160 0.000000 0.405757
O O17 0.202037 0.500000 0.897082
O O18 0.110445 0.500000 0.273287
#
# Coordination Sequence:
#
# PCOD9193841 Si02
#       7
#     8   8   8   8   8   8   8
#     4  10  20  34  54  81 111 142 179 220 271 326
#     4  10  23  38  54  78 109 148 189 226 269 321
#     4  11  21  34  52  79 111 146 185 222 268 322
#     4  11  22  36  54  79 112 148 183 222 272 325
#     4  10  21  37  56  80 107 143 187 228 272 318
#     4  10  20  34  54  81 111 142 179 219 270 327
#     4  11  21  34  55  81 112 144 179 225 274 320
#
# _framework density 16.705907
#
# number of rings (size 3 to 8) (size 9 to 14) (size 15 to 20)
#    0.000    1.571    2.857    2.571    0.000    4.286 
#    0.000    0.000    0.000    0.857    0.000    6.000 
#    0.000    0.000    0.000    0.000    0.000    0.000 
#
# Total GULP energy -156418.235738 kJ/mol
# GULP energy per Si atom -5586.365562 kJ/mol
# Density = 1.666788 g / cm^3
# Si number density = 16.705907 Si / 1000 Ang^3
#
#
#
# Elastic Constant Matrix: (Units=GPa)
#
#
# Indices 1 2 3 4 5 6 
#
# 1 140.9105 46.6148 100.0607 0.0000 1.8755 0.0000
# 2 46.6148 46.3226 54.3951 0.0000 -4.8231 0.0000
# 3 100.0607 54.3951 151.8806 0.0000 -16.0389 0.0000
# 4 0.0000 0.0000 0.0000 29.7607 0.0000 -2.1300
# 5 1.8755 -4.8231 -16.0389 0.0000 25.1359 0.0000
# 6 0.0000 0.0000 0.0000 -2.1300 0.0000 28.8031
#
#
#
# Elastic Compliance Matrix: (Units=1/GPa)
#
#
# Indices 1 2 3 4 5 6 
#
# 1 0.015519 -0.005957 -0.008936 0.000000 -0.008003 0.000000
# 2 -0.005957 0.039593 -0.010086 0.000000 0.001606 0.000000
# 3 -0.008936 -0.010086 0.017102 0.000000 0.009644 0.000000
# 4 0.000000 0.000000 0.000000 0.033780 0.000000 0.002498
# 5 -0.008003 0.001606 0.009644 0.000000 0.046843 0.000000
# 6 0.000000 0.000000 0.000000 0.002498 0.000000 0.034903
#
#
# Mechanical properties :
#
#
# Convention : Reuss Voigt Hill
#
# Bulk Modulus (GPa) = 44.93083 82.36167 63.64625
# Shear Modulus (GPa) = 20.39843 25.94282 23.17062
#
# Velocity S-wave (km/s) = 3.49812 3.94498 3.72825
# Velocity P-wave (km/s) = 6.57794 8.37606 7.53086
#
# Compressibility (1/GPa) = 0.02225643
#
# Stress axis : x y z
#
# Youngs Moduli (GPa) = 64.43556 25.25684 58.47382
#
# Poissons Ratio (x) = 0.15047 0.52251
# Poissons Ratio (y) = 0.38387 0.58974
# Poissons Ratio (z) = 0.57579 0.25473
#
# Static dielectric constant tensor:
#      x y z
#    x 1.532150 0.000000 -0.006020 
#    y 0.000000 1.559300 0.000000 
#    z -0.006020 0.000000 1.555720 
# 
# From -- ./inp_files/230867.got.cif
#   From: 2010.05.17/outbox.cif.g08.bks.cpg/sg12_116_cif.got.tgz:230867.got - 2010.06.03 13:09:07.
