data_PCOD9193927
_publ_section_title
;
Structure prediction by ZEFSAII (Michael W. Deem and Ramdas Pophale) SiO2 
 PCOD9193927
Probable space group: C 2/M
;
_chemical_formula_sum "Si O2"
_cell_formula_units_Z 64
_cell_length_a 32.236552
_cell_length_b 7.949978
_cell_length_c 15.414957
_cell_angle_alpha 90.000000
_cell_angle_beta 48.018718
_cell_angle_gamma 90.000000
_cell_volume 2936.689252
_symmetry_space_group_name_H-M "C 2/M"
_symmetry_group_IT_number 12
_symmetry_cell_setting 'monoclinic'
loop_
_space_group_symop_operation_xyz
x,y,z
-x,y,-z
-x,-y,-z
x,-y,z
1/2+x,1/2+y,z
1/2-x,1/2+y,-z
1/2-x,1/2-y,-z
1/2+x,1/2-y,z
loop_
_atom_site_type_symbol
_atom_site_label
_atom_site_fract_x
_atom_site_fract_y
_atom_site_fract_z
Si Si1 0.665137 0.205645 0.170128
Si Si2 0.748200 0.195152 0.196394
Si Si3 0.454817 0.705997 0.134288
Si Si4 0.020162 0.805027 0.207267
Si Si5 0.542201 0.800578 0.370309
Si Si6 0.360014 0.803759 0.989224
Si Si7 0.787385 0.804069 0.577225
Si Si8 0.831180 0.204502 0.334222
O O1 0.714912 0.268254 0.160720
O O2 0.605259 0.265065 0.289192
O O3 0.664317 0.253423 0.070409
O O4 0.666942 0.000000 0.170601
O O5 0.710179 0.212104 0.334577
O O6 0.759838 0.000000 0.164864
O O7 0.808465 0.278823 0.125274
O O8 0.455496 0.500000 0.133011
O O9 0.476528 0.762217 0.198339
O O10 0.390553 0.756719 0.211762
O O11 0.500000 0.761845 0.000000
O O12 0.023076 0.722480 0.297649
O O13 0.081907 0.789839 0.078073
O O14 0.007710 0.000000 0.239495
O O15 0.500000 0.728016 0.500000
O O16 0.546257 0.000000 0.380198
O O17 0.374244 0.000000 0.962739
O O18 0.826640 0.749407 0.442761
O O19 0.724022 0.778616 0.631951
O O20 0.797660 0.000000 0.578628
O O21 0.826760 0.000000 0.334769
#
# Coordination Sequence:
#
# PCOD9193927 Si02
#       8
#     8   8   8   8   8   8   8   8
#     4   8  17  33  51  75 106 140 179 220 263 317
#     4  11  21  33  53  79 105 140 185 223 265 323
#     4   9  19  35  57  84 112 145 186 229 276 331
#     4  10  20  34  54  83 112 142 184 227 274 331
#     4   9  18  35  57  78 107 148 185 222 274 328
#     4  10  20  36  55  76 110 145 177 223 274 322
#     4  10  21  36  54  81 111 142 180 226 279 325
#     4   9  19  38  60  78 106 146 184 224 272 329
#
# _framework density 21.79325
#
# number of rings (size 3 to 8) (size 9 to 14) (size 15 to 20)
#    0.000    2.500    0.000    2.625    1.750    1.750 
#    0.000    6.875    0.000    1.875    0.000    0.000 
#    0.000    0.000    0.000    0.000    0.000    0.000 
#
# Total GULP energy -178609.698481 kJ/mol
# GULP energy per Si atom -5581.553078 kJ/mol
# Density = 2.174365 g / cm^3
# Si number density = 21.793250 Si / 1000 Ang^3
#
#
#
# Elastic Constant Matrix: (Units=GPa)
#
#
# Indices 1 2 3 4 5 6 
#
# 1 43.0763 -7.0959 -0.9591 0.0000 -11.6105 -0.0005
# 2 -7.0959 18.6241 -2.2829 0.0000 -1.4274 -0.0028
# 3 -0.9591 -2.2829 99.8614 0.0000 -21.1269 0.0003
# 4 0.0000 0.0000 0.0000 21.8265 0.0000 4.3336
# 5 -11.6105 -1.4274 -21.1269 0.0000 20.7722 0.0000
# 6 -0.0005 -0.0028 0.0003 4.3336 0.0000 20.4806
#
#
#
# Elastic Compliance Matrix: (Units=1/GPa)
#
#
# Indices 1 2 3 4 5 6 
#
# 1 0.032715 0.015159 0.006052 -0.000001 0.025483 0.000003
# 2 0.015159 0.061526 0.005401 -0.000002 0.018195 0.000009
# 3 0.006052 0.005401 0.014003 0.000000 0.017996 0.000001
# 4 -0.000001 -0.000002 0.000000 0.047825 -0.000001 -0.010120
# 5 0.025483 0.018195 0.017996 -0.000001 0.081938 0.000003
# 6 0.000003 0.000009 0.000001 -0.010120 0.000003 0.050968
#
#
# Mechanical properties :
#
#
# Convention : Reuss Voigt Hill
#
# Bulk Modulus (GPa) = 6.19311 15.65401 10.92356
# Shear Modulus (GPa) = 17.26682 24.07582 20.67132
#
# Velocity S-wave (km/s) = 2.81784 3.32736 3.08315
# Velocity P-wave (km/s) = 3.66536 4.68619 4.20685
#
# Compressibility (1/GPa) = 0.16146970
#
# Stress axis : x y z
#
# Youngs Moduli (GPa) = 30.56699 16.25322 71.41486
#
# Poissons Ratio (x) = -0.24639 -0.43220
# Poissons Ratio (y) = -0.46338 -0.38574
# Poissons Ratio (z) = -0.18499 -0.08779
#
# Static dielectric constant tensor:
#      x y z
#    x 1.789180 0.000000 0.001750 
#    y 0.000000 1.785750 0.000000 
#    z 0.001750 0.000000 1.831700 
# 
# From -- ./inp_files/249818.got.cif
#   From: 2010.05.17/outbox.cif.g08.bks.cpg/sg12_125_cif.got.tgz:249818.got - 2010.06.03 13:09:07.
