data_PCOD9193908
_publ_section_title
;
Structure prediction by ZEFSAII (Michael W. Deem and Ramdas Pophale) SiO2 
 PCOD9193908
Probable space group: C 2/M
;
_chemical_formula_sum "Si O2"
_cell_formula_units_Z 56
_cell_length_a 16.605499
_cell_length_b 24.287495
_cell_length_c 8.705975
_cell_angle_alpha 90.000000
_cell_angle_beta 121.453047
_cell_angle_gamma 90.000000
_cell_volume 2995.268444
_symmetry_space_group_name_H-M "C 2/M"
_symmetry_group_IT_number 12
_symmetry_cell_setting 'monoclinic'
loop_
_space_group_symop_operation_xyz
x,y,z
-x,y,-z
-x,-y,-z
x,-y,z
1/2+x,1/2+y,z
1/2-x,1/2+y,-z
1/2-x,1/2-y,-z
1/2+x,1/2-y,z
loop_
_atom_site_type_symbol
_atom_site_label
_atom_site_fract_x
_atom_site_fract_y
_atom_site_fract_z
Si Si1 0.222090 0.563805 0.158055
Si Si2 0.274272 0.265770 0.349192
Si Si3 0.396583 0.837267 0.829237
Si Si4 0.897442 0.875446 0.473419
Si Si5 0.208711 0.563111 0.777923
Si Si6 0.896607 0.334493 0.459193
Si Si7 0.907718 0.935118 0.807026
O O1 0.208845 0.500000 0.187678
O O2 0.147489 0.604314 0.164120
O O3 0.325315 0.584438 0.312196
O O4 0.212512 0.569022 0.965239
O O5 0.250000 0.250000 0.500000
O O6 0.177560 0.290887 0.186238
O O7 0.349550 0.315363 0.422941
O O8 0.321783 0.211442 0.328029
O O9 0.398649 0.834783 0.646413
O O10 0.500000 0.829744 0.000000
O O11 0.903866 0.897725 0.652975
O O12 0.000000 0.874977 0.500000
O O13 0.182293 0.500000 0.715680
O O14 0.137658 0.606673 0.635139
O O15 0.312610 0.572820 0.810543
O O16 0.000000 0.321369 0.500000
O O17 0.912306 0.000000 0.767602
O O18 0.000000 0.923018 0.000000
#
# Coordination Sequence:
#
# PCOD9193908 Si02
#       7
#     8   8   8   8   8   8   8
#     4  10  21  37  58  84 115 151 190 235 284 334
#     4   9  20  39  59  81 112 147 187 234 282 334
#     4  10  21  39  60  85 114 146 189 235 279 333
#     4  11  21  35  56  84 116 151 192 234 282 336
#     4  10  21  38  58  83 113 146 189 234 281 338
#     4  11  22  39  61  83 114 149 184 230 284 337
#     4  10  20  34  54  82 117 155 192 232 279 332
#
# _framework density 18.696154
#
# number of rings (size 3 to 8) (size 9 to 14) (size 15 to 20)
#    0.000    1.857    0.000    5.143    0.000    4.571 
#    0.000   15.714    0.000    0.000    0.000    0.000 
#    0.000    0.000    0.000    0.000    0.000    0.000 
#
# Total GULP energy -156380.002865 kJ/mol
# GULP energy per Si atom -5585.000102 kJ/mol
# Density = 1.865360 g / cm^3
# Si number density = 18.696154 Si / 1000 Ang^3
#
#
#
# Elastic Constant Matrix: (Units=GPa)
#
#
# Indices 1 2 3 4 5 6 
#
# 1 125.1986 62.8242 36.5700 0.0000 15.6841 0.0000
# 2 62.8242 109.4029 50.1981 0.0000 10.9371 0.0000
# 3 36.5700 50.1981 80.7310 0.0000 17.7409 0.0000
# 4 0.0000 0.0000 0.0000 12.8385 0.0000 -5.3747
# 5 15.6841 10.9371 17.7409 0.0000 35.4184 0.0000
# 6 0.0000 0.0000 0.0000 -5.3747 0.0000 17.5627
#
#
#
# Elastic Compliance Matrix: (Units=1/GPa)
#
#
# Indices 1 2 3 4 5 6 
#
# 1 0.011600 -0.005951 -0.000932 0.000000 -0.002832 0.000000
# 2 -0.005951 0.015842 -0.007482 0.000000 0.001491 0.000000
# 3 -0.000932 -0.007482 0.018949 0.000000 -0.006768 0.000000
# 4 0.000000 0.000000 0.000000 0.089336 0.000000 0.027340
# 5 -0.002832 0.001491 -0.006768 0.000000 0.032418 0.000000
# 6 0.000000 0.000000 0.000000 0.027340 0.000000 0.065306
#
#
# Mechanical properties :
#
#
# Convention : Reuss Voigt Hill
#
# Bulk Modulus (GPa) = 56.62377 68.27967 62.45172
# Shear Modulus (GPa) = 18.65194 24.21327 21.43261
#
# Velocity S-wave (km/s) = 3.16196 3.60265 3.38947
# Velocity P-wave (km/s) = 6.60929 7.34203 6.98528
#
# Compressibility (1/GPa) = 0.01766043
#
# Stress axis : x y z
#
# Youngs Moduli (GPa) = 86.20364 63.12432 52.77313
#
# Poissons Ratio (x) = 0.37562 0.04921
# Poissons Ratio (y) = 0.51296 0.39487
# Poissons Ratio (z) = 0.08038 0.47233
#
# Static dielectric constant tensor:
#      x y z
#    x 1.630690 0.000000 0.001910 
#    y 0.000000 1.642620 0.000000 
#    z 0.001910 0.000000 1.621740 
# 
# From -- ./inp_files/65934.got.cif
#   From: 2010.05.17/outbox.cif.g08.bks.cpg/sg12_33_cif.got.tgz:65934.got - 2010.06.03 13:09:07.
