data_PCOD9193580
_publ_section_title
;
Structure prediction by ZEFSAII (Michael W. Deem and Ramdas Pophale) SiO2 
 PCOD9193580
Probable space group: C 2/M
;
_chemical_formula_sum "Si O2"
_cell_formula_units_Z 56
_cell_length_a 16.724915
_cell_length_b 16.391482
_cell_length_c 20.395533
_cell_angle_alpha 90.000000
_cell_angle_beta 146.624156
_cell_angle_gamma 90.000000
_cell_volume 3075.965898
_symmetry_space_group_name_H-M "C 2/M"
_symmetry_group_IT_number 12
_symmetry_cell_setting 'monoclinic'
loop_
_space_group_symop_operation_xyz
x,y,z
-x,y,-z
-x,-y,-z
x,-y,z
1/2+x,1/2+y,z
1/2-x,1/2+y,-z
1/2-x,1/2-y,-z
1/2+x,1/2-y,z
loop_
_atom_site_type_symbol
_atom_site_label
_atom_site_fract_x
_atom_site_fract_y
_atom_site_fract_z
Si Si1 0.981819 0.832240 0.321273
Si Si2 0.275905 0.190429 0.611087
Si Si3 0.594841 0.500000 0.166976
Si Si4 0.075614 0.343305 0.752042
Si Si5 0.519625 0.907645 0.443240
Si Si6 0.155758 0.879813 0.326064
Si Si7 0.347802 0.408363 0.356299
Si Si8 0.274117 0.500000 0.891114
O O1 0.903745 0.754721 0.232601
O O2 0.881563 0.870740 0.308505
O O3 0.133908 0.809025 0.465163
O O4 0.034275 0.891843 0.298769
O O5 0.414358 0.147065 0.672133
O O6 0.320756 0.282649 0.658864
O O7 0.245067 0.146133 0.658245
O O8 0.628356 0.422934 0.237709
O O9 0.678573 0.500000 0.154200
O O10 0.425092 0.500000 0.033177
O O11 0.183124 0.417039 0.845903
O O12 0.064059 0.357710 0.666874
O O13 0.500000 0.867652 0.500000
O O14 0.688715 0.911609 0.543178
O O15 0.463262 0.000000 0.408128
O O16 0.500000 0.413138 0.500000
O O17 0.289837 0.500000 0.310175
#
# Coordination Sequence:
#
# PCOD9193580 Si02
#       8
#     8   8   4   8   8   8   8   4
#     4  10  20  34  53  88 124 151 185 227 280 353
#     4  10  20  34  53  88 124 151 185 227 280 353
#     4  11  26  43  59  82 113 151 200 249 292 340
#     4  11  20  35  56  83 115 149 183 234 292 342
#     4  11  20  27  48  87 117 144 182 225 291 365
#     4  11  20  35  56  83 115 149 183 234 292 342
#     4   9  20  32  48  75 122 163 181 208 265 339
#     4  11  26  43  59  82 113 151 200 249 292 340
#
# _framework density 18.205663000000001
#
# number of rings (size 3 to 8) (size 9 to 14) (size 15 to 20)
#    0.000    1.571    4.286    1.714    6.000    0.000 
#    0.000    2.857    0.000    0.000    0.000    1.000 
#    0.000    0.000    0.000    0.000    0.000    0.000 
#
# Total GULP energy -155894.589807 kJ/mol
# GULP energy per Si atom -5567.663922 kJ/mol
# Density = 1.816423 g / cm^3
# Si number density = 18.205663 Si / 1000 Ang^3
#
#
#
# Elastic Constant Matrix: (Units=GPa)
#
#
# Indices 1 2 3 4 5 6 
#
# 1 84.6345 28.3417 -9.1325 0.0010 -3.7927 0.0005
# 2 28.3417 80.8961 18.1171 0.0008 6.0039 0.0016
# 3 -9.1325 18.1171 49.9669 0.0016 5.7683 0.0051
# 4 0.0010 0.0008 0.0016 7.7668 0.0005 -5.2083
# 5 -3.7927 6.0039 5.7683 0.0005 19.5461 0.0023
# 6 0.0005 0.0016 0.0051 -5.2083 0.0023 96.5165
#
#
#
# Elastic Compliance Matrix: (Units=1/GPa)
#
#
# Indices 1 2 3 4 5 6 
#
# 1 0.014610 -0.006403 0.004594 -0.000003 0.003446 0.000000
# 2 -0.006403 0.016409 -0.006620 0.000001 -0.004329 0.000000
# 3 0.004594 -0.006620 0.023724 -0.000005 -0.004076 -0.000001
# 4 -0.000003 0.000001 -0.000005 0.133587 -0.000004 0.007209
# 5 0.003446 -0.004329 -0.004076 -0.000004 0.054362 -0.000001
# 6 0.000000 0.000000 -0.000001 0.007209 -0.000001 0.010750
#
#
# Mechanical properties :
#
#
# Convention : Reuss Voigt Hill
#
# Bulk Modulus (GPa) = 26.39617 32.23888 29.31752
# Shear Modulus (GPa) = 17.67235 36.64398 27.15816
#
# Velocity S-wave (km/s) = 3.11900 4.49127 3.86650
# Velocity P-wave (km/s) = 5.24416 6.68146 6.00596
#
# Compressibility (1/GPa) = 0.03788429
#
# Stress axis : x y z
#
# Youngs Moduli (GPa) = 68.44676 60.94316 42.15172
#
# Poissons Ratio (x) = 0.39023 -0.19365
# Poissons Ratio (y) = 0.43827 0.27905
# Poissons Ratio (z) = -0.31445 0.40345
#
# Static dielectric constant tensor:
#      x y z
#    x 1.674420 0.000000 0.015400 
#    y 0.000000 1.710840 0.000000 
#    z 0.015400 0.000000 1.616990 
# 
# From -- ./inp_files/316826.got.cif
#   From: 2010.05.17/outbox.cif.g08.bks.cpg/sg12_159_cif.got.tgz:316826.got - 2010.06.03 13:09:07.
