data_PCOD9193653
_publ_section_title
;
Structure prediction by ZEFSAII (Michael W. Deem and Ramdas Pophale) SiO2 
 PCOD9193653
Probable space group: C 2/M
;
_chemical_formula_sum "Si O2"
_cell_formula_units_Z 48
_cell_length_a 14.793590
_cell_length_b 10.710199
_cell_length_c 23.744848
_cell_angle_alpha 90.000000
_cell_angle_beta 140.869093
_cell_angle_gamma 90.000000
_cell_volume 2374.295644
_symmetry_space_group_name_H-M "C 2/M"
_symmetry_group_IT_number 12
_symmetry_cell_setting 'monoclinic'
loop_
_space_group_symop_operation_xyz
x,y,z
-x,y,-z
-x,-y,-z
x,-y,z
1/2+x,1/2+y,z
1/2-x,1/2+y,-z
1/2-x,1/2-y,-z
1/2+x,1/2-y,z
loop_
_atom_site_type_symbol
_atom_site_label
_atom_site_fract_x
_atom_site_fract_y
_atom_site_fract_z
Si Si1 0.158258 0.139356 0.104692
Si Si2 0.522969 0.858056 0.078743
Si Si3 0.606417 0.858070 0.605349
Si Si4 0.829094 0.639689 0.691222
Si Si5 0.860243 0.357222 0.102802
Si Si6 0.142949 0.357970 0.428460
O O1 0.137908 0.247392 0.140822
O O2 0.265962 0.189191 0.109220
O O3 0.201592 0.000000 0.145023
O O4 0.000000 0.125680 0.000000
O O5 0.385610 0.817559 0.050207
O O6 0.561492 0.000000 0.114472
O O7 0.500000 0.866441 0.000000
O O8 0.500000 0.848828 0.500000
O O9 0.723059 0.750521 0.655965
O O10 0.507601 0.841758 0.612572
O O11 0.665783 0.000000 0.634092
O O12 0.766931 0.500000 0.670393
O O13 0.867200 0.649012 0.643585
O O14 0.977261 0.647448 0.796350
O O15 0.806394 0.500000 0.071811
O O16 0.192709 0.500000 0.467094
O O17 0.250000 0.250000 0.500000
#
# Coordination Sequence:
#
# PCOD9193653 Si02
#       6
#     8   8   8   8   8   8
#     4   9  18  33  55  80 105 138 180 223 269 323
#     4   9  18  33  54  77 104 140 178 219 270 323
#     4  10  20  35  55  80 111 140 173 228 281 315
#     4  10  21  36  55  78 106 147 188 221 265 325
#     4   9  19  36  53  75 113 147 176 224 279 322
#     4  10  20  34  54  78 105 139 179 220 266 319
#
# _framework density 20.216522000000001
#
# number of rings (size 3 to 8) (size 9 to 14) (size 15 to 20)
#    0.000    2.500    1.667    0.000    0.000    5.000 
#    0.000    5.833    0.000    0.000    0.000    0.000 
#    0.000    0.000    0.000    0.000    0.000    0.000 
#
# Total GULP energy -133628.963929 kJ/mol
# GULP energy per Si atom -5567.873497 kJ/mol
# Density = 2.017051 g / cm^3
# Si number density = 20.216522 Si / 1000 Ang^3
#
#
#
# Elastic Constant Matrix: (Units=GPa)
#
#
# Indices 1 2 3 4 5 6 
#
# 1 155.6529 72.1194 4.5494 0.0000 5.0527 0.0000
# 2 72.1194 141.7199 12.6514 0.0000 11.2253 0.0000
# 3 4.5494 12.6514 26.7183 0.0000 -2.4181 0.0000
# 4 0.0000 0.0000 0.0000 5.7388 0.0000 19.2099
# 5 5.0527 11.2253 -2.4181 0.0000 21.1505 0.0000
# 6 0.0000 0.0000 0.0000 19.2099 0.0000 -60.9774
#
#
#
# Elastic Compliance Matrix: (Units=1/GPa)
#
#
# Indices 1 2 3 4 5 6 
#
# 1 0.008420 -0.004375 0.000673 0.000000 0.000388 0.000000
# 2 -0.004375 0.010061 -0.004454 0.000000 -0.004804 0.000000
# 3 0.000673 -0.004454 0.040035 0.000000 0.006780 0.000000
# 4 0.000000 0.000000 0.000000 0.084813 0.000000 0.026719
# 5 0.000388 -0.004804 0.006780 0.000000 0.050512 0.000000
# 6 0.000000 0.000000 0.000000 0.026719 0.000000 -0.007982
#
#
# Mechanical properties :
#
#
# Convention : Reuss Voigt Hill
#
# Bulk Modulus (GPa) = 23.69434 55.85908 39.77671
# Shear Modulus (GPa) = 23.12258 8.83376 15.97817
#
# Velocity S-wave (km/s) = 3.38560 2.09262 2.81437
# Velocity P-wave (km/s) = 5.19892 5.79044 5.50263
#
# Compressibility (1/GPa) = 0.04220417
#
# Stress axis : x y z
#
# Youngs Moduli (GPa) = 118.77078 99.39543 24.97795
#
# Poissons Ratio (x) = 0.43490 -0.01682
# Poissons Ratio (y) = 0.51967 0.11124
# Poissons Ratio (z) = -0.07997 0.44267
#
# Static dielectric constant tensor:
#      x y z
#    x 3.039180 0.000000 -0.140200 
#    y 0.000000 1.803750 0.000000 
#    z -0.140200 0.000000 1.770080 
# 
# From -- ./inp_files/261644.got.cif
#   From: 2010.05.17/outbox.cif.g08.bks.cpg/sg12_131_cif.got.tgz:261644.got - 2010.06.03 13:09:07.
