data_PCOD9193465
_publ_section_title
;
Structure prediction by ZEFSAII (Michael W. Deem and Ramdas Pophale) SiO2 
 PCOD9193465
Probable space group: C 2/M
;
_chemical_formula_sum "Si O2"
_cell_formula_units_Z 48
_cell_length_a 20.606959
_cell_length_b 12.995330
_cell_length_c 21.223809
_cell_angle_alpha 90.000000
_cell_angle_beta 152.494629
_cell_angle_gamma 90.000000
_cell_volume 2624.873297
_symmetry_space_group_name_H-M "C 2/M"
_symmetry_group_IT_number 12
_symmetry_cell_setting 'monoclinic'
loop_
_space_group_symop_operation_xyz
x,y,z
-x,y,-z
-x,-y,-z
x,-y,z
1/2+x,1/2+y,z
1/2-x,1/2+y,-z
1/2-x,1/2-y,-z
1/2+x,1/2-y,z
loop_
_atom_site_type_symbol
_atom_site_label
_atom_site_fract_x
_atom_site_fract_y
_atom_site_fract_z
Si Si1 0.276679 0.265377 0.925786
Si Si2 0.843708 0.291260 0.847441
Si Si3 0.427589 0.621292 0.821723
Si Si4 0.084295 0.621788 0.853559
Si Si5 0.131480 0.880978 0.571625
Si Si6 0.208440 0.266880 0.392515
O O1 0.261100 0.229281 0.840744
O O2 0.144941 0.321096 0.843986
O O3 0.409819 0.343395 0.042664
O O4 0.324804 0.169817 0.010870
O O5 0.865410 0.185176 0.827204
O O6 0.764985 0.367139 0.732648
O O7 0.000000 0.327840 0.000000
O O8 0.414934 0.500000 0.817773
O O9 0.347772 0.664945 0.691466
O O10 0.099469 0.500000 0.862635
O O11 0.923148 0.654576 0.724644
O O12 0.165026 0.813986 0.539352
O O13 0.000000 0.844626 0.500000
O O14 0.109764 0.000000 0.536275
O O15 0.250000 0.250000 0.500000
#
# Coordination Sequence:
#
# PCOD9193465 Si02
#       6
#     8   8   8   8   8   8
#     4   9  19  33  53  82 112 141 177 227 277 331
#     4   9  19  34  56  82 110 144 180 230 279 327
#     4   9  18  34  54  80 109 141 181 223 275 329
#     4  10  20  34  53  79 111 144 180 227 279 331
#     4  10  22  39  59  82 111 148 189 234 283 337
#     4  10  22  37  56  78 110 149 185 235 274 330
#
# _framework density 18.286597
#
# number of rings (size 3 to 8) (size 9 to 14) (size 15 to 20)
#    0.000    2.500    0.000    2.000    2.333    6.000 
#    0.000    0.000    0.000    2.000    0.000    0.000 
#    0.000    0.000    0.000    0.000    0.000    0.000 
#
# Total GULP energy -133914.627431 kJ/mol
# GULP energy per Si atom -5579.776143 kJ/mol
# Density = 1.824498 g / cm^3
# Si number density = 18.286597 Si / 1000 Ang^3
#
#
#
# Elastic Constant Matrix: (Units=GPa)
#
#
# Indices 1 2 3 4 5 6 
#
# 1 118.2208 9.3408 15.9827 -0.0003 -1.9822 -0.0001
# 2 9.3408 43.1537 -0.6072 -0.0007 11.2238 -0.0003
# 3 15.9827 -0.6072 38.9701 -0.0007 -11.2571 -0.0003
# 4 -0.0003 -0.0007 -0.0007 6.6220 -0.0003 5.2226
# 5 -1.9822 11.2238 -11.2571 -0.0003 31.7520 -0.0001
# 6 -0.0001 -0.0003 -0.0003 5.2226 -0.0001 14.7481
#
#
#
# Elastic Compliance Matrix: (Units=1/GPa)
#
#
# Indices 1 2 3 4 5 6 
#
# 1 0.009130 -0.002013 -0.003794 0.000000 -0.000064 0.000000
# 2 -0.002013 0.026176 -0.001644 0.000002 -0.009962 0.000000
# 3 -0.003794 -0.001644 0.030404 0.000004 0.011124 -0.000001
# 4 0.000000 0.000002 0.000004 0.209530 0.000003 -0.074198
# 5 -0.000064 -0.009962 0.011124 0.000003 0.038955 -0.000001
# 6 0.000000 0.000000 -0.000001 -0.074198 -0.000001 0.094080
#
#
# Mechanical properties :
#
#
# Convention : Reuss Voigt Hill
#
# Bulk Modulus (GPa) = 19.68188 27.75303 23.71745
# Shear Modulus (GPa) = 11.36070 22.33299 16.84684
#
# Velocity S-wave (km/s) = 2.49521 3.49847 3.03853
# Velocity P-wave (km/s) = 4.36896 5.61504 5.03073
#
# Compressibility (1/GPa) = 0.05080815
#
# Stress axis : x y z
#
# Youngs Moduli (GPa) = 109.53310 38.20227 32.89003
#
# Poissons Ratio (x) = 0.07690 0.12479
# Poissons Ratio (y) = 0.22049 0.05407
# Poissons Ratio (z) = 0.41558 0.06281
#
# Static dielectric constant tensor:
#      x y z
#    x 1.650010 0.000000 0.009260 
#    y 0.000000 1.586210 0.000000 
#    z 0.009260 0.000000 1.628450 
# 
# From -- ./inp_files/181881.got.cif
#   From: 2010.05.17/outbox.cif.g08.bks.cpg/sg12_91_cif.got.tgz:181881.got - 2010.06.03 13:09:07.
