data_PCOD9193572
_publ_section_title
;
Structure prediction by ZEFSAII (Michael W. Deem and Ramdas Pophale) SiO2 
 PCOD9193572
Probable space group: C 2/M
;
_chemical_formula_sum "Si O2"
_cell_formula_units_Z 56
_cell_length_a 20.614676
_cell_length_b 8.513543
_cell_length_c 19.903487
_cell_angle_alpha 90.000000
_cell_angle_beta 56.674876
_cell_angle_gamma 90.000000
_cell_volume 2918.751058
_symmetry_space_group_name_H-M "C 2/M"
_symmetry_group_IT_number 12
_symmetry_cell_setting 'monoclinic'
loop_
_space_group_symop_operation_xyz
x,y,z
-x,y,-z
-x,-y,-z
x,-y,z
1/2+x,1/2+y,z
1/2-x,1/2+y,-z
1/2-x,1/2-y,-z
1/2+x,1/2-y,z
loop_
_atom_site_type_symbol
_atom_site_label
_atom_site_fract_x
_atom_site_fract_y
_atom_site_fract_z
Si Si1 0.664030 0.686584 0.561409
Si Si2 0.916490 0.189328 0.018889
Si Si3 0.053129 0.689476 0.141698
Si Si4 0.283632 0.690162 0.198526
Si Si5 0.388637 0.808362 0.745231
Si Si6 0.520229 0.190020 0.564048
Si Si7 0.877151 0.688202 0.268533
O O1 0.664939 0.500000 0.559257
O O2 0.750000 0.750000 0.500000
O O3 0.603105 0.749705 0.541574
O O4 0.636012 0.744853 0.650137
O O5 0.846621 0.241391 0.106904
O O6 0.917470 0.000000 0.018947
O O7 0.908025 0.245512 0.947452
O O8 0.000000 0.244717 0.000000
O O9 0.056009 0.500000 0.138136
O O10 0.090659 0.741577 0.190812
O O11 0.962490 0.737601 0.194159
O O12 0.284193 0.500000 0.200366
O O13 0.196992 0.741540 0.228715
O O14 0.312881 0.752742 0.253162
O O15 0.454599 0.758137 0.654848
O O16 0.389503 0.000000 0.744883
O O17 0.500000 0.240263 0.500000
O O18 0.521704 0.000000 0.564258
O O19 0.876027 0.500000 0.272879
#
# Coordination Sequence:
#
# PCOD9193572 Si02
#       7
#     8   8   8   8   8   8   8
#     4  12  26  43  65  93 125 160 202 250 302 360
#     4  10  20  34  53  84 121 154 200 253 300 351
#     4  10  20  36  60  83 113 156 200 244 299 360
#     4  10  21  37  59  86 119 162 204 246 300 362
#     4   9  19  38  59  84 118 158 199 240 298 368
#     4  10  21  40  65  92 124 161 201 246 305 370
#     4  11  22  39  62  89 120 155 199 251 300 359
#
# _framework density 19.186288000000001
#
# number of rings (size 3 to 8) (size 9 to 14) (size 15 to 20)
#    0.000    1.714    2.857    1.714    2.000    2.286 
#    0.000    1.429    0.000    0.000    0.000    0.000 
#    0.000    0.000    0.000    0.000    0.000    0.000 
#
# Total GULP energy -156453.352838 kJ/mol
# GULP energy per Si atom -5587.619744 kJ/mol
# Density = 1.914262 g / cm^3
# Si number density = 19.186288 Si / 1000 Ang^3
#
#
#
# Elastic Constant Matrix: (Units=GPa)
#
#
# Indices 1 2 3 4 5 6 
#
# 1 173.3632 23.7375 59.7847 -0.0001 12.8158 -0.0001
# 2 23.7375 15.1167 19.4021 -0.0001 0.6720 -0.0005
# 3 59.7847 19.4021 99.4430 0.0000 18.1311 0.0000
# 4 -0.0001 -0.0001 0.0000 25.1923 0.0000 8.5923
# 5 12.8158 0.6720 18.1311 0.0000 39.9745 0.0000
# 6 -0.0001 -0.0005 0.0000 8.5923 0.0000 24.6737
#
#
#
# Elastic Compliance Matrix: (Units=1/GPa)
#
#
# Indices 1 2 3 4 5 6 
#
# 1 0.008073 -0.008884 -0.002917 0.000000 -0.001116 0.000000
# 2 -0.008884 0.099807 -0.015639 0.000000 0.008264 0.000002
# 3 -0.002917 -0.015639 0.015962 0.000000 -0.006042 0.000000
# 4 0.000000 0.000000 0.000000 0.045045 0.000000 -0.015686
# 5 -0.001116 0.008264 -0.006042 0.000000 0.027975 0.000000
# 6 0.000000 0.000002 0.000000 -0.015686 0.000000 0.045992
#
#
# Mechanical properties :
#
#
# Convention : Reuss Voigt Hill
#
# Bulk Modulus (GPa) = 14.50033 54.86349 34.68191
# Shear Modulus (GPa) = 15.58987 30.30134 22.94561
#
# Velocity S-wave (km/s) = 2.85362 3.97838 3.46199
# Velocity P-wave (km/s) = 4.29321 7.05412 5.83919
#
# Compressibility (1/GPa) = 0.06896393
#
# Stress axis : x y z
#
# Youngs Moduli (GPa) = 123.87056 10.01930 62.64712
#
# Poissons Ratio (x) = 0.08901 0.18272
# Poissons Ratio (y) = 1.10043 0.97974
# Poissons Ratio (z) = 0.36129 0.15669
#
# Static dielectric constant tensor:
#      x y z
#    x 1.647850 0.000000 -0.008500 
#    y 0.000000 1.657610 0.000000 
#    z -0.008500 0.000000 1.649310 
# 
# From -- ./inp_files/280986.got.cif
#   From: 2010.05.17/outbox.cif.g08.bks.cpg/sg12_141_cif.got.tgz:280986.got - 2010.06.03 13:09:07.
