data_PCOD9193104
_publ_section_title
;
Structure prediction by ZEFSAII (Michael W. Deem and Ramdas Pophale) SiO2 
 PCOD9193104
Probable space group: C 2/M
;
_chemical_formula_sum "Si O2"
_cell_formula_units_Z 64
_cell_length_a 14.876787
_cell_length_b 7.957888
_cell_length_c 27.760488
_cell_angle_alpha 90.000000
_cell_angle_beta 69.847150
_cell_angle_gamma 90.000000
_cell_volume 3085.293181
_symmetry_space_group_name_H-M "C 2/M"
_symmetry_group_IT_number 12
_symmetry_cell_setting 'monoclinic'
loop_
_space_group_symop_operation_xyz
x,y,z
-x,y,-z
-x,-y,-z
x,-y,z
1/2+x,1/2+y,z
1/2-x,1/2+y,-z
1/2-x,1/2-y,-z
1/2+x,1/2-y,z
loop_
_atom_site_type_symbol
_atom_site_label
_atom_site_fract_x
_atom_site_fract_y
_atom_site_fract_z
Si Si1 0.483488 0.701101 0.858008
Si Si2 0.388649 0.195081 0.518915
Si Si3 0.883332 0.797138 0.780449
Si Si4 0.911026 0.193526 0.413568
Si Si5 0.184050 0.797222 0.863592
Si Si6 0.755123 0.307217 0.375547
Si Si7 0.285790 0.799202 0.940860
Si Si8 0.396992 0.293852 0.669369
O O1 0.493883 0.500000 0.851719
O O2 0.451870 0.765997 0.810929
O O3 0.583120 0.766983 0.861428
O O4 0.392043 0.734394 0.908869
O O5 0.500000 0.245953 0.500000
O O6 0.363536 0.213472 0.467322
O O7 0.324378 0.298014 0.567435
O O8 0.380120 0.000000 0.534523
O O9 0.774694 0.749914 0.813995
O O10 0.906870 0.737663 0.722422
O O11 0.889437 0.000000 0.779049
O O12 0.844358 0.205837 0.379194
O O13 0.014278 0.263718 0.379702
O O14 0.920679 0.000000 0.426375
O O15 0.214185 0.737865 0.911641
O O16 0.177868 0.000000 0.866619
O O17 0.784376 0.500000 0.363073
O O18 0.701921 0.243465 0.337680
O O19 0.289242 0.000000 0.937142
O O20 0.250000 0.750000 0.000000
O O21 0.399456 0.500000 0.668081
#
# Coordination Sequence:
#
# PCOD9193104 Si02
#       8
#     8   8   8   8   8   8   8   8
#     4   9  18  34  56  78 105 141 181 219 264 315
#     4  11  22  37  58  82 107 137 177 219 262 319
#     4   9  18  35  57  79 103 137 179 221 262 315
#     4  11  22  38  58  81 108 141 178 217 267 322
#     4   9  19  35  54  79 108 142 178 222 271 316
#     4  11  22  38  57  79 108 142 177 215 265 320
#     4  10  20  34  52  77 112 145 181 221 266 314
#     4   9  20  37  56  78 108 141 173 214 269 321
#
# _framework density 20.743570999999999
#
# number of rings (size 3 to 8) (size 9 to 14) (size 15 to 20)
#    0.000    2.125    1.250    1.875    0.000    3.000 
#    0.000    6.250    0.000    0.000    0.000    0.000 
#    0.000    0.000    0.000    0.000    0.000    0.000 
#
# Total GULP energy -178671.680844 kJ/mol
# GULP energy per Si atom -5583.490026 kJ/mol
# Density = 2.069636 g / cm^3
# Si number density = 20.743571 Si / 1000 Ang^3
#
#
#
# Elastic Constant Matrix: (Units=GPa)
#
#
# Indices 1 2 3 4 5 6 
#
# 1 122.9723 6.3480 24.5026 0.0000 15.3911 0.0000
# 2 6.3480 23.0213 -6.0047 0.0000 3.9601 0.0000
# 3 24.5026 -6.0047 91.6307 0.0000 18.1555 0.0000
# 4 0.0000 0.0000 0.0000 16.4131 0.0000 -1.3923
# 5 15.3911 3.9601 18.1555 0.0000 13.4864 0.0000
# 6 0.0000 0.0000 0.0000 -1.3923 0.0000 19.5215
#
#
#
# Elastic Compliance Matrix: (Units=1/GPa)
#
#
# Indices 1 2 3 4 5 6 
#
# 1 0.009534 -0.001179 -0.000736 0.000000 -0.009544 0.000000
# 2 -0.001179 0.050281 0.008549 0.000000 -0.024928 0.000000
# 3 -0.000736 0.008549 0.016367 0.000000 -0.023704 0.000000
# 4 0.000000 0.000000 0.000000 0.061298 0.000000 0.004372
# 5 -0.009544 -0.024928 -0.023704 0.000000 0.124271 0.000000
# 6 0.000000 0.000000 0.000000 0.004372 0.000000 0.051537
#
#
# Mechanical properties :
#
#
# Convention : Reuss Voigt Hill
#
# Bulk Modulus (GPa) = 11.17929 31.92402 21.55165
# Shear Modulus (GPa) = 15.15907 24.06945 19.61426
#
# Velocity S-wave (km/s) = 2.70623 3.41006 3.07833
# Velocity P-wave (km/s) = 3.89434 5.56129 4.80072
#
# Compressibility (1/GPa) = 0.08945114
#
# Stress axis : x y z
#
# Youngs Moduli (GPa) = 104.88941 19.88820 61.09836
#
# Poissons Ratio (x) = 0.02345 0.04495
# Poissons Ratio (y) = 0.12368 -0.52236
# Poissons Ratio (z) = 0.07717 -0.17003
#
# Static dielectric constant tensor:
#      x y z
#    x 1.774430 0.000000 0.042620 
#    y 0.000000 1.740210 0.000000 
#    z 0.042620 0.000000 1.733930 
# 
# From -- ./inp_files/338775.got.cif
#   From: 2010.05.17/outbox.cif.g08.bks.cpg/sg12_170_cif.got.tgz:338775.got - 2010.06.03 13:09:07.
