data_PCOD9193155
_publ_section_title
;
Structure prediction by ZEFSAII (Michael W. Deem and Ramdas Pophale) SiO2 
 PCOD9193155
Probable space group: C 2/M
;
_chemical_formula_sum "Si O2"
_cell_formula_units_Z 64
_cell_length_a 26.525643
_cell_length_b 8.732004
_cell_length_c 14.987739
_cell_angle_alpha 90.000000
_cell_angle_beta 75.105914
_cell_angle_gamma 90.000000
_cell_volume 3354.857395
_symmetry_space_group_name_H-M "C 2/M"
_symmetry_group_IT_number 12
_symmetry_cell_setting 'monoclinic'
loop_
_space_group_symop_operation_xyz
x,y,z
-x,y,-z
-x,-y,-z
x,-y,z
1/2+x,1/2+y,z
1/2-x,1/2+y,-z
1/2-x,1/2-y,-z
1/2+x,1/2-y,z
loop_
_atom_site_type_symbol
_atom_site_label
_atom_site_fract_x
_atom_site_fract_y
_atom_site_fract_z
Si Si1 0.490194 0.318273 0.234410
Si Si2 0.299151 0.817913 0.534827
Si Si3 0.889423 0.179479 0.379266
Si Si4 0.159857 0.329510 0.762099
Si Si5 0.201345 0.683515 0.078577
Si Si6 0.717834 0.677695 0.264324
Si Si7 0.437344 0.821836 0.085617
Si Si8 0.416703 0.815542 0.899200
O O1 0.495110 0.500000 0.239319
O O2 0.448687 0.267619 0.329519
O O3 0.462059 0.273395 0.154251
O O4 0.547295 0.245073 0.197587
O O5 0.250000 0.750000 0.500000
O O6 0.353856 0.769572 0.465094
O O7 0.299397 0.753329 0.635055
O O8 0.293134 0.000000 0.537443
O O9 0.858217 0.205092 0.300728
O O10 0.890601 0.000000 0.401468
O O11 0.149736 0.500000 0.726603
O O12 0.219542 0.319897 0.758519
O O13 0.124284 0.319685 0.865223
O O14 0.203895 0.500000 0.070147
O O15 0.203745 0.734364 0.180693
O O16 0.143450 0.734843 0.074005
O O17 0.250000 0.750000 0.000000
O O18 0.700811 0.500000 0.267575
O O19 0.454287 0.000000 0.087056
O O20 0.442976 0.769582 0.981794
O O21 0.417113 0.000000 0.897009
#
# Coordination Sequence:
#
# PCOD9193155 Si02
#       8
#     8   8   8   8   8   8   8   8
#     4  10  21  34  52  81 113 145 185 236 290 343
#     4  12  23  36  57  87 120 155 192 236 291 348
#     4  10  20  34  52  79 115 150 184 227 284 346
#     4   9  17  30  50  75 108 148 187 226 275 339
#     4  11  24  42  62  86 116 154 200 246 290 340
#     4  11  22  37  58  85 117 155 196 238 289 348
#     4   9  17  31  51  76 107 146 188 230 279 339
#     4  10  21  37  56  77 106 148 194 238 285 343
#
# _framework density 19.076816999999998
#
# number of rings (size 3 to 8) (size 9 to 14) (size 15 to 20)
#    0.000    1.750    1.250    3.750    0.000    7.000 
#    0.000    2.500    0.000    0.750    0.000    5.250 
#    0.000    0.000    0.000    0.000    0.000    0.000 
#
# Total GULP energy -178496.445498 kJ/mol
# GULP energy per Si atom -5578.013922 kJ/mol
# Density = 1.903340 g / cm^3
# Si number density = 19.076817 Si / 1000 Ang^3
#
#
#
# Elastic Constant Matrix: (Units=GPa)
#
#
# Indices 1 2 3 4 5 6 
#
# 1 74.0565 21.0624 39.6097 0.0000 -26.5545 0.0000
# 2 21.0624 53.5949 20.0854 0.0000 -9.3092 0.0000
# 3 39.6097 20.0854 101.7845 0.0000 -20.3661 0.0000
# 4 0.0000 0.0000 0.0000 29.3169 0.0000 -5.5951
# 5 -26.5545 -9.3092 -20.3661 0.0000 35.0896 0.0000
# 6 0.0000 0.0000 0.0000 -5.5951 0.0000 23.8314
#
#
#
# Elastic Compliance Matrix: (Units=1/GPa)
#
#
# Indices 1 2 3 4 5 6 
#
# 1 0.022040 -0.004554 -0.005185 0.000000 0.012462 0.000000
# 2 -0.004554 0.021463 -0.002278 0.000000 0.000926 0.000000
# 3 -0.005185 -0.002278 0.012882 0.000000 0.002949 0.000000
# 4 0.000000 0.000000 0.000000 0.035710 0.000000 0.008384
# 5 0.012462 0.000926 0.002949 0.000000 0.039886 0.000000
# 6 0.000000 0.000000 0.000000 0.008384 0.000000 0.043930
#
#
# Mechanical properties :
#
#
# Convention : Reuss Voigt Hill
#
# Bulk Modulus (GPa) = 30.91081 43.43899 37.17490
# Shear Modulus (GPa) = 23.72736 27.55947 25.64341
#
# Velocity S-wave (km/s) = 3.53055 3.80499 3.67034
# Velocity P-wave (km/s) = 5.73221 6.49029 6.12300
#
# Compressibility (1/GPa) = 0.03235114
#
# Stress axis : x y z
#
# Youngs Moduli (GPa) = 45.37228 46.59264 77.62856
#
# Poissons Ratio (x) = 0.21218 0.40249
# Poissons Ratio (y) = 0.20662 0.17683
# Poissons Ratio (z) = 0.23525 0.10613
#
# Static dielectric constant tensor:
#      x y z
#    x 1.690450 0.000000 -0.034710 
#    y 0.000000 1.676990 0.000000 
#    z -0.034710 0.000000 1.693760 
# 
# From -- ./inp_files/243765.got.cif
#   From: 2010.05.17/outbox.cif.g08.bks.cpg/sg12_122_cif.got.tgz:243765.got - 2010.06.03 13:09:07.
