data_PCOD9193867
_publ_section_title
;
Structure prediction by ZEFSAII (Michael W. Deem and Ramdas Pophale) SiO2 
 PCOD9193867
Probable space group: C 2/M
;
_chemical_formula_sum "Si O2"
_cell_formula_units_Z 48
_cell_length_a 20.190722
_cell_length_b 7.602182
_cell_length_c 14.866502
_cell_angle_alpha 90.000000
_cell_angle_beta 114.545437
_cell_angle_gamma 90.000000
_cell_volume 2075.700519
_symmetry_space_group_name_H-M "C 2/M"
_symmetry_group_IT_number 12
_symmetry_cell_setting 'monoclinic'
loop_
_space_group_symop_operation_xyz
x,y,z
-x,y,-z
-x,-y,-z
x,-y,z
1/2+x,1/2+y,z
1/2-x,1/2+y,-z
1/2-x,1/2-y,-z
1/2+x,1/2-y,z
loop_
_atom_site_type_symbol
_atom_site_label
_atom_site_fract_x
_atom_site_fract_y
_atom_site_fract_z
Si Si1 0.857380 0.288101 0.071572
Si Si2 0.738040 0.798861 0.145879
Si Si3 0.015936 0.712698 0.108884
Si Si4 0.229287 0.300259 0.636925
Si Si5 0.571957 0.783749 0.487698
Si Si6 0.613783 0.795058 0.317826
O O1 0.846599 0.500000 0.069258
O O2 0.809448 0.207341 0.123278
O O3 0.942466 0.253364 0.123514
O O4 0.824831 0.230668 0.956460
O O5 0.753993 0.704254 0.247446
O O6 0.719156 0.000000 0.159145
O O7 0.024376 0.500000 0.102889
O O8 0.082962 0.779301 0.206426
O O9 0.000000 0.781568 0.000000
O O10 0.227864 0.500000 0.603598
O O11 0.148796 0.226415 0.574671
O O12 0.299205 0.216182 0.629184
O O13 0.500000 0.725831 0.500000
O O14 0.576715 0.723394 0.386877
O O15 0.570770 0.000000 0.488678
O O16 0.593979 0.000000 0.305256
#
# Coordination Sequence:
#
# PCOD9193867 Si02
#       6
#     8   8   8   8   8   8
#     4   9  18  33  54  81 112 147 192 237 276 326
#     4  10  20  34  54  81 114 149 187 231 283 339
#     4   9  17  30  53  83 111 144 187 228 270 328
#     4  11  22  36  58  83 113 147 187 235 284 341
#     4   9  20  37  59  86 109 140 193 244 282 330
#     4  10  20  36  60  84 112 149 187 234 286 334
#
# _framework density 23.124724000000001
#
# number of rings (size 3 to 8) (size 9 to 14) (size 15 to 20)
#    0.000    2.333    0.000    2.500    2.333    3.333 
#    0.000    1.667    0.000    4.500    0.000    0.000 
#    0.000    0.000    0.000    0.000    0.000    0.000 
#
# Total GULP energy -134065.311469 kJ/mol
# GULP energy per Si atom -5586.054645 kJ/mol
# Density = 2.307209 g / cm^3
# Si number density = 23.124724 Si / 1000 Ang^3
#
#
#
# Elastic Constant Matrix: (Units=GPa)
#
#
# Indices 1 2 3 4 5 6 
#
# 1 136.7547 2.0327 78.7378 0.0000 8.7597 0.0000
# 2 2.0327 42.1404 5.8999 0.0000 1.6344 0.0000
# 3 78.7378 5.8999 126.3465 0.0000 -1.6428 0.0000
# 4 0.0000 0.0000 0.0000 -2.0041 0.0000 4.5505
# 5 8.7597 1.6344 -1.6428 0.0000 31.8555 0.0000
# 6 0.0000 0.0000 0.0000 4.5505 0.0000 18.1677
#
#
#
# Elastic Compliance Matrix: (Units=1/GPa)
#
#
# Indices 1 2 3 4 5 6 
#
# 1 0.011825 0.000614 -0.007446 0.000000 -0.003667 0.000000
# 2 0.000614 0.023971 -0.001521 0.000000 -0.001477 0.000000
# 3 -0.007446 -0.001521 0.012662 0.000000 0.002778 0.000000
# 4 0.000000 0.000000 0.000000 -0.318081 0.000000 0.079670
# 5 -0.003667 -0.001477 0.002778 0.000000 0.032619 0.000000
# 6 0.000000 0.000000 0.000000 0.079670 0.000000 0.035088
#
#
# Mechanical properties :
#
#
# Convention : Reuss Voigt Hill
#
# Bulk Modulus (GPa) = 31.49362 53.17580 42.33471
# Shear Modulus (GPa) = -28.63249 24.17525 -2.22862
#
# Velocity S-wave (km/s) = -3.52259 3.23682 -0.98277
# Velocity P-wave (km/s) = 1.70184 6.08395 4.13026
#
# Compressibility (1/GPa) = 0.03175246
#
# Stress axis : x y z
#
# Youngs Moduli (GPa) = 84.56679 41.71728 78.97710
#
# Poissons Ratio (x) = -0.02563 0.58803
# Poissons Ratio (y) = -0.05195 0.12015
# Poissons Ratio (z) = 0.62965 0.06347
#
# Static dielectric constant tensor:
#      x y z
#    x 1.834530 0.000000 0.012260 
#    y 0.000000 1.882470 0.000000 
#    z 0.012260 0.000000 1.876550 
# 
# From -- ./inp_files/164316.got.cif
#   From: 2010.05.17/outbox.cif.g08.bks.cpg/sg12_83_cif.got.tgz:164316.got - 2010.06.03 13:09:07.
