data_PCOD9193818
_publ_section_title
;
Structure prediction by ZEFSAII (Michael W. Deem and Ramdas Pophale) SiO2 
 PCOD9193818
Probable space group: C 2/M
;
_chemical_formula_sum "Si O2"
_cell_formula_units_Z 64
_cell_length_a 28.934381
_cell_length_b 7.974888
_cell_length_c 12.752980
_cell_angle_alpha 90.000000
_cell_angle_beta 102.188198
_cell_angle_gamma 90.000000
_cell_volume 2876.399442
_symmetry_space_group_name_H-M "C 2/M"
_symmetry_group_IT_number 12
_symmetry_cell_setting 'monoclinic'
loop_
_space_group_symop_operation_xyz
x,y,z
-x,y,-z
-x,-y,-z
x,-y,z
1/2+x,1/2+y,z
1/2-x,1/2+y,-z
1/2-x,1/2-y,-z
1/2+x,1/2-y,z
loop_
_atom_site_type_symbol
_atom_site_label
_atom_site_fract_x
_atom_site_fract_y
_atom_site_fract_z
Si Si1 0.940247 0.195353 0.582820
Si Si2 0.283339 0.201206 0.794756
Si Si3 0.512925 0.805491 0.788599
Si Si4 0.363670 0.301371 0.700212
Si Si5 0.677328 0.699221 0.775123
Si Si6 0.919235 0.697772 0.346319
Si Si7 0.356475 0.796080 0.010469
Si Si8 0.061862 0.303137 0.089604
O O1 0.887165 0.232598 0.599224
O O2 0.942497 0.227323 0.461096
O O3 0.975147 0.297662 0.674453
O O4 0.950356 0.000000 0.608842
O O5 0.310891 0.246672 0.701653
O O6 0.230121 0.265410 0.779751
O O7 0.281728 0.000000 0.802085
O O8 0.317397 0.259834 0.906015
O O9 0.558351 0.731558 0.751145
O O10 0.485543 0.732299 0.877163
O O11 0.523214 0.000000 0.818741
O O12 0.367169 0.500000 0.720708
O O13 0.398294 0.212621 0.800411
O O14 0.677806 0.500000 0.760247
O O15 0.636471 0.772267 0.682596
O O16 0.661329 0.738480 0.885838
O O17 0.928384 0.500000 0.351939
O O18 0.358190 0.000000 0.011484
O O19 0.408757 0.737837 0.996655
O O20 0.052919 0.500000 0.068262
#
# Coordination Sequence:
#
# PCOD9193818 Si02
#       8
#     8   8   8   8   8   8   8   8
#     4  10  20  34  54  81 109 135 166 208 259 309
#     4   9  19  35  55  78 103 134 171 210 254 305
#     4   9  18  34  56  80 104 134 174 214 252 299
#     4   9  17  29  50  80 107 130 162 207 255 303
#     4  11  23  37  52  73 104 139 173 213 260 304
#     4  11  23  37  53  74 102 139 180 216 252 300
#     4   9  17  32  55  80 103 130 167 209 255 307
#     4   8  15  30  52  77 105 133 164 208 255 298
#
# _framework density 22.250038
#
# number of rings (size 3 to 8) (size 9 to 14) (size 15 to 20)
#    0.000    2.500    0.000    3.000    0.000    7.000 
#    0.000    1.250    0.000    3.750    0.000    0.000 
#    0.000    0.000    0.000    0.000    0.000    0.000 
#
# Total GULP energy -178587.040092 kJ/mol
# GULP energy per Si atom -5580.845003 kJ/mol
# Density = 2.219940 g / cm^3
# Si number density = 22.250038 Si / 1000 Ang^3
#
#
#
# Elastic Constant Matrix: (Units=GPa)
#
#
# Indices 1 2 3 4 5 6 
#
# 1 157.2544 7.2904 33.4383 0.0000 -20.3043 0.0000
# 2 7.2904 19.4488 5.0089 0.0000 -2.0483 0.0000
# 3 33.4383 5.0089 79.1491 0.0000 -16.3343 0.0000
# 4 0.0000 0.0000 0.0000 17.7028 0.0000 -7.1267
# 5 -20.3043 -2.0483 -16.3343 0.0000 30.8055 0.0000
# 6 0.0000 0.0000 0.0000 -7.1267 0.0000 -2.2402
#
#
#
# Elastic Compliance Matrix: (Units=1/GPa)
#
#
# Indices 1 2 3 4 5 6 
#
# 1 0.007384 -0.001809 -0.002274 0.000000 0.003541 0.000000
# 2 -0.001809 0.052815 -0.002357 0.000000 0.001069 0.000000
# 3 -0.002274 -0.002357 0.015050 0.000000 0.006324 0.000000
# 4 0.000000 0.000000 0.000000 0.024768 0.000000 -0.078793
# 5 0.003541 0.001069 0.006324 0.000000 0.038220 0.000000
# 6 0.000000 0.000000 0.000000 -0.078793 0.000000 -0.195723
#
#
# Mechanical properties :
#
#
# Convention : Reuss Voigt Hill
#
# Bulk Modulus (GPa) = 16.03421 38.59194 27.31308
# Shear Modulus (GPa) = -209.93676 23.26126 -93.33775
#
# Velocity S-wave (km/s) = -9.72411 3.23685 -6.48387
# Velocity P-wave (km/s) = 10.90210 5.59928 6.61452
#
# Compressibility (1/GPa) = 0.06236664
#
# Stress axis : x y z
#
# Youngs Moduli (GPa) = 135.43285 18.93401 66.44736
#
# Poissons Ratio (x) = 0.03426 0.15112
# Poissons Ratio (y) = 0.24502 0.15664
# Poissons Ratio (z) = 0.30801 0.04463
#
# Static dielectric constant tensor:
#      x y z
#    x 1.877670 0.000000 -0.036010 
#    y 0.000000 1.858040 0.000000 
#    z -0.036010 0.000000 1.814140 
# 
# From -- ./inp_files/187525.got.cif
#   From: 2010.05.17/outbox.cif.g08.bks.cpg/sg12_94_cif.got.tgz:187525.got - 2010.06.03 13:09:07.
