data_PCOD9193469
_publ_section_title
;
Structure prediction by ZEFSAII (Michael W. Deem and Ramdas Pophale) SiO2 
 PCOD9193469
Probable space group: C 2/M
;
_chemical_formula_sum "Si O2"
_cell_formula_units_Z 64
_cell_length_a 28.102553
_cell_length_b 9.519010
_cell_length_c 22.043154
_cell_angle_alpha 90.000000
_cell_angle_beta 147.531486
_cell_angle_gamma 90.000000
_cell_volume 3165.577638
_symmetry_space_group_name_H-M "C 2/M"
_symmetry_group_IT_number 12
_symmetry_cell_setting 'monoclinic'
loop_
_space_group_symop_operation_xyz
x,y,z
-x,y,-z
-x,-y,-z
x,-y,z
1/2+x,1/2+y,z
1/2-x,1/2+y,-z
1/2-x,1/2-y,-z
1/2+x,1/2-y,z
loop_
_atom_site_type_symbol
_atom_site_label
_atom_site_fract_x
_atom_site_fract_y
_atom_site_fract_z
Si Si1 0.722340 0.837510 0.633615
Si Si2 0.380717 0.839860 0.290975
Si Si3 0.494450 0.339152 0.736340
Si Si4 0.660663 0.160509 0.897171
Si Si5 0.376640 0.667856 0.719414
Si Si6 0.305394 0.336598 0.851338
Si Si7 0.547110 0.661863 0.451931
Si Si8 0.521170 0.162928 0.951024
O O1 0.777481 0.792998 0.633432
O O2 0.791044 0.830993 0.763499
O O3 0.638588 0.743229 0.559264
O O4 0.693269 0.000000 0.596082
O O5 0.363220 0.842972 0.199990
O O6 0.288825 0.793607 0.221993
O O7 0.463809 0.740491 0.392051
O O8 0.398915 0.000000 0.331013
O O9 0.522214 0.500000 0.779645
O O10 0.576740 0.236632 0.837779
O O11 0.409179 0.307427 0.685928
O O12 0.470586 0.332558 0.639841
O O13 0.672598 0.000000 0.930934
O O14 0.750000 0.250000 0.000000
O O15 0.383702 0.500000 0.739005
O O16 0.446085 0.752899 0.834616
O O17 0.321840 0.500000 0.885929
O O18 0.385078 0.239168 0.957475
O O19 0.552565 0.500000 0.476391
O O20 0.523587 0.000000 0.935213
O O21 0.500000 0.168749 0.000000
#
# Coordination Sequence:
#
# PCOD9193469 Si02
#       8
#     8   8   8   8   8   8   8   8
#     4  10  21  37  59  84 109 144 190 235 278 330
#     4   9  20  38  58  80 108 145 189 232 273 326
#     4   9  20  38  57  80 110 146 188 232 277 330
#     4  10  20  34  53  79 111 146 185 230 280 333
#     4  10  21  38  60  83 111 149 194 232 270 332
#     4  10  21  38  60  84 110 148 194 231 271 330
#     4  10  21  38  59  82 113 148 182 231 290 335
#     4  11  23  37  55  83 120 152 181 229 285 333
#
# _framework density 20.217479999999998
#
# number of rings (size 3 to 8) (size 9 to 14) (size 15 to 20)
#    0.000    2.125    1.250    1.125    1.750    4.500 
#    0.000    2.500    0.000    0.000    0.000    0.000 
#    0.000    0.000    0.000    0.000    0.000    0.000 
#
# Total GULP energy -178741.532201 kJ/mol
# GULP energy per Si atom -5585.672881 kJ/mol
# Density = 2.017146 g / cm^3
# Si number density = 20.217480 Si / 1000 Ang^3
#
#
#
# Elastic Constant Matrix: (Units=GPa)
#
#
# Indices 1 2 3 4 5 6 
#
# 1 77.4806 20.4629 5.8716 0.0000 29.2349 0.0000
# 2 20.4629 81.0073 49.8842 0.0000 29.5377 0.0000
# 3 5.8716 49.8842 62.6068 0.0000 29.0634 0.0000
# 4 0.0000 0.0000 0.0000 24.1631 0.0000 2.8599
# 5 29.2349 29.5377 29.0634 0.0000 35.3257 0.0000
# 6 0.0000 0.0000 0.0000 2.8599 0.0000 20.2521
#
#
#
# Elastic Compliance Matrix: (Units=1/GPa)
#
#
# Indices 1 2 3 4 5 6 
#
# 1 0.023200 -0.004733 0.014029 0.000000 -0.026784 0.000000
# 2 -0.004733 0.026349 -0.019644 0.000000 -0.001953 0.000000
# 3 0.014029 -0.019644 0.045422 0.000000 -0.032555 0.000000
# 4 0.000000 0.000000 0.000000 0.042089 0.000000 -0.005944
# 5 -0.026784 -0.001953 -0.032555 0.000000 0.078891 0.000000
# 6 0.000000 0.000000 0.000000 -0.005944 0.000000 0.050217
#
#
# Mechanical properties :
#
#
# Convention : Reuss Voigt Hill
#
# Bulk Modulus (GPa) = 13.46360 41.50357 27.48359
# Shear Modulus (GPa) = 16.04512 25.60657 20.82584
#
# Velocity S-wave (km/s) = 2.82019 3.56273 3.21298
# Velocity P-wave (km/s) = 4.15674 6.12350 5.23334
#
# Compressibility (1/GPa) = 0.07427433
#
# Stress axis : x y z
#
# Youngs Moduli (GPa) = 43.10438 37.95176 22.01588
#
# Poissons Ratio (x) = 0.17964 -0.30887
# Poissons Ratio (y) = 0.20403 0.43248
# Poissons Ratio (z) = -0.60473 0.74553
#
# Static dielectric constant tensor:
#      x y z
#    x 1.759050 0.000000 -0.024730 
#    y 0.000000 1.694790 0.000000 
#    z -0.024730 0.000000 1.678260 
# 
# From -- ./inp_files/249023.got.cif
#   From: 2010.05.17/outbox.cif.g08.bks.cpg/sg12_125_cif.got.tgz:249023.got - 2010.06.03 13:09:07.
