data_PCOD9193891
_publ_section_title
;
Structure prediction by ZEFSAII (Michael W. Deem and Ramdas Pophale) SiO2 
 PCOD9193891
Probable space group: C 2/M
;
_chemical_formula_sum "Si O2"
_cell_formula_units_Z 48
_cell_length_a 24.796489
_cell_length_b 9.888805
_cell_length_c 10.999802
_cell_angle_alpha 90.000000
_cell_angle_beta 51.555700
_cell_angle_gamma 90.000000
_cell_volume 2112.509839
_symmetry_space_group_name_H-M "C 2/M"
_symmetry_group_IT_number 12
_symmetry_cell_setting 'monoclinic'
loop_
_space_group_symop_operation_xyz
x,y,z
-x,y,-z
-x,-y,-z
x,-y,z
1/2+x,1/2+y,z
1/2-x,1/2+y,-z
1/2-x,1/2-y,-z
1/2+x,1/2-y,z
loop_
_atom_site_type_symbol
_atom_site_label
_atom_site_fract_x
_atom_site_fract_y
_atom_site_fract_z
Si Si1 0.120502 0.344904 0.592117
Si Si2 0.675065 0.353785 0.159631
Si Si3 0.838643 0.846551 0.084058
Si Si4 0.239638 0.844625 0.340358
Si Si5 0.999373 0.152123 0.855458
Si Si6 0.572574 0.148516 0.383582
O O1 0.128400 0.500000 0.628671
O O2 0.187814 0.247909 0.492609
O O3 0.103828 0.361300 0.472880
O O4 0.055056 0.262788 0.736157
O O5 0.637990 0.500000 0.209028
O O6 0.712068 0.354659 0.238433
O O7 0.625323 0.228175 0.230822
O O8 0.706143 0.346976 0.979656
O O9 0.810214 0.737648 0.218883
O O10 0.833451 0.000000 0.140904
O O11 0.918771 0.822245 0.939972
O O12 0.244769 0.000000 0.376299
O O13 0.017735 0.000000 0.784261
O O14 0.000000 0.148552 0.000000
O O15 0.500000 0.221817 0.500000
O O16 0.559450 0.000000 0.349280
#
# Coordination Sequence:
#
# PCOD9193891 Si02
#       6
#     8   8   8   8   8   8
#     4  10  20  35  56  80 108 142 179 221 269 321
#     4   9  18  30  47  75 109 144 177 211 255 311
#     4  10  20  35  55  80 111 145 182 223 267 316
#     4  10  20  34  54  82 115 147 179 215 261 320
#     4  10  22  40  60  81 106 138 179 229 279 322
#     4   9  17  28  44  71 106 141 176 214 257 309
#
# _framework density 22.721786999999999
#
# number of rings (size 3 to 8) (size 9 to 14) (size 15 to 20)
#    0.000    2.333    0.000    2.500    0.000    3.333 
#    0.000    0.833    0.000    0.000    0.000    0.000 
#    0.000    0.000    0.000    0.000    0.000    0.000 
#
# Total GULP energy -133734.659670 kJ/mol
# GULP energy per Si atom -5572.277486 kJ/mol
# Density = 2.267007 g / cm^3
# Si number density = 22.721787 Si / 1000 Ang^3
#
#
#
# Elastic Constant Matrix: (Units=GPa)
#
#
# Indices 1 2 3 4 5 6 
#
# 1 69.0293 2.1916 1.0387 0.0000 -0.6408 0.0000
# 2 2.1916 192.2459 105.8818 0.0000 -13.0257 0.0000
# 3 1.0387 105.8818 103.3680 0.0000 -13.1291 0.0000
# 4 0.0000 0.0000 0.0000 -64.8884 0.0000 -57.3305
# 5 -0.6408 -13.0257 -13.1291 0.0000 26.0130 0.0000
# 6 0.0000 0.0000 0.0000 -57.3305 0.0000 -13.8082
#
#
#
# Elastic Compliance Matrix: (Units=1/GPa)
#
#
# Indices 1 2 3 4 5 6 
#
# 1 0.014494 -0.000197 0.000095 0.000000 0.000306 0.000000
# 2 -0.000197 0.011938 -0.012254 0.000000 -0.000211 0.000000
# 3 0.000095 -0.012254 0.022915 0.000000 0.005432 0.000000
# 4 0.000000 0.000000 0.000000 0.005776 0.000000 -0.023980
# 5 0.000306 -0.000211 0.005432 0.000000 0.041086 0.000000
# 6 0.000000 0.000000 0.000000 -0.023980 0.000000 0.027141
#
#
# Mechanical properties :
#
#
# Convention : Reuss Voigt Hill
#
# Bulk Modulus (GPa) = 40.59052 64.76305 52.67678
# Shear Modulus (GPa) = 31.99531 6.49868 19.24699
#
# Velocity S-wave (km/s) = 3.75658 1.69302 2.91361
# Velocity P-wave (km/s) = 6.05960 5.69089 5.87814
#
# Compressibility (1/GPa) = 0.02463630
#
# Stress axis : x y z
#
# Youngs Moduli (GPa) = 68.99277 83.76303 43.63993
#
# Poissons Ratio (x) = 0.01647 -0.00413
# Poissons Ratio (y) = 0.01356 0.53475
# Poissons Ratio (z) = -0.00653 1.02640
#
# Static dielectric constant tensor:
#      x y z
#    x 1.928130 0.000000 -0.019480 
#    y 0.000000 1.868090 0.000000 
#    z -0.019480 0.000000 1.825620 
# 
# From -- ./inp_files/250744.got.cif
#   From: 2010.05.17/outbox.cif.g08.bks.cpg/sg12_126_cif.got.tgz:250744.got - 2010.06.03 13:09:07.
