data_PCOD9193379
_publ_section_title
;
Structure prediction by ZEFSAII (Michael W. Deem and Ramdas Pophale) SiO2 
 PCOD9193379
Probable space group: C 2/M
;
_chemical_formula_sum "Si O2"
_cell_formula_units_Z 64
_cell_length_a 14.640008
_cell_length_b 7.771297
_cell_length_c 26.597008
_cell_angle_alpha 90.000000
_cell_angle_beta 117.405253
_cell_angle_gamma 90.000000
_cell_volume 2686.393513
_symmetry_space_group_name_H-M "C 2/M"
_symmetry_group_IT_number 12
_symmetry_cell_setting 'monoclinic'
loop_
_space_group_symop_operation_xyz
x,y,z
-x,y,-z
-x,-y,-z
x,-y,z
1/2+x,1/2+y,z
1/2-x,1/2+y,-z
1/2-x,1/2-y,-z
1/2+x,1/2-y,z
loop_
_atom_site_type_symbol
_atom_site_label
_atom_site_fract_x
_atom_site_fract_y
_atom_site_fract_z
Si Si1 0.549565 0.698212 0.463258
Si Si2 0.656535 0.205181 0.624630
Si Si3 0.401243 0.209794 0.007776
Si Si4 0.677492 0.202396 0.908521
Si Si5 0.323642 0.289611 0.590959
Si Si6 0.668763 0.802808 0.252002
Si Si7 0.507804 0.696641 0.284512
Si Si8 0.204050 0.302752 0.805239
O O1 0.500000 0.783591 0.500000
O O2 0.574801 0.500000 0.481467
O O3 0.452069 0.702287 0.400696
O O4 0.642036 0.777373 0.454697
O O5 0.715764 0.260487 0.588277
O O6 0.734564 0.247903 0.688978
O O7 0.641099 0.000000 0.619848
O O8 0.294857 0.276285 0.957055
O O9 0.397659 0.000000 0.006408
O O10 0.500000 0.262873 0.000000
O O11 0.395478 0.267664 0.064840
O O12 0.677457 0.278271 0.852546
O O13 0.651922 0.000000 0.896857
O O14 0.324524 0.500000 0.589822
O O15 0.410589 0.237876 0.653647
O O16 0.570997 0.701528 0.248130
O O17 0.705889 0.780982 0.204530
O O18 0.644506 0.000000 0.255685
O O19 0.481609 0.500000 0.290042
O O20 0.402222 0.796554 0.252590
O O21 0.235111 0.500000 0.820595
#
# Coordination Sequence:
#
# PCOD9193379 Si02
#       8
#     8   8   8   8   8   8   8   8
#     4  10  20  34  53  78 107 139 176 218 268 328
#     4  10  20  36  56  76 103 139 179 224 273 327
#     4   9  18  35  58  80 105 141 183 225 269 317
#     4   9  20  36  53  79 112 143 179 223 267 317
#     4   8  17  34  53  73 102 138 172 212 262 316
#     4  11  22  37  57  81 109 143 185 230 279 332
#     4  10  20  36  57  81 110 146 187 227 272 327
#     4  11  22  36  54  81 118 152 184 224 271 326
#
# _framework density 23.82376
#
# number of rings (size 3 to 8) (size 9 to 14) (size 15 to 20)
#    0.000    2.250    0.000    3.750    0.000    4.000 
#    0.000    4.375    0.000    0.000    0.000    0.000 
#    0.000    0.000    0.000    0.000    0.000    0.000 
#
# Total GULP energy -178792.123096 kJ/mol
# GULP energy per Si atom -5587.253847 kJ/mol
# Density = 2.376954 g / cm^3
# Si number density = 23.823760 Si / 1000 Ang^3
#
#
#
# Elastic Constant Matrix: (Units=GPa)
#
#
# Indices 1 2 3 4 5 6 
#
# 1 136.4592 -13.2006 34.3566 0.0000 -50.1265 0.0000
# 2 -13.2006 59.6641 3.0934 0.0000 -10.2632 0.0000
# 3 34.3566 3.0934 48.9519 0.0000 -32.6167 0.0000
# 4 0.0000 0.0000 0.0000 14.0688 0.0000 4.5970
# 5 -50.1265 -10.2632 -32.6167 0.0000 38.6324 0.0000
# 6 0.0000 0.0000 0.0000 4.5970 0.0000 17.8530
#
#
#
# Elastic Compliance Matrix: (Units=1/GPa)
#
#
# Indices 1 2 3 4 5 6 
#
# 1 0.018613 0.009590 0.009418 0.000000 0.034649 0.000000
# 2 0.009590 0.022963 0.009541 0.000000 0.026599 0.000000
# 3 0.009418 0.009541 0.052683 0.000000 0.059234 0.000000
# 4 0.000000 0.000000 0.000000 0.077609 0.000000 -0.019984
# 5 0.034649 0.026599 0.059234 0.000000 0.127920 0.000000
# 6 0.000000 0.000000 0.000000 -0.019984 0.000000 0.061159
#
#
# Mechanical properties :
#
#
# Convention : Reuss Voigt Hill
#
# Bulk Modulus (GPa) = 6.60688 32.61932 19.61310
# Shear Modulus (GPa) = 14.11230 28.83258 21.47244
#
# Velocity S-wave (km/s) = 2.43649 3.48263 3.00543
# Velocity P-wave (km/s) = 3.27025 5.46747 4.50488
#
# Compressibility (1/GPa) = 0.15135729
#
# Stress axis : x y z
#
# Youngs Moduli (GPa) = 53.72632 43.54802 18.98145
#
# Poissons Ratio (x) = -0.41763 -0.17876
# Poissons Ratio (y) = -0.51524 -0.18111
# Poissons Ratio (z) = -0.50597 -0.41551
#
# Static dielectric constant tensor:
#      x y z
#    x 1.892180 0.000000 -0.073600 
#    y 0.000000 1.824950 0.000000 
#    z -0.073600 0.000000 1.983490 
# 
# From -- ./inp_files/359950.got.cif
#   From: 2010.05.17/outbox.cif.g08.bks.cpg/sg12_180_cif.got.tgz:359950.got - 2010.06.03 13:09:07.
