data_PCOD9193478
_publ_section_title
;
Structure prediction by ZEFSAII (Michael W. Deem and Ramdas Pophale) SiO2 
 PCOD9193478
Probable space group: C 2/M
;
_chemical_formula_sum "Si O2"
_cell_formula_units_Z 48
_cell_length_a 14.877248
_cell_length_b 8.433326
_cell_length_c 25.375838
_cell_angle_alpha 90.000000
_cell_angle_beta 40.801685
_cell_angle_gamma 90.000000
_cell_volume 2080.412744
_symmetry_space_group_name_H-M "C 2/M"
_symmetry_group_IT_number 12
_symmetry_cell_setting 'monoclinic'
loop_
_space_group_symop_operation_xyz
x,y,z
-x,y,-z
-x,-y,-z
x,-y,z
1/2+x,1/2+y,z
1/2-x,1/2+y,-z
1/2-x,1/2-y,-z
1/2+x,1/2-y,z
loop_
_atom_site_type_symbol
_atom_site_label
_atom_site_fract_x
_atom_site_fract_y
_atom_site_fract_z
Si Si1 0.162640 0.311018 0.871616
Si Si2 0.579483 0.688980 0.644814
Si Si3 0.914304 0.314091 0.819217
Si Si4 0.904608 0.814573 0.934982
Si Si5 0.824821 0.191768 0.694480
Si Si6 0.340822 0.308522 0.571837
O O1 0.179001 0.500000 0.871081
O O2 0.256198 0.226242 0.873774
O O3 0.233266 0.259516 0.784681
O O4 0.003616 0.269606 0.933388
O O5 0.572055 0.500000 0.653536
O O6 0.504489 0.765793 0.728800
O O7 0.482538 0.732949 0.638708
O O8 0.736349 0.742870 0.575240
O O9 0.929640 0.500000 0.823138
O O10 0.957373 0.220673 0.852262
O O11 0.904044 0.000000 0.946177
O O12 0.750000 0.750000 0.000000
O O13 0.787582 0.247199 0.652997
O O14 0.815486 0.000000 0.697015
O O15 0.500000 0.261711 0.500000
O O16 0.336280 0.500000 0.570934
#
# Coordination Sequence:
#
# PCOD9193478 Si02
#       6
#     8   8   8   8   8   8
#     4  10  20  38  62  87 115 151 194 242 291 341
#     4  10  20  36  57  80 108 145 189 237 287 341
#     4  11  22  39  62  88 116 149 191 241 292 344
#     4  12  25  41  60  87 120 156 194 233 284 344
#     4   8  17  34  55  78 108 144 181 226 281 335
#     4  10  20  34  53  79 112 150 189 231 285 349
#
# _framework density 23.072347000000001
#
# number of rings (size 3 to 8) (size 9 to 14) (size 15 to 20)
#    0.000    1.833    0.000    6.000    0.000    3.000 
#    0.000    7.500    0.000    0.000    0.000    0.000 
#    0.000    0.000    0.000    0.000    0.000    0.000 
#
# Total GULP energy -134228.051665 kJ/mol
# GULP energy per Si atom -5592.835486 kJ/mol
# Density = 2.301983 g / cm^3
# Si number density = 23.072347 Si / 1000 Ang^3
#
#
#
# Elastic Constant Matrix: (Units=GPa)
#
#
# Indices 1 2 3 4 5 6 
#
# 1 124.7869 -0.7404 14.3934 0.0000 -27.2684 0.0000
# 2 -0.7404 52.3712 0.4852 0.0000 -6.5389 0.0001
# 3 14.3934 0.4852 47.2275 0.0000 -20.4273 0.0000
# 4 0.0000 0.0000 0.0000 22.6027 0.0000 -11.4514
# 5 -27.2684 -6.5389 -20.4273 0.0000 43.9954 0.0000
# 6 0.0000 0.0001 0.0000 -11.4514 0.0000 32.5792
#
#
#
# Elastic Compliance Matrix: (Units=1/GPa)
#
#
# Indices 1 2 3 4 5 6 
#
# 1 0.009313 0.000850 -0.000370 0.000000 0.005727 0.000000
# 2 0.000850 0.019599 0.001286 0.000000 0.004037 0.000000
# 3 -0.000370 0.001286 0.026599 0.000000 0.012312 0.000000
# 4 0.000000 0.000000 0.000000 0.053828 0.000000 0.018920
# 5 0.005727 0.004037 0.012312 0.000000 0.032595 0.000000
# 6 0.000000 0.000000 0.000000 0.018920 0.000000 0.037345
#
#
# Mechanical properties :
#
#
# Convention : Reuss Voigt Hill
#
# Bulk Modulus (GPa) = 16.93729 28.07357 22.50543
# Shear Modulus (GPa) = 25.58486 33.85194 29.71840
#
# Velocity S-wave (km/s) = 3.33362 3.83457 3.59284
# Velocity P-wave (km/s) = 4.70896 5.63909 5.19488
#
# Compressibility (1/GPa) = 0.05904133
#
# Stress axis : x y z
#
# Youngs Moduli (GPa) = 107.37960 51.02414 37.59561
#
# Poissons Ratio (x) = -0.04337 0.01391
# Poissons Ratio (y) = -0.09128 -0.04833
# Poissons Ratio (z) = 0.03973 -0.06559
#
# Static dielectric constant tensor:
#      x y z
#    x 1.873350 0.000000 0.003580 
#    y 0.000000 1.779150 0.000000 
#    z 0.003580 0.000000 1.966650 
# 
# From -- ./inp_files/360212.got.cif
#   From: 2010.05.17/outbox.cif.g08.bks.cpg/sg12_181_cif.got.tgz:360212.got - 2010.06.03 13:09:07.
