data_PCOD9193564
_publ_section_title
;
Structure prediction by ZEFSAII (Michael W. Deem and Ramdas Pophale) SiO2 
 PCOD9193564
Probable space group: C 2/M
;
_chemical_formula_sum "Si O2"
_cell_formula_units_Z 40
_cell_length_a 21.981522
_cell_length_b 18.664098
_cell_length_c 8.833868
_cell_angle_alpha 90.000000
_cell_angle_beta 153.771546
_cell_angle_gamma 90.000000
_cell_volume 1601.733197
_symmetry_space_group_name_H-M "C 2/M"
_symmetry_group_IT_number 12
_symmetry_cell_setting 'monoclinic'
loop_
_space_group_symop_operation_xyz
x,y,z
-x,y,-z
-x,-y,-z
x,-y,z
1/2+x,1/2+y,z
1/2-x,1/2+y,-z
1/2-x,1/2-y,-z
1/2+x,1/2-y,z
loop_
_atom_site_type_symbol
_atom_site_label
_atom_site_fract_x
_atom_site_fract_y
_atom_site_fract_z
Si Si1 0.000000 0.177866 0.000000
Si Si2 0.583110 0.919207 0.421104
Si Si3 0.000000 0.672282 0.500000
Si Si4 0.348284 0.421040 0.233762
Si Si5 0.744528 0.320236 0.380955
Si Si6 0.665736 0.728872 0.651334
O O1 0.124331 0.136092 0.196857
O O2 0.055181 0.224522 0.265487
O O3 0.479598 0.880140 0.308363
O O4 0.630014 0.872202 0.381707
O O5 0.539743 0.000000 0.289943
O O6 0.727023 0.922694 0.838347
O O7 0.108385 0.725844 0.663065
O O8 0.500000 0.410756 0.500000
O O9 0.348360 0.500000 0.307472
O O10 0.317434 0.353789 0.271161
O O11 0.750000 0.250000 0.500000
O O12 0.716845 0.278475 0.162043
#
# Coordination Sequence:
#
# PCOD9193564 Si02
#       6
#     4   8   4   8   8   8
#     4  10  20  36  53  76 117 150 188 238 286 336
#     4  10  21  37  59  86 119 151 188 242 292 346
#     4  10  21  34  61  90 112 148 198 244 291 334
#     4  10  20  34  53  83 120 150 183 234 293 344
#     4   9  20  35  53  80 110 148 194 232 278 336
#     4  10  20  34  55  86 112 150 192 241 285 341
#
# _framework density 24.972947999999999
#
# number of rings (size 3 to 8) (size 9 to 14) (size 15 to 20)
#    0.000    2.200    1.000    1.500    2.800    1.600 
#    0.000    5.000    0.000    0.000    0.000    7.700 
#    0.000    0.000    0.000    0.000    0.000    0.000 
#
# Total GULP energy -111402.549894 kJ/mol
# GULP energy per Si atom -5570.127495 kJ/mol
# Density = 2.491611 g / cm^3
# Si number density = 24.972948 Si / 1000 Ang^3
#
#
#
# Elastic Constant Matrix: (Units=GPa)
#
#
# Indices 1 2 3 4 5 6 
#
# 1 234.8342 86.1900 20.2360 0.0000 31.1194 0.0000
# 2 86.1900 211.8348 14.8035 0.0000 5.0396 0.0000
# 3 20.2360 14.8035 62.8468 0.0000 0.3996 0.0000
# 4 0.0000 0.0000 0.0000 15.5197 0.0000 2.0842
# 5 31.1194 5.0396 0.3996 0.0000 34.9527 0.0000
# 6 0.0000 0.0000 0.0000 2.0842 0.0000 20.7396
#
#
#
# Elastic Compliance Matrix: (Units=1/GPa)
#
#
# Indices 1 2 3 4 5 6 
#
# 1 0.005805 -0.002154 -0.001331 0.000000 -0.004843 0.000000
# 2 -0.002154 0.005615 -0.000636 0.000000 0.001115 0.000000
# 3 -0.001331 -0.000636 0.016483 0.000000 0.001088 0.000000
# 4 0.000000 0.000000 0.000000 0.065316 0.000000 -0.006564
# 5 -0.004843 0.001115 0.001088 0.000000 0.032749 0.000000
# 6 0.000000 0.000000 0.000000 -0.006564 0.000000 0.048877
#
#
# Mechanical properties :
#
#
# Convention : Reuss Voigt Hill
#
# Bulk Modulus (GPa) = 50.86147 83.55277 67.20712
# Shear Modulus (GPa) = 26.36570 40.12814 33.24692
#
# Velocity S-wave (km/s) = 3.25279 4.01292 3.65268
# Velocity P-wave (km/s) = 5.87523 7.41629 6.69028
#
# Compressibility (1/GPa) = 0.01966125
#
# Stress axis : x y z
#
# Youngs Moduli (GPa) = 172.25703 178.09757 60.66764
#
# Poissons Ratio (x) = 0.38358 0.08076
# Poissons Ratio (y) = 0.37100 0.03860
# Poissons Ratio (z) = 0.22930 0.11330
#
# Static dielectric constant tensor:
#      x y z
#    x 2.040740 0.000000 0.085560 
#    y 0.000000 2.010040 0.000000 
#    z 0.085560 0.000000 2.272900 
# 
# From -- ./inp_files/88265.got.cif
#   From: 2010.05.17/outbox.cif.g08.bks.cpg/sg12_45_cif.got.tgz:88265.got - 2010.06.03 13:09:07.
