data_PCOD9193750
_publ_section_title
;
Structure prediction by ZEFSAII (Michael W. Deem and Ramdas Pophale) SiO2 
 PCOD9193750
Probable space group: C 2/M
;
_chemical_formula_sum "Si O2"
_cell_formula_units_Z 56
_cell_length_a 19.200584
_cell_length_b 13.946037
_cell_length_c 17.328815
_cell_angle_alpha 90.000000
_cell_angle_beta 136.580390
_cell_angle_gamma 90.000000
_cell_volume 3189.358221
_symmetry_space_group_name_H-M "C 2/M"
_symmetry_group_IT_number 12
_symmetry_cell_setting 'monoclinic'
loop_
_space_group_symop_operation_xyz
x,y,z
-x,y,-z
-x,-y,-z
x,-y,z
1/2+x,1/2+y,z
1/2-x,1/2+y,-z
1/2-x,1/2-y,-z
1/2+x,1/2-y,z
loop_
_atom_site_type_symbol
_atom_site_label
_atom_site_fract_x
_atom_site_fract_y
_atom_site_fract_z
Si Si1 0.956101 0.389168 0.287335
Si Si2 0.438806 0.241085 0.878802
Si Si3 0.730300 0.112473 0.173122
Si Si4 0.268789 0.295692 0.639926
Si Si5 0.104373 0.612532 0.927035
Si Si6 0.900043 0.756781 0.376326
Si Si7 0.308948 0.890592 0.572587
O O1 0.942805 0.500000 0.299903
O O2 0.886224 0.369527 0.156276
O O3 0.933119 0.318961 0.338351
O O4 0.072049 0.378444 0.351585
O O5 0.359326 0.166118 0.852656
O O6 0.370748 0.310027 0.771393
O O7 0.517573 0.180967 0.891047
O O8 0.500000 0.285581 0.000000
O O9 0.833952 0.161154 0.282542
O O10 0.728832 0.000000 0.188843
O O11 0.701931 0.125637 0.059984
O O12 0.173538 0.293984 0.620623
O O13 0.278077 0.189122 0.609940
O O14 0.250922 0.366756 0.554482
O O15 0.073379 0.500000 0.910228
O O16 0.000000 0.793057 0.500000
O O17 0.292300 0.000000 0.584478
#
# Coordination Sequence:
#
# PCOD9193750 Si02
#       7
#     8   8   8   8   8   8   8
#     4  10  20  34  56  79 102 135 175 222 267 298
#     4   9  16  28  51  79 105 132 167 218 266 302
#     4   9  19  32  49  74 106 142 173 206 256 313
#     4  10  20  34  54  80 108 133 172 218 258 313
#     4   9  16  30  52  78 101 127 173 223 262 300
#     4  11  22  35  49  75 112 144 173 206 254 316
#     4  10  20  35  57  80 102 135 175 221 264 298
#
# _framework density 17.558389999999999
#
# number of rings (size 3 to 8) (size 9 to 14) (size 15 to 20)
#    0.000    2.286    2.857    0.429    0.000    5.714 
#    0.000    0.000    0.000    0.429    0.000    3.000 
#    0.000    0.000    0.000    0.000    0.000    0.000 
#
# Total GULP energy -156133.149508 kJ/mol
# GULP energy per Si atom -5576.183911 kJ/mol
# Density = 1.751843 g / cm^3
# Si number density = 17.558390 Si / 1000 Ang^3
#
#
#
# Elastic Constant Matrix: (Units=GPa)
#
#
# Indices 1 2 3 4 5 6 
#
# 1 42.0755 10.8035 15.8409 0.0000 -5.9182 0.0000
# 2 10.8035 29.0829 9.3909 0.0000 -3.3382 0.0000
# 3 15.8409 9.3909 132.9734 0.0000 -8.7813 0.0000
# 4 0.0000 0.0000 0.0000 20.0283 0.0000 -0.3709
# 5 -5.9182 -3.3382 -8.7813 0.0000 22.9270 0.0000
# 6 0.0000 0.0000 0.0000 -0.3709 0.0000 15.5823
#
#
#
# Elastic Compliance Matrix: (Units=1/GPa)
#
#
# Indices 1 2 3 4 5 6 
#
# 1 0.027637 -0.008946 -0.002335 0.000000 0.004937 0.000000
# 2 -0.008946 0.038497 -0.001473 0.000000 0.002732 0.000000
# 3 -0.002335 -0.001473 0.008052 0.000000 0.002267 0.000000
# 4 0.000000 0.000000 0.000000 0.049951 0.000000 0.001189
# 5 0.004937 0.002732 0.002267 0.000000 0.046157 0.000000
# 6 0.000000 0.000000 0.000000 0.001189 0.000000 0.064204
#
#
# Mechanical properties :
#
#
# Convention : Reuss Voigt Hill
#
# Bulk Modulus (GPa) = 20.54240 30.68918 25.61579
# Shear Modulus (GPa) = 18.10078 22.91394 20.50736
#
# Velocity S-wave (km/s) = 3.21423 3.61642 3.42124
# Velocity P-wave (km/s) = 5.04974 5.91221 5.49792
#
# Compressibility (1/GPa) = 0.04867981
#
# Stress axis : x y z
#
# Youngs Moduli (GPa) = 36.18315 25.97626 124.19084
#
# Poissons Ratio (x) = 0.23238 0.28993
# Poissons Ratio (y) = 0.32369 0.18289
# Poissons Ratio (z) = 0.08447 0.03825
#
# Static dielectric constant tensor:
#      x y z
#    x 1.579210 0.000000 -0.022300 
#    y 0.000000 1.562270 0.000000 
#    z -0.022300 0.000000 1.649990 
# 
# From -- ./inp_files/277880.got.cif
#   From: 2010.05.17/outbox.cif.g08.bks.cpg/sg12_139_cif.got.tgz:277880.got - 2010.06.03 13:09:07.
