data_PCOD9193419
_publ_section_title
;
Structure prediction by ZEFSAII (Michael W. Deem and Ramdas Pophale) SiO2 
 PCOD9193419
Probable space group: C 2/M
;
_chemical_formula_sum "Si O2"
_cell_formula_units_Z 64
_cell_length_a 31.479039
_cell_length_b 7.710344
_cell_length_c 24.931039
_cell_angle_alpha 90.000000
_cell_angle_beta 29.094940
_cell_angle_gamma 90.000000
_cell_volume 2942.405663
_symmetry_space_group_name_H-M "C 2/M"
_symmetry_group_IT_number 12
_symmetry_cell_setting 'monoclinic'
loop_
_space_group_symop_operation_xyz
x,y,z
-x,y,-z
-x,-y,-z
x,-y,z
1/2+x,1/2+y,z
1/2-x,1/2+y,-z
1/2-x,1/2-y,-z
1/2+x,1/2-y,z
loop_
_atom_site_type_symbol
_atom_site_label
_atom_site_fract_x
_atom_site_fract_y
_atom_site_fract_z
Si Si1 0.685037 0.205479 0.729655
Si Si2 0.531495 0.301025 0.404997
Si Si3 0.619312 0.707782 0.508552
Si Si4 0.217835 0.695921 0.184987
Si Si5 0.869532 0.206902 0.091273
Si Si6 0.330632 0.791398 0.874285
Si Si7 0.526353 0.790355 0.835874
Si Si8 0.010230 0.709494 0.730041
O O1 0.784321 0.274777 0.614396
O O2 0.639466 0.226441 0.838094
O O3 0.617855 0.274941 0.759334
O O4 0.692349 0.000000 0.712153
O O5 0.500000 0.311114 0.500000
O O6 0.551492 0.500000 0.365816
O O7 0.458557 0.228259 0.444795
O O8 0.619219 0.192290 0.313177
O O9 0.620786 0.500000 0.499193
O O10 0.589908 0.743447 0.602266
O O11 0.251474 0.500000 0.138693
O O12 0.284812 0.776031 0.152601
O O13 0.202400 0.784325 0.145336
O O14 0.865415 0.000000 0.101805
O O15 0.951521 0.246415 0.962209
O O16 0.421660 0.726859 0.798304
O O17 0.341634 0.000000 0.855641
O O18 0.250000 0.750000 0.000000
O O19 0.512696 0.729556 0.789390
O O20 0.528468 0.000000 0.831278
O O21 0.006795 0.500000 0.735799
#
# Coordination Sequence:
#
# PCOD9193419 Si02
#       8
#     8   8   8   8   8   8   8   8
#     4  10  22  41  62  84 115 154 196 242 294 351
#     4  10  20  34  54  81 111 146 190 232 271 327
#     4  10  21  37  58  85 117 154 196 242 289 340
#     4  10  21  36  53  79 113 147 181 221 277 336
#     4  11  23  38  59  89 120 149 191 245 296 349
#     4  10  20  34  53  78 110 146 183 225 273 329
#     4  10  22  40  62  86 113 153 198 241 294 350
#     4  10  21  38  59  84 117 154 195 240 288 347
#
# _framework density 21.750910999999999
#
# number of rings (size 3 to 8) (size 9 to 14) (size 15 to 20)
#    0.000    1.875    1.250    2.250    0.000    6.750 
#    0.000    0.000    0.000    0.000    0.000    0.000 
#    0.000    0.000    0.000    0.000    0.000    0.000 
#
# Total GULP energy -178460.250515 kJ/mol
# GULP energy per Si atom -5576.882829 kJ/mol
# Density = 2.170140 g / cm^3
# Si number density = 21.750911 Si / 1000 Ang^3
#
#
#
# Elastic Constant Matrix: (Units=GPa)
#
#
# Indices 1 2 3 4 5 6 
#
# 1 131.7241 1.0592 38.7657 -0.0112 -3.6071 0.0182
# 2 1.0592 33.7920 -5.2727 -0.0455 -7.4638 0.0541
# 3 38.7657 -5.2727 113.9121 -0.0175 1.1374 0.0257
# 4 -0.0112 -0.0455 -0.0175 38.4999 -0.0116 -11.1329
# 5 -3.6071 -7.4638 1.1374 -0.0116 38.9306 0.0031
# 6 0.0182 0.0541 0.0257 -11.1329 0.0031 27.3527
#
#
#
# Elastic Compliance Matrix: (Units=1/GPa)
#
#
# Indices 1 2 3 4 5 6 
#
# 1 0.008476 -0.000552 -0.002918 0.000000 0.000765 -0.000002
# 2 -0.000552 0.031153 0.001571 0.000024 0.005876 -0.000054
# 3 -0.002918 0.001571 0.009847 0.000003 -0.000257 -0.000009
# 4 0.000000 0.000024 0.000003 0.029439 0.000012 0.011982
# 5 0.000765 0.005876 -0.000257 0.000012 0.026892 -0.000010
# 6 -0.000002 -0.000054 -0.000009 0.011982 -0.000010 0.041436
#
#
# Mechanical properties :
#
#
# Convention : Reuss Voigt Hill
#
# Bulk Modulus (GPa) = 21.89191 38.72583 30.30887
# Shear Modulus (GPa) = 30.07237 37.28171 33.67704
#
# Velocity S-wave (km/s) = 3.72234 4.14458 3.93912
# Velocity P-wave (km/s) = 5.34426 6.38328 5.88674
#
# Compressibility (1/GPa) = 0.04567897
#
# Stress axis : x y z
#
# Youngs Moduli (GPa) = 117.98543 32.09948 101.55513
#
# Poissons Ratio (x) = 0.01772 0.29629
# Poissons Ratio (y) = 0.06513 -0.15956
# Poissons Ratio (z) = 0.34423 -0.05043
#
# Static dielectric constant tensor:
#      x y z
#    x 1.796890 0.000000 -0.029170 
#    y 0.000000 1.858420 0.000060 
#    z -0.029170 0.000060 1.750640 
# 
# From -- ./inp_files/249767.got.cif
#   From: 2010.05.17/outbox.cif.g08.bks.cpg/sg12_125_cif.got.tgz:249767.got - 2010.06.03 13:09:07.
