data_PCOD9193016
_publ_section_title
;
Structure prediction by ZEFSAII (Michael W. Deem and Ramdas Pophale) SiO2 
 PCOD9193016
Probable space group: C 2/M
;
_chemical_formula_sum "Si O2"
_cell_formula_units_Z 64
_cell_length_a 14.830945
_cell_length_b 7.494994
_cell_length_c 25.295170
_cell_angle_alpha 90.000000
_cell_angle_beta 93.265811
_cell_angle_gamma 90.000000
_cell_volume 2807.190229
_symmetry_space_group_name_H-M "C 2/M"
_symmetry_group_IT_number 12
_symmetry_cell_setting 'monoclinic'
loop_
_space_group_symop_operation_xyz
x,y,z
-x,y,-z
-x,-y,-z
x,-y,z
1/2+x,1/2+y,z
1/2-x,1/2+y,-z
1/2-x,1/2-y,-z
1/2+x,1/2-y,z
loop_
_atom_site_type_symbol
_atom_site_label
_atom_site_fract_x
_atom_site_fract_y
_atom_site_fract_z
Si Si1 0.241929 0.715191 0.416297
Si Si2 0.758188 0.710256 0.086643
Si Si3 0.398081 0.212677 0.500196
Si Si4 0.031824 0.214668 0.233126
Si Si5 0.673390 0.283426 0.792747
Si Si6 0.202176 0.709552 0.298496
Si Si7 0.571708 0.716606 0.118973
Si Si8 0.574792 0.206008 0.964109
O O1 0.234604 0.500000 0.414769
O O2 0.338072 0.757425 0.445934
O O3 0.163558 0.782256 0.453437
O O4 0.228950 0.783420 0.356467
O O5 0.752256 0.500000 0.075211
O O6 0.796860 0.727081 0.147569
O O7 0.656344 0.780219 0.086995
O O8 0.828270 0.787901 0.046377
O O9 0.500000 0.283683 0.500000
O O10 0.405208 0.000000 0.508185
O O11 0.095956 0.272879 0.282690
O O12 0.079497 0.272275 0.179930
O O13 0.928130 0.273885 0.226094
O O14 0.030374 0.000000 0.233726
O O15 0.673900 0.500000 0.794250
O O16 0.741753 0.217686 0.749627
O O17 0.224127 0.500000 0.300569
O O18 0.569142 0.500000 0.117409
O O19 0.478893 0.788427 0.092961
O O20 0.586645 0.000000 0.980695
O O21 0.500000 0.291897 0.000000
#
# Coordination Sequence:
#
# PCOD9193016 Si02
#       8
#     8   8   8   8   8   8   8   8
#     4   9  19  35  52  76 109 139 173 218 261 306
#     4  10  20  35  55  76 102 134 169 209 255 306
#     4   9  18  34  56  78 103 139 180 217 259 308
#     4  10  20  34  52  76 105 136 172 213 254 305
#     4  10  20  34  52  75 103 136 173 209 253 307
#     4  10  21  35  52  77 109 140 172 214 261 308
#     4  10  20  35  55  78 103 134 172 212 256 307
#     4  10  22  38  55  78 106 134 169 215 262 309
#
# _framework density 22.798598999999999
#
# number of rings (size 3 to 8) (size 9 to 14) (size 15 to 20)
#    0.000    2.250    2.500    0.000    0.000    4.000 
#    0.000    0.000    0.000    0.000    0.000    0.000 
#    0.000    0.000    0.000    0.000    0.000    0.000 
#
# Total GULP energy -178737.401125 kJ/mol
# GULP energy per Si atom -5585.543785 kJ/mol
# Density = 2.274671 g / cm^3
# Si number density = 22.798599 Si / 1000 Ang^3
#
#
#
# Elastic Constant Matrix: (Units=GPa)
#
#
# Indices 1 2 3 4 5 6 
#
# 1 145.0512 5.0559 33.8306 0.0000 3.9549 0.0000
# 2 5.0559 67.1397 0.0777 0.0000 -4.5719 0.0000
# 3 33.8306 0.0777 85.2258 0.0000 12.5493 0.0000
# 4 0.0000 0.0000 0.0000 15.1913 0.0000 11.6288
# 5 3.9549 -4.5719 12.5493 0.0000 20.6127 0.0000
# 6 0.0000 0.0000 0.0000 11.6288 0.0000 9.0828
#
#
#
# Elastic Compliance Matrix: (Units=1/GPa)
#
#
# Indices 1 2 3 4 5 6 
#
# 1 0.007621 -0.000551 -0.003066 0.000000 0.000282 0.000000
# 2 -0.000551 0.015187 -0.000337 0.000000 0.003679 0.000000
# 3 -0.003066 -0.000337 0.014143 0.000000 -0.008097 0.000000
# 4 0.000000 0.000000 0.000000 3.302076 0.000000 -4.227693
# 5 0.000282 0.003679 -0.008097 0.000000 0.054205 0.000000
# 6 0.000000 0.000000 0.000000 -4.227693 0.000000 5.522872
#
#
# Mechanical properties :
#
#
# Convention : Reuss Voigt Hill
#
# Bulk Modulus (GPa) = 34.43225 41.70502 38.06864
# Shear Modulus (GPa) = 0.55968 26.20753 13.38360
#
# Velocity S-wave (km/s) = 0.49601 3.39414 2.42551
# Velocity P-wave (km/s) = 3.93238 5.80455 4.95764
#
# Compressibility (1/GPa) = 0.02904254
#
# Stress axis : x y z
#
# Youngs Moduli (GPa) = 131.22056 65.84688 70.70529
#
# Poissons Ratio (x) = 0.03629 0.21679
# Poissons Ratio (y) = 0.07232 0.02382
# Poissons Ratio (z) = 0.40234 0.02218
#
# Static dielectric constant tensor:
#      x y z
#    x 1.849120 0.000000 -0.029020 
#    y 0.000000 1.849140 0.000000 
#    z -0.029020 0.000000 1.849820 
# 
# From -- ./inp_files/338804.got.cif
#   From: 2010.05.17/outbox.cif.g08.bks.cpg/sg12_170_cif.got.tgz:338804.got - 2010.06.03 13:09:07.
