data_PCOD9193438
_publ_section_title
;
Structure prediction by ZEFSAII (Michael W. Deem and Ramdas Pophale) SiO2 
 PCOD9193438
Probable space group: C 2/M
;
_chemical_formula_sum "Si O2"
_cell_formula_units_Z 48
_cell_length_a 12.052855
_cell_length_b 14.087796
_cell_length_c 30.073370
_cell_angle_alpha 90.000000
_cell_angle_beta 147.215050
_cell_angle_gamma 90.000000
_cell_volume 2765.052856
_symmetry_space_group_name_H-M "C 2/M"
_symmetry_group_IT_number 12
_symmetry_cell_setting 'monoclinic'
loop_
_space_group_symop_operation_xyz
x,y,z
-x,y,-z
-x,-y,-z
x,-y,z
1/2+x,1/2+y,z
1/2-x,1/2+y,-z
1/2-x,1/2-y,-z
1/2+x,1/2-y,z
loop_
_atom_site_type_symbol
_atom_site_label
_atom_site_fract_x
_atom_site_fract_y
_atom_site_fract_z
Si Si1 0.693890 0.193706 0.869524
Si Si2 0.123016 0.108927 0.440692
Si Si3 0.762223 0.216327 0.433581
Si Si4 0.880476 0.112480 0.019647
Si Si5 0.352277 0.890176 0.691184
Si Si6 0.244402 0.392858 0.075207
O O1 0.509297 0.148185 0.780421
O O2 0.666680 0.306290 0.866505
O O3 0.907264 0.168413 0.916531
O O4 0.726757 0.149140 0.929722
O O5 0.237527 0.146427 0.523684
O O6 0.177810 0.182641 0.420678
O O7 0.880654 0.114174 0.369384
O O8 0.176001 0.000000 0.449075
O O9 0.643117 0.171048 0.352226
O O10 0.000000 0.225903 0.500000
O O11 0.795114 0.124675 0.040438
O O12 0.917929 0.000000 0.025496
O O13 0.398406 0.000000 0.696667
O O14 0.314693 0.500000 0.110117
O O15 0.000000 0.389640 0.000000
#
# Coordination Sequence:
#
# PCOD9193438 Si02
#       6
#     8   8   8   8   8   8
#     4  11  20  33  56  78 105 136 180 221 266 308
#     4   9  18  34  55  80 106 136 176 214 254 309
#     4   9  18  34  55  77 105 140 173 210 259 311
#     4  10  20  35  54  76 103 137 178 223 262 310
#     4  10  20  34  53  79 106 135 172 217 264 310
#     4  10  21  37  54  74 101 139 181 218 266 319
#
# _framework density 17.359522999999999
#
# number of rings (size 3 to 8) (size 9 to 14) (size 15 to 20)
#    0.000    2.167    1.667    3.000    0.000    3.667 
#    0.000    0.833    0.000    4.000    0.000    0.000 
#    0.000    0.000    0.000    0.000    0.000    0.000 
#
# Total GULP energy -133897.042113 kJ/mol
# GULP energy per Si atom -5579.043421 kJ/mol
# Density = 1.732001 g / cm^3
# Si number density = 17.359523 Si / 1000 Ang^3
#
#
#
# Elastic Constant Matrix: (Units=GPa)
#
#
# Indices 1 2 3 4 5 6 
#
# 1 71.7603 61.0600 9.5346 0.0000 -7.8239 0.0000
# 2 61.0600 172.1026 48.3364 0.0000 -15.0617 0.0000
# 3 9.5346 48.3364 71.9794 0.0000 -13.4269 0.0000
# 4 0.0000 0.0000 0.0000 23.1704 0.0000 -0.5817
# 5 -7.8239 -15.0617 -13.4269 0.0000 6.8096 0.0000
# 6 0.0000 0.0000 0.0000 -0.5817 0.0000 30.5963
#
#
#
# Elastic Compliance Matrix: (Units=1/GPa)
#
#
# Indices 1 2 3 4 5 6 
#
# 1 0.021855 -0.007693 0.005981 0.000000 0.019887 0.000000
# 2 -0.007693 0.010333 -0.005228 0.000000 0.003706 0.000000
# 3 0.005981 -0.005228 0.024892 0.000000 0.044388 0.000000
# 4 0.000000 0.000000 0.000000 0.043179 0.000000 0.000821
# 5 0.019887 0.003706 0.044388 0.000000 0.265418 0.000000
# 6 0.000000 0.000000 0.000000 0.000821 0.000000 0.032699
#
#
# Mechanical properties :
#
#
# Convention : Reuss Voigt Hill
#
# Bulk Modulus (GPa) = 23.14925 61.52268 42.33597
# Shear Modulus (GPa) = 11.71903 25.24269 18.48086
#
# Velocity S-wave (km/s) = 2.60105 3.81742 3.26635
# Velocity P-wave (km/s) = 4.73125 7.41266 6.21821
#
# Compressibility (1/GPa) = 0.04319794
#
# Stress axis : x y z
#
# Youngs Moduli (GPa) = 45.75630 96.77984 40.17419
#
# Poissons Ratio (x) = 0.74455 -0.24028
# Poissons Ratio (y) = 0.35201 0.21004
# Poissons Ratio (z) = -0.27367 0.50600
#
# Static dielectric constant tensor:
#      x y z
#    x 1.588330 0.000000 0.002120 
#    y 0.000000 1.607540 0.000000 
#    z 0.002120 0.000000 1.550810 
# 
# From -- ./inp_files/204358.got.cif
#   From: 2010.05.17/outbox.cif.g08.bks.cpg/sg12_103_cif.got.tgz:204358.got - 2010.06.03 13:09:07.
