data_PCOD9193008
_publ_section_title
;
Structure prediction by ZEFSAII (Michael W. Deem and Ramdas Pophale) SiO2 
 PCOD9193008
Probable space group: C 2/M
;
_chemical_formula_sum "Si O2"
_cell_formula_units_Z 56
_cell_length_a 8.355963
_cell_length_b 12.340477
_cell_length_c 32.151246
_cell_angle_alpha 90.000000
_cell_angle_beta 64.302822
_cell_angle_gamma 90.000000
_cell_volume 2987.435051
_symmetry_space_group_name_H-M "C 2/M"
_symmetry_group_IT_number 12
_symmetry_cell_setting 'monoclinic'
loop_
_space_group_symop_operation_xyz
x,y,z
-x,y,-z
-x,-y,-z
x,-y,z
1/2+x,1/2+y,z
1/2-x,1/2+y,-z
1/2-x,1/2-y,-z
1/2+x,1/2-y,z
loop_
_atom_site_type_symbol
_atom_site_label
_atom_site_fract_x
_atom_site_fract_y
_atom_site_fract_z
Si Si1 0.626787 0.193743 0.607027
Si Si2 0.737769 0.694227 0.323922
Si Si3 0.238915 0.376796 0.836922
Si Si4 0.356514 0.376245 0.052368
Si Si5 0.441776 0.289184 0.892133
Si Si6 0.971188 0.878258 0.728921
Si Si7 0.083954 0.620983 0.445022
O O1 0.443863 0.249022 0.641572
O O2 0.694513 0.136038 0.641593
O O3 0.769828 0.286639 0.579515
O O4 0.571245 0.129607 0.572131
O O5 0.680044 0.628966 0.289752
O O6 0.881231 0.786677 0.295863
O O7 0.171244 0.500000 0.841901
O O8 0.339177 0.358380 0.869292
O O9 0.375878 0.360660 0.783747
O O10 0.081951 0.289629 0.853540
O O11 0.291528 0.500000 0.056093
O O12 0.454632 0.358799 0.085407
O O13 0.198734 0.289484 0.069122
O O14 0.500000 0.357674 0.000000
O O15 0.048930 0.000000 0.719134
O O16 0.163621 0.500000 0.433150
O O17 0.000000 0.634791 0.500000
#
# Coordination Sequence:
#
# PCOD9193008 Si02
#       7
#     8   8   8   8   8   8   8
#     4   9  19  34  53  76 104 132 167 209 247 295
#     4   9  19  34  52  76 101 132 169 204 248 301
#     4  10  20  34  53  76 101 133 169 207 254 302
#     4  10  20  34  52  75 103 135 171 210 254 303
#     4  10  20  34  53  75 103 134 169 212 253 301
#     4  10  20  35  54  75 103 134 166 209 254 298
#     4  10  20  35  55  77 103 136 170 207 253 299
#
# _framework density 18.745177000000002
#
# number of rings (size 3 to 8) (size 9 to 14) (size 15 to 20)
#    0.000    2.286    0.000    2.571    0.000    5.714 
#    0.000    4.286    0.000   26.571    0.000    0.000 
#    0.000    0.000    0.000    0.000    0.000    0.000 
#
# Total GULP energy -156093.494345 kJ/mol
# GULP energy per Si atom -5574.767655 kJ/mol
# Density = 1.870251 g / cm^3
# Si number density = 18.745177 Si / 1000 Ang^3
#
#
#
# Elastic Constant Matrix: (Units=GPa)
#
#
# Indices 1 2 3 4 5 6 
#
# 1 41.7974 2.3257 0.9586 0.0000 -1.5824 0.0000
# 2 2.3257 70.8798 29.7145 0.0000 -9.9928 0.0000
# 3 0.9586 29.7145 70.4694 0.0000 0.8113 0.0000
# 4 0.0000 0.0000 0.0000 -685.6240 0.0000 189.1940
# 5 -1.5824 -9.9928 0.8113 0.0000 23.4075 0.0000
# 6 0.0000 0.0000 0.0000 189.1940 0.0000 -33.7991
#
#
#
# Elastic Compliance Matrix: (Units=1/GPa)
#
#
# Indices 1 2 3 4 5 6 
#
# 1 0.024011 -0.000544 -0.000113 0.000000 0.001395 0.000000
# 2 -0.000544 0.018605 -0.007932 0.000000 0.008181 0.000000
# 3 -0.000113 -0.007932 0.017583 0.000000 -0.004003 0.000000
# 4 0.000000 0.000000 0.000000 0.002678 0.000000 0.014991
# 5 0.001395 0.008181 -0.004003 0.000000 0.046447 0.000000
# 6 0.000000 0.000000 0.000000 0.014991 0.000000 0.054324
#
#
# Mechanical properties :
#
#
# Convention : Reuss Voigt Hill
#
# Bulk Modulus (GPa) = 23.24476 27.68268 25.46372
# Shear Modulus (GPa) = 25.61934 -129.19326 -51.78696
#
# Velocity S-wave (km/s) = 3.70092 -8.31086 -5.26182
# Velocity P-wave (km/s) = 5.53983 8.79170 4.82722
#
# Compressibility (1/GPa) = 0.04302045
#
# Stress axis : x y z
#
# Youngs Moduli (GPa) = 41.64830 53.74980 56.87402
#
# Poissons Ratio (x) = 0.02922 0.00645
# Poissons Ratio (y) = 0.02264 0.45111
# Poissons Ratio (z) = 0.00473 0.42633
#
# Static dielectric constant tensor:
#      x y z
#    x 1.648330 0.000000 0.031920 
#    y 0.000000 1.634980 0.000000 
#    z 0.031920 0.000000 1.638280 
# 
# From -- ./inp_files/355743.got.cif
#   From: 2010.05.17/outbox.cif.g08.bks.cpg/sg12_178_cif.got.tgz:355743.got - 2010.06.03 13:09:07.
