data_PCOD9193339
_publ_section_title
;
Structure prediction by ZEFSAII (Michael W. Deem and Ramdas Pophale) SiO2 
 PCOD9193339
Probable space group: C 2/M
;
_chemical_formula_sum "Si O2"
_cell_formula_units_Z 64
_cell_length_a 8.880572
_cell_length_b 11.213608
_cell_length_c 33.836151
_cell_angle_alpha 90.000000
_cell_angle_beta 91.503005
_cell_angle_gamma 90.000000
_cell_volume 3368.354714
_symmetry_space_group_name_H-M "C 2/M"
_symmetry_group_IT_number 12
_symmetry_cell_setting 'monoclinic'
loop_
_space_group_symop_operation_xyz
x,y,z
-x,y,-z
-x,-y,-z
x,-y,z
1/2+x,1/2+y,z
1/2-x,1/2+y,-z
1/2-x,1/2-y,-z
1/2+x,1/2-y,z
loop_
_atom_site_type_symbol
_atom_site_label
_atom_site_fract_x
_atom_site_fract_y
_atom_site_fract_z
Si Si1 0.247567 0.862121 0.469703
Si Si2 0.944667 0.704710 0.224571
Si Si3 0.157103 0.135090 0.081525
Si Si4 0.339767 0.369066 0.824895
Si Si5 0.771715 0.862922 0.365856
Si Si6 0.273501 0.135469 0.723937
Si Si7 0.011495 0.366793 0.952768
Si Si8 0.511763 0.227385 0.417420
O O1 0.250000 0.750000 0.500000
O O2 0.401010 0.845251 0.445533
O O3 0.102310 0.830490 0.441693
O O4 0.239111 0.000000 0.484345
O O5 0.820567 0.635104 0.198327
O O6 0.844358 0.787616 0.252199
O O7 0.047900 0.776238 0.194289
O O8 0.064516 0.640542 0.253684
O O9 0.180867 0.150327 0.128659
O O10 0.316258 0.135695 0.060285
O O11 0.065800 0.249515 0.065777
O O12 0.091089 0.000000 0.075040
O O13 0.407484 0.500000 0.819823
O O14 0.719688 0.825059 0.321708
O O15 0.637687 0.849974 0.396520
O O16 0.906821 0.784222 0.383241
O O17 0.819188 0.000000 0.364383
O O18 0.219939 0.000000 0.724059
O O19 0.950797 0.500000 0.940745
O O20 0.000000 0.359421 0.000000
#
# Coordination Sequence:
#
# PCOD9193339 Si02
#       8
#     8   8   8   8   8   8   8   8
#     4  11  24  40  60  86 115 148 187 229 275 328
#     4  10  20  34  53  77 107 140 177 219 268 319
#     4  10  21  36  55  80 108 142 185 227 272 328
#     4  10  20  35  53  75 106 141 177 221 269 319
#     4  10  20  36  57  80 109 143 179 223 270 319
#     4  10  20  34  54  80 107 139 180 221 265 318
#     4  10  21  37  56  80 110 142 179 226 278 331
#     4  10  22  38  58  82 112 145 183 224 273 325
#
# _framework density 19.000374000000001
#
# number of rings (size 3 to 8) (size 9 to 14) (size 15 to 20)
#    0.000    1.875    0.000    3.750    0.000    4.750 
#    0.000    3.125    0.000   12.000    0.000    0.000 
#    0.000    0.000    0.000    0.000    0.000    0.000 
#
# Total GULP energy -178443.559259 kJ/mol
# GULP energy per Si atom -5576.361227 kJ/mol
# Density = 1.895713 g / cm^3
# Si number density = 19.000374 Si / 1000 Ang^3
#
#
#
# Elastic Constant Matrix: (Units=GPa)
#
#
# Indices 1 2 3 4 5 6 
#
# 1 56.4228 33.1914 18.1600 0.0000 -0.5157 0.0000
# 2 33.1914 139.8149 65.3488 0.0000 7.2070 0.0000
# 3 18.1600 65.3488 114.3857 0.0000 -1.2713 0.0000
# 4 0.0000 0.0000 0.0000 19.2516 0.0000 -1.4820
# 5 -0.5157 7.2070 -1.2713 0.0000 25.5928 0.0000
# 6 0.0000 0.0000 0.0000 -1.4820 0.0000 10.4697
#
#
#
# Elastic Compliance Matrix: (Units=1/GPa)
#
#
# Indices 1 2 3 4 5 6 
#
# 1 0.020710 -0.004744 -0.000558 0.000000 0.001726 0.000000
# 2 -0.004744 0.011085 -0.005618 0.000000 -0.003496 0.000000
# 3 -0.000558 -0.005618 0.012065 0.000000 0.002170 0.000000
# 4 0.000000 0.000000 0.000000 0.052516 0.000000 0.007434
# 5 0.001726 -0.003496 0.002170 0.000000 0.040201 0.000000
# 6 0.000000 0.000000 0.000000 0.007434 0.000000 0.096566
#
#
# Mechanical properties :
#
#
# Convention : Reuss Voigt Hill
#
# Bulk Modulus (GPa) = 45.41875 60.44710 52.93292
# Shear Modulus (GPa) = 19.06044 23.99103 21.52574
#
# Velocity S-wave (km/s) = 3.17071 3.55725 3.36953
# Velocity P-wave (km/s) = 6.11233 6.98246 6.56183
#
# Compressibility (1/GPa) = 0.02201734
#
# Stress axis : x y z
#
# Youngs Moduli (GPa) = 48.28649 90.21310 82.88498
#
# Poissons Ratio (x) = 0.42801 0.04627
# Poissons Ratio (y) = 0.22909 0.46568
# Poissons Ratio (z) = 0.02695 0.50686
#
# Static dielectric constant tensor:
#      x y z
#    x 1.629760 0.000000 0.013520 
#    y 0.000000 1.661270 0.000000 
#    z 0.013520 0.000000 1.653210 
# 
# From -- ./inp_files/372158.got.cif
#   From: 2010.05.17/outbox.cif.g08.bks.cpg/sg12_187_cif.got.tgz:372158.got - 2010.06.03 13:09:07.
