data_PCOD9193176
_publ_section_title
;
Structure prediction by ZEFSAII (Michael W. Deem and Ramdas Pophale) SiO2 
 PCOD9193176
Probable space group: C 2/M
;
_chemical_formula_sum "Si O2"
_cell_formula_units_Z 60
_cell_length_a 29.800899
_cell_length_b 13.963347
_cell_length_c 16.939116
_cell_angle_alpha 90.000000
_cell_angle_beta 156.158813
_cell_angle_gamma 90.000000
_cell_volume 2849.109061
_symmetry_space_group_name_H-M "C 2/M"
_symmetry_group_IT_number 12
_symmetry_cell_setting 'monoclinic'
loop_
_space_group_symop_operation_xyz
x,y,z
-x,y,-z
-x,-y,-z
x,-y,z
1/2+x,1/2+y,z
1/2-x,1/2+y,-z
1/2-x,1/2-y,-z
1/2+x,1/2-y,z
loop_
_atom_site_type_symbol
_atom_site_label
_atom_site_fract_x
_atom_site_fract_y
_atom_site_fract_z
Si Si1 0.221780 0.887983 0.507919
Si Si2 0.597902 0.102698 0.451025
Si Si3 0.921081 0.287145 0.735637
Si Si4 0.744851 0.330025 0.862488
Si Si5 0.734923 0.894253 0.823220
Si Si6 0.500000 0.686948 0.500000
Si Si7 0.143644 0.389921 0.119198
Si Si8 0.097244 0.641785 0.746744
O O1 0.115937 0.822642 0.317642
O O2 0.324428 0.848992 0.621398
O O3 0.263144 0.872542 0.664637
O O4 0.203092 0.000000 0.465245
O O5 0.581242 0.183650 0.360166
O O6 0.699755 0.113152 0.675124
O O7 0.494445 0.099415 0.343753
O O8 0.606136 0.000000 0.422361
O O9 0.039725 0.318560 0.960307
O O10 0.772451 0.214867 0.902662
O O11 0.613887 0.356132 0.649266
O O12 0.806350 0.376661 0.887494
O O13 0.792491 0.361517 0.023268
O O14 0.629315 0.899280 0.713050
O O15 0.791423 0.000000 0.924276
O O16 0.449523 0.753457 0.349530
O O17 0.104817 0.500000 0.066497
#
# Coordination Sequence:
#
# PCOD9193176 Si02
#       8
#     8   8   8   8   8   4   8   8
#     4  10  23  42  65  95 128 163 199 246 314 373
#     4  11  19  31  56  87 113 144 192 251 301 345
#     4  11  22  39  66  94 125 158 204 256 300 362
#     4  11  22  36  57  84 115 159 204 247 300 353
#     4  10  20  34  52  81 116 151 190 246 308 355
#     4  10  20  36  52  78 118 158 200 250 304 354
#     4  11  23  40  66  93 121 162 211 256 300 363
#     4  11  19  33  54  78 113 157 199 246 298 353
#
# _framework density 21.059214999999998
#
# number of rings (size 3 to 8) (size 9 to 14) (size 15 to 20)
#    0.000    1.333    4.000    4.400    0.000    2.667 
#    0.000    1.000    0.000   10.400    0.000    0.000 
#    0.000    0.000    0.000    0.000    0.000    0.000 
#
# Total GULP energy -167222.125987 kJ/mol
# GULP energy per Si atom -5574.070866 kJ/mol
# Density = 2.101128 g / cm^3
# Si number density = 21.059215 Si / 1000 Ang^3
#
#
#
# Elastic Constant Matrix: (Units=GPa)
#
#
# Indices 1 2 3 4 5 6 
#
# 1 44.5111 3.2868 2.3965 0.0000 -6.2303 0.0000
# 2 3.2868 93.1868 16.0194 0.0000 5.7169 0.0000
# 3 2.3965 16.0194 70.3251 0.0000 9.2065 0.0000
# 4 0.0000 0.0000 0.0000 13.8440 0.0000 -4.5710
# 5 -6.2303 5.7169 9.2065 0.0000 26.4887 0.0000
# 6 0.0000 0.0000 0.0000 -4.5710 0.0000 14.4674
#
#
#
# Elastic Compliance Matrix: (Units=1/GPa)
#
#
# Indices 1 2 3 4 5 6 
#
# 1 0.023483 -0.000970 -0.001393 0.000000 0.006217 0.000000
# 2 -0.000970 0.011274 -0.002291 0.000000 -0.001865 0.000000
# 3 -0.001393 -0.002291 0.015471 0.000000 -0.005210 0.000000
# 4 0.000000 0.000000 0.000000 0.080646 0.000000 0.025480
# 5 0.006217 -0.001865 -0.005210 0.000000 0.041428 0.000000
# 6 0.000000 0.000000 0.000000 0.025480 0.000000 0.077171
#
#
# Mechanical properties :
#
#
# Convention : Reuss Voigt Hill
#
# Bulk Modulus (GPa) = 24.43819 27.93650 26.18735
# Shear Modulus (GPa) = 18.35393 23.38137 20.86765
#
# Velocity S-wave (km/s) = 2.95539 3.33568 3.15128
# Velocity P-wave (km/s) = 4.82446 5.30379 5.06980
#
# Compressibility (1/GPa) = 0.04091956
#
# Stress axis : x y z
#
# Youngs Moduli (GPa) = 42.58374 88.70295 64.63665
#
# Poissons Ratio (x) = 0.08606 0.09005
# Poissons Ratio (y) = 0.04131 0.14807
# Poissons Ratio (z) = 0.05933 0.20320
#
# Static dielectric constant tensor:
#      x y z
#    x 1.745850 0.000000 0.015830 
#    y 0.000000 1.843180 0.000000 
#    z 0.015830 0.000000 1.774910 
# 
# From -- ./inp_files/246749.got.cif
#   From: 2010.05.17/outbox.cif.g08.bks.cpg/sg12_124_cif.got.tgz:246749.got - 2010.06.03 13:09:07.
