data_PCOD9193037
_publ_section_title
;
Structure prediction by ZEFSAII (Michael W. Deem and Ramdas Pophale) SiO2 
 PCOD9193037
Probable space group: C 2/M
;
_chemical_formula_sum "Si O2"
_cell_formula_units_Z 64
_cell_length_a 29.925365
_cell_length_b 14.552897
_cell_length_c 8.933111
_cell_angle_alpha 90.000000
_cell_angle_beta 107.368317
_cell_angle_gamma 90.000000
_cell_volume 3712.996977
_symmetry_space_group_name_H-M "C 2/M"
_symmetry_group_IT_number 12
_symmetry_cell_setting 'monoclinic'
loop_
_space_group_symop_operation_xyz
x,y,z
-x,y,-z
-x,-y,-z
x,-y,z
1/2+x,1/2+y,z
1/2-x,1/2+y,-z
1/2-x,1/2-y,-z
1/2+x,1/2-y,z
loop_
_atom_site_type_symbol
_atom_site_label
_atom_site_fract_x
_atom_site_fract_y
_atom_site_fract_z
Si Si1 0.719643 0.890227 0.395575
Si Si2 0.280358 0.890227 0.956290
Si Si3 0.179541 0.892411 0.357877
Si Si4 0.444751 0.893503 0.123183
Si Si5 0.179541 0.107589 0.001205
Si Si6 0.635424 0.223787 0.457378
Si Si7 0.864576 0.276212 0.186530
Si Si8 0.444751 0.106497 0.766319
O O1 0.720984 0.866377 0.220984
O O2 0.769631 0.870348 0.520997
O O3 0.678262 0.836424 0.434862
O O4 0.711659 0.000000 0.399836
O O5 0.288341 0.000000 0.976519
O O6 0.230369 0.870348 0.981735
O O7 0.321738 0.836424 0.078338
O O8 0.181208 0.878871 0.181208
O O9 0.142397 0.824553 0.394711
O O10 0.170182 0.000000 0.378332
O O11 0.411870 0.825012 0.179598
O O12 0.500000 0.879237 0.205366
O O13 0.433808 0.000000 0.149971
O O14 0.436490 0.882873 0.936490
O O15 0.170182 0.000000 0.962031
O O16 0.142397 0.175447 0.890083
O O17 0.638032 0.227281 0.638032
O O18 0.588130 0.174988 0.355858
O O19 0.433808 0.000000 0.717644
#
# Coordination Sequence:
#
# PCOD9193037 Si02
#       8
#     8   8   8   8   8   8   8   8
#     4  10  20  34  52  75 106 141 176 215 257 303
#     4  10  20  34  52  75 106 141 176 215 257 303
#     4  10  21  37  55  74 100 136 178 221 261 303
#     4   9  19  37  59  81 106 136 170 210 256 305
#     4  10  21  37  55  74 100 136 178 221 261 303
#     4  12  23  33  51  78 108 140 173 211 256 309
#     4  12  23  33  51  78 108 140 173 211 256 309
#     4   9  19  37  59  81 106 136 170 210 256 305
#
# _framework density 17.236749
#
# number of rings (size 3 to 8) (size 9 to 14) (size 15 to 20)
#    0.000    1.750    0.000    6.000    0.000    7.000 
#    0.000    1.250    0.000    0.750    0.000    5.250 
#    0.000    0.000    0.000    0.000    0.000    0.000 
#
# Total GULP energy -178866.282533 kJ/mol
# GULP energy per Si atom -5589.571329 kJ/mol
# Density = 1.719752 g / cm^3
# Si number density = 17.236749 Si / 1000 Ang^3
#
#
#
# Elastic Constant Matrix: (Units=GPa)
#
#
# Indices 1 2 3 4 5 6 
#
# 1 77.6504 61.3431 55.4911 0.0000 -16.5870 0.0000
# 2 61.3431 88.4192 69.0884 0.0000 -3.1928 0.0000
# 3 55.4911 69.0884 123.3761 0.0000 -2.2621 0.0000
# 4 0.0000 0.0000 0.0000 26.7287 0.0000 2.0056
# 5 -16.5870 -3.1928 -2.2621 0.0000 25.2936 0.0000
# 6 0.0000 0.0000 0.0000 2.0056 0.0000 31.5941
#
#
#
# Elastic Compliance Matrix: (Units=1/GPa)
#
#
# Indices 1 2 3 4 5 6 
#
# 1 0.038409 -0.022527 -0.004258 0.000000 0.021963 0.000000
# 2 -0.022527 0.033380 -0.008768 0.000000 -0.011343 0.000000
# 3 -0.004258 -0.008768 0.014883 0.000000 -0.002568 0.000000
# 4 0.000000 0.000000 0.000000 0.037592 0.000000 -0.002386
# 5 0.021963 -0.011343 -0.002568 0.000000 0.052277 0.000000
# 6 0.000000 0.000000 0.000000 -0.002386 0.000000 0.031803
#
#
# Mechanical properties :
#
#
# Convention : Reuss Voigt Hill
#
# Bulk Modulus (GPa) = 64.24215 73.47677 68.85946
# Shear Modulus (GPa) = 17.56611 23.62483 20.59547
#
# Velocity S-wave (km/s) = 3.19581 3.70619 3.46042
# Velocity P-wave (km/s) = 7.13926 7.81249 7.48345
#
# Compressibility (1/GPa) = 0.01556610
#
# Stress axis : x y z
#
# Youngs Moduli (GPa) = 26.03574 29.95792 67.18962
#
# Poissons Ratio (x) = 0.67487 0.28607
# Poissons Ratio (y) = 0.58651 0.58913
# Poissons Ratio (z) = 0.11085 0.26268
#
# Static dielectric constant tensor:
#      x y z
#    x 1.557120 0.000000 -0.004060 
#    y 0.000000 1.600550 0.000000 
#    z -0.004060 0.000000 1.566980 
# 
# From -- ./inp_files/104681.got.cif
#   From: 2010.05.17/outbox.cif.g08.bks.cpg/sg12_53_cif.got.tgz:104681.got - 2010.06.03 13:09:07.
