data_PCOD9193130
_publ_section_title
;
Structure prediction by ZEFSAII (Michael W. Deem and Ramdas Pophale) SiO2 
 PCOD9193130
Probable space group: C 2/M
;
_chemical_formula_sum "Si O2"
_cell_formula_units_Z 64
_cell_length_a 14.725666
_cell_length_b 24.750938
_cell_length_c 9.561107
_cell_angle_alpha 90.000000
_cell_angle_beta 78.921621
_cell_angle_gamma 90.000000
_cell_volume 3419.837415
_symmetry_space_group_name_H-M "C 2/M"
_symmetry_group_IT_number 12
_symmetry_cell_setting 'monoclinic'
loop_
_space_group_symop_operation_xyz
x,y,z
-x,y,-z
-x,-y,-z
x,-y,z
1/2+x,1/2+y,z
1/2-x,1/2+y,-z
1/2-x,1/2-y,-z
1/2+x,1/2-y,z
loop_
_atom_site_type_symbol
_atom_site_label
_atom_site_fract_x
_atom_site_fract_y
_atom_site_fract_z
Si Si1 0.919245 0.436717 0.125246
Si Si2 0.280971 0.138807 0.677319
Si Si3 0.097119 0.564519 0.551870
Si Si4 0.608468 0.225598 0.960881
Si Si5 0.727481 0.120463 0.992676
Si Si6 0.592707 0.301600 0.705151
Si Si7 0.883867 0.180527 0.818311
Si Si8 0.658859 0.252191 0.429572
O O1 0.939238 0.500000 0.137908
O O2 0.913120 0.414558 0.285075
O O3 0.824303 0.427688 0.070310
O O4 0.000000 0.414602 0.000000
O O5 0.325214 0.096383 0.557434
O O6 0.175687 0.155443 0.670092
O O7 0.341695 0.194074 0.645026
O O8 0.280325 0.118594 0.837645
O O9 0.116952 0.500000 0.548549
O O10 0.000000 0.571929 0.500000
O O11 0.670989 0.173527 0.958671
O O12 0.623221 0.259281 0.815264
O O13 0.500000 0.211788 0.000000
O O14 0.629477 0.268000 0.076821
O O15 0.830263 0.131327 0.905669
O O16 0.494003 0.326871 0.772535
O O17 0.582415 0.267031 0.567144
O O18 0.842250 0.199942 0.683048
O O19 0.750000 0.250000 0.500000
#
# Coordination Sequence:
#
# PCOD9193130 Si02
#       8
#     8   8   8   8   8   8   8   8
#     4  10  23  42  62  85 111 140 181 232 288 347
#     4  11  22  36  56  84 115 150 192 232 280 339
#     4  10  23  42  63  86 112 141 180 235 294 345
#     4  10  20  34  52  78 115 151 189 230 275 328
#     4  12  21  34  58  83 111 151 192 232 279 332
#     4  10  22  36  53  82 117 157 192 231 275 327
#     4  11  21  36  54  78 119 158 190 229 274 323
#     4  10  21  35  52  79 115 152 193 235 272 327
#
# _framework density 18.71434
#
# number of rings (size 3 to 8) (size 9 to 14) (size 15 to 20)
#    0.000    1.500    2.500    3.375    5.250    2.500 
#    0.000    0.000    0.000    0.750    0.000    3.500 
#    0.000    0.000    0.000    0.000    0.000    0.000 
#
# Total GULP energy -178621.676135 kJ/mol
# GULP energy per Si atom -5581.927379 kJ/mol
# Density = 1.867175 g / cm^3
# Si number density = 18.714340 Si / 1000 Ang^3
#
#
#
# Elastic Constant Matrix: (Units=GPa)
#
#
# Indices 1 2 3 4 5 6 
#
# 1 68.9959 14.2873 39.2336 0.0000 -10.6097 0.0000
# 2 14.2873 28.5749 29.1113 0.0000 -10.1861 0.0000
# 3 39.2336 29.1113 167.9376 0.0000 -2.4467 0.0000
# 4 0.0000 0.0000 0.0000 24.4254 0.0000 0.2307
# 5 -10.6097 -10.1861 -2.4467 0.0000 36.0447 0.0000
# 6 0.0000 0.0000 0.0000 0.2307 0.0000 25.5096
#
#
#
# Elastic Compliance Matrix: (Units=1/GPa)
#
#
# Indices 1 2 3 4 5 6 
#
# 1 0.017875 -0.004079 -0.003412 0.000000 0.003877 0.000000
# 2 -0.004079 0.048819 -0.007333 0.000000 0.012098 0.000000
# 3 -0.003412 -0.007333 0.007986 0.000000 -0.002535 0.000000
# 4 0.000000 0.000000 0.000000 0.040945 0.000000 -0.000370
# 5 0.003877 0.012098 -0.002535 0.000000 0.032131 0.000000
# 6 0.000000 0.000000 0.000000 -0.000370 0.000000 0.039204
#
#
# Mechanical properties :
#
#
# Convention : Reuss Voigt Hill
#
# Bulk Modulus (GPa) = 22.20722 47.86366 35.03544
# Shear Modulus (GPa) = 21.58718 29.38768 25.48743
#
# Velocity S-wave (km/s) = 3.40002 3.96704 3.69442
# Velocity P-wave (km/s) = 5.22549 6.82749 6.07949
#
# Compressibility (1/GPa) = 0.04503040
#
# Stress axis : x y z
#
# Youngs Moduli (GPa) = 55.94458 20.48396 125.21789
#
# Poissons Ratio (x) = 0.08355 0.42729
# Poissons Ratio (y) = 0.22819 0.91827
# Poissons Ratio (z) = 0.19090 0.15022
#
# Static dielectric constant tensor:
#      x y z
#    x 1.698100 0.000000 -0.017170 
#    y 0.000000 1.640600 0.000000 
#    z -0.017170 0.000000 1.698500 
# 
# From -- ./inp_files/66967.got.cif
#   From: 2010.05.17/outbox.cif.g08.bks.cpg/sg12_34_cif.got.tgz:66967.got - 2010.06.03 13:09:07.
