data_PCOD9193975
_publ_section_title
;
Structure prediction by ZEFSAII (Michael W. Deem and Ramdas Pophale) SiO2 
 PCOD9193975
Probable space group: C 2/M
;
_chemical_formula_sum "Si O2"
_cell_formula_units_Z 56
_cell_length_a 21.677466
_cell_length_b 9.936175
_cell_length_c 15.127064
_cell_angle_alpha 90.000000
_cell_angle_beta 58.933331
_cell_angle_gamma 90.000000
_cell_volume 2790.897872
_symmetry_space_group_name_H-M "C 2/M"
_symmetry_group_IT_number 12
_symmetry_cell_setting 'monoclinic'
loop_
_space_group_symop_operation_xyz
x,y,z
-x,y,-z
-x,-y,-z
x,-y,z
1/2+x,1/2+y,z
1/2-x,1/2+y,-z
1/2-x,1/2-y,-z
1/2+x,1/2-y,z
loop_
_atom_site_type_symbol
_atom_site_label
_atom_site_fract_x
_atom_site_fract_y
_atom_site_fract_z
Si Si1 0.642810 0.849984 0.030531
Si Si2 0.294781 0.158709 0.697907
Si Si3 0.151631 0.843925 0.181382
Si Si4 0.520389 0.355549 0.699649
Si Si5 0.937517 0.657226 0.477275
Si Si6 0.673154 0.850644 0.803457
Si Si7 0.984359 0.745209 0.109514
O O1 0.666352 0.730442 0.077607
O O2 0.556273 0.836972 0.081541
O O3 0.658892 0.000000 0.053605
O O4 0.675241 0.836512 0.908750
O O5 0.320229 0.246480 0.762980
O O6 0.359551 0.170172 0.579850
O O7 0.220787 0.232905 0.725930
O O8 0.284618 0.000000 0.724784
O O9 0.065062 0.847410 0.254637
O O10 0.176201 0.000000 0.166195
O O11 0.547649 0.500000 0.648389
O O12 0.556935 0.238641 0.617139
O O13 0.527829 0.343417 0.799458
O O14 0.951878 0.500000 0.449599
O O15 0.000000 0.703475 0.500000
O O16 0.588900 0.838562 0.843411
O O17 0.699604 0.000000 0.760109
O O18 0.000000 0.804330 0.000000
#
# Coordination Sequence:
#
# PCOD9193975 Si02
#       7
#     8   8   8   8   8   8   8
#     4   9  18  34  58  85 113 148 193 238 282 340
#     4  11  23  38  57  81 112 152 193 235 291 349
#     4  10  20  34  54  84 117 148 187 236 291 346
#     4  10  21  35  59  93 119 147 189 242 296 338
#     4  10  21  39  61  85 113 150 195 241 291 347
#     4  10  21  37  57  83 115 153 193 237 288 337
#     4   9  19  37  61  89 119 153 194 236 281 340
#
# _framework density 20.065228000000001
#
# number of rings (size 3 to 8) (size 9 to 14) (size 15 to 20)
#    0.000    2.143    1.429    1.286    0.000    8.000 
#    0.000    3.571    0.000    0.000    0.000    0.000 
#    0.000    0.000    0.000    0.000    0.000    0.000 
#
# Total GULP energy -156227.164125 kJ/mol
# GULP energy per Si atom -5579.541576 kJ/mol
# Density = 2.001956 g / cm^3
# Si number density = 20.065228 Si / 1000 Ang^3
#
#
#
# Elastic Constant Matrix: (Units=GPa)
#
#
# Indices 1 2 3 4 5 6 
#
# 1 51.6325 35.4233 35.6636 0.0000 -5.8211 0.0000
# 2 35.4233 142.5906 63.7491 0.0000 -7.1628 0.0000
# 3 35.6636 63.7491 72.0701 0.0000 -4.5640 0.0000
# 4 0.0000 0.0000 0.0000 21.4396 0.0000 0.9344
# 5 -5.8211 -7.1628 -4.5640 0.0000 23.9805 0.0000
# 6 0.0000 0.0000 0.0000 0.9344 0.0000 5.2926
#
#
#
# Elastic Compliance Matrix: (Units=1/GPa)
#
#
# Indices 1 2 3 4 5 6 
#
# 1 0.030018 -0.001192 -0.013524 0.000000 0.004357 0.000000
# 2 -0.001192 0.011704 -0.009676 0.000000 0.001365 0.000000
# 3 -0.013524 -0.009676 0.029086 0.000000 -0.000637 0.000000
# 4 0.000000 0.000000 0.000000 0.047004 0.000000 -0.008298
# 5 0.004357 0.001365 -0.000637 0.000000 0.043044 0.000000
# 6 0.000000 0.000000 0.000000 -0.008298 0.000000 0.190407
#
#
# Mechanical properties :
#
#
# Convention : Reuss Voigt Hill
#
# Bulk Modulus (GPa) = 45.40576 59.55169 52.47873
# Shear Modulus (GPa) = 12.27327 18.90635 15.58981
#
# Velocity S-wave (km/s) = 2.47588 3.07293 2.79042
# Velocity P-wave (km/s) = 5.55441 6.50646 6.04919
#
# Compressibility (1/GPa) = 0.02202364
#
# Stress axis : x y z
#
# Youngs Moduli (GPa) = 33.31349 85.44225 34.38065
#
# Poissons Ratio (x) = 0.10187 0.46495
# Poissons Ratio (y) = 0.03972 0.33267
# Poissons Ratio (z) = 0.45052 0.82675
#
# Static dielectric constant tensor:
#      x y z
#    x 1.762080 0.000000 -0.006400 
#    y 0.000000 1.696790 0.000000 
#    z -0.006400 0.000000 1.680920 
# 
# From -- ./inp_files/238437.got.cif
#   From: 2010.05.17/outbox.cif.g08.bks.cpg/sg12_120_cif.got.tgz:238437.got - 2010.06.03 13:09:07.
