data_PCOD9193930
_publ_section_title
;
Structure prediction by ZEFSAII (Michael W. Deem and Ramdas Pophale) SiO2 
 PCOD9193930
Probable space group: C 2/M
;
_chemical_formula_sum "Si O2"
_cell_formula_units_Z 52
_cell_length_a 10.592626
_cell_length_b 25.313889
_cell_length_c 9.652364
_cell_angle_alpha 90.000000
_cell_angle_beta 90.222204
_cell_angle_gamma 90.000000
_cell_volume 2588.170813
_symmetry_space_group_name_H-M "C 2/M"
_symmetry_group_IT_number 12
_symmetry_cell_setting 'monoclinic'
loop_
_space_group_symop_operation_xyz
x,y,z
-x,y,-z
-x,-y,-z
x,-y,z
1/2+x,1/2+y,z
1/2-x,1/2+y,-z
1/2-x,1/2-y,-z
1/2+x,1/2-y,z
loop_
_atom_site_type_symbol
_atom_site_label
_atom_site_fract_x
_atom_site_fract_y
_atom_site_fract_z
Si Si1 0.139123 0.668910 0.493181
Si Si2 0.609517 0.784803 0.208963
Si Si3 0.302127 0.500000 0.685619
Si Si4 0.180243 0.700312 0.808930
Si Si5 0.592978 0.500000 0.762418
Si Si6 0.853018 0.383846 0.970915
Si Si7 0.147297 0.913743 0.538479
Si Si8 0.758429 0.500000 0.005184
O O1 0.115619 0.713037 0.375907
O O2 0.173445 0.688586 0.645841
O O3 0.258231 0.634507 0.446662
O O4 0.000000 0.640966 0.500000
O O5 0.707729 0.740953 0.159856
O O6 0.463195 0.779162 0.160606
O O7 0.657146 0.841751 0.153449
O O8 0.444869 0.500000 0.739808
O O9 0.293990 0.449419 0.585576
O O10 0.226145 0.500000 0.828204
O O11 0.203899 0.646912 0.896388
O O12 0.643383 0.449572 0.676158
O O13 0.626495 0.500000 0.922736
O O14 0.811203 0.443808 0.954048
O O15 0.000000 0.387520 0.000000
O O16 0.000000 0.901537 0.500000
#
# Coordination Sequence:
#
# PCOD9193930 Si02
#       8
#     8   8   4   8   4   8   8   4
#     4  10  20  34  54  83 114 138 174 231 278 320
#     4  10  21  38  58  82 113 146 184 229 274 324
#     4   9  19  34  51  74 107 144 185 231 270 316
#     4  10  21  38  58  82 113 146 184 229 274 324
#     4   9  19  34  51  74 107 144 185 231 270 316
#     4  10  22  38  56  80 111 146 184 227 274 329
#     4   9  18  35  55  75 107 151 187 218 270 332
#     4  12  20  34  58  82 110 144 180 226 282 332
#
# _framework density 20.09141
#
# number of rings (size 3 to 8) (size 9 to 14) (size 15 to 20)
#    0.000    2.154    0.000    4.154    0.000    1.231 
#    0.000    6.154    0.000    0.000    0.000    0.000 
#    0.000    0.000    0.000    0.000    0.000    0.000 
#
# Total GULP energy -144841.166251 kJ/mol
# GULP energy per Si atom -5570.814087 kJ/mol
# Density = 2.004568 g / cm^3
# Si number density = 20.091410 Si / 1000 Ang^3
#
#
#
# Elastic Constant Matrix: (Units=GPa)
#
#
# Indices 1 2 3 4 5 6 
#
# 1 82.8362 55.2055 -0.5366 0.0000 -2.3204 0.0000
# 2 55.2055 92.1989 0.8153 0.0000 -2.7979 0.0000
# 3 -0.5366 0.8153 67.9090 0.0000 2.9453 0.0000
# 4 0.0000 0.0000 0.0000 9.7064 0.0000 2.1026
# 5 -2.3204 -2.7979 2.9453 0.0000 23.7939 0.0000
# 6 0.0000 0.0000 0.0000 2.1026 0.0000 16.5188
#
#
#
# Elastic Compliance Matrix: (Units=1/GPa)
#
#
# Indices 1 2 3 4 5 6 
#
# 1 0.020100 -0.012022 0.000281 0.000000 0.000512 0.000000
# 2 -0.012022 0.018078 -0.000355 0.000000 0.000997 0.000000
# 3 0.000281 -0.000355 0.014812 0.000000 -0.001848 0.000000
# 4 0.000000 0.000000 0.000000 0.105946 0.000000 -0.013486
# 5 0.000512 0.000997 -0.001848 0.000000 0.042424 0.000000
# 6 0.000000 0.000000 0.000000 -0.013486 0.000000 0.062254
#
#
# Mechanical properties :
#
#
# Convention : Reuss Voigt Hill
#
# Bulk Modulus (GPa) = 34.72545 39.32360 37.02452
# Shear Modulus (GPa) = 16.81200 22.50114 19.65657
#
# Velocity S-wave (km/s) = 2.89585 3.35018 3.13126
# Velocity P-wave (km/s) = 5.33877 5.88046 5.61615
#
# Compressibility (1/GPa) = 0.02879732
#
# Stress axis : x y z
#
# Youngs Moduli (GPa) = 49.75030 55.31556 67.51184
#
# Poissons Ratio (x) = 0.66502 -0.01897
# Poissons Ratio (y) = 0.59812 0.02399
# Poissons Ratio (z) = -0.01398 0.01965
#
# Static dielectric constant tensor:
#      x y z
#    x 1.707800 0.000000 -0.053490 
#    y 0.000000 1.739590 0.000000 
#    z -0.053490 0.000000 1.788090 
# 
# From -- ./inp_files/52633.got.cif
#   From: 2010.05.17/outbox.cif.g08.bks.cpg/sg12_27_cif.got.tgz:52633.got - 2010.06.03 13:09:07.
