data_PCOD9193160
_publ_section_title
;
Structure prediction by ZEFSAII (Michael W. Deem and Ramdas Pophale) SiO2 
 PCOD9193160
Probable space group: C 2/M
;
_chemical_formula_sum "Si O2"
_cell_formula_units_Z 40
_cell_length_a 22.215578
_cell_length_b 18.140927
_cell_length_c 5.048465
_cell_angle_alpha 90.000000
_cell_angle_beta 98.383048
_cell_angle_gamma 90.000000
_cell_volume 2012.849299
_symmetry_space_group_name_H-M "C 2/M"
_symmetry_group_IT_number 12
_symmetry_cell_setting 'monoclinic'
loop_
_space_group_symop_operation_xyz
x,y,z
-x,y,-z
-x,-y,-z
x,-y,z
1/2+x,1/2+y,z
1/2-x,1/2+y,-z
1/2-x,1/2-y,-z
1/2+x,1/2-y,z
loop_
_atom_site_type_symbol
_atom_site_label
_atom_site_fract_x
_atom_site_fract_y
_atom_site_fract_z
Si Si1 0.579417 0.082557 0.491684
Si Si2 0.289574 0.118357 0.446207
Si Si3 0.714782 0.583343 0.890071
Si Si4 0.816286 0.758879 0.184447
Si Si5 0.935946 0.681561 0.031458
O O1 0.650336 0.079003 0.616752
O O2 0.549903 0.126449 0.715641
O O3 0.558058 0.000000 0.428260
O O4 0.579608 0.131201 0.228639
O O5 0.271678 0.092435 0.725653
O O6 0.306139 0.205233 0.430023
O O7 0.236478 0.098028 0.204580
O O8 0.691025 0.500000 0.850533
O O9 0.675098 0.653773 0.773473
O O10 0.876359 0.728259 0.074782
O O11 0.750000 0.750000 0.000000
O O12 0.000000 0.721414 0.000000
#
# Coordination Sequence:
#
# PCOD9193160 Si02
#       5
#     8   8   8   8   8
#     4  11  21  35  55  78 108 145 182 215 251 304
#     4  10  20  34  52  80 112 142 173 212 262 313
#     4  11  20  32  53  81 110 136 172 223 270 309
#     4   9  20  37  57  78 105 140 178 215 260 316
#     4  11  24  38  53  76 107 144 180 217 262 311
#
# _framework density 19.872326999999999
#
# number of rings (size 3 to 8) (size 9 to 14) (size 15 to 20)
#    0.000    1.600    0.000    7.200    0.000    7.200 
#    0.000    0.000    0.000    0.600    0.000    0.000 
#    0.000   16.000    0.000    0.000    0.000    3.200 
#
# Total GULP energy -111522.493563 kJ/mol
# GULP energy per Si atom -5576.124678 kJ/mol
# Density = 1.982710 g / cm^3
# Si number density = 19.872327 Si / 1000 Ang^3
#
#
#
# Elastic Constant Matrix: (Units=GPa)
#
#
# Indices 1 2 3 4 5 6 
#
# 1 97.1505 36.9306 1.2507 0.0000 -18.8349 0.0000
# 2 36.9306 174.3698 18.5725 0.0000 -6.7931 0.0000
# 3 1.2507 18.5725 79.1070 0.0000 -4.5430 0.0000
# 4 0.0000 0.0000 0.0000 16.9133 0.0000 2.3259
# 5 -18.8349 -6.7931 -4.5430 0.0000 27.4925 0.0000
# 6 0.0000 0.0000 0.0000 2.3259 0.0000 7.1262
#
#
#
# Elastic Compliance Matrix: (Units=1/GPa)
#
#
# Indices 1 2 3 4 5 6 
#
# 1 0.012842 -0.002487 0.000859 0.000000 0.008325 0.000000
# 2 -0.002487 0.006406 -0.001486 0.000000 -0.000367 0.000000
# 3 0.000859 -0.001486 0.013113 0.000000 0.002388 0.000000
# 4 0.000000 0.000000 0.000000 0.061904 0.000000 -0.020204
# 5 0.008325 -0.000367 0.002388 0.000000 0.042381 0.000000
# 6 0.000000 0.000000 0.000000 -0.020204 0.000000 0.146921
#
#
# Mechanical properties :
#
#
# Convention : Reuss Voigt Hill
#
# Bulk Modulus (GPa) = 38.26508 51.57055 44.91782
# Shear Modulus (GPa) = 16.75015 29.89796 23.32405
#
# Velocity S-wave (km/s) = 2.90640 3.88300 3.42964
# Velocity P-wave (km/s) = 5.52813 6.79050 6.19157
#
# Compressibility (1/GPa) = 0.02613349
#
# Stress axis : x y z
#
# Youngs Moduli (GPa) = 77.87157 156.11286 76.25744
#
# Poissons Ratio (x) = 0.38825 -0.06550
# Poissons Ratio (y) = 0.19366 0.11329
# Poissons Ratio (z) = -0.06689 0.23193
#
# Static dielectric constant tensor:
#      x y z
#    x 1.769160 0.000000 0.021380 
#    y 0.000000 1.768230 0.000000 
#    z 0.021380 0.000000 1.718650 
# 
# From -- ./inp_files/20202.got.cif
#   From: 2010.05.17/outbox.cif.g08.bks.cpg/sg12_11_cif.got.tgz:20202.got - 2010.06.03 13:09:07.
