data_PCOD9193127
_publ_section_title
;
Structure prediction by ZEFSAII (Michael W. Deem and Ramdas Pophale) SiO2 
 PCOD9193127
Probable space group: C 2/M
;
_chemical_formula_sum "Si O2"
_cell_formula_units_Z 56
_cell_length_a 24.052320
_cell_length_b 7.514856
_cell_length_c 13.984039
_cell_angle_alpha 90.000000
_cell_angle_beta 77.559602
_cell_angle_gamma 90.000000
_cell_volume 2468.264435
_symmetry_space_group_name_H-M "C 2/M"
_symmetry_group_IT_number 12
_symmetry_cell_setting 'monoclinic'
loop_
_space_group_symop_operation_xyz
x,y,z
-x,y,-z
-x,-y,-z
x,-y,z
1/2+x,1/2+y,z
1/2-x,1/2+y,-z
1/2-x,1/2-y,-z
1/2+x,1/2-y,z
loop_
_atom_site_type_symbol
_atom_site_label
_atom_site_fract_x
_atom_site_fract_y
_atom_site_fract_z
Si Si1 0.596315 0.711003 0.140916
Si Si2 0.021018 0.703167 0.892521
Si Si3 0.807378 0.213045 0.037781
Si Si4 0.347589 0.214223 0.675193
Si Si5 0.561702 0.782012 0.514893
Si Si6 0.397926 0.788412 0.294776
Si Si7 0.219418 0.214341 0.740104
O O1 0.588648 0.500000 0.131607
O O2 0.534448 0.796313 0.154509
O O3 0.638380 0.779604 0.041847
O O4 0.626242 0.742084 0.231157
O O5 0.037928 0.500000 0.910010
O O6 0.071829 0.786172 0.811984
O O7 0.000000 0.787016 0.000000
O O8 0.813598 0.000000 0.040865
O O9 0.750000 0.250000 0.000000
O O10 0.799307 0.281823 0.147997
O O11 0.389325 0.277451 0.576337
O O12 0.282676 0.279579 0.692811
O O13 0.345897 0.000000 0.669246
O O14 0.500000 0.726823 0.500000
O O15 0.575106 0.720434 0.617163
O O16 0.562127 0.000000 0.515500
O O17 0.330590 0.760646 0.314139
O O18 0.408856 0.000000 0.288945
O O19 0.222433 0.000000 0.744505
#
# Coordination Sequence:
#
# PCOD9193127 Si02
#       7
#     8   8   8   8   8   8   8
#     4  11  22  34  54  84 114 144 182 231 282 326
#     4  10  21  37  57  81 109 146 189 227 272 333
#     4  10  20  34  52  78 112 148 183 220 269 323
#     4  10  20  36  58  80 107 147 189 227 272 331
#     4   9  18  35  59  83 106 138 185 236 280 325
#     4  10  21  37  58  83 110 144 186 232 278 328
#     4  10  21  36  54  80 113 148 183 222 277 336
#
# _framework density 22.688008
#
# number of rings (size 3 to 8) (size 9 to 14) (size 15 to 20)
#    0.000    2.000    1.429    2.143    0.000    5.429 
#    0.000    0.714    0.000    1.714    0.000    0.000 
#    0.000    0.000    0.000    0.000    0.000    0.000 
#
# Total GULP energy -156556.972218 kJ/mol
# GULP energy per Si atom -5591.320436 kJ/mol
# Density = 2.263637 g / cm^3
# Si number density = 22.688008 Si / 1000 Ang^3
#
#
#
# Elastic Constant Matrix: (Units=GPa)
#
#
# Indices 1 2 3 4 5 6 
#
# 1 149.2517 -5.9984 63.9246 0.0000 2.2808 0.0000
# 2 -5.9984 64.7051 12.0820 0.0000 -5.3706 0.0000
# 3 63.9246 12.0820 147.1690 0.0000 -7.3855 0.0000
# 4 0.0000 0.0000 0.0000 0.4551 0.0000 4.4457
# 5 2.2808 -5.3706 -7.3855 0.0000 40.8332 0.0000
# 6 0.0000 0.0000 0.0000 4.4457 0.0000 17.0415
#
#
#
# Elastic Compliance Matrix: (Units=1/GPa)
#
#
# Indices 1 2 3 4 5 6 
#
# 1 0.008406 0.001411 -0.003816 0.000000 -0.000974 0.000000
# 2 0.001411 0.016072 -0.001847 0.000000 0.001701 0.000000
# 3 -0.003816 -0.001847 0.008681 0.000000 0.001540 0.000000
# 4 0.000000 0.000000 0.000000 -1.419041 0.000000 0.370191
# 5 -0.000974 0.001701 0.001540 0.000000 0.025047 0.000000
# 6 0.000000 0.000000 0.000000 0.370191 0.000000 -0.037893
#
#
# Mechanical properties :
#
#
# Convention : Reuss Voigt Hill
#
# Bulk Modulus (GPa) = 40.55956 55.68248 48.12102
# Shear Modulus (GPa) = -3.61793 31.07380 13.72793
#
# Velocity S-wave (km/s) = -1.26416 3.70484 2.46249
# Velocity P-wave (km/s) = 3.97305 6.54959 5.41674
#
# Compressibility (1/GPa) = 0.02465510
#
# Stress axis : x y z
#
# Youngs Moduli (GPa) = 118.96149 62.22159 115.18926
#
# Poissons Ratio (x) = -0.08779 0.43956
# Poissons Ratio (y) = -0.16785 0.21275
# Poissons Ratio (z) = 0.45396 0.11492
#
# Static dielectric constant tensor:
#      x y z
#    x 1.801450 0.000000 -0.017540 
#    y 0.000000 1.870230 0.000000 
#    z -0.017540 0.000000 1.835780 
# 
# From -- ./inp_files/237491.got.cif
#   From: 2010.05.17/outbox.cif.g08.bks.cpg/sg12_119_cif.got.tgz:237491.got - 2010.06.03 13:09:07.
