data_PCOD9193529
_publ_section_title
;
Structure prediction by ZEFSAII (Michael W. Deem and Ramdas Pophale) SiO2 
 PCOD9193529
Probable space group: C 2/M
;
_chemical_formula_sum "Si O2"
_cell_formula_units_Z 56
_cell_length_a 9.102466
_cell_length_b 18.615356
_cell_length_c 30.026564
_cell_angle_alpha 90.000000
_cell_angle_beta 144.635615
_cell_angle_gamma 90.000000
_cell_volume 2944.729087
_symmetry_space_group_name_H-M "C 2/M"
_symmetry_group_IT_number 12
_symmetry_cell_setting 'monoclinic'
loop_
_space_group_symop_operation_xyz
x,y,z
-x,y,-z
-x,-y,-z
x,-y,z
1/2+x,1/2+y,z
1/2-x,1/2+y,-z
1/2-x,1/2-y,-z
1/2+x,1/2-y,z
loop_
_atom_site_type_symbol
_atom_site_label
_atom_site_fract_x
_atom_site_fract_y
_atom_site_fract_z
Si Si1 0.049882 0.812045 0.438819
Si Si2 0.729525 0.801672 0.180958
Si Si3 0.523468 0.082303 0.451899
Si Si4 0.742662 0.583892 0.878454
Si Si5 0.344131 0.415396 0.044696
Si Si6 0.628455 0.290410 0.355722
Si Si7 0.172567 0.798077 0.080846
O O1 0.250000 0.750000 0.500000
O O2 0.195764 0.884982 0.488291
O O3 0.020959 0.809476 0.377964
O O4 0.795199 0.782790 0.398740
O O5 0.839460 0.872608 0.184631
O O6 0.448818 0.814079 0.130332
O O7 0.702434 0.747738 0.132872
O O8 0.911191 0.779227 0.265755
O O9 0.500000 0.080676 0.500000
O O10 0.313669 0.142900 0.387165
O O11 0.488326 0.000000 0.427239
O O12 0.690758 0.500000 0.861368
O O13 0.625359 0.608922 0.896354
O O14 0.047519 0.592604 0.959175
O O15 0.401758 0.500000 0.056446
O O16 0.518573 0.368877 0.056292
O O17 0.000000 0.760774 0.000000
#
# Coordination Sequence:
#
# PCOD9193529 Si02
#       7
#     8   8   8   8   8   8   8
#     4   9  17  33  57  81 108 143 180 214 259 325
#     4  12  24  35  53  80 113 149 189 239 296 333
#     4   8  15  30  55  83 108 136 171 212 256 314
#     4   9  19  36  57  78 103 140 183 229 291 350
#     4   9  19  37  58  77 100 135 185 242 288 337
#     4  10  20  34  53  81 112 146 180 222 272 331
#     4  12  24  37  54  77 108 147 196 250 286 334
#
# _framework density 19.017029000000001
#
# number of rings (size 3 to 8) (size 9 to 14) (size 15 to 20)
#    0.000    2.143    1.429    4.286    2.000    1.429 
#    0.000    0.000    0.000    9.429    0.000    0.000 
#    0.000    0.000    0.000    0.000    0.000    0.000 
#
# Total GULP energy -156175.003576 kJ/mol
# GULP energy per Si atom -5577.678699 kJ/mol
# Density = 1.897375 g / cm^3
# Si number density = 19.017029 Si / 1000 Ang^3
#
#
#
# Elastic Constant Matrix: (Units=GPa)
#
#
# Indices 1 2 3 4 5 6 
#
# 1 65.1122 23.4012 7.2112 -0.0001 -6.9274 -0.0006
# 2 23.4012 69.3848 5.9514 -0.0002 0.3873 -0.0003
# 3 7.2112 5.9514 79.7250 0.0009 -8.5962 -0.0008
# 4 -0.0001 -0.0002 0.0009 16.3107 -0.0002 -6.1018
# 5 -6.9274 0.3873 -8.5962 -0.0002 20.9777 -0.0005
# 6 -0.0006 -0.0003 -0.0008 -6.1018 -0.0005 25.7389
#
#
#
# Elastic Compliance Matrix: (Units=1/GPa)
#
#
# Indices 1 2 3 4 5 6 
#
# 1 0.018257 -0.006143 -0.000555 0.000000 0.005915 0.000000
# 2 -0.006143 0.016583 -0.000977 0.000000 -0.002735 0.000000
# 3 -0.000555 -0.000977 0.013233 -0.000001 0.005257 0.000000
# 4 0.000000 0.000000 -0.000001 0.067276 0.000001 0.015949
# 5 0.005915 -0.002735 0.005257 0.000001 0.051828 0.000001
# 6 0.000000 0.000000 0.000000 0.015949 0.000001 0.042633
#
#
# Mechanical properties :
#
#
# Convention : Reuss Voigt Hill
#
# Bulk Modulus (GPa) = 30.55959 31.92774 31.24367
# Shear Modulus (GPa) = 21.18044 24.44934 22.81489
#
# Velocity S-wave (km/s) = 3.34093 3.58949 3.46744
# Velocity P-wave (km/s) = 5.56659 5.83136 5.70051
#
# Compressibility (1/GPa) = 0.03272295
#
# Stress axis : x y z
#
# Youngs Moduli (GPa) = 54.77489 60.30202 75.56785
#
# Poissons Ratio (x) = 0.37042 0.04194
# Poissons Ratio (y) = 0.33647 0.07385
# Poissons Ratio (z) = 0.03040 0.05893
#
# Static dielectric constant tensor:
#      x y z
#    x 1.684510 0.000000 -0.020470 
#    y 0.000000 1.693090 0.000000 
#    z -0.020470 0.000000 1.667370 
# 
# From -- ./inp_files/356759.got.cif
#   From: 2010.05.17/outbox.cif.g08.bks.cpg/sg12_179_cif.got.tgz:356759.got - 2010.06.03 13:09:07.
