data_PCOD9193887
_publ_section_title
;
Structure prediction by ZEFSAII (Michael W. Deem and Ramdas Pophale) SiO2 
 PCOD9193887
Probable space group: C 2/M
;
_chemical_formula_sum "Si O2"
_cell_formula_units_Z 56
_cell_length_a 25.351940
_cell_length_b 8.820753
_cell_length_c 17.047596
_cell_angle_alpha 90.000000
_cell_angle_beta 120.064097
_cell_angle_gamma 90.000000
_cell_volume 3299.360491
_symmetry_space_group_name_H-M "C 2/M"
_symmetry_group_IT_number 12
_symmetry_cell_setting 'monoclinic'
loop_
_space_group_symop_operation_xyz
x,y,z
-x,y,-z
-x,-y,-z
x,-y,z
1/2+x,1/2+y,z
1/2-x,1/2+y,-z
1/2-x,1/2-y,-z
1/2+x,1/2-y,z
loop_
_atom_site_type_symbol
_atom_site_label
_atom_site_fract_x
_atom_site_fract_y
_atom_site_fract_z
Si Si1 0.226003 0.180849 0.104534
Si Si2 0.657364 0.680773 0.896212
Si Si3 0.735368 0.819513 0.278247
Si Si4 0.558863 0.818986 0.719615
Si Si5 0.918869 0.318680 0.584136
Si Si6 0.380768 0.318953 0.391159
Si Si7 0.194236 0.180986 0.408454
O O1 0.289152 0.246153 0.116764
O O2 0.213639 0.258677 0.178106
O O3 0.231685 0.000000 0.118391
O O4 0.175737 0.211303 0.999906
O O5 0.658017 0.500000 0.884357
O O6 0.594236 0.749653 0.819897
O O7 0.808150 0.789206 0.337701
O O8 0.703074 0.736780 0.326283
O O9 0.726700 0.000000 0.277843
O O10 0.487121 0.785364 0.663939
O O11 0.589715 0.748785 0.665045
O O12 0.566910 0.000000 0.724229
O O13 0.910145 0.500000 0.577151
O O14 0.909958 0.255886 0.489674
O O15 0.867935 0.242138 0.600245
O O16 0.389565 0.500000 0.399440
O O17 0.250000 0.250000 0.500000
O O18 0.196470 0.000000 0.415130
#
# Coordination Sequence:
#
# PCOD9193887 Si02
#       7
#     8   8   8   8   8   8   8
#     4  10  20  34  55  83 113 146 184 228 279 331
#     4  10  20  34  54  82 114 147 184 227 277 332
#     4  11  22  36  57  85 115 147 184 229 280 329
#     4  11  23  37  56  82 114 152 188 227 278 332
#     4  11  24  40  57  80 112 150 191 231 275 331
#     4  11  22  35  55  83 114 150 188 227 276 330
#     4  12  24  39  60  83 109 146 188 233 279 324
#
# _framework density 16.972985999999999
#
# number of rings (size 3 to 8) (size 9 to 14) (size 15 to 20)
#    0.000    1.143    2.857    4.286    0.000    6.857 
#    0.000    0.000    0.000    0.857    0.000    6.000 
#    0.000    0.000    0.000    0.000    0.000    0.000 
#
# Total GULP energy -156539.354478 kJ/mol
# GULP energy per Si atom -5590.691231 kJ/mol
# Density = 1.693435 g / cm^3
# Si number density = 16.972986 Si / 1000 Ang^3
#
#
#
# Elastic Constant Matrix: (Units=GPa)
#
#
# Indices 1 2 3 4 5 6 
#
# 1 73.2366 52.0855 54.6570 0.0000 13.1470 0.0000
# 2 52.0855 90.7673 65.4340 0.0000 15.8660 0.0000
# 3 54.6570 65.4340 136.3426 0.0000 9.1162 0.0000
# 4 0.0000 0.0000 0.0000 33.8347 0.0000 -2.1823
# 5 13.1470 15.8660 9.1162 0.0000 21.0876 0.0000
# 6 0.0000 0.0000 0.0000 -2.1823 0.0000 28.9251
#
#
#
# Elastic Compliance Matrix: (Units=1/GPa)
#
#
# Indices 1 2 3 4 5 6 
#
# 1 0.025666 -0.009957 -0.005089 0.000000 -0.006310 0.000000
# 2 -0.009957 0.022760 -0.006386 0.000000 -0.008156 0.000000
# 3 -0.005089 -0.006386 0.012260 0.000000 0.002677 0.000000
# 4 0.000000 0.000000 0.000000 0.029700 0.000000 0.002241
# 5 -0.006310 -0.008156 0.002677 0.000000 0.056334 0.000000
# 6 0.000000 0.000000 0.000000 0.002241 0.000000 0.034741
#
#
# Mechanical properties :
#
#
# Convention : Reuss Voigt Hill
#
# Bulk Modulus (GPa) = 56.10644 71.63326 63.86985
# Shear Modulus (GPa) = 21.71396 25.31415 23.51405
#
# Velocity S-wave (km/s) = 3.58064 3.86610 3.72611
# Velocity P-wave (km/s) = 7.08680 7.88828 7.49826
#
# Compressibility (1/GPa) = 0.01782327
#
# Stress axis : x y z
#
# Youngs Moduli (GPa) = 38.96212 43.93615 81.56348
#
# Poissons Ratio (x) = 0.43745 0.41505
# Poissons Ratio (y) = 0.38793 0.52090
# Poissons Ratio (z) = 0.19826 0.28060
#
# Static dielectric constant tensor:
#      x y z
#    x 1.542450 0.000000 0.007130 
#    y 0.000000 1.565880 0.000000 
#    z 0.007130 0.000000 1.572980 
# 
# From -- ./inp_files/238249.got.cif
#   From: 2010.05.17/outbox.cif.g08.bks.cpg/sg12_120_cif.got.tgz:238249.got - 2010.06.03 13:09:07.
