data_PCOD9193401
_publ_section_title
;
Structure prediction by ZEFSAII (Michael W. Deem and Ramdas Pophale) SiO2 
 PCOD9193401
Probable space group: C 2/M
;
_chemical_formula_sum "Si O2"
_cell_formula_units_Z 56
_cell_length_a 31.119775
_cell_length_b 8.682495
_cell_length_c 17.301415
_cell_angle_alpha 90.000000
_cell_angle_beta 134.408133
_cell_angle_gamma 90.000000
_cell_volume 3339.549326
_symmetry_space_group_name_H-M "C 2/M"
_symmetry_group_IT_number 12
_symmetry_cell_setting 'monoclinic'
loop_
_space_group_symop_operation_xyz
x,y,z
-x,y,-z
-x,-y,-z
x,-y,z
1/2+x,1/2+y,z
1/2-x,1/2+y,-z
1/2-x,1/2-y,-z
1/2+x,1/2-y,z
loop_
_atom_site_type_symbol
_atom_site_label
_atom_site_fract_x
_atom_site_fract_y
_atom_site_fract_z
Si Si1 0.276340 0.685997 0.150761
Si Si2 0.080935 0.184798 0.248913
Si Si3 0.737855 0.314687 0.694093
Si Si4 0.619594 0.815692 0.133357
Si Si5 0.158848 0.814239 0.918876
Si Si6 0.055549 0.813785 0.900315
Si Si7 0.305143 0.816944 0.519230
O O1 0.272356 0.500000 0.145568
O O2 0.285600 0.733456 0.250864
O O3 0.326221 0.733116 0.150306
O O4 0.213136 0.750078 0.039531
O O5 0.092245 0.241979 0.175969
O O6 0.133069 0.253576 0.367839
O O7 0.014057 0.232161 0.190766
O O8 0.084868 0.000000 0.255565
O O9 0.731717 0.500000 0.678714
O O10 0.809219 0.279251 0.780672
O O11 0.705197 0.235247 0.581652
O O12 0.613609 0.000000 0.129447
O O13 0.586425 0.753375 0.015842
O O14 0.096080 0.766167 0.878019
O O15 0.161536 0.000000 0.924602
O O16 0.057433 0.000000 0.908005
O O17 0.250000 0.750000 0.500000
O O18 0.304055 0.000000 0.524362
#
# Coordination Sequence:
#
# PCOD9193401 Si02
#       7
#     8   8   8   8   8   8   8
#     4   9  17  31  51  77 106 136 169 209 257 306
#     4  11  23  38  54  73 104 143 180 217 258 306
#     4  10  20  34  53  78 109 139 171 212 259 307
#     4  11  21  33  52  78 109 142 176 212 256 309
#     4   9  17  30  51  77 106 136 170 210 254 306
#     4  10  21  35  52  77 109 143 176 213 259 309
#     4  12  24  38  57  78 101 134 176 220 263 307
#
# _framework density 16.768730000000001
#
# number of rings (size 3 to 8) (size 9 to 14) (size 15 to 20)
#    0.000    1.714    2.857    2.571    0.000    4.000 
#    0.000    0.000    0.000    0.857    0.000    6.000 
#    0.000    0.000    0.000    0.000    0.000    0.000 
#
# Total GULP energy -156318.343448 kJ/mol
# GULP energy per Si atom -5582.797980 kJ/mol
# Density = 1.673056 g / cm^3
# Si number density = 16.768730 Si / 1000 Ang^3
#
#
#
# Elastic Constant Matrix: (Units=GPa)
#
#
# Indices 1 2 3 4 5 6 
#
# 1 176.8054 45.1362 91.1912 0.0000 -6.1277 0.0000
# 2 45.1362 31.7741 32.6524 0.0000 5.0715 0.0000
# 3 91.1912 32.6524 98.8525 0.0000 7.9686 0.0000
# 4 0.0000 0.0000 0.0000 27.9927 0.0000 -0.9723
# 5 -6.1277 5.0715 7.9686 0.0000 26.6570 0.0000
# 6 0.0000 0.0000 0.0000 -0.9723 0.0000 15.9119
#
#
#
# Elastic Compliance Matrix: (Units=1/GPa)
#
#
# Indices 1 2 3 4 5 6 
#
# 1 0.013711 -0.010751 -0.009751 0.000000 0.008112 0.000000
# 2 -0.010751 0.056600 -0.007901 0.000000 -0.010878 0.000000
# 3 -0.009751 -0.007901 0.022319 0.000000 -0.007410 0.000000
# 4 0.000000 0.000000 0.000000 0.035800 0.000000 0.002188
# 5 0.008112 -0.010878 -0.007410 0.000000 0.043663 0.000000
# 6 0.000000 0.000000 0.000000 0.002188 0.000000 0.062980
#
#
# Mechanical properties :
#
#
# Convention : Reuss Voigt Hill
#
# Bulk Modulus (GPa) = 27.91479 71.71017 49.81248
# Shear Modulus (GPa) = 16.45712 23.34248 19.89980
#
# Velocity S-wave (km/s) = 3.13616 3.73503 3.44862
# Velocity P-wave (km/s) = 5.45867 7.83949 6.75480
#
# Compressibility (1/GPa) = 0.03582330
#
# Stress axis : x y z
#
# Youngs Moduli (GPa) = 72.93384 17.66774 44.80568
#
# Poissons Ratio (x) = 0.18995 0.43690
# Poissons Ratio (y) = 0.78413 0.35401
# Poissons Ratio (z) = 0.71118 0.13959
#
# Static dielectric constant tensor:
#      x y z
#    x 1.588220 0.000000 -0.001030 
#    y 0.000000 1.561770 0.000000 
#    z -0.001030 0.000000 1.526310 
# 
# From -- ./inp_files/287392.got.cif
#   From: 2010.05.17/outbox.cif.g08.bks.cpg/sg12_144_cif.got.tgz:287392.got - 2010.06.03 13:09:07.
