data_PCOD9193544
_publ_section_title
;
Structure prediction by ZEFSAII (Michael W. Deem and Ramdas Pophale) SiO2 
 PCOD9193544
Probable space group: C 2/M
;
_chemical_formula_sum "Si O2"
_cell_formula_units_Z 58
_cell_length_a 29.512071
_cell_length_b 7.648054
_cell_length_c 12.313953
_cell_angle_alpha 90.000000
_cell_angle_beta 76.728255
_cell_angle_gamma 90.000000
_cell_volume 2705.150102
_symmetry_space_group_name_H-M "C 2/M"
_symmetry_group_IT_number 12
_symmetry_cell_setting 'monoclinic'
loop_
_space_group_symop_operation_xyz
x,y,z
-x,y,-z
-x,-y,-z
x,-y,z
1/2+x,1/2+y,z
1/2-x,1/2+y,-z
1/2-x,1/2-y,-z
1/2+x,1/2-y,z
loop_
_atom_site_type_symbol
_atom_site_label
_atom_site_fract_x
_atom_site_fract_y
_atom_site_fract_z
Si Si1 0.755925 0.208450 0.124707
Si Si2 0.144514 0.704460 0.831673
Si Si3 0.000000 0.500000 0.500000
Si Si4 0.343374 0.788526 0.758834
Si Si5 0.096940 0.710847 0.071387
Si Si6 0.071213 0.205156 0.439678
Si Si7 0.583690 0.704624 0.678669
Si Si8 0.995854 0.795034 0.123223
O O1 0.803597 0.274003 0.151509
O O2 0.709971 0.272092 0.214039
O O3 0.757033 0.000000 0.132251
O O4 0.750000 0.250000 0.000000
O O5 0.135117 0.500000 0.828492
O O6 0.130826 0.778674 0.722233
O O7 0.110295 0.778018 0.944342
O O8 0.967855 0.343049 0.575535
O O9 0.362811 0.741363 0.867196
O O10 0.380879 0.719256 0.653365
O O11 0.343704 0.000000 0.750200
O O12 0.094602 0.500000 0.068786
O O13 0.047820 0.779868 0.139781
O O14 0.082163 0.270748 0.557097
O O15 0.056642 0.000000 0.444500
O O16 0.573861 0.500000 0.671764
O O17 0.542852 0.783020 0.776527
O O18 0.984247 0.000000 0.116298
O O19 0.000000 0.715900 0.000000
#
# Coordination Sequence:
#
# PCOD9193544 Si02
#       8
#     8   8   2   8   8   8   8   8
#     4  11  22  39  65  96 132 170 217 276 343 400
#     4  11  22  38  61  92 126 168 215 262 333 404
#     4  12  26  48  72  94 138 180 230 280 336 382
#     4  10  22  43  64  90 132 170 215 280 338 395
#     4  10  21  35  55  87 125 162 207 259 321 392
#     4  11  26  45  69 100 133 182 230 274 334 400
#     4  10  23  42  61  89 129 166 220 274 322 398
#     4  10  20  34  53  81 117 159 201 249 312 380
#
# _framework density 21.440584000000001
#
# number of rings (size 3 to 8) (size 9 to 14) (size 15 to 20)
#    0.000    1.517    3.448    1.034    2.897    3.034 
#    0.000    0.690    0.000    0.000    0.000    0.000 
#    0.000    0.000    0.000    0.000    0.000    0.000 
#
# Total GULP energy -161730.012217 kJ/mol
# GULP energy per Si atom -5576.896973 kJ/mol
# Density = 2.139178 g / cm^3
# Si number density = 21.440584 Si / 1000 Ang^3
#
#
#
# Elastic Constant Matrix: (Units=GPa)
#
#
# Indices 1 2 3 4 5 6 
#
# 1 93.9396 1.8801 7.4305 0.0000 -17.6755 0.0000
# 2 1.8801 76.1987 12.1561 0.0000 -6.7277 0.0000
# 3 7.4305 12.1561 70.7060 0.0000 -13.2125 0.0000
# 4 0.0000 0.0000 0.0000 18.0037 0.0000 -3.6118
# 5 -17.6755 -6.7277 -13.2125 0.0000 33.0417 0.0000
# 6 0.0000 0.0000 0.0000 -3.6118 0.0000 20.8175
#
#
#
# Elastic Compliance Matrix: (Units=1/GPa)
#
#
# Indices 1 2 3 4 5 6 
#
# 1 0.011843 0.000286 -0.000107 0.000000 0.006351 0.000000
# 2 0.000286 0.013620 -0.001972 0.000000 0.002137 0.000000
# 3 -0.000107 -0.001972 0.015571 0.000000 0.005768 0.000000
# 4 0.000000 0.000000 0.000000 0.057547 0.000000 0.009984
# 5 0.006351 0.002137 0.005768 0.000000 0.036404 0.000000
# 6 0.000000 0.000000 0.000000 0.009984 0.000000 0.049769
#
#
# Mechanical properties :
#
#
# Convention : Reuss Voigt Hill
#
# Bulk Modulus (GPa) = 26.70465 31.53087 29.11776
# Shear Modulus (GPa) = 24.89759 28.99775 26.94767
#
# Velocity S-wave (km/s) = 3.41139 3.68158 3.54906
# Velocity P-wave (km/s) = 5.29141 5.72802 5.51404
#
# Compressibility (1/GPa) = 0.03744666
#
# Stress axis : x y z
#
# Youngs Moduli (GPa) = 84.43941 73.42215 64.22123
#
# Poissons Ratio (x) = -0.02097 0.00687
# Poissons Ratio (y) = -0.02411 0.12666
# Poissons Ratio (z) = 0.00903 0.14480
#
# Static dielectric constant tensor:
#      x y z
#    x 2.720010 0.000000 0.597550 
#    y 0.000000 1.805980 0.000000 
#    z 0.597550 0.000000 2.176370 
# 
# From -- ./inp_files/186540.got.cif
#   From: 2010.05.17/outbox.cif.g08.bks.cpg/sg12_94_cif.got.tgz:186540.got - 2010.06.03 13:09:07.
