data_PCOD9193149
_publ_section_title
;
Structure prediction by ZEFSAII (Michael W. Deem and Ramdas Pophale) SiO2 
 PCOD9193149
Probable space group: C 2/M
;
_chemical_formula_sum "Si O2"
_cell_formula_units_Z 56
_cell_length_a 8.881710
_cell_length_b 10.650277
_cell_length_c 29.103140
_cell_angle_alpha 90.000000
_cell_angle_beta 98.815230
_cell_angle_gamma 90.000000
_cell_volume 2720.425118
_symmetry_space_group_name_H-M "C 2/M"
_symmetry_group_IT_number 12
_symmetry_cell_setting 'monoclinic'
loop_
_space_group_symop_operation_xyz
x,y,z
-x,y,-z
-x,-y,-z
x,-y,z
1/2+x,1/2+y,z
1/2-x,1/2+y,-z
1/2-x,1/2-y,-z
1/2+x,1/2-y,z
loop_
_atom_site_type_symbol
_atom_site_label
_atom_site_fract_x
_atom_site_fract_y
_atom_site_fract_z
Si Si1 0.029247 0.221553 0.336752
Si Si2 0.743996 0.858680 0.726782
Si Si3 0.218788 0.500000 0.466745
Si Si4 0.804026 0.791830 0.402004
Si Si5 0.339594 0.208514 0.112030
Si Si6 0.099642 0.141249 0.175447
Si Si7 0.420540 0.858744 0.951381
Si Si8 0.853936 0.500000 0.432576
O O1 0.899106 0.285676 0.300194
O O2 0.943659 0.164398 0.376712
O O3 0.129403 0.139269 0.307218
O O4 0.151198 0.315521 0.365380
O O5 0.821285 0.800572 0.775759
O O6 0.695518 0.000000 0.736213
O O7 0.290575 0.375032 0.447017
O O8 0.229573 0.500000 0.522035
O O9 0.037065 0.500000 0.447833
O O10 0.816708 0.638767 0.409044
O O11 0.225485 0.138485 0.141012
O O12 0.452654 0.288646 0.149431
O O13 0.453716 0.138354 0.083082
O O14 0.226587 0.288737 0.074634
O O15 0.054316 0.000000 0.185884
O O16 0.374896 0.000000 0.961877
O O17 0.500000 0.799579 0.000000
#
# Coordination Sequence:
#
# PCOD9193149 Si02
#       8
#     8   8   4   8   8   8   8   4
#     4  10  23  37  60  85 117 149 193 234 291 346
#     4  10  22  39  59  83 115 150 187 244 291 349
#     4  11  24  43  67  93 125 163 201 245 297 349
#     4  11  23  41  67  91 123 161 201 243 296 356
#     4  10  20  34  56  79 111 145 190 236 284 343
#     4  10  20  36  57  81 109 145 191 235 295 342
#     4  10  20  34  52  79 112 149 189 232 284 337
#     4  11  24  45  63  95 129 159 197 253 295 345
#
# _framework density 20.585018999999999
#
# number of rings (size 3 to 8) (size 9 to 14) (size 15 to 20)
#    0.000    1.714    1.429    2.571    6.000    0.000 
#    0.000    0.714    0.000   15.429    0.000    0.000 
#    0.000    0.000    0.000    0.000    0.000    0.000 
#
# Total GULP energy -156131.437965 kJ/mol
# GULP energy per Si atom -5576.122784 kJ/mol
# Density = 2.053817 g / cm^3
# Si number density = 20.585019 Si / 1000 Ang^3
#
#
#
# Elastic Constant Matrix: (Units=GPa)
#
#
# Indices 1 2 3 4 5 6 
#
# 1 79.0854 6.2880 2.9726 0.0000 8.8261 0.0000
# 2 6.2880 68.7375 13.6132 0.0000 12.6772 0.0000
# 3 2.9726 13.6132 84.6746 0.0000 7.3819 0.0000
# 4 0.0000 0.0000 0.0000 -1.8111 0.0000 3.0856
# 5 8.8261 12.6772 7.3819 0.0000 33.4846 0.0000
# 6 0.0000 0.0000 0.0000 3.0856 0.0000 -2.7592
#
#
#
# Elastic Compliance Matrix: (Units=1/GPa)
#
#
# Indices 1 2 3 4 5 6 
#
# 1 0.013051 -0.000587 -0.000085 0.000000 -0.003199 0.000000
# 2 -0.000587 0.016019 -0.002080 0.000000 -0.005452 0.000000
# 3 -0.000085 -0.002080 0.012313 0.000000 -0.001905 0.000000
# 4 0.000000 0.000000 0.000000 0.609984 0.000000 0.682125
# 5 -0.003199 -0.005452 -0.001905 0.000000 0.033192 0.000000
# 6 0.000000 0.000000 0.000000 0.682125 0.000000 0.400379
#
#
# Mechanical properties :
#
#
# Convention : Reuss Voigt Hill
#
# Bulk Modulus (GPa) = 27.87002 30.91612 29.39307
# Shear Modulus (GPa) = 4.53555 19.75777 12.14666
#
# Velocity S-wave (km/s) = 1.48597 3.10145 2.43178
# Velocity P-wave (km/s) = 4.06356 5.27983 4.71111
#
# Compressibility (1/GPa) = 0.03588085
#
# Stress axis : x y z
#
# Youngs Moduli (GPa) = 76.61971 62.42556 81.21312
#
# Poissons Ratio (x) = 0.03665 0.00689
# Poissons Ratio (y) = 0.04498 0.16888
# Poissons Ratio (z) = 0.00650 0.12981
#
# Static dielectric constant tensor:
#      x y z
#    x 1.722820 0.000000 -0.008190 
#    y 0.000000 1.726490 0.000000 
#    z -0.008190 0.000000 1.751570 
# 
# From -- ./inp_files/372026.got.cif
#   From: 2010.05.17/outbox.cif.g08.bks.cpg/sg12_187_cif.got.tgz:372026.got - 2010.06.03 13:09:07.
