data_PCOD9193059
_publ_section_title
;
Structure prediction by ZEFSAII (Michael W. Deem and Ramdas Pophale) SiO2 
 PCOD9193059
Probable space group: C 2/M
;
_chemical_formula_sum "Si O2"
_cell_formula_units_Z 48
_cell_length_a 26.211257
_cell_length_b 7.788926
_cell_length_c 9.616636
_cell_angle_alpha 90.000000
_cell_angle_beta 64.903512
_cell_angle_gamma 90.000000
_cell_volume 1777.962202
_symmetry_space_group_name_H-M "C 2/M"
_symmetry_group_IT_number 12
_symmetry_cell_setting 'monoclinic'
loop_
_space_group_symop_operation_xyz
x,y,z
-x,y,-z
-x,-y,-z
x,-y,z
1/2+x,1/2+y,z
1/2-x,1/2+y,-z
1/2-x,1/2-y,-z
1/2+x,1/2-y,z
loop_
_atom_site_type_symbol
_atom_site_label
_atom_site_fract_x
_atom_site_fract_y
_atom_site_fract_z
Si Si1 0.566724 0.308346 0.429750
Si Si2 0.575004 0.804230 0.116304
Si Si3 0.332921 0.201516 0.279389
Si Si4 0.685062 0.202919 0.096668
Si Si5 0.050865 0.293716 0.761185
Si Si6 0.711178 0.293701 0.367319
O O1 0.500000 0.330987 0.500000
O O2 0.591036 0.500000 0.381616
O O3 0.573973 0.189826 0.286793
O O4 0.572789 0.246182 0.580610
O O5 0.638473 0.725082 0.040868
O O6 0.513666 0.727787 0.145903
O O7 0.574633 0.000000 0.064394
O O8 0.397855 0.267671 0.198368
O O9 0.314488 0.216663 0.463266
O O10 0.275658 0.271791 0.276465
O O11 0.335240 0.000000 0.241504
O O12 0.676563 0.248840 0.269466
O O13 0.681667 0.000000 0.083047
O O14 0.750000 0.250000 0.000000
O O15 0.047366 0.500000 0.776940
O O16 0.712838 0.500000 0.381110
#
# Coordination Sequence:
#
# PCOD9193059 Si02
#       6
#     8   8   8   8   8   8
#     4   9  16  24  37  63  98 130 157 188 232 288
#     4   9  18  31  47  67  92 123 160 203 248 294
#     4   9  18  32  52  78 107 138 169 202 243 295
#     4  11  23  38  55  74  97 129 171 215 257 300
#     4   9  16  28  46  68  96 128 160 196 242 293
#     4  10  20  34  52  76 106 138 172 207 245 292
#
# _framework density 26.997197
#
# number of rings (size 3 to 8) (size 9 to 14) (size 15 to 20)
#    0.000    2.500    0.000    2.500    0.000    8.667 
#    0.000    0.000    0.000    1.000    0.000    7.000 
#    0.000    0.000    0.000    0.000    0.000    0.000 
#
# Total GULP energy -133938.656395 kJ/mol
# GULP energy per Si atom -5580.777350 kJ/mol
# Density = 2.693575 g / cm^3
# Si number density = 26.997197 Si / 1000 Ang^3
#
#
#
# Elastic Constant Matrix: (Units=GPa)
#
#
# Indices 1 2 3 4 5 6 
#
# 1 251.3398 11.3661 11.8929 0.0000 -6.5820 0.0000
# 2 11.3661 69.6547 17.6214 0.0000 0.8071 0.0000
# 3 11.8929 17.6214 72.4692 0.0000 1.9395 0.0000
# 4 0.0000 0.0000 0.0000 15.4264 0.0000 -11.1673
# 5 -6.5820 0.8071 1.9395 0.0000 62.4959 0.0000
# 6 0.0000 0.0000 0.0000 -11.1673 0.0000 17.3099
#
#
#
# Elastic Compliance Matrix: (Units=1/GPa)
#
#
# Indices 1 2 3 4 5 6 
#
# 1 0.004040 -0.000526 -0.000547 0.000000 0.000449 0.000000
# 2 -0.000526 0.015366 -0.003646 0.000000 -0.000141 0.000000
# 3 -0.000547 -0.003646 0.014788 0.000000 -0.000469 0.000000
# 4 0.000000 0.000000 0.000000 0.121625 0.000000 0.078465
# 5 0.000449 -0.000141 -0.000469 0.000000 0.016065 0.000000
# 6 0.000000 0.000000 0.000000 0.078465 0.000000 0.108391
#
#
# Mechanical properties :
#
#
# Convention : Reuss Voigt Hill
#
# Bulk Modulus (GPa) = 40.39517 52.80272 46.59895
# Shear Modulus (GPa) = 16.78041 42.55200 29.66621
#
# Velocity S-wave (km/s) = 2.49582 3.97440 3.31851
# Velocity P-wave (km/s) = 4.82708 6.37669 5.65521
#
# Compressibility (1/GPa) = 0.02475543
#
# Stress axis : x y z
#
# Youngs Moduli (GPa) = 247.51733 65.07679 67.62259
#
# Poissons Ratio (x) = 0.03423 0.03700
# Poissons Ratio (y) = 0.13021 0.24658
# Poissons Ratio (z) = 0.13542 0.23729
#
# Static dielectric constant tensor:
#      x y z
#    x 2.206370 0.000000 -0.097820 
#    y 0.000000 2.126240 0.000000 
#    z -0.097820 0.000000 2.392050 
# 
# From -- ./inp_files/179751.got.cif
#   From: 2010.05.17/outbox.cif.g08.bks.cpg/sg12_90_cif.got.tgz:179751.got - 2010.06.03 13:09:07.
