data_PCOD9193637
_publ_section_title
;
Structure prediction by ZEFSAII (Michael W. Deem and Ramdas Pophale) SiO2 
 PCOD9193637
Probable space group: C 2/M
;
_chemical_formula_sum "Si O2"
_cell_formula_units_Z 48
_cell_length_a 19.401935
_cell_length_b 8.175266
_cell_length_c 32.087272
_cell_angle_alpha 90.000000
_cell_angle_beta 151.488017
_cell_angle_gamma 90.000000
_cell_volume 2429.460713
_symmetry_space_group_name_H-M "C 2/M"
_symmetry_group_IT_number 12
_symmetry_cell_setting 'monoclinic'
loop_
_space_group_symop_operation_xyz
x,y,z
-x,y,-z
-x,-y,-z
x,-y,z
1/2+x,1/2+y,z
1/2-x,1/2+y,-z
1/2-x,1/2-y,-z
1/2+x,1/2-y,z
loop_
_atom_site_type_symbol
_atom_site_label
_atom_site_fract_x
_atom_site_fract_y
_atom_site_fract_z
Si Si1 0.106537 0.799642 0.520061
Si Si2 0.236763 0.302313 0.868311
Si Si3 0.017153 0.802040 0.634790
Si Si4 0.923144 0.303615 0.673867
Si Si5 0.143386 0.805079 0.979659
Si Si6 0.832385 0.305025 0.830240
O O1 0.272354 0.744961 0.612801
O O2 0.000000 0.745368 0.500000
O O3 0.047793 0.748440 0.443626
O O4 0.106676 0.000000 0.520554
O O5 0.234188 0.500000 0.868255
O O6 0.326114 0.254087 0.874799
O O7 0.072198 0.242348 0.773497
O O8 0.302329 0.241275 0.946441
O O9 0.183395 0.747565 0.729645
O O10 0.930642 0.739645 0.628986
O O11 0.014519 0.000000 0.634282
O O12 0.925211 0.500000 0.678635
O O13 0.978395 0.751761 0.886088
O O14 0.146729 0.000000 0.983231
O O15 0.250000 0.750000 0.000000
O O16 0.829806 0.500000 0.828888
#
# Coordination Sequence:
#
# PCOD9193637 Si02
#       6
#     8   8   8   8   8   8
#     4   9  17  29  48  74 101 131 167 204 244 293
#     4   9  19  35  54  76 101 131 169 213 257 300
#     4   9  18  32  51  75 101 129 163 206 249 290
#     4   9  17  31  53  76  97 127 166 206 248 296
#     4  11  23  37  53  75 105 137 169 208 254 303
#     4  10  20  34  54  78 103 133 170 211 253 299
#
# _framework density 19.757470999999999
#
# number of rings (size 3 to 8) (size 9 to 14) (size 15 to 20)
#    0.000    2.500    0.000    2.000    0.000    5.333 
#    0.000    5.000    0.000    2.000    0.000    0.000 
#    0.000    0.000    0.000    0.000    0.000    0.000 
#
# Total GULP energy -133962.319169 kJ/mol
# GULP energy per Si atom -5581.763299 kJ/mol
# Density = 1.971250 g / cm^3
# Si number density = 19.757471 Si / 1000 Ang^3
#
#
#
# Elastic Constant Matrix: (Units=GPa)
#
#
# Indices 1 2 3 4 5 6 
#
# 1 75.4876 1.1965 35.4372 0.0000 44.6847 0.0000
# 2 1.1965 10.2281 5.0148 -0.0001 2.0164 -0.0001
# 3 35.4372 5.0148 55.5923 0.0000 26.7637 0.0000
# 4 0.0000 -0.0001 0.0000 14.7150 0.0000 -0.3003
# 5 44.6847 2.0164 26.7637 0.0000 34.3257 0.0000
# 6 0.0000 -0.0001 0.0000 -0.3003 0.0000 27.9133
#
#
#
# Elastic Compliance Matrix: (Units=1/GPa)
#
#
# Indices 1 2 3 4 5 6 
#
# 1 0.058545 0.008915 -0.001890 0.000000 -0.075263 0.000000
# 2 0.008915 0.103729 -0.010437 0.000000 -0.009562 0.000001
# 3 -0.001890 -0.010437 0.029865 0.000000 -0.020213 0.000000
# 4 0.000000 0.000000 0.000000 0.067973 0.000000 0.000731
# 5 -0.075263 -0.009562 -0.020213 0.000000 0.143431 0.000000
# 6 0.000000 0.000001 0.000000 0.000731 0.000000 0.035833
#
#
# Mechanical properties :
#
#
# Convention : Reuss Voigt Hill
#
# Bulk Modulus (GPa) = 5.39616 24.95612 15.17614
# Shear Modulus (GPa) = 9.84311 22.03477 15.93894
#
# Velocity S-wave (km/s) = 2.23445 3.34318 2.84338
# Velocity P-wave (km/s) = 3.06499 5.24987 4.29856
#
# Compressibility (1/GPa) = 0.18531683
#
# Stress axis : x y z
#
# Youngs Moduli (GPa) = 17.08094 9.64050 33.48397
#
# Poissons Ratio (x) = -0.08595 0.06328
# Poissons Ratio (y) = -0.15228 0.34946
# Poissons Ratio (z) = 0.03228 0.10062
#
# Static dielectric constant tensor:
#      x y z
#    x 4.664630 -0.000010 2.207700 
#    y -0.000010 1.695360 0.000000 
#    z 2.207700 0.000000 3.326860 
# 
# From -- ./inp_files/274083.got.cif
#   From: 2010.05.17/outbox.cif.g08.bks.cpg/sg12_138_cif.got.tgz:274083.got - 2010.06.03 13:09:07.
