data_PCOD9193051
_publ_section_title
;
Structure prediction by ZEFSAII (Michael W. Deem and Ramdas Pophale) SiO2 
 PCOD9193051
Probable space group: C 2/M
;
_chemical_formula_sum "Si O2"
_cell_formula_units_Z 64
_cell_length_a 25.396751
_cell_length_b 8.588834
_cell_length_c 18.766517
_cell_angle_alpha 90.000000
_cell_angle_beta 63.181897
_cell_angle_gamma 90.000000
_cell_volume 3653.227245
_symmetry_space_group_name_H-M "C 2/M"
_symmetry_group_IT_number 12
_symmetry_cell_setting 'monoclinic'
loop_
_space_group_symop_operation_xyz
x,y,z
-x,y,-z
-x,-y,-z
x,-y,z
1/2+x,1/2+y,z
1/2-x,1/2+y,-z
1/2-x,1/2-y,-z
1/2+x,1/2-y,z
loop_
_atom_site_type_symbol
_atom_site_label
_atom_site_fract_x
_atom_site_fract_y
_atom_site_fract_z
Si Si1 0.637587 0.313286 0.172617
Si Si2 0.009890 0.313815 0.220395
Si Si3 0.779288 0.312273 0.309136
Si Si4 0.883369 0.687719 0.354713
Si Si5 0.833741 0.187874 0.002903
Si Si6 0.697507 0.686155 0.482439
Si Si7 0.468093 0.687401 0.947553
Si Si8 0.246243 0.313522 0.177960
O O1 0.638130 0.500000 0.172264
O O2 0.570007 0.257525 0.215343
O O3 0.680262 0.249893 0.207510
O O4 0.664374 0.255995 0.079884
O O5 0.013614 0.500000 0.222885
O O6 0.949308 0.261745 0.294762
O O7 0.007747 0.264414 0.138875
O O8 0.781591 0.500000 0.302175
O O9 0.835892 0.263170 0.322537
O O10 0.719935 0.270305 0.389939
O O11 0.775559 0.240716 0.233489
O O12 0.881665 0.500000 0.356873
O O13 0.860723 0.747666 0.444931
O O14 0.784619 0.246878 0.087140
O O15 0.827810 0.000000 0.003355
O O16 0.898589 0.222101 0.993900
O O17 0.696242 0.500000 0.487005
O O18 0.750000 0.750000 0.500000
O O19 0.474370 0.500000 0.936479
O O20 0.500000 0.737605 0.000000
O O21 0.245499 0.500000 0.176531
#
# Coordination Sequence:
#
# PCOD9193051 Si02
#       8
#     8   8   8   8   8   8   8   8
#     4  10  20  37  55  70  97 136 175 215 260 304
#     4  10  20  34  52  76 103 132 171 215 254 301
#     4   9  19  34  49  74 108 137 163 199 252 305
#     4   9  19  34  53  77 108 137 167 208 252 307
#     4   8  17  32  48  71  98 129 172 213 252 295
#     4   9  17  31  52  75 104 137 170 206 249 304
#     4   9  18  32  49  69 102 140 171 209 253 300
#     4  11  21  32  51  77 102 130 171 218 256 299
#
# _framework density 17.518757000000001
#
# number of rings (size 3 to 8) (size 9 to 14) (size 15 to 20)
#    0.000    2.625    0.000    3.375    1.750    3.750 
#    0.000    5.625    0.000    0.750    0.000    5.250 
#    0.000    0.000    0.000    0.000    0.000    0.000 
#
# Total GULP energy -178356.955170 kJ/mol
# GULP energy per Si atom -5573.654849 kJ/mol
# Density = 1.747888 g / cm^3
# Si number density = 17.518757 Si / 1000 Ang^3
#
#
#
# Elastic Constant Matrix: (Units=GPa)
#
#
# Indices 1 2 3 4 5 6 
#
# 1 52.3079 14.8561 40.2484 0.0000 -7.5294 0.0000
# 2 14.8561 24.6105 20.3145 0.0001 -5.2384 0.0001
# 3 40.2484 20.3145 87.6895 0.0000 -32.4494 0.0000
# 4 0.0000 0.0001 0.0000 26.1496 0.0000 1.9022
# 5 -7.5294 -5.2384 -32.4494 0.0000 21.1180 0.0000
# 6 0.0000 0.0001 0.0000 1.9022 0.0000 22.8678
#
#
#
# Elastic Compliance Matrix: (Units=1/GPa)
#
#
# Indices 1 2 3 4 5 6 
#
# 1 0.036796 -0.007022 -0.025619 0.000000 -0.027989 0.000000
# 2 -0.007022 0.053062 -0.011881 0.000000 -0.007597 0.000000
# 3 -0.025619 -0.011881 0.049710 0.000000 0.064302 0.000000
# 4 0.000000 0.000000 0.000000 0.038474 0.000000 -0.003200
# 5 -0.027989 -0.007597 0.064302 0.000000 0.134294 0.000000
# 6 0.000000 0.000000 0.000000 -0.003200 0.000000 0.043996
#
#
# Mechanical properties :
#
#
# Convention : Reuss Voigt Hill
#
# Bulk Modulus (GPa) = 19.79278 35.04954 27.42116
# Shear Modulus (GPa) = 10.81743 19.97299 15.39521
#
# Velocity S-wave (km/s) = 2.48760 3.38019 2.96765
# Velocity P-wave (km/s) = 4.42419 5.94008 5.23727
#
# Compressibility (1/GPa) = 0.05052346
#
# Stress axis : x y z
#
# Youngs Moduli (GPa) = 27.17684 18.84598 20.11673
#
# Poissons Ratio (x) = 0.13234 0.51538
# Poissons Ratio (y) = 0.19084 0.23900
# Poissons Ratio (z) = 0.69625 0.22390
#
# Static dielectric constant tensor:
#      x y z
#    x 1.579670 0.000000 -0.016440 
#    y 0.000000 1.592130 0.000000 
#    z -0.016440 0.000000 1.613210 
# 
# From -- ./inp_files/323621.got.cif
#   From: 2010.05.17/outbox.cif.g08.bks.cpg/sg12_162_cif.got.tgz:323621.got - 2010.06.03 13:09:07.
