data_PCOD9193628
_publ_section_title
;
Structure prediction by ZEFSAII (Michael W. Deem and Ramdas Pophale) SiO2 
 PCOD9193628
Probable space group: C 2/M
;
_chemical_formula_sum "Si O2"
_cell_formula_units_Z 56
_cell_length_a 9.105287
_cell_length_b 15.756199
_cell_length_c 30.612795
_cell_angle_alpha 90.000000
_cell_angle_beta 41.994525
_cell_angle_gamma 90.000000
_cell_volume 2938.413296
_symmetry_space_group_name_H-M "C 2/M"
_symmetry_group_IT_number 12
_symmetry_cell_setting 'monoclinic'
loop_
_space_group_symop_operation_xyz
x,y,z
-x,y,-z
-x,-y,-z
x,-y,z
1/2+x,1/2+y,z
1/2-x,1/2+y,-z
1/2-x,1/2-y,-z
1/2+x,1/2-y,z
loop_
_atom_site_type_symbol
_atom_site_label
_atom_site_fract_x
_atom_site_fract_y
_atom_site_fract_z
Si Si1 0.408085 0.343930 0.662855
Si Si2 0.465814 0.847119 0.189323
Si Si3 0.439844 0.599011 0.060445
Si Si4 0.118394 0.164071 0.188445
Si Si5 0.633392 0.500000 0.573303
Si Si6 0.757443 0.340547 0.664080
Si Si7 0.018068 0.500000 0.422845
Si Si8 0.758513 0.601403 0.064226
O O1 0.490621 0.414999 0.611011
O O2 0.597444 0.331332 0.657517
O O3 0.353890 0.251969 0.654450
O O4 0.195412 0.378469 0.736482
O O5 0.683099 0.897079 0.128117
O O6 0.312912 0.836458 0.180730
O O7 0.555959 0.758119 0.187105
O O8 0.502119 0.500000 0.044080
O O9 0.581899 0.636740 0.068702
O O10 0.500000 0.637567 0.000000
O O11 0.188624 0.117606 0.129123
O O12 0.901766 0.130437 0.261108
O O13 0.804072 0.500000 0.576641
O O14 0.780355 0.500000 0.497567
O O15 0.930938 0.414287 0.615201
O O16 0.767253 0.500000 0.057230
O O17 0.000000 0.635740 0.000000
#
# Coordination Sequence:
#
# PCOD9193628 Si02
#       8
#     8   8   8   8   4   8   4   8
#     4   9  19  35  56  82 113 148 187 232 279 330
#     4  10  20  34  54  77 105 138 180 226 273 326
#     4  10  21  36  53  76 106 139 178 222 272 324
#     4  10  20  34  54  77 105 138 180 226 273 326
#     4   9  18  34  57  85 114 149 190 225 270 337
#     4   9  19  35  56  82 113 148 187 232 279 330
#     4   9  18  34  57  85 114 149 190 225 270 337
#     4  10  21  36  53  76 106 139 178 222 272 324
#
# _framework density 19.057905000000002
#
# number of rings (size 3 to 8) (size 9 to 14) (size 15 to 20)
#    0.000    2.429    0.000    1.714    2.000    4.000 
#    0.000    3.571    0.000    0.857    0.000    0.000 
#    0.000    0.000    0.000    0.000    0.000    0.000 
#
# Total GULP energy -156127.825263 kJ/mol
# GULP energy per Si atom -5575.993759 kJ/mol
# Density = 1.901453 g / cm^3
# Si number density = 19.057905 Si / 1000 Ang^3
#
#
#
# Elastic Constant Matrix: (Units=GPa)
#
#
# Indices 1 2 3 4 5 6 
#
# 1 70.0696 22.9489 54.8899 -0.0027 -3.1705 0.0023
# 2 22.9489 62.1273 61.7757 0.0049 -0.3787 0.0021
# 3 54.8899 61.7757 152.1725 -0.0339 -1.3748 -0.0052
# 4 -0.0027 0.0049 -0.0339 -604.5320 0.0053 -103.3574
# 5 -3.1705 -0.3787 -1.3748 0.0053 21.2453 0.0000
# 6 0.0023 0.0021 -0.0052 -103.3574 0.0000 6.8553
#
#
#
# Elastic Compliance Matrix: (Units=1/GPa)
#
#
# Indices 1 2 3 4 5 6 
#
# 1 0.020032 -0.000372 -0.007052 0.000001 0.002526 -0.000002
# 2 -0.000372 0.026999 -0.010829 0.000001 -0.000275 -0.000001
# 3 -0.007052 -0.010829 0.013508 -0.000001 -0.000371 0.000001
# 4 0.000001 0.000001 -0.000001 -0.000462 0.000000 -0.006971
# 5 0.002526 -0.000275 -0.000371 0.000000 0.047417 0.000002
# 6 -0.000002 -0.000001 0.000001 -0.006971 0.000002 0.040772
#
#
# Mechanical properties :
#
#
# Convention : Reuss Voigt Hill
#
# Bulk Modulus (GPa) = 41.60877 62.62202 52.11540
# Shear Modulus (GPa) = 25.93590 -105.63597 -39.85003
#
# Velocity S-wave (km/s) = 3.69304 -7.45314 -4.57770
# Velocity P-wave (km/s) = 6.32969 6.41370 0.73165
#
# Compressibility (1/GPa) = 0.02403339
#
# Stress axis : x y z
#
# Youngs Moduli (GPa) = 49.92066 37.03795 74.03139
#
# Poissons Ratio (x) = 0.01379 0.52205
# Poissons Ratio (y) = 0.01858 0.80167
# Poissons Ratio (z) = 0.35202 0.40108
#
# Static dielectric constant tensor:
#      x y z
#    x 1.663980 0.000000 0.000520 
#    y 0.000000 1.675250 0.000000 
#    z 0.000520 0.000000 1.678690 
# 
# From -- ./inp_files/372790.got.cif
#   From: 2010.05.17/outbox.cif.g08.bks.cpg/sg12_187_cif.got.tgz:372790.got - 2010.06.03 13:09:07.
