data_PCOD9193402
_publ_section_title
;
Structure prediction by ZEFSAII (Michael W. Deem and Ramdas Pophale) SiO2 
 PCOD9193402
Probable space group: C 2/M
;
_chemical_formula_sum "Si O2"
_cell_formula_units_Z 64
_cell_length_a 34.752406
_cell_length_b 8.658570
_cell_length_c 17.975376
_cell_angle_alpha 90.000000
_cell_angle_beta 140.934101
_cell_angle_gamma 90.000000
_cell_volume 3408.764126
_symmetry_space_group_name_H-M "C 2/M"
_symmetry_group_IT_number 12
_symmetry_cell_setting 'monoclinic'
loop_
_space_group_symop_operation_xyz
x,y,z
-x,y,-z
-x,-y,-z
x,-y,z
1/2+x,1/2+y,z
1/2-x,1/2+y,-z
1/2-x,1/2-y,-z
1/2+x,1/2-y,z
loop_
_atom_site_type_symbol
_atom_site_label
_atom_site_fract_x
_atom_site_fract_y
_atom_site_fract_z
Si Si1 0.900241 0.686397 0.855448
Si Si2 0.189789 0.816307 0.045531
Si Si3 0.281584 0.684075 0.740903
Si Si4 0.181674 0.816329 0.789151
Si Si5 0.152738 0.816153 0.574907
Si Si6 0.496273 0.812252 0.875367
Si Si7 0.473884 0.813368 0.673982
Si Si8 0.401290 0.183850 0.206765
O O1 0.896428 0.500000 0.851261
O O2 0.833381 0.755337 0.763544
O O3 0.938064 0.731148 0.838623
O O4 0.943015 0.737070 0.989194
O O5 0.197083 0.772150 0.143071
O O6 0.254168 0.771225 0.104294
O O7 0.180045 0.000000 0.025268
O O8 0.136199 0.726439 0.923856
O O9 0.277694 0.500000 0.732134
O O10 0.214422 0.753411 0.629695
O O11 0.158358 0.776988 0.671170
O O12 0.132818 0.766958 0.776994
O O13 0.192720 0.000000 0.809438
O O14 0.091477 0.746335 0.449466
O O15 0.151315 0.000000 0.566298
O O16 0.490097 0.758770 0.781775
O O17 0.497992 0.000000 0.877341
O O18 0.528837 0.767246 0.701553
O O19 0.472680 0.000000 0.673582
O O20 0.399183 0.000000 0.215229
#
# Coordination Sequence:
#
# PCOD9193402 Si02
#       8
#     8   8   8   8   8   8   8   8
#     4   9  16  31  57  84 110 139 173 209 249 308
#     4  10  20  34  53  78 109 140 171 212 261 311
#     4  10  20  34  54  80 108 138 173 215 263 310
#     4  10  21  37  55  75 103 137 174 218 264 310
#     4  10  22  39  57  75  98 136 182 222 260 305
#     4   8  16  32  55  82 110 141 172 207 255 307
#     4  10  21  37  55  76 105 139 175 216 261 307
#     4  11  22  34  53  80 107 137 173 213 261 316
#
# _framework density 18.775131999999999
#
# number of rings (size 3 to 8) (size 9 to 14) (size 15 to 20)
#    0.000    2.250    0.000    3.750    0.000    5.500 
#    0.000    5.625    0.000    0.000    0.000    0.000 
#    0.000    0.000    0.000    0.000    0.000    0.000 
#
# Total GULP energy -178686.944776 kJ/mol
# GULP energy per Si atom -5583.967024 kJ/mol
# Density = 1.873240 g / cm^3
# Si number density = 18.775132 Si / 1000 Ang^3
#
#
#
# Elastic Constant Matrix: (Units=GPa)
#
#
# Indices 1 2 3 4 5 6 
#
# 1 64.6906 4.2319 20.8275 0.0000 31.5161 0.0000
# 2 4.2319 6.9764 2.4124 0.0000 3.0634 0.0000
# 3 20.8275 2.4124 58.0730 0.0000 26.5813 0.0000
# 4 0.0000 0.0000 0.0000 29.7028 0.0000 4.5136
# 5 31.5161 3.0634 26.5813 0.0000 28.6430 0.0000
# 6 0.0000 0.0000 0.0000 4.5136 0.0000 20.8641
#
#
#
# Elastic Compliance Matrix: (Units=1/GPa)
#
#
# Indices 1 2 3 4 5 6 
#
# 1 0.035964 -0.004075 0.009013 0.000000 -0.047499 0.000000
# 2 -0.004075 0.150991 0.000919 0.000000 -0.012517 0.000000
# 3 0.009013 0.000919 0.032219 0.000000 -0.039915 0.000000
# 4 0.000000 0.000000 0.000000 0.034811 0.000000 -0.007531
# 5 -0.047499 -0.012517 -0.039915 0.000000 0.125557 0.000000
# 6 0.000000 0.000000 0.000000 -0.007531 0.000000 0.049558
#
#
# Mechanical properties :
#
#
# Convention : Reuss Voigt Hill
#
# Bulk Modulus (GPa) = 4.33112 20.52039 12.42576
# Shear Modulus (GPa) = 10.11428 22.65987 16.38707
#
# Velocity S-wave (km/s) = 2.32352 3.47783 2.95754
# Velocity P-wave (km/s) = 3.08386 5.20388 4.27730
#
# Compressibility (1/GPa) = 0.23088691
#
# Stress axis : x y z
#
# Youngs Moduli (GPa) = 27.80559 6.62290 31.03741
#
# Poissons Ratio (x) = 0.02699 -0.27973
# Poissons Ratio (y) = 0.11331 -0.02851
# Poissons Ratio (z) = -0.25060 -0.00608
#
# Static dielectric constant tensor:
#      x y z
#    x 1.654690 0.000000 -0.009490 
#    y 0.000000 1.627430 0.000000 
#    z -0.009490 0.000000 1.630760 
# 
# From -- ./inp_files/295760.got.cif
#   From: 2010.05.17/outbox.cif.g08.bks.cpg/sg12_148_cif.got.tgz:295760.got - 2010.06.03 13:09:07.
