data_PCOD9193979
_publ_section_title
;
Structure prediction by ZEFSAII (Michael W. Deem and Ramdas Pophale) SiO2 
 PCOD9193979
Probable space group: C 2/M
;
_chemical_formula_sum "Si O2"
_cell_formula_units_Z 64
_cell_length_a 23.559586
_cell_length_b 7.765917
_cell_length_c 15.907561
_cell_angle_alpha 90.000000
_cell_angle_beta 87.514338
_cell_angle_gamma 90.000000
_cell_volume 2907.737376
_symmetry_space_group_name_H-M "C 2/M"
_symmetry_group_IT_number 12
_symmetry_cell_setting 'monoclinic'
loop_
_space_group_symop_operation_xyz
x,y,z
-x,y,-z
-x,-y,-z
x,-y,z
1/2+x,1/2+y,z
1/2-x,1/2+y,-z
1/2-x,1/2-y,-z
1/2+x,1/2-y,z
loop_
_atom_site_type_symbol
_atom_site_label
_atom_site_fract_x
_atom_site_fract_y
_atom_site_fract_z
Si Si1 0.673904 0.298992 0.435110
Si Si2 0.455244 0.207582 0.575373
Si Si3 0.761071 0.799021 0.730491
Si Si4 0.332511 0.702135 0.380803
Si Si5 0.784434 0.199745 0.913924
Si Si6 0.049078 0.292039 0.691883
Si Si7 0.533908 0.210040 0.877933
Si Si8 0.088203 0.291538 0.047297
O O1 0.690343 0.500000 0.437535
O O2 0.606202 0.287724 0.429083
O O3 0.702450 0.221702 0.349640
O O4 0.686660 0.224799 0.527254
O O5 0.500000 0.255724 0.500000
O O6 0.487802 0.254080 0.658791
O O7 0.448088 0.000000 0.571586
O O8 0.697869 0.787977 0.696759
O O9 0.768010 0.722012 0.823406
O O10 0.778223 0.000000 0.735139
O O11 0.319551 0.500000 0.378975
O O12 0.399727 0.725266 0.367705
O O13 0.851523 0.226197 0.924797
O O14 0.771286 0.000000 0.906455
O O15 0.750000 0.250000 0.000000
O O16 0.052435 0.500000 0.689438
O O17 0.055022 0.230785 0.786585
O O18 0.468308 0.260720 0.897839
O O19 0.533986 0.000000 0.878498
O O20 0.573309 0.263610 0.952977
O O21 0.090898 0.500000 0.048804
#
# Coordination Sequence:
#
# PCOD9193979 Si02
#       8
#     8   8   8   8   8   8   8   8
#     4  10  22  40  61  85 117 154 194 243 296 345
#     4  10  20  34  54  84 118 154 195 234 279 338
#     4  10  24  44  63  83 112 156 198 237 294 355
#     4  11  23  38  59  89 118 150 197 249 293 336
#     4  11  25  43  62  86 117 153 193 240 294 349
#     4  10  20  35  56  83 119 160 196 233 283 345
#     4   8  17  34  59  87 115 152 192 231 281 344
#     4   9  18  37  62  87 115 148 192 239 287 343
#
# _framework density 22.010241000000001
#
# number of rings (size 3 to 8) (size 9 to 14) (size 15 to 20)
#    0.000    2.125    1.250    1.875    3.500    2.750 
#    0.000    1.875    0.000    0.000    0.000    0.000 
#    0.000    0.000    0.000    0.000    0.000    0.000 
#
# Total GULP energy -178635.855463 kJ/mol
# GULP energy per Si atom -5582.370483 kJ/mol
# Density = 2.196014 g / cm^3
# Si number density = 22.010241 Si / 1000 Ang^3
#
#
#
# Elastic Constant Matrix: (Units=GPa)
#
#
# Indices 1 2 3 4 5 6 
#
# 1 76.4732 -7.0918 45.1553 0.0000 15.3532 0.0000
# 2 -7.0918 28.7201 19.1821 0.0000 -4.2743 0.0000
# 3 45.1553 19.1821 172.6310 0.0000 7.7205 0.0000
# 4 0.0000 0.0000 0.0000 9.0563 0.0000 -0.8369
# 5 15.3532 -4.2743 7.7205 0.0000 24.6992 0.0000
# 6 0.0000 0.0000 0.0000 -0.8369 0.0000 28.6613
#
#
#
# Elastic Compliance Matrix: (Units=1/GPa)
#
#
# Indices 1 2 3 4 5 6 
#
# 1 0.018528 0.006755 -0.005207 0.000000 -0.008721 0.000000
# 2 0.006755 0.041667 -0.006624 0.000000 0.005082 0.000000
# 3 -0.005207 -0.006624 0.007908 0.000000 -0.000381 0.000000
# 4 0.000000 0.000000 0.000000 0.110719 0.000000 0.003233
# 5 -0.008721 0.005082 -0.000381 0.000000 0.046907 0.000000
# 6 0.000000 0.000000 0.000000 0.003233 0.000000 0.034985
#
#
# Mechanical properties :
#
#
# Convention : Reuss Voigt Hill
#
# Bulk Modulus (GPa) = 17.25588 43.59060 30.42324
# Shear Modulus (GPa) = 17.23050 27.18861 22.20956
#
# Velocity S-wave (km/s) = 2.80096 3.51845 3.18001
# Velocity P-wave (km/s) = 4.27989 6.02940 5.22835
#
# Compressibility (1/GPa) = 0.05795127
#
# Stress axis : x y z
#
# Youngs Moduli (GPa) = 53.97132 23.99957 126.45698
#
# Poissons Ratio (x) = -0.16212 0.65847
# Poissons Ratio (y) = -0.36458 0.83767
# Poissons Ratio (z) = 0.28103 0.15898
#
# Static dielectric constant tensor:
#      x y z
#    x 1.772880 0.000000 0.002400 
#    y 0.000000 1.833990 0.000000 
#    z 0.002400 0.000000 1.863630 
# 
# From -- ./inp_files/238692.got.cif
#   From: 2010.05.17/outbox.cif.g08.bks.cpg/sg12_120_cif.got.tgz:238692.got - 2010.06.03 13:09:07.
