data_PCOD9193834
_publ_section_title
;
Structure prediction by ZEFSAII (Michael W. Deem and Ramdas Pophale) SiO2 
 PCOD9193834
Probable space group: C 2/M
;
_chemical_formula_sum "Si O2"
_cell_formula_units_Z 40
_cell_length_a 15.945551
_cell_length_b 9.084694
_cell_length_c 12.478886
_cell_angle_alpha 90.000000
_cell_angle_beta 110.697282
_cell_angle_gamma 90.000000
_cell_volume 1691.029734
_symmetry_space_group_name_H-M "C 2/M"
_symmetry_group_IT_number 12
_symmetry_cell_setting 'monoclinic'
loop_
_space_group_symop_operation_xyz
x,y,z
-x,y,-z
-x,-y,-z
x,-y,z
1/2+x,1/2+y,z
1/2-x,1/2+y,-z
1/2-x,1/2-y,-z
1/2+x,1/2-y,z
loop_
_atom_site_type_symbol
_atom_site_label
_atom_site_fract_x
_atom_site_fract_y
_atom_site_fract_z
Si Si1 0.448229 0.168024 0.626381
Si Si2 0.689534 0.673848 0.563396
Si Si3 0.870836 0.831128 0.037204
Si Si4 0.838367 0.669215 0.234664
Si Si5 0.914228 0.830014 0.820426
O O1 0.409532 0.277811 0.520795
O O2 0.403986 0.217534 0.718793
O O3 0.554447 0.174833 0.692849
O O4 0.424681 0.000000 0.586613
O O5 0.700275 0.500000 0.567552
O O6 0.750000 0.750000 0.500000
O O7 0.828308 0.731471 0.110164
O O8 0.978637 0.830096 0.107330
O O9 0.841281 0.000000 0.037290
O O10 0.865059 0.790726 0.909206
O O11 0.810429 0.500000 0.227583
O O12 0.795687 0.760810 0.311926
O O13 0.891936 0.000000 0.780401
#
# Coordination Sequence:
#
# PCOD9193834 Si02
#       5
#     8   8   8   8   8
#     4  10  20  34  54  81 111 140 174 216 259 307
#     4  12  25  40  57  75 101 137 177 220 267 318
#     4   8  14  26  46  74 107 140 174 212 254 301
#     4  10  20  34  54  81 111 140 174 216 259 307
#     4   8  14  26  46  74 107 140 174 212 254 301
#
# _framework density 23.654225
#
# number of rings (size 3 to 8) (size 9 to 14) (size 15 to 20)
#    0.000    2.400    0.000    4.800    0.000    5.600 
#    0.000    4.000    0.000    1.200    0.000    0.000 
#    0.000    0.000    0.000    0.000    0.000    0.000 
#
# Total GULP energy -111953.924631 kJ/mol
# GULP energy per Si atom -5597.696232 kJ/mol
# Density = 2.360039 g / cm^3
# Si number density = 23.654225 Si / 1000 Ang^3
#
#
#
# Elastic Constant Matrix: (Units=GPa)
#
#
# Indices 1 2 3 4 5 6 
#
# 1 156.1449 87.0369 31.6193 0.0000 -26.3330 0.0000
# 2 87.0369 174.4912 51.1104 0.0000 -41.6932 0.0000
# 3 31.6193 51.1104 97.9732 0.0000 -18.5145 0.0000
# 4 0.0000 0.0000 0.0000 29.7077 0.0000 -10.8142
# 5 -26.3330 -41.6932 -18.5145 0.0000 54.3058 0.0000
# 6 0.0000 0.0000 0.0000 -10.8142 0.0000 33.8144
#
#
#
# Elastic Compliance Matrix: (Units=1/GPa)
#
#
# Indices 1 2 3 4 5 6 
#
# 1 0.008953 -0.004048 -0.000582 0.000000 0.001035 0.000000
# 2 -0.004048 0.009665 -0.002891 0.000000 0.004472 0.000000
# 3 -0.000582 -0.002891 0.012217 0.000000 0.001664 0.000000
# 4 0.000000 0.000000 0.000000 0.038096 0.000000 0.012184
# 5 0.001035 0.004472 0.001664 0.000000 0.022917 0.000000
# 6 0.000000 0.000000 0.000000 0.012184 0.000000 0.033470
#
#
# Mechanical properties :
#
#
# Convention : Reuss Voigt Hill
#
# Bulk Modulus (GPa) = 63.31492 85.34917 74.33205
# Shear Modulus (GPa) = 34.33477 40.82175 37.57826
#
# Velocity S-wave (km/s) = 3.81403 4.15875 3.99011
# Velocity P-wave (km/s) = 6.79858 7.69549 7.26090
#
# Compressibility (1/GPa) = 0.01579407
#
# Stress axis : x y z
#
# Youngs Moduli (GPa) = 111.69226 103.46153 81.85233
#
# Poissons Ratio (x) = 0.41882 0.04765
# Poissons Ratio (y) = 0.45214 0.23661
# Poissons Ratio (z) = 0.06502 0.29907
#
# Static dielectric constant tensor:
#      x y z
#    x 1.931540 0.000000 0.091210 
#    y 0.000000 1.791240 0.000000 
#    z 0.091210 0.000000 1.996260 
# 
# From -- ./inp_files/211634.got.cif
#   From: 2010.05.17/outbox.cif.g08.bks.cpg/sg12_106_cif.got.tgz:211634.got - 2010.06.03 13:09:07.
