data_PCOD9193865
_publ_section_title
;
Structure prediction by ZEFSAII (Michael W. Deem and Ramdas Pophale) SiO2 
 PCOD9193865
Probable space group: C 2/M
;
_chemical_formula_sum "Si O2"
_cell_formula_units_Z 56
_cell_length_a 14.541306
_cell_length_b 8.581790
_cell_length_c 28.413108
_cell_angle_alpha 90.000000
_cell_angle_beta 52.337036
_cell_angle_gamma 90.000000
_cell_volume 2806.829684
_symmetry_space_group_name_H-M "C 2/M"
_symmetry_group_IT_number 12
_symmetry_cell_setting 'monoclinic'
loop_
_space_group_symop_operation_xyz
x,y,z
-x,y,-z
-x,-y,-z
x,-y,z
1/2+x,1/2+y,z
1/2-x,1/2+y,-z
1/2-x,1/2-y,-z
1/2+x,1/2-y,z
loop_
_atom_site_type_symbol
_atom_site_label
_atom_site_fract_x
_atom_site_fract_y
_atom_site_fract_z
Si Si1 0.672698 0.683901 0.459117
Si Si2 0.692484 0.685704 0.065024
Si Si3 0.926805 0.188660 0.168905
Si Si4 0.241006 0.313430 0.149006
Si Si5 0.528769 0.814608 0.745195
Si Si6 0.955347 0.316784 0.583906
Si Si7 0.077864 0.816033 0.628872
O O1 0.664445 0.500000 0.471046
O O2 0.575620 0.774316 0.519423
O O3 0.639969 0.720043 0.415044
O O4 0.800352 0.748013 0.427697
O O5 0.694771 0.500000 0.062992
O O6 0.556961 0.734392 0.111876
O O7 0.756173 0.742396 0.092507
O O8 0.750000 0.750000 0.000000
O O9 0.832251 0.239248 0.159969
O O10 0.910004 0.259312 0.225991
O O11 0.922728 0.000000 0.173850
O O12 0.251934 0.500000 0.141488
O O13 0.108623 0.279418 0.205565
O O14 0.569995 0.726708 0.685936
O O15 0.543058 0.000000 0.734469
O O16 0.931707 0.500000 0.587657
O O17 0.975744 0.264734 0.630898
O O18 0.074307 0.000000 0.622545
#
# Coordination Sequence:
#
# PCOD9193865 Si02
#       7
#     8   8   8   8   8   8   8
#     4  11  22  39  60  85 114 146 186 232 282 338
#     4  10  20  34  54  81 114 145 181 224 269 320
#     4   9  19  37  58  79 106 146 185 222 272 332
#     4   9  19  37  59  79 106 143 183 223 271 324
#     4  10  21  37  56  81 109 139 180 233 280 327
#     4  11  22  39  60  85 115 148 185 228 282 343
#     4  12  24  39  58  82 113 151 190 232 280 334
#
# _framework density 19.951335
#
# number of rings (size 3 to 8) (size 9 to 14) (size 15 to 20)
#    0.000    1.714    0.000    6.000    0.000    3.429 
#    0.000    7.143    0.000    0.000    0.000    0.000 
#    0.000    0.000    0.000    0.000    0.000    0.000 
#
# Total GULP energy -156510.870773 kJ/mol
# GULP energy per Si atom -5589.673956 kJ/mol
# Density = 1.990592 g / cm^3
# Si number density = 19.951335 Si / 1000 Ang^3
#
#
#
# Elastic Constant Matrix: (Units=GPa)
#
#
# Indices 1 2 3 4 5 6 
#
# 1 108.3632 8.6040 15.5842 0.0000 33.5559 0.0000
# 2 8.6040 45.1199 16.2231 0.0000 2.7947 0.0000
# 3 15.5842 16.2231 58.0696 0.0000 23.4463 0.0000
# 4 0.0000 0.0000 0.0000 33.8440 0.0000 8.0917
# 5 33.5559 2.7947 23.4463 0.0000 24.6717 0.0000
# 6 0.0000 0.0000 0.0000 8.0917 0.0000 29.4299
#
#
#
# Elastic Compliance Matrix: (Units=1/GPa)
#
#
# Indices 1 2 3 4 5 6 
#
# 1 0.019138 -0.005300 0.010729 0.000000 -0.035624 0.000000
# 2 -0.005300 0.026682 -0.012530 0.000000 0.016095 0.000000
# 3 0.010729 -0.012530 0.037581 0.000000 -0.048887 0.000000
# 4 0.000000 0.000000 0.000000 0.031626 0.000000 -0.008696
# 5 -0.035624 0.016095 -0.048887 0.000000 0.133620 0.000000
# 6 0.000000 0.000000 0.000000 -0.008696 0.000000 0.036370
#
#
# Mechanical properties :
#
#
# Convention : Reuss Voigt Hill
#
# Bulk Modulus (GPa) = 14.45160 32.48617 23.46888
# Shear Modulus (GPa) = 15.51414 28.99854 22.25634
#
# Velocity S-wave (km/s) = 2.79157 3.81657 3.34358
# Velocity P-wave (km/s) = 4.20115 5.97826 5.16669
#
# Compressibility (1/GPa) = 0.06919650
#
# Stress axis : x y z
#
# Youngs Moduli (GPa) = 52.25309 37.47795 26.60941
#
# Poissons Ratio (x) = 0.19865 -0.28548
# Poissons Ratio (y) = 0.27696 0.33342
# Poissons Ratio (z) = -0.56060 0.46961
#
# Static dielectric constant tensor:
#      x y z
#    x 1.736590 0.000000 0.001460 
#    y 0.000000 1.666740 0.000000 
#    z 0.001460 0.000000 1.717990 
# 
# From -- ./inp_files/338554.got.cif
#   From: 2010.05.17/outbox.cif.g08.bks.cpg/sg12_170_cif.got.tgz:338554.got - 2010.06.03 13:09:07.
