data_PCOD9193416
_publ_section_title
;
Structure prediction by ZEFSAII (Michael W. Deem and Ramdas Pophale) SiO2 
 PCOD9193416
Probable space group: C 2/M
;
_chemical_formula_sum "Si O2"
_cell_formula_units_Z 56
_cell_length_a 12.875898
_cell_length_b 13.288212
_cell_length_c 20.697611
_cell_angle_alpha 90.000000
_cell_angle_beta 133.024176
_cell_angle_gamma 90.000000
_cell_volume 2588.932954
_symmetry_space_group_name_H-M "C 2/M"
_symmetry_group_IT_number 12
_symmetry_cell_setting 'monoclinic'
loop_
_space_group_symop_operation_xyz
x,y,z
-x,y,-z
-x,-y,-z
x,-y,z
1/2+x,1/2+y,z
1/2-x,1/2+y,-z
1/2-x,1/2-y,-z
1/2+x,1/2-y,z
loop_
_atom_site_type_symbol
_atom_site_label
_atom_site_fract_x
_atom_site_fract_y
_atom_site_fract_z
Si Si1 0.402786 0.385130 0.326843
Si Si2 0.557261 0.824576 0.873263
Si Si3 0.840292 0.612764 0.418863
Si Si4 0.818870 0.697780 0.674934
Si Si5 0.682774 0.883220 0.128000
Si Si6 0.369101 0.310456 0.984632
Si Si7 0.801917 0.885893 0.501992
O O1 0.443717 0.500000 0.330031
O O2 0.282415 0.378261 0.329584
O O3 0.323227 0.350807 0.228205
O O4 0.543736 0.338668 0.417585
O O5 0.472934 0.811925 0.770805
O O6 0.449215 0.880838 0.876786
O O7 0.716337 0.863687 0.926685
O O8 0.581043 0.719959 0.922333
O O9 0.844525 0.500000 0.392422
O O10 0.747693 0.692209 0.340173
O O11 0.771272 0.606970 0.460077
O O12 0.000000 0.647569 0.500000
O O13 0.792943 0.673128 0.589435
O O14 0.659038 0.797161 0.064515
O O15 0.695777 0.000000 0.111187
O O16 0.500000 0.357551 0.000000
O O17 0.821025 0.000000 0.484529
#
# Coordination Sequence:
#
# PCOD9193416 Si02
#       7
#     8   8   8   8   8   8   8
#     4   9  18  32  53  84 115 137 171 222 272 322
#     4   9  20  34  52  82 110 139 177 225 276 331
#     4  10  22  38  51  70 106 149 189 223 255 308
#     4  11  20  33  54  81 107 140 178 219 273 327
#     4   9  18  33  58  87 112 142 182 228 277 326
#     4   9  18  36  55  76 111 143 176 222 280 330
#     4  10  20  34  53  78 110 144 175 218 270 318
#
# _framework density 21.630533
#
# number of rings (size 3 to 8) (size 9 to 14) (size 15 to 20)
#    0.000    2.429    0.000    2.143    2.000    4.286 
#    5.143    0.000    0.000    1.286    0.000    3.000 
#    0.000    0.000    0.000    0.000    0.000    0.000 
#
# Total GULP energy -156062.035604 kJ/mol
# GULP energy per Si atom -5573.644129 kJ/mol
# Density = 2.158130 g / cm^3
# Si number density = 21.630533 Si / 1000 Ang^3
#
#
#
# Elastic Constant Matrix: (Units=GPa)
#
#
# Indices 1 2 3 4 5 6 
#
# 1 75.9481 -8.0275 21.2120 0.0000 23.3876 0.0000
# 2 -8.0275 55.3151 18.3654 0.0000 0.7381 0.0000
# 3 21.2120 18.3654 138.1192 0.0000 12.7242 0.0000
# 4 0.0000 0.0000 0.0000 4.4895 0.0000 3.1721
# 5 23.3876 0.7381 12.7242 0.0000 23.4950 0.0000
# 6 0.0000 0.0000 0.0000 3.1721 0.0000 15.8747
#
#
#
# Elastic Compliance Matrix: (Units=1/GPa)
#
#
# Indices 1 2 3 4 5 6 
#
# 1 0.019903 0.003742 -0.001808 0.000000 -0.018950 0.000000
# 2 0.003742 0.019631 -0.002931 0.000000 -0.002754 0.000000
# 3 -0.001808 -0.002931 0.008139 0.000000 -0.002516 0.000000
# 4 0.000000 0.000000 0.000000 0.259361 0.000000 -0.051826
# 5 -0.018950 -0.002754 -0.002516 0.000000 0.062875 0.000000
# 6 0.000000 0.000000 0.000000 -0.051826 0.000000 0.073349
#
#
# Mechanical properties :
#
#
# Convention : Reuss Voigt Hill
#
# Bulk Modulus (GPa) = 21.89253 36.94246 29.41750
# Shear Modulus (GPa) = 10.85822 24.62733 17.74277
#
# Velocity S-wave (km/s) = 2.24293 3.37789 2.86713
# Velocity P-wave (km/s) = 4.10497 5.68590 4.95884
#
# Compressibility (1/GPa) = 0.04567768
#
# Stress axis : x y z
#
# Youngs Moduli (GPa) = 50.24365 50.93930 122.85940
#
# Poissons Ratio (x) = -0.19060 0.22218
# Poissons Ratio (y) = -0.18800 0.36013
# Poissons Ratio (z) = 0.09086 0.14932
#
# Static dielectric constant tensor:
#      x y z
#    x 1.817240 0.000000 0.025050 
#    y 0.000000 1.852480 0.000000 
#    z 0.025050 0.000000 1.817510 
# 
# From -- ./inp_files/339927.got.cif
#   From: 2010.05.17/outbox.cif.g08.bks.cpg/sg12_170_cif.got.tgz:339927.got - 2010.06.03 13:09:07.
