data_PCOD9193820
_publ_section_title
;
Structure prediction by ZEFSAII (Michael W. Deem and Ramdas Pophale) SiO2 
 PCOD9193820
Probable space group: C 2/M
;
_chemical_formula_sum "Si O2"
_cell_formula_units_Z 56
_cell_length_a 14.644851
_cell_length_b 9.236020
_cell_length_c 23.193938
_cell_angle_alpha 90.000000
_cell_angle_beta 72.203566
_cell_angle_gamma 90.000000
_cell_volume 2987.094510
_symmetry_space_group_name_H-M "C 2/M"
_symmetry_group_IT_number 12
_symmetry_cell_setting 'monoclinic'
loop_
_space_group_symop_operation_xyz
x,y,z
-x,y,-z
-x,-y,-z
x,-y,z
1/2+x,1/2+y,z
1/2-x,1/2+y,-z
1/2-x,1/2-y,-z
1/2+x,1/2-y,z
loop_
_atom_site_type_symbol
_atom_site_label
_atom_site_fract_x
_atom_site_fract_y
_atom_site_fract_z
Si Si1 0.626618 0.172664 0.720809
Si Si2 0.844560 0.830055 0.050022
Si Si3 0.109196 0.665634 0.504393
Si Si4 0.880528 0.670166 0.926619
Si Si5 0.005532 0.326000 0.635281
Si Si6 0.558545 0.327378 0.846400
Si Si7 0.322655 0.672623 0.615933
O O1 0.540581 0.204692 0.692756
O O2 0.613497 0.259963 0.781780
O O3 0.724699 0.206532 0.668124
O O4 0.625773 0.000000 0.732486
O O5 0.729634 0.810983 0.071799
O O6 0.887834 0.794416 0.103694
O O7 0.864584 0.000000 0.033867
O O8 0.886018 0.735393 0.989982
O O9 0.143946 0.500000 0.496097
O O10 0.090880 0.711387 0.573667
O O11 0.170678 0.763745 0.450010
O O12 0.000000 0.666458 0.500000
O O13 0.902753 0.500000 0.922416
O O14 0.954241 0.755407 0.872382
O O15 0.990839 0.500000 0.632024
O O16 0.910819 0.243001 0.634041
O O17 0.551582 0.500000 0.842257
O O18 0.333218 0.500000 0.611123
#
# Coordination Sequence:
#
# PCOD9193820 Si02
#       7
#     8   8   8   8   8   8   8
#     4  10  23  40  54  74 107 145 183 220 264 318
#     4   9  20  38  58  83 114 144 175 215 265 318
#     4   8  15  30  53  78 103 136 175 213 265 329
#     4  10  20  36  60  87 112 141 178 219 264 312
#     4   9  19  37  57  75 103 143 179 215 266 327
#     4  11  23  38  56  79 110 146 182 220 263 314
#     4  10  20  34  54  81 109 135 172 227 276 312
#
# _framework density 18.747313999999999
#
# number of rings (size 3 to 8) (size 9 to 14) (size 15 to 20)
#    0.000    2.429    0.000    2.571    0.000    9.429 
#    0.000    4.286    0.000    0.000    0.000    0.000 
#    0.000    0.000    0.000    0.000    0.000    0.000 
#
# Total GULP energy -156338.992897 kJ/mol
# GULP energy per Si atom -5583.535461 kJ/mol
# Density = 1.870464 g / cm^3
# Si number density = 18.747314 Si / 1000 Ang^3
#
#
#
# Elastic Constant Matrix: (Units=GPa)
#
#
# Indices 1 2 3 4 5 6 
#
# 1 41.9402 24.7545 19.2110 0.0000 -2.5947 0.0000
# 2 24.7545 48.0951 43.8663 0.0000 -7.3554 0.0000
# 3 19.2110 43.8663 85.0526 0.0000 -8.9890 0.0000
# 4 0.0000 0.0000 0.0000 38.4352 0.0000 -5.0274
# 5 -2.5947 -7.3554 -8.9890 0.0000 18.8958 0.0000
# 6 0.0000 0.0000 0.0000 -5.0274 0.0000 17.0064
#
#
#
# Elastic Compliance Matrix: (Units=1/GPa)
#
#
# Indices 1 2 3 4 5 6 
#
# 1 0.034616 -0.020390 0.002486 0.000000 -0.002001 0.000000
# 2 -0.020390 0.051917 -0.021407 0.000000 0.007226 0.000000
# 3 0.002486 -0.021407 0.022525 0.000000 0.002724 0.000000
# 4 0.000000 0.000000 0.000000 0.027064 0.000000 0.008001
# 5 -0.002001 0.007226 0.002724 0.000000 0.056755 0.000000
# 6 0.000000 0.000000 0.000000 0.008001 0.000000 0.061167
#
#
# Mechanical properties :
#
#
# Convention : Reuss Voigt Hill
#
# Bulk Modulus (GPa) = 32.85720 38.97241 35.91480
# Shear Modulus (GPa) = 14.58527 20.68455 17.63491
#
# Velocity S-wave (km/s) = 2.79228 3.32525 3.07035
# Velocity P-wave (km/s) = 5.28774 5.96460 5.63634
#
# Compressibility (1/GPa) = 0.03043473
#
# Stress axis : x y z
#
# Youngs Moduli (GPa) = 28.88844 19.26150 44.39594
#
# Poissons Ratio (x) = 0.39275 -0.11038
# Poissons Ratio (y) = 0.58905 0.95039
# Poissons Ratio (z) = -0.07182 0.41233
#
# Static dielectric constant tensor:
#      x y z
#    x 1.662050 0.000000 0.007560 
#    y 0.000000 1.622420 0.000000 
#    z 0.007560 0.000000 1.636950 
# 
# From -- ./inp_files/337899.got.cif
#   From: 2010.05.17/outbox.cif.g08.bks.cpg/sg12_169_cif.got.tgz:337899.got - 2010.06.03 13:09:07.
