data_PCOD9193146
_publ_section_title
;
Structure prediction by ZEFSAII (Michael W. Deem and Ramdas Pophale) SiO2 
 PCOD9193146
Probable space group: C 2/M
;
_chemical_formula_sum "Si O2"
_cell_formula_units_Z 40
_cell_length_a 31.805076
_cell_length_b 7.838233
_cell_length_c 30.743543
_cell_angle_alpha 90.000000
_cell_angle_beta 165.517840
_cell_angle_gamma 90.000000
_cell_volume 1916.659442
_symmetry_space_group_name_H-M "C 2/M"
_symmetry_group_IT_number 12
_symmetry_cell_setting 'monoclinic'
loop_
_space_group_symop_operation_xyz
x,y,z
-x,y,-z
-x,-y,-z
x,-y,z
1/2+x,1/2+y,z
1/2-x,1/2+y,-z
1/2-x,1/2-y,-z
1/2+x,1/2-y,z
loop_
_atom_site_type_symbol
_atom_site_label
_atom_site_fract_x
_atom_site_fract_y
_atom_site_fract_z
Si Si1 0.664643 0.796691 0.869501
Si Si2 0.998664 0.790408 0.948367
Si Si3 0.791324 0.811218 0.493059
Si Si4 0.697363 0.207037 0.807232
Si Si5 0.188248 0.300570 0.580752
O O1 0.492297 0.695116 0.694396
O O2 0.756596 0.756963 0.916157
O O3 0.627508 0.000000 0.832050
O O4 0.750000 0.750000 0.000000
O O5 0.830818 0.729493 0.755339
O O6 0.998315 0.000000 0.946495
O O7 0.000000 0.740385 0.000000
O O8 0.166074 0.732809 0.090584
O O9 0.750000 0.750000 0.500000
O O10 0.748113 0.712429 0.405538
O O11 0.721924 0.000000 0.418561
O O12 0.503468 0.268962 0.607749
O O13 0.690822 0.000000 0.797381
O O14 0.172956 0.500000 0.575854
#
# Coordination Sequence:
#
# PCOD9193146 Si02
#       5
#     8   8   8   8   8
#     4  10  20  34  52  79 111 147 187 227 277 332
#     4   9  17  29  50  80 108 139 180 226 280 332
#     4  11  22  36  54  78 108 144 185 231 281 339
#     4   8  16  30  46  71 107 141 177 224 270 320
#     4   9  18  33  52  75 108 143 178 226 277 330
#
# _framework density 20.869644999999998
#
# number of rings (size 3 to 8) (size 9 to 14) (size 15 to 20)
#    0.000    2.600    0.000    3.600    2.800    0.800 
#    0.000    4.000    0.000    0.600    0.000    5.600 
#    0.000    0.000    0.000    0.000    0.000    0.000 
#
# Total GULP energy -111447.213367 kJ/mol
# GULP energy per Si atom -5572.360668 kJ/mol
# Density = 2.082214 g / cm^3
# Si number density = 20.869645 Si / 1000 Ang^3
#
#
#
# Elastic Constant Matrix: (Units=GPa)
#
#
# Indices 1 2 3 4 5 6 
#
# 1 205.0614 3.3288 101.1561 -0.0087 -0.9012 0.0006
# 2 3.3288 32.2755 1.8594 -0.0250 4.4000 -0.0095
# 3 101.1561 1.8594 116.8161 -0.0327 -16.8906 -0.0120
# 4 -0.0087 -0.0250 -0.0327 7.9400 -0.0097 -3.6545
# 5 -0.9012 4.4000 -16.8906 -0.0097 37.7097 -0.0004
# 6 0.0006 -0.0095 -0.0120 -3.6545 -0.0004 16.3829
#
#
#
# Elastic Compliance Matrix: (Units=1/GPa)
#
#
# Indices 1 2 3 4 5 6 
#
# 1 0.008919 0.000028 -0.008226 -0.000035 -0.003475 -0.000014
# 2 0.000028 0.031618 -0.001134 0.000109 -0.004196 0.000042
# 3 -0.008226 -0.001134 0.016779 0.000079 0.007451 0.000030
# 4 -0.000035 0.000109 0.000079 0.140356 0.000058 0.031309
# 5 -0.003475 -0.004196 0.007451 0.000058 0.030263 0.000017
# 6 -0.000014 0.000042 0.000030 0.031309 0.000017 0.068023
#
#
# Mechanical properties :
#
#
# Convention : Reuss Voigt Hill
#
# Bulk Modulus (GPa) = 25.87237 62.98239 44.42738
# Shear Modulus (GPa) = 15.26692 28.92710 22.09701
#
# Velocity S-wave (km/s) = 2.70763 3.72706 3.25747
# Velocity P-wave (km/s) = 4.71159 6.98325 5.95671
#
# Compressibility (1/GPa) = 0.03865127
#
# Stress axis : x y z
#
# Youngs Moduli (GPa) = 112.12415 31.62764 59.59788
#
# Poissons Ratio (x) = -0.00088 0.49025
# Poissons Ratio (y) = -0.00311 0.06758
# Poissons Ratio (z) = 0.92232 0.03587
#
# Static dielectric constant tensor:
#      x y z
#    x 1.769360 -0.000110 0.001900 
#    y -0.000110 1.758670 -0.000050 
#    z 0.001900 -0.000050 1.739770 
# 
# From -- ./inp_files/101000.got.cif
#   From: 2010.05.17/outbox.cif.g08.bks.cpg/sg12_51_cif.got.tgz:101000.got - 2010.06.03 13:09:07.
