data_PCOD9193822
_publ_section_title
;
Structure prediction by ZEFSAII (Michael W. Deem and Ramdas Pophale) SiO2 
 PCOD9193822
Probable space group: C 2/M
;
_chemical_formula_sum "Si O2"
_cell_formula_units_Z 40
_cell_length_a 28.479110
_cell_length_b 8.788242
_cell_length_c 26.900369
_cell_angle_alpha 90.000000
_cell_angle_beta 160.956540
_cell_angle_gamma 90.000000
_cell_volume 2196.767561
_symmetry_space_group_name_H-M "C 2/M"
_symmetry_group_IT_number 12
_symmetry_cell_setting 'monoclinic'
loop_
_space_group_symop_operation_xyz
x,y,z
-x,y,-z
-x,-y,-z
x,-y,z
1/2+x,1/2+y,z
1/2-x,1/2+y,-z
1/2-x,1/2-y,-z
1/2+x,1/2-y,z
loop_
_atom_site_type_symbol
_atom_site_label
_atom_site_fract_x
_atom_site_fract_y
_atom_site_fract_z
Si Si1 0.419257 0.817910 0.774198
Si Si2 0.418037 0.683831 0.968535
Si Si3 0.919536 0.817344 0.562187
Si Si4 0.415510 0.183508 0.366244
Si Si5 0.411170 0.317422 0.663463
O O1 0.249976 0.774461 0.610476
O O2 0.475692 0.749854 0.778491
O O3 0.425963 0.000000 0.778475
O O4 0.506194 0.755741 0.907907
O O5 0.425213 0.500000 0.979835
O O6 0.251191 0.729608 0.798636
O O7 0.500000 0.727700 0.000000
O O8 0.974960 0.777042 0.673200
O O9 0.007921 0.742853 0.606552
O O10 0.926747 0.000000 0.564835
O O11 0.500000 0.236448 0.500000
O O12 0.420162 0.000000 0.370528
O O13 0.404524 0.500000 0.660133
O O14 0.250000 0.250000 0.500000
#
# Coordination Sequence:
#
# PCOD9193822 Si02
#       5
#     8   8   8   8   8
#     4  10  20  34  54  81 109 140 179 218 261 311
#     4  10  21  37  56  78 105 138 176 219 268 318
#     4   9  19  34  53  79 108 138 173 214 259 308
#     4  10  21  36  55  79 104 135 176 217 262 317
#     4   9  17  31  52  79 109 140 177 217 259 309
#
# _framework density 18.208570999999999
#
# number of rings (size 3 to 8) (size 9 to 14) (size 15 to 20)
#    0.000    2.400    0.000    3.600    0.000    8.000 
#    0.000    1.000    0.000    0.000    0.000    0.000 
#    0.000    0.000    0.000    0.000    0.000    0.000 
#
# Total GULP energy -111565.510780 kJ/mol
# GULP energy per Si atom -5578.275539 kJ/mol
# Density = 1.816713 g / cm^3
# Si number density = 18.208571 Si / 1000 Ang^3
#
#
#
# Elastic Constant Matrix: (Units=GPa)
#
#
# Indices 1 2 3 4 5 6 
#
# 1 217.9789 51.9171 100.1620 -0.0004 -18.4231 -0.0002
# 2 51.9171 28.6746 37.8515 0.0036 -6.6361 0.0009
# 3 100.1620 37.8515 112.0743 0.0050 -14.2830 0.0015
# 4 -0.0004 0.0036 0.0050 24.8114 0.0016 -3.3409
# 5 -18.4231 -6.6361 -14.2830 0.0016 34.0462 0.0002
# 6 -0.0002 0.0009 0.0015 -3.3409 0.0002 36.6012
#
#
#
# Elastic Compliance Matrix: (Units=1/GPa)
#
#
# Indices 1 2 3 4 5 6 
#
# 1 0.009305 -0.010473 -0.004646 0.000003 0.001045 0.000001
# 2 -0.010473 0.075123 -0.015708 -0.000008 0.002386 -0.000002
# 3 -0.004646 -0.015708 0.018667 -0.000002 0.002256 -0.000001
# 4 0.000003 -0.000008 -0.000002 0.040806 -0.000003 0.003725
# 5 0.001045 0.002386 0.002256 -0.000003 0.031349 -0.000001
# 6 0.000001 -0.000002 -0.000001 0.003725 -0.000001 0.027661
#
#
# Mechanical properties :
#
#
# Convention : Reuss Voigt Hill
#
# Bulk Modulus (GPa) = 24.13004 82.06544 53.09774
# Shear Modulus (GPa) = 17.96116 30.34490 24.15303
#
# Velocity S-wave (km/s) = 3.14413 4.08673 3.64602
# Velocity P-wave (km/s) = 5.14408 8.21194 6.85192
#
# Compressibility (1/GPa) = 0.04144211
#
# Stress axis : x y z
#
# Youngs Moduli (GPa) = 107.46842 13.31147 53.56988
#
# Poissons Ratio (x) = 0.13941 0.24887
# Poissons Ratio (y) = 1.12551 0.84147
# Poissons Ratio (z) = 0.49927 0.20910
#
# Static dielectric constant tensor:
#      x y z
#    x 1.627420 0.000000 -0.012880 
#    y 0.000000 1.612470 0.000000 
#    z -0.012880 0.000000 1.630740 
# 
# From -- ./inp_files/93012.got.cif
#   From: 2010.05.17/outbox.cif.g08.bks.cpg/sg12_47_cif.got.tgz:93012.got - 2010.06.03 13:09:07.
