data_PCOD9193496
_publ_section_title
;
Structure prediction by ZEFSAII (Michael W. Deem and Ramdas Pophale) SiO2 
 PCOD9193496
Probable space group: C 2/M
;
_chemical_formula_sum "Si O2"
_cell_formula_units_Z 56
_cell_length_a 23.653758
_cell_length_b 8.556056
_cell_length_c 14.734322
_cell_angle_alpha 90.000000
_cell_angle_beta 84.099901
_cell_angle_gamma 90.000000
_cell_volume 2966.177899
_symmetry_space_group_name_H-M "C 2/M"
_symmetry_group_IT_number 12
_symmetry_cell_setting 'monoclinic'
loop_
_space_group_symop_operation_xyz
x,y,z
-x,y,-z
-x,-y,-z
x,-y,z
1/2+x,1/2+y,z
1/2-x,1/2+y,-z
1/2-x,1/2-y,-z
1/2+x,1/2-y,z
loop_
_atom_site_type_symbol
_atom_site_label
_atom_site_fract_x
_atom_site_fract_y
_atom_site_fract_z
Si Si1 0.524682 0.312811 0.184144
Si Si2 0.889620 0.688112 0.966677
Si Si3 0.706501 0.813897 0.162371
Si Si4 0.591941 0.311274 0.708513
Si Si5 0.564826 0.690781 0.509650
Si Si6 0.378148 0.688130 0.683970
Si Si7 0.831500 0.686499 0.156953
O O1 0.522593 0.500000 0.176867
O O2 0.552516 0.246992 0.088286
O O3 0.462919 0.255789 0.224756
O O4 0.568440 0.275447 0.258895
O O5 0.891016 0.500000 0.966224
O O6 0.837682 0.737636 0.908830
O O7 0.873642 0.743053 0.069742
O O8 0.676282 0.766625 0.261500
O O9 0.767759 0.736881 0.143972
O O10 0.712436 0.000000 0.155595
O O11 0.590917 0.500000 0.708033
O O12 0.584850 0.258462 0.605770
O O13 0.647422 0.254626 0.751455
O O14 0.500000 0.740099 0.500000
O O15 0.564080 0.500000 0.509749
O O16 0.605192 0.738465 0.419962
O O17 0.370829 0.500000 0.686373
O O18 0.834204 0.500000 0.159576
#
# Coordination Sequence:
#
# PCOD9193496 Si02
#       7
#     8   8   8   8   8   8   8
#     4   9  17  30  52  81 109 136 171 214 258 307
#     4   9  20  36  55  77 103 136 175 218 265 312
#     4  10  20  36  57  79 103 133 174 223 266 308
#     4  10  20  34  53  80 111 141 175 214 257 307
#     4   9  15  29  56  84 108 136 173 213 255 306
#     4   9  16  30  55  84 108 134 170 214 260 308
#     4  11  23  38  53  73 104 143 180 216 261 313
#
# _framework density 18.879517
#
# number of rings (size 3 to 8) (size 9 to 14) (size 15 to 20)
#    0.000    2.429    1.429    1.286    0.000    2.857 
#    0.000    4.286    0.000    0.857    0.000    0.000 
#    0.000    0.000    0.000    0.000    0.000    0.000 
#
# Total GULP energy -156246.213294 kJ/mol
# GULP energy per Si atom -5580.221903 kJ/mol
# Density = 1.883655 g / cm^3
# Si number density = 18.879517 Si / 1000 Ang^3
#
#
#
# Elastic Constant Matrix: (Units=GPa)
#
#
# Indices 1 2 3 4 5 6 
#
# 1 10.5405 1.4493 11.1644 0.0000 -1.4869 0.0000
# 2 1.4493 5.4600 12.0222 0.0000 0.9779 0.0000
# 3 11.1644 12.0222 111.4008 0.0000 -4.5960 0.0000
# 4 0.0000 0.0000 0.0000 20.0690 0.0000 -2.4133
# 5 -1.4869 0.9779 -4.5960 0.0000 23.4497 0.0000
# 6 0.0000 0.0000 0.0000 -2.4133 0.0000 16.2650
#
#
#
# Elastic Compliance Matrix: (Units=1/GPa)
#
#
# Indices 1 2 3 4 5 6 
#
# 1 0.106920 -0.008133 -0.009622 0.000000 0.005233 0.000000
# 2 -0.008133 0.246368 -0.026431 0.000000 -0.015970 0.000000
# 3 -0.009622 -0.026431 0.012918 0.000000 0.003024 0.000000
# 4 0.000000 0.000000 0.000000 0.050733 0.000000 0.007527
# 5 0.005233 -0.015970 0.003024 0.000000 0.044235 0.000000
# 6 0.000000 0.000000 0.000000 0.007527 0.000000 0.062598
#
#
# Mechanical properties :
#
#
# Convention : Reuss Voigt Hill
#
# Bulk Modulus (GPa) = 3.59927 19.63034 11.61481
# Shear Modulus (GPa) = 7.09463 18.80776 12.95120
#
# Velocity S-wave (km/s) = 1.94062 3.15969 2.62199
# Velocity P-wave (km/s) = 2.63285 4.87152 3.91559
#
# Compressibility (1/GPa) = 0.27783375
#
# Stress axis : x y z
#
# Youngs Moduli (GPa) = 9.35275 4.05896 77.41103
#
# Poissons Ratio (x) = 0.03301 0.74483
# Poissons Ratio (y) = 0.07607 2.04608
# Poissons Ratio (z) = 0.08999 0.10728
#
# Static dielectric constant tensor:
#      x y z
#    x 1.636580 0.000000 -0.006700 
#    y 0.000000 1.645580 0.000000 
#    z -0.006700 0.000000 1.663550 
# 
# From -- ./inp_files/231019.got.cif
#   From: 2010.05.17/outbox.cif.g08.bks.cpg/sg12_116_cif.got.tgz:231019.got - 2010.06.03 13:09:07.
