data_PCOD9193673
_publ_section_title
;
Structure prediction by ZEFSAII (Michael W. Deem and Ramdas Pophale) SiO2 
 PCOD9193673
Probable space group: C 2/M
;
_chemical_formula_sum "Si O2"
_cell_formula_units_Z 56
_cell_length_a 29.872102
_cell_length_b 9.283598
_cell_length_c 19.292870
_cell_angle_alpha 90.000000
_cell_angle_beta 141.765764
_cell_angle_gamma 90.000000
_cell_volume 3311.188410
_symmetry_space_group_name_H-M "C 2/M"
_symmetry_group_IT_number 12
_symmetry_cell_setting 'monoclinic'
loop_
_space_group_symop_operation_xyz
x,y,z
-x,y,-z
-x,-y,-z
x,-y,z
1/2+x,1/2+y,z
1/2-x,1/2+y,-z
1/2-x,1/2-y,-z
1/2+x,1/2-y,z
loop_
_atom_site_type_symbol
_atom_site_label
_atom_site_fract_x
_atom_site_fract_y
_atom_site_fract_z
Si Si1 0.536952 0.329621 0.470559
Si Si2 0.343620 0.325255 0.849928
Si Si3 0.186150 0.673643 0.623527
Si Si4 0.508919 0.165703 0.717523
Si Si5 0.840072 0.664207 0.560864
Si Si6 0.617706 0.670107 0.256628
Si Si7 0.048744 0.171145 0.898947
O O1 0.500000 0.309753 0.500000
O O2 0.543518 0.500000 0.464293
O O3 0.615771 0.255769 0.564305
O O4 0.491380 0.253822 0.354123
O O5 0.350187 0.500000 0.856474
O O6 0.258893 0.291898 0.753466
O O7 0.368358 0.274157 0.803930
O O8 0.394363 0.276903 0.974249
O O9 0.173860 0.500000 0.610034
O O10 0.198555 0.711275 0.557185
O O11 0.424857 0.165637 0.640595
O O12 0.552411 0.242918 0.831679
O O13 0.530318 0.000000 0.733489
O O14 0.819308 0.500000 0.550996
O O15 0.837266 0.757462 0.626652
O O16 0.633731 0.500000 0.276892
O O17 0.532617 0.688269 0.170244
O O18 0.059094 0.000000 0.899224
#
# Coordination Sequence:
#
# PCOD9193673 Si02
#       7
#     8   8   8   8   8   8   8
#     4  10  20  34  54  78  98 114 140 185 236 285
#     4   9  17  29  45  66  94 130 167 200 233 269
#     4   9  18  32  48  67  95 128 158 189 232 286
#     4   9  17  30  49  72  97 123 152 188 230 278
#     4   8  15  27  41  60  89 122 155 195 238 274
#     4   9  16  26  43  66  90 123 168 206 232 264
#     4   9  16  28  47  68  94 129 167 202 231 263
#
# _framework density 16.912357
#
# number of rings (size 3 to 8) (size 9 to 14) (size 15 to 20)
#    0.000    3.000    0.000    2.143    0.000    6.857 
#    0.000    2.143    0.000    4.286    0.000    0.000 
#    0.000    0.000    0.000    0.000    0.000    0.000 
#
# Total GULP energy -156053.525085 kJ/mol
# GULP energy per Si atom -5573.340182 kJ/mol
# Density = 1.687386 g / cm^3
# Si number density = 16.912357 Si / 1000 Ang^3
#
#
#
# Elastic Constant Matrix: (Units=GPa)
#
#
# Indices 1 2 3 4 5 6 
#
# 1 71.1212 52.8645 45.4303 0.0000 -18.2404 0.0000
# 2 52.8645 66.3198 55.6411 0.0000 -12.6326 0.0000
# 3 45.4303 55.6411 133.1107 0.0000 -16.1018 0.0000
# 4 0.0000 0.0000 0.0000 21.7325 0.0000 -5.8677
# 5 -18.2404 -12.6326 -16.1018 0.0000 18.2583 0.0000
# 6 0.0000 0.0000 0.0000 -5.8677 0.0000 14.5198
#
#
#
# Elastic Compliance Matrix: (Units=1/GPa)
#
#
# Indices 1 2 3 4 5 6 
#
# 1 0.040430 -0.028908 0.000841 0.000000 0.021132 0.000000
# 2 -0.028908 0.045104 -0.009746 0.000000 -0.006268 0.000000
# 3 0.000841 -0.009746 0.011849 0.000000 0.004547 0.000000
# 4 0.000000 0.000000 0.000000 0.051650 0.000000 0.020872
# 5 0.021132 -0.006268 0.004547 0.000000 0.075554 0.000000
# 6 0.000000 0.000000 0.000000 0.020872 0.000000 0.077306
#
#
# Mechanical properties :
#
#
# Convention : Reuss Voigt Hill
#
# Bulk Modulus (GPa) = 45.95936 64.26927 55.11431
# Shear Modulus (GPa) = 12.99472 18.67651 15.83561
#
# Velocity S-wave (km/s) = 2.77493 3.32672 3.06328
# Velocity P-wave (km/s) = 6.12381 7.26911 6.72090
#
# Compressibility (1/GPa) = 0.02175835
#
# Stress axis : x y z
#
# Youngs Moduli (GPa) = 24.73397 22.17090 84.39342
#
# Poissons Ratio (x) = 0.64092 -0.07100
# Poissons Ratio (y) = 0.71501 0.82248
# Poissons Ratio (z) = -0.02081 0.21607
#
# Static dielectric constant tensor:
#      x y z
#    x 1.560040 0.000000 0.007260 
#    y 0.000000 1.570540 0.000000 
#    z 0.007260 0.000000 1.587590 
# 
# From -- ./inp_files/295166.got.cif
#   From: 2010.05.17/outbox.cif.g08.bks.cpg/sg12_148_cif.got.tgz:295166.got - 2010.06.03 13:09:07.
