data_PCOD9193376
_publ_section_title
;
Structure prediction by ZEFSAII (Michael W. Deem and Ramdas Pophale) SiO2 
 PCOD9193376
Probable space group: C 2/M
;
_chemical_formula_sum "Si O2"
_cell_formula_units_Z 56
_cell_length_a 18.972266
_cell_length_b 8.718429
_cell_length_c 19.114766
_cell_angle_alpha 90.000000
_cell_angle_beta 75.680324
_cell_angle_gamma 90.000000
_cell_volume 3063.509354
_symmetry_space_group_name_H-M "C 2/M"
_symmetry_group_IT_number 12
_symmetry_cell_setting 'monoclinic'
loop_
_space_group_symop_operation_xyz
x,y,z
-x,y,-z
-x,-y,-z
x,-y,z
1/2+x,1/2+y,z
1/2-x,1/2+y,-z
1/2-x,1/2-y,-z
1/2+x,1/2-y,z
loop_
_atom_site_type_symbol
_atom_site_label
_atom_site_fract_x
_atom_site_fract_y
_atom_site_fract_z
Si Si1 0.513129 0.816818 0.271171
Si Si2 0.855559 0.814361 0.272722
Si Si3 0.689667 0.682044 0.565319
Si Si4 0.964891 0.684064 0.435040
Si Si5 0.793472 0.185532 0.137454
Si Si6 0.864641 0.183994 0.858251
Si Si7 0.080759 0.186861 0.001807
O O1 0.436317 0.754835 0.260189
O O2 0.512502 0.781296 0.354408
O O3 0.579991 0.742669 0.214223
O O4 0.515564 0.000000 0.262493
O O5 0.810453 0.767814 0.353074
O O6 0.816911 0.769742 0.210223
O O7 0.862718 0.000000 0.271399
O O8 0.696752 0.500000 0.563035
O O9 0.750000 0.750000 0.500000
O O10 0.611241 0.732371 0.556567
O O11 0.952586 0.500000 0.438361
O O12 0.000000 0.727008 0.500000
O O13 0.716084 0.253048 0.134654
O O14 0.788629 0.000000 0.136520
O O15 0.857571 0.233573 0.068700
O O16 0.895727 0.234631 0.926242
O O17 0.862828 0.000000 0.858128
O O18 0.078997 0.000000 0.001714
O O19 0.000000 0.239397 0.000000
#
# Coordination Sequence:
#
# PCOD9193376 Si02
#       7
#     8   8   8   8   8   8   8
#     4  10  20  35  56  79 104 137 176 217 262 313
#     4   9  19  36  57  78 102 137 178 219 262 310
#     4  10  20  34  53  78 107 138 175 217 262 312
#     4   9  19  36  56  77 103 136 175 219 264 311
#     4  10  20  36  57  79 106 139 176 217 260 307
#     4  11  22  35  53  79 111 141 172 214 261 309
#     4   9  18  34  57  80 102 136 178 215 256 308
#
# _framework density 18.279689999999999
#
# number of rings (size 3 to 8) (size 9 to 14) (size 15 to 20)
#    0.000    2.286    0.000    2.571    0.000    5.429 
#    0.000    6.429    0.000    3.000    0.000    0.000 
#    0.000    0.000    0.000    0.000    0.000    0.000 
#
# Total GULP energy -156285.589807 kJ/mol
# GULP energy per Si atom -5581.628207 kJ/mol
# Density = 1.823808 g / cm^3
# Si number density = 18.279690 Si / 1000 Ang^3
#
#
#
# Elastic Constant Matrix: (Units=GPa)
#
#
# Indices 1 2 3 4 5 6 
#
# 1 144.2275 37.9853 117.7100 0.0000 -3.9594 0.0000
# 2 37.9853 22.1628 48.1670 0.0000 -0.4713 0.0000
# 3 117.7100 48.1670 180.8776 0.0000 -8.7817 0.0000
# 4 0.0000 0.0000 0.0000 21.1808 0.0000 -2.4366
# 5 -3.9594 -0.4713 -8.7817 0.0000 38.5724 0.0000
# 6 0.0000 0.0000 0.0000 -2.4366 0.0000 34.3224
#
#
#
# Elastic Compliance Matrix: (Units=1/GPa)
#
#
# Indices 1 2 3 4 5 6 
#
# 1 0.015899 -0.011271 -0.007354 0.000000 -0.000180 0.000000
# 2 -0.011271 0.116160 -0.023849 0.000000 -0.005167 0.000000
# 3 -0.007354 -0.023849 0.016800 0.000000 0.002779 0.000000
# 4 0.000000 0.000000 0.000000 0.047601 0.000000 0.003379
# 5 -0.000180 -0.005167 0.002779 0.000000 0.026476 0.000000
# 6 0.000000 0.000000 0.000000 0.003379 0.000000 0.029375
#
#
# Mechanical properties :
#
#
# Convention : Reuss Voigt Hill
#
# Bulk Modulus (GPa) = 15.64665 83.88806 49.76735
# Shear Modulus (GPa) = 13.94454 28.37549 21.16001
#
# Velocity S-wave (km/s) = 2.76496 3.94419 3.40600
# Velocity P-wave (km/s) = 4.33261 8.16904 6.53853
#
# Compressibility (1/GPa) = 0.06391146
#
# Stress axis : x y z
#
# Youngs Moduli (GPa) = 62.89855 8.60880 59.52344
#
# Poissons Ratio (x) = 0.09703 0.43772
# Poissons Ratio (y) = 0.70891 1.41959
# Poissons Ratio (z) = 0.46254 0.20531
#
# Static dielectric constant tensor:
#      x y z
#    x 1.583910 0.000000 0.010050 
#    y 0.000000 1.620190 0.000000 
#    z 0.010050 0.000000 1.637170 
# 
# From -- ./inp_files/275173.got.cif
#   From: 2010.05.17/outbox.cif.g08.bks.cpg/sg12_138_cif.got.tgz:275173.got - 2010.06.03 13:09:07.
