data_PCOD9193803
_publ_section_title
;
Structure prediction by ZEFSAII (Michael W. Deem and Ramdas Pophale) SiO2 
 PCOD9193803
Probable space group: C 2/M
;
_chemical_formula_sum "Si O2"
_cell_formula_units_Z 64
_cell_length_a 15.895733
_cell_length_b 7.999535
_cell_length_c 30.585338
_cell_angle_alpha 90.000000
_cell_angle_beta 51.991300
_cell_angle_gamma 90.000000
_cell_volume 3064.355880
_symmetry_space_group_name_H-M "C 2/M"
_symmetry_group_IT_number 12
_symmetry_cell_setting 'monoclinic'
loop_
_space_group_symop_operation_xyz
x,y,z
-x,y,-z
-x,-y,-z
x,-y,z
1/2+x,1/2+y,z
1/2-x,1/2+y,-z
1/2-x,1/2-y,-z
1/2+x,1/2-y,z
loop_
_atom_site_type_symbol
_atom_site_label
_atom_site_fract_x
_atom_site_fract_y
_atom_site_fract_z
Si Si1 0.010881 0.807277 0.177549
Si Si2 0.109855 0.698033 0.941616
Si Si3 0.332334 0.703667 0.172266
Si Si4 0.543626 0.204165 0.554432
Si Si5 0.591184 0.803885 0.243958
Si Si6 0.198831 0.309060 0.061631
Si Si7 0.902322 0.701609 0.365625
Si Si8 0.664644 0.201203 0.428423
O O1 0.054634 0.713092 0.205633
O O2 0.098681 0.794542 0.111074
O O3 0.900423 0.744154 0.192555
O O4 0.998305 0.000000 0.194486
O O5 0.124777 0.500000 0.944710
O O6 0.111396 0.732793 0.889758
O O7 0.208850 0.792202 0.931722
O O8 0.000000 0.749117 0.000000
O O9 0.333936 0.500000 0.170264
O O10 0.210414 0.765496 0.211475
O O11 0.581895 0.262310 0.589567
O O12 0.620427 0.257708 0.490078
O O13 0.423370 0.255634 0.579166
O O14 0.544873 0.000000 0.554488
O O15 0.498892 0.733587 0.304650
O O16 0.600287 0.000000 0.251622
O O17 0.163786 0.500000 0.068310
O O18 0.250000 0.250000 0.000000
O O19 0.908315 0.500000 0.364648
O O20 0.786191 0.745456 0.384256
O O21 0.662113 0.000000 0.429302
#
# Coordination Sequence:
#
# PCOD9193803 Si02
#       8
#     8   8   8   8   8   8   8   8
#     4  11  23  40  63  89 114 146 194 244 293 346
#     4  11  23  38  59  89 120 149 187 235 288 344
#     4  10  22  40  61  84 112 150 191 234 289 352
#     4   8  16  32  54  80 113 153 191 234 289 353
#     4  10  22  40  58  80 113 156 195 236 291 352
#     4  12  24  39  60  87 121 155 190 233 287 349
#     4  10  20  34  54  80 113 151 194 237 290 346
#     4   9  17  32  55  82 112 148 194 240 289 344
#
# _framework density 20.885303
#
# number of rings (size 3 to 8) (size 9 to 14) (size 15 to 20)
#    0.000    1.875    1.250    3.750    0.000    5.500 
#    0.000    4.375    0.000    0.000    0.000    0.000 
#    0.000    0.000    0.000    0.000    0.000    0.000 
#
# Total GULP energy -178777.543286 kJ/mol
# GULP energy per Si atom -5586.798228 kJ/mol
# Density = 2.083777 g / cm^3
# Si number density = 20.885303 Si / 1000 Ang^3
#
#
#
# Elastic Constant Matrix: (Units=GPa)
#
#
# Indices 1 2 3 4 5 6 
#
# 1 97.7508 -3.3437 23.4678 0.0002 -29.9974 0.0001
# 2 -3.3437 22.0375 -3.0863 -0.0011 -3.2863 -0.0011
# 3 23.4678 -3.0863 65.6625 0.0003 -31.6402 0.0003
# 4 0.0002 -0.0011 0.0003 13.3727 0.0001 -6.0470
# 5 -29.9974 -3.2863 -31.6402 0.0001 29.4120 0.0000
# 6 0.0001 -0.0011 0.0003 -6.0470 0.0000 23.6251
#
#
#
# Elastic Compliance Matrix: (Units=1/GPa)
#
#
# Indices 1 2 3 4 5 6 
#
# 1 0.016363 0.006888 0.005997 0.000000 0.023910 0.000000
# 2 0.006888 0.052200 0.012847 0.000005 0.026678 0.000004
# 3 0.005997 0.012847 0.035979 0.000000 0.046256 0.000000
# 4 0.000000 0.000005 0.000000 0.084567 0.000001 0.021645
# 5 0.023910 0.026678 0.046256 0.000001 0.111127 0.000001
# 6 0.000000 0.000004 0.000000 0.021645 0.000001 0.047868
#
#
# Mechanical properties :
#
#
# Convention : Reuss Voigt Hill
#
# Bulk Modulus (GPa) = 6.41005 24.39181 15.40093
# Shear Modulus (GPa) = 14.34130 24.50948 19.42539
#
# Velocity S-wave (km/s) = 2.62328 3.42940 3.05306
# Velocity P-wave (km/s) = 3.50019 5.23310 4.45177
#
# Compressibility (1/GPa) = 0.15600496
#
# Stress axis : x y z
#
# Youngs Moduli (GPa) = 61.11223 19.15716 27.79382
#
# Poissons Ratio (x) = -0.13196 -0.16667
# Poissons Ratio (y) = -0.42095 -0.35706
# Poissons Ratio (z) = -0.36646 -0.24610
#
# Static dielectric constant tensor:
#      x y z
#    x 1.634010 0.000110 -0.111810 
#    y 0.000110 0.559650 0.000110 
#    z -0.111810 0.000110 1.638200 
# 
# From -- ./inp_files/375376.got.cif
#   From: 2010.05.17/outbox.cif.g08.bks.cpg/sg12_188_cif.got.tgz:375376.got - 2010.06.03 13:09:07.
