data_PCOD9193632
_publ_section_title
;
Structure prediction by ZEFSAII (Michael W. Deem and Ramdas Pophale) SiO2 
 PCOD9193632
Probable space group: C 2/M
;
_chemical_formula_sum "Si O2"
_cell_formula_units_Z 64
_cell_length_a 25.667088
_cell_length_b 9.135343
_cell_length_c 14.343316
_cell_angle_alpha 90.000000
_cell_angle_beta 57.131449
_cell_angle_gamma 90.000000
_cell_volume 2824.800953
_symmetry_space_group_name_H-M "C 2/M"
_symmetry_group_IT_number 12
_symmetry_cell_setting 'monoclinic'
loop_
_space_group_symop_operation_xyz
x,y,z
-x,y,-z
-x,-y,-z
x,-y,z
1/2+x,1/2+y,z
1/2-x,1/2+y,-z
1/2-x,1/2-y,-z
1/2+x,1/2-y,z
loop_
_atom_site_type_symbol
_atom_site_label
_atom_site_fract_x
_atom_site_fract_y
_atom_site_fract_z
Si Si1 0.622130 0.676374 0.391709
Si Si2 0.797502 0.716859 0.075059
Si Si3 0.750590 0.838884 0.292008
Si Si4 0.693028 0.827700 0.606907
Si Si5 0.010801 0.176415 0.844706
Si Si6 0.564088 0.827341 0.618976
Si Si7 0.915197 0.333739 0.073226
Si Si8 0.158976 0.161155 0.155392
O O1 0.619391 0.500000 0.402540
O O2 0.690165 0.736187 0.354401
O O3 0.573878 0.753200 0.508339
O O4 0.620237 0.713824 0.282816
O O5 0.773517 0.849234 0.163248
O O6 0.847266 0.649989 0.095974
O O7 0.731160 0.646278 0.117306
O O8 0.833153 0.743881 0.944284
O O9 0.803541 0.765292 0.302167
O O10 0.734242 0.000000 0.343614
O O11 0.750000 0.750000 0.500000
O O12 0.630939 0.816145 0.606576
O O13 0.703546 0.000000 0.615102
O O14 0.019045 0.238985 0.732426
O O15 0.067613 0.234801 0.854073
O O16 0.007151 0.000000 0.849924
O O17 0.954035 0.254606 0.953005
O O18 0.548531 0.000000 0.627231
O O19 0.934686 0.500000 0.078205
O O20 0.135432 0.000000 0.152016
#
# Coordination Sequence:
#
# PCOD9193632 Si02
#       8
#     8   8   8   8   8   8   8   8
#     4  10  20  34  54  77 109 149 191 235 285 341
#     4  10  21  35  58  86 117 156 197 239 293 350
#     4  11  21  32  49  77 111 149 190 232 283 344
#     4  11  22  33  49  73 107 146 187 230 280 344
#     4  11  24  40  61  89 119 153 199 244 292 348
#     4  11  22  37  56  79 110 151 192 236 293 347
#     4  11  22  40  63  88 120 156 196 243 294 345
#     4   9  19  36  55  84 120 155 194 239 290 350
#
# _framework density 22.656464
#
# number of rings (size 3 to 8) (size 9 to 14) (size 15 to 20)
#    0.000    1.500    1.250    5.250    0.000    7.000 
#    0.000    1.875    0.000    0.750    0.000    4.375 
#    0.000    0.000    0.000    0.000    0.000    0.000 
#
# Total GULP energy -178422.169305 kJ/mol
# GULP energy per Si atom -5575.692791 kJ/mol
# Density = 2.260490 g / cm^3
# Si number density = 22.656464 Si / 1000 Ang^3
#
#
#
# Elastic Constant Matrix: (Units=GPa)
#
#
# Indices 1 2 3 4 5 6 
#
# 1 34.9275 -3.8934 -8.1130 0.0000 9.3437 0.0000
# 2 -3.8934 140.7243 46.8652 0.0000 17.5655 0.0000
# 3 -8.1130 46.8652 172.9386 0.0000 35.6516 0.0000
# 4 0.0000 0.0000 0.0000 -11.5831 0.0000 3.2456
# 5 9.3437 17.5655 35.6516 0.0000 29.2955 0.0000
# 6 0.0000 0.0000 0.0000 3.2456 0.0000 -15.5211
#
#
#
# Elastic Compliance Matrix: (Units=1/GPa)
#
#
# Indices 1 2 3 4 5 6 
#
# 1 0.034769 0.001573 0.004920 0.000000 -0.018020 0.000000
# 2 0.001573 0.008060 -0.001349 0.000000 -0.003692 0.000000
# 3 0.004920 -0.001349 0.008724 0.000000 -0.011377 0.000000
# 4 0.000000 0.000000 0.000000 -0.091706 0.000000 -0.019177
# 5 -0.018020 -0.003692 -0.011377 0.000000 0.055942 0.000000
# 6 0.000000 0.000000 0.000000 -0.019177 0.000000 -0.068439
#
#
# Mechanical properties :
#
#
# Convention : Reuss Voigt Hill
#
# Bulk Modulus (GPa) = 16.17077 46.47868 31.32472
# Shear Modulus (GPa) = -118.13973 21.35369 -48.39302
#
# Velocity S-wave (km/s) = -7.22891 3.07335 -4.62665
# Velocity P-wave (km/s) = 7.90717 5.75786 3.83212
#
# Compressibility (1/GPa) = 0.06183999
#
# Stress axis : x y z
#
# Youngs Moduli (GPa) = 28.76098 124.07237 114.62289
#
# Poissons Ratio (x) = -0.19514 -0.56391
# Poissons Ratio (y) = -0.04524 0.15465
# Poissons Ratio (z) = -0.14149 0.16740
#
# Static dielectric constant tensor:
#      x y z
#    x 1.854120 0.000000 -0.001460 
#    y 0.000000 1.865710 0.000000 
#    z -0.001460 0.000000 3.041550 
# 
# From -- ./inp_files/249662.got.cif
#   From: 2010.05.17/outbox.cif.g08.bks.cpg/sg12_125_cif.got.tgz:249662.got - 2010.06.03 13:09:07.
