data_PCOD9193695
_publ_section_title
;
Structure prediction by ZEFSAII (Michael W. Deem and Ramdas Pophale) SiO2 
 PCOD9193695
Probable space group: C 2/M
;
_chemical_formula_sum "Si O2"
_cell_formula_units_Z 48
_cell_length_a 25.949433
_cell_length_b 17.197574
_cell_length_c 19.487026
_cell_angle_alpha 90.000000
_cell_angle_beta 162.274661
_cell_angle_gamma 90.000000
_cell_volume 2647.663573
_symmetry_space_group_name_H-M "C 2/M"
_symmetry_group_IT_number 12
_symmetry_cell_setting 'monoclinic'
loop_
_space_group_symop_operation_xyz
x,y,z
-x,y,-z
-x,-y,-z
x,-y,z
1/2+x,1/2+y,z
1/2-x,1/2+y,-z
1/2-x,1/2-y,-z
1/2+x,1/2-y,z
loop_
_atom_site_type_symbol
_atom_site_label
_atom_site_fract_x
_atom_site_fract_y
_atom_site_fract_z
Si Si1 0.863462 0.592624 0.381887
Si Si2 0.680959 0.406029 0.696188
Si Si3 0.147311 0.590914 0.474873
Si Si4 0.317228 0.911104 0.729615
Si Si5 0.517502 0.174329 0.179980
Si Si6 0.501872 0.671596 0.924491
O O1 0.843662 0.500000 0.347561
O O2 0.915579 0.604621 0.527256
O O3 0.000000 0.621156 0.500000
O O4 0.682041 0.631836 0.142849
O O5 0.500000 0.389741 0.500000
O O6 0.710883 0.500000 0.737202
O O7 0.689235 0.383500 0.626157
O O8 0.835570 0.362490 0.929051
O O9 0.120101 0.500000 0.422528
O O10 0.060645 0.648260 0.311023
O O11 0.347314 0.610998 0.727928
O O12 0.342241 0.863459 0.692688
O O13 0.277692 0.000000 0.661612
O O14 0.500000 0.910417 0.000000
O O15 0.519787 0.263813 0.161246
O O16 0.500000 0.707536 0.000000
#
# Coordination Sequence:
#
# PCOD9193695 Si02
#       6
#     8   8   8   8   8   8
#     4   9  19  38  60  77  98 135 180 218 256 309
#     4   9  17  29  45  67 100 144 184 209 240 301
#     4  10  20  35  56  79 103 134 174 220 263 303
#     4   8  14  26  44  64  91 133 175 204 237 292
#     4  11  19  31  50  78 108 134 166 213 267 308
#     4  10  20  34  54  79 106 137 173 212 256 310
#
# _framework density 18.129192
#
# number of rings (size 3 to 8) (size 9 to 14) (size 15 to 20)
#    0.000    2.500    0.000    5.000    0.000    2.667 
#    0.000    2.500    0.000    4.000    0.000    0.000 
#    0.000    0.000    0.000    0.000    0.000    0.167 
#
# Total GULP energy -133836.745809 kJ/mol
# GULP energy per Si atom -5576.531075 kJ/mol
# Density = 1.808793 g / cm^3
# Si number density = 18.129192 Si / 1000 Ang^3
#
#
#
# Elastic Constant Matrix: (Units=GPa)
#
#
# Indices 1 2 3 4 5 6 
#
# 1 131.5311 46.8242 50.3206 -0.0050 19.7375 -0.0018
# 2 46.8242 42.8798 17.3386 -0.0046 -5.2842 -0.0009
# 3 50.3206 17.3386 47.1776 -0.0112 11.2509 -0.0037
# 4 -0.0050 -0.0046 -0.0112 -35.1343 -0.0063 -28.2405
# 5 19.7375 -5.2842 11.2509 -0.0063 32.9633 -0.0023
# 6 -0.0018 -0.0009 -0.0037 -28.2405 -0.0023 9.9906
#
#
#
# Elastic Compliance Matrix: (Units=1/GPa)
#
#
# Indices 1 2 3 4 5 6 
#
# 1 0.020945 -0.019173 -0.012595 0.000003 -0.011316 0.000003
# 2 -0.019173 0.047333 -0.001625 -0.000003 0.019623 -0.000004
# 3 -0.012595 -0.001625 0.036459 -0.000005 -0.005163 -0.000004
# 4 0.000003 -0.000003 -0.000005 -0.008699 -0.000004 -0.024588
# 5 -0.011316 0.019623 -0.005163 -0.000004 0.042020 -0.000004
# 6 0.000003 -0.000004 -0.000004 -0.024588 -0.000004 0.030591
#
#
# Mechanical properties :
#
#
# Convention : Reuss Voigt Hill
#
# Bulk Modulus (GPa) = 26.34994 50.06168 38.20581
# Shear Modulus (GPa) = 20.15432 8.70426 14.42929
#
# Velocity S-wave (km/s) = 3.33784 2.19355 2.82426
# Velocity P-wave (km/s) = 5.42411 5.83861 5.63517
#
# Compressibility (1/GPa) = 0.03795075
#
# Stress axis : x y z
#
# Youngs Moduli (GPa) = 47.74426 21.12694 27.42789
#
# Poissons Ratio (x) = 0.40507 0.34546
# Poissons Ratio (y) = 0.91541 0.04456
# Poissons Ratio (z) = 0.60135 0.03433
#
# Static dielectric constant tensor:
#      x y z
#    x 1.642950 0.000000 -0.012030 
#    y 0.000000 1.638560 0.000000 
#    z -0.012030 0.000000 1.601650 
# 
# From -- ./inp_files/97878.got.cif
#   From: 2010.05.17/outbox.cif.g08.bks.cpg/sg12_49_cif.got.tgz:97878.got - 2010.06.03 13:09:07.
