data_PCOD9193172
_publ_section_title
;
Structure prediction by ZEFSAII (Michael W. Deem and Ramdas Pophale) SiO2 
 PCOD9193172
Probable space group: C 2/M
;
_chemical_formula_sum "Si O2"
_cell_formula_units_Z 64
_cell_length_a 10.858107
_cell_length_b 23.388231
_cell_length_c 16.640523
_cell_angle_alpha 90.000000
_cell_angle_beta 135.282113
_cell_angle_gamma 90.000000
_cell_volume 2973.408115
_symmetry_space_group_name_H-M "C 2/M"
_symmetry_group_IT_number 12
_symmetry_cell_setting 'monoclinic'
loop_
_space_group_symop_operation_xyz
x,y,z
-x,y,-z
-x,-y,-z
x,-y,z
1/2+x,1/2+y,z
1/2-x,1/2+y,-z
1/2-x,1/2-y,-z
1/2+x,1/2-y,z
loop_
_atom_site_type_symbol
_atom_site_label
_atom_site_fract_x
_atom_site_fract_y
_atom_site_fract_z
Si Si1 0.921369 0.171469 0.657905
Si Si2 0.902168 0.435295 0.085886
Si Si3 0.025002 0.743812 0.832173
Si Si4 0.314642 0.359971 0.441624
Si Si5 0.699777 0.933229 0.625450
Si Si6 0.007891 0.563946 0.684146
Si Si7 0.311430 0.154472 0.797242
Si Si8 0.162326 0.163172 0.014355
O O1 0.865787 0.181545 0.538896
O O2 0.816708 0.116564 0.642003
O O3 0.911194 0.227581 0.708585
O O4 0.125790 0.154622 0.752214
O O5 0.885168 0.500000 0.047495
O O6 0.949042 0.437932 0.202442
O O7 0.063862 0.398774 0.124884
O O8 0.729628 0.396436 0.008019
O O9 0.114790 0.796697 0.917778
O O10 0.919597 0.712520 0.855228
O O11 0.167496 0.696549 0.868996
O O12 0.500000 0.387713 0.500000
O O13 0.230228 0.341970 0.318073
O O14 0.166496 0.400417 0.408795
O O15 0.500000 0.929310 0.500000
O O16 0.673217 0.918315 0.707609
O O17 0.758645 0.000000 0.643244
O O18 0.967525 0.500000 0.637912
O O19 0.000000 0.157307 0.000000
#
# Coordination Sequence:
#
# PCOD9193172 Si02
#       8
#     8   8   8   8   8   8   8   8
#     4  11  21  35  58  83 110 150 193 230 276 333
#     4   9  19  36  60  85 112 146 183 234 286 328
#     4  10  22  39  58  81 107 149 187 233 289 333
#     4   9  18  32  52  80 113 146 184 229 267 321
#     4  10  20  34  52  80 119 157 188 224 275 336
#     4   9  17  32  52  78 113 151 186 221 271 330
#     4   9  20  39  57  82 116 147 190 231 272 337
#     4  10  21  38  60  82 109 140 186 237 281 344
#
# _framework density 21.524121999999998
#
# number of rings (size 3 to 8) (size 9 to 14) (size 15 to 20)
#    0.000    2.375    1.250    0.750    1.750    1.500 
#    2.250    5.000    0.000    0.750    0.000    0.000 
#    0.000    0.000    0.000    0.000    0.000    0.000 
#
# Total GULP energy -178344.355104 kJ/mol
# GULP energy per Si atom -5573.261097 kJ/mol
# Density = 2.147513 g / cm^3
# Si number density = 21.524122 Si / 1000 Ang^3
#
#
#
# Elastic Constant Matrix: (Units=GPa)
#
#
# Indices 1 2 3 4 5 6 
#
# 1 76.5803 40.8657 9.9111 0.0005 23.1458 0.0010
# 2 40.8657 129.3101 27.2802 0.0002 22.2103 0.0003
# 3 9.9111 27.2802 43.8221 0.0015 7.4470 0.0027
# 4 0.0005 0.0002 0.0015 42.8734 0.0007 30.1870
# 5 23.1458 22.2103 7.4470 0.0007 32.7150 0.0014
# 6 0.0010 0.0003 0.0027 30.1870 0.0014 67.7673
#
#
#
# Elastic Compliance Matrix: (Units=1/GPa)
#
#
# Indices 1 2 3 4 5 6 
#
# 1 0.018293 -0.004052 0.000122 0.000000 -0.010219 0.000000
# 2 -0.004052 0.010653 -0.005173 0.000000 -0.003188 0.000000
# 3 0.000122 -0.005173 0.026454 0.000000 -0.002595 -0.000001
# 4 0.000000 0.000000 0.000000 0.033983 0.000000 -0.015138
# 5 -0.010219 -0.003188 -0.002595 0.000000 0.040552 0.000000
# 6 0.000000 0.000000 -0.000001 -0.015138 0.000000 0.021499
#
#
# Mechanical properties :
#
#
# Convention : Reuss Voigt Hill
#
# Bulk Modulus (GPa) = 26.88698 45.09184 35.98941
# Shear Modulus (GPa) = 27.46661 40.11483 33.79072
#
# Velocity S-wave (km/s) = 3.57611 4.32176 3.96650
# Velocity P-wave (km/s) = 5.43784 6.77484 6.14282
#
# Compressibility (1/GPa) = 0.03719273
#
# Stress axis : x y z
#
# Youngs Moduli (GPa) = 54.66505 93.87238 37.80186
#
# Poissons Ratio (x) = 0.38033 -0.00459
# Poissons Ratio (y) = 0.22148 0.19557
# Poissons Ratio (z) = -0.00664 0.48565
#
# Static dielectric constant tensor:
#      x y z
#    x 1.832970 0.000000 -0.028500 
#    y 0.000000 1.789310 0.000000 
#    z -0.028500 0.000000 1.855590 
# 
# From -- ./inp_files/306799.got.cif
#   From: 2010.05.17/outbox.cif.g08.bks.cpg/sg12_154_cif.got.tgz:306799.got - 2010.06.03 13:09:07.
