data_PCOD9193446
_publ_section_title
;
Structure prediction by ZEFSAII (Michael W. Deem and Ramdas Pophale) SiO2 
 PCOD9193446
Probable space group: C 2/M
;
_chemical_formula_sum "Si O2"
_cell_formula_units_Z 44
_cell_length_a 8.507754
_cell_length_b 11.232528
_cell_length_c 25.692896
_cell_angle_alpha 90.000000
_cell_angle_beta 119.153715
_cell_angle_gamma 90.000000
_cell_volume 2144.257110
_symmetry_space_group_name_H-M "C 2/M"
_symmetry_group_IT_number 12
_symmetry_cell_setting 'monoclinic'
loop_
_space_group_symop_operation_xyz
x,y,z
-x,y,-z
-x,-y,-z
x,-y,z
1/2+x,1/2+y,z
1/2-x,1/2+y,-z
1/2-x,1/2-y,-z
1/2+x,1/2-y,z
loop_
_atom_site_type_symbol
_atom_site_label
_atom_site_fract_x
_atom_site_fract_y
_atom_site_fract_z
Si Si1 0.491806 0.366584 0.788904
Si Si2 0.100767 0.134601 0.920249
Si Si3 0.780233 0.201639 0.378051
Si Si4 0.403390 0.804626 0.289150
Si Si5 0.500000 0.795101 0.000000
Si Si6 0.323816 0.362947 0.545218
O O1 0.564990 0.500000 0.792800
O O2 0.560934 0.320211 0.855656
O O3 0.548505 0.282735 0.750604
O O4 0.275124 0.373472 0.755872
O O5 0.314263 0.134771 0.965186
O O6 0.030349 0.000000 0.911595
O O7 0.014329 0.214194 0.950915
O O8 0.589308 0.136367 0.339223
O O9 0.839362 0.234852 0.329768
O O10 0.735021 0.318208 0.406230
O O11 0.959564 0.138755 0.428046
O O12 0.261229 0.500000 0.525426
O O13 0.250000 0.250000 0.500000
#
# Coordination Sequence:
#
# PCOD9193446 Si02
#       6
#     8   8   8   8   4   8
#     4  10  20  35  56  80 112 149 185 232 283 337
#     4  10  20  34  53  79 108 145 190 231 281 339
#     4   9  21  38  59  85 114 151 189 236 283 343
#     4   9  19  37  57  84 113 145 187 228 282 339
#     4  10  20  34  54  76 108 148 182 238 286 330
#     4  11  24  42  63  90 122 157 197 243 293 347
#
# _framework density 20.519928
#
# number of rings (size 3 to 8) (size 9 to 14) (size 15 to 20)
#    0.000    2.182    0.000    2.182    0.000   10.182 
#    0.000    8.182    0.000   15.273    0.000    0.000 
#    0.000    0.000    0.000    0.000    0.000    0.000 
#
# Total GULP energy -122503.554252 kJ/mol
# GULP energy per Si atom -5568.343375 kJ/mol
# Density = 2.047322 g / cm^3
# Si number density = 20.519928 Si / 1000 Ang^3
#
#
#
# Elastic Constant Matrix: (Units=GPa)
#
#
# Indices 1 2 3 4 5 6 
#
# 1 84.1653 29.4617 20.2948 0.0000 -8.1008 0.0000
# 2 29.4617 102.5966 33.9455 0.0000 -19.3032 0.0000
# 3 20.2948 33.9455 99.2024 0.0000 -14.3123 0.0000
# 4 0.0000 0.0000 0.0000 18.2436 0.0000 -26.2082
# 5 -8.1008 -19.3032 -14.3123 0.0000 39.2623 0.0000
# 6 0.0000 0.0000 0.0000 -26.2082 0.0000 30.5710
#
#
#
# Elastic Compliance Matrix: (Units=1/GPa)
#
#
# Indices 1 2 3 4 5 6 
#
# 1 0.013447 -0.003230 -0.001556 0.000000 0.000619 0.000000
# 2 -0.003230 0.012485 -0.002979 0.000000 0.004386 0.000000
# 3 -0.001556 -0.002979 0.011780 0.000000 0.002509 0.000000
# 4 0.000000 0.000000 0.000000 -0.236722 0.000000 -0.202939
# 5 0.000619 0.004386 0.002509 0.000000 0.028668 0.000000
# 6 0.000000 0.000000 0.000000 -0.202939 0.000000 -0.141266
#
#
# Mechanical properties :
#
#
# Convention : Reuss Voigt Hill
#
# Bulk Modulus (GPa) = 45.08161 50.37427 47.72794
# Shear Modulus (GPa) = -17.31998 31.09952 6.88977
#
# Velocity S-wave (km/s) = -2.90842 3.89726 1.83436
# Velocity P-wave (km/s) = 3.27702 6.69730 5.27222
#
# Compressibility (1/GPa) = 0.02218199
#
# Stress axis : x y z
#
# Youngs Moduli (GPa) = 74.36655 80.09488 84.88976
#
# Poissons Ratio (x) = 0.25871 0.13212
# Poissons Ratio (y) = 0.24020 0.25286
# Poissons Ratio (z) = 0.11574 0.23857
#
# Static dielectric constant tensor:
#      x y z
#    x 1.726640 0.000000 0.034950 
#    y 0.000000 1.708490 0.000000 
#    z 0.034950 0.000000 1.785980 
# 
# From -- ./inp_files/355936.got.cif
#   From: 2010.05.17/outbox.cif.g08.bks.cpg/sg12_178_cif.got.tgz:355936.got - 2010.06.03 13:09:07.
