data_PCOD9193618
_publ_section_title
;
Structure prediction by ZEFSAII (Michael W. Deem and Ramdas Pophale) SiO2 
 PCOD9193618
Probable space group: C 2/M
;
_chemical_formula_sum "Si O2"
_cell_formula_units_Z 48
_cell_length_a 15.261021
_cell_length_b 7.569512
_cell_length_c 28.748256
_cell_angle_alpha 90.000000
_cell_angle_beta 42.016526
_cell_angle_gamma 90.000000
_cell_volume 2222.864300
_symmetry_space_group_name_H-M "C 2/M"
_symmetry_group_IT_number 12
_symmetry_cell_setting 'monoclinic'
loop_
_space_group_symop_operation_xyz
x,y,z
-x,y,-z
-x,-y,-z
x,-y,z
1/2+x,1/2+y,z
1/2-x,1/2+y,-z
1/2-x,1/2-y,-z
1/2+x,1/2-y,z
loop_
_atom_site_type_symbol
_atom_site_label
_atom_site_fract_x
_atom_site_fract_y
_atom_site_fract_z
Si Si1 0.897010 0.207469 0.401610
Si Si2 0.915214 0.785816 0.987774
Si Si3 0.844338 0.285742 0.756193
Si Si4 0.662720 0.791565 0.136175
Si Si5 0.434133 0.286906 0.163257
Si Si6 0.112869 0.704385 0.489329
O O1 0.926445 0.288680 0.440687
O O2 0.761538 0.279448 0.432629
O O3 0.020265 0.228310 0.319623
O O4 0.874670 0.000000 0.419310
O O5 0.986631 0.720172 0.913407
O O6 0.913171 0.000000 0.984272
O O7 0.769030 0.720835 0.057223
O O8 0.000000 0.744125 0.000000
O O9 0.846179 0.500000 0.756258
O O10 0.825041 0.221182 0.816648
O O11 0.715605 0.227800 0.778976
O O12 0.517894 0.766181 0.174444
O O13 0.691022 0.000000 0.128362
O O14 0.432627 0.500000 0.161668
O O15 0.126996 0.500000 0.468799
O O16 0.000000 0.781193 0.500000
#
# Coordination Sequence:
#
# PCOD9193618 Si02
#       6
#     8   8   8   8   8   8
#     4  10  21  36  57  85 113 140 174 220 263 302
#     4   9  15  30  55  76  98 135 184 227 267 323
#     4  10  21  37  54  74 107 149 183 212 260 326
#     4  10  20  34  54  78 104 138 181 229 274 317
#     4  10  20  34  54  77 102 139 183 225 271 323
#     4   9  19  38  62  85 110 142 177 210 254 316
#
# _framework density 21.593761000000001
#
# number of rings (size 3 to 8) (size 9 to 14) (size 15 to 20)
#    0.000    2.333    1.667    1.000    0.000    3.667 
#    0.000    5.000    0.000    1.000    0.000    0.000 
#    0.000    0.000    0.000    0.000    0.000    0.000 
#
# Total GULP energy -133950.296947 kJ/mol
# GULP energy per Si atom -5581.262373 kJ/mol
# Density = 2.154461 g / cm^3
# Si number density = 21.593761 Si / 1000 Ang^3
#
#
#
# Elastic Constant Matrix: (Units=GPa)
#
#
# Indices 1 2 3 4 5 6 
#
# 1 118.1762 -3.9245 23.8565 -0.0010 -30.9527 -0.0024
# 2 -3.9245 47.6701 0.1763 -0.0025 -1.2921 -0.0014
# 3 23.8565 0.1763 102.0675 -0.0002 -28.2072 -0.0003
# 4 -0.0010 -0.0025 -0.0002 15.5825 -0.0001 -1.9818
# 5 -30.9527 -1.2921 -28.2072 -0.0001 21.6523 0.0000
# 6 -0.0024 -0.0014 -0.0003 -1.9818 0.0000 10.1980
#
#
#
# Elastic Compliance Matrix: (Units=1/GPa)
#
#
# Indices 1 2 3 4 5 6 
#
# 1 0.014497 0.001875 0.003698 0.000002 0.025653 0.000004
# 2 0.001875 0.021269 0.000963 0.000004 0.005205 0.000004
# 3 0.003698 0.000963 0.016263 0.000001 0.026530 0.000002
# 4 0.000002 0.000004 0.000001 0.065801 0.000005 0.012787
# 5 0.025653 0.005205 0.026530 0.000005 0.117729 0.000009
# 6 0.000004 0.000004 0.000002 0.012787 0.000009 0.100543
#
#
# Mechanical properties :
#
#
# Convention : Reuss Voigt Hill
#
# Bulk Modulus (GPa) = 15.36056 34.23672 24.79864
# Shear Modulus (GPa) = 14.50410 26.00693 20.25552
#
# Velocity S-wave (km/s) = 2.59449 3.47417 3.06604
# Velocity P-wave (km/s) = 4.01298 5.65531 4.90339
#
# Compressibility (1/GPa) = 0.06510178
#
# Stress axis : x y z
#
# Youngs Moduli (GPa) = 68.98145 47.01595 61.48780
#
# Poissons Ratio (x) = -0.08816 -0.22736
# Poissons Ratio (y) = -0.12935 -0.05924
# Poissons Ratio (z) = -0.25507 -0.04529
#
# Static dielectric constant tensor:
#      x y z
#    x 1.779210 0.000000 -0.024750 
#    y 0.000000 1.850320 0.000000 
#    z -0.024750 0.000000 1.764870 
# 
# From -- ./inp_files/360310.got.cif
#   From: 2010.05.17/outbox.cif.g08.bks.cpg/sg12_181_cif.got.tgz:360310.got - 2010.06.03 13:09:07.
