data_PCOD9193250
_publ_section_title
;
Structure prediction by ZEFSAII (Michael W. Deem and Ramdas Pophale) SiO2 
 PCOD9193250
Probable space group: C 2/M
;
_chemical_formula_sum "Si O2"
_cell_formula_units_Z 48
_cell_length_a 18.816483
_cell_length_b 8.729869
_cell_length_c 16.366388
_cell_angle_alpha 90.000000
_cell_angle_beta 90.331356
_cell_angle_gamma 90.000000
_cell_volume 2688.386831
_symmetry_space_group_name_H-M "C 2/M"
_symmetry_group_IT_number 12
_symmetry_cell_setting 'monoclinic'
loop_
_space_group_symop_operation_xyz
x,y,z
-x,y,-z
-x,-y,-z
x,-y,z
1/2+x,1/2+y,z
1/2-x,1/2+y,-z
1/2-x,1/2-y,-z
1/2+x,1/2-y,z
loop_
_atom_site_type_symbol
_atom_site_label
_atom_site_fract_x
_atom_site_fract_y
_atom_site_fract_z
Si Si1 0.800529 0.816778 0.758900
Si Si2 0.719566 0.315856 0.916245
Si Si3 0.837791 0.683109 0.329175
Si Si4 0.418457 0.682523 0.171771
Si Si5 0.961748 0.816509 0.415140
Si Si6 0.043486 0.317914 0.258770
O O1 0.763312 0.754655 0.840853
O O2 0.745497 0.784133 0.684052
O O3 0.876566 0.740563 0.748407
O O4 0.808117 0.000000 0.764862
O O5 0.725901 0.500000 0.913993
O O6 0.635865 0.278111 0.901519
O O7 0.750000 0.250000 0.000000
O O8 0.847539 0.500000 0.323632
O O9 0.875330 0.763173 0.251799
O O10 0.882651 0.746766 0.405265
O O11 0.428025 0.500000 0.173783
O O12 0.494479 0.761823 0.182685
O O13 0.000000 0.776812 0.500000
O O14 0.008267 0.752459 0.340269
O O15 0.957488 0.000000 0.408316
O O16 0.040645 0.500000 0.263510
#
# Coordination Sequence:
#
# PCOD9193250 Si02
#       6
#     8   8   8   8   8   8
#     4  10  20  35  54  76 104 135 169 210 254 301
#     4  10  20  34  54  79 105 135 170 208 252 300
#     4   9  17  30  51  75  98 130 169 207 248 297
#     4   9  17  31  51  73 100 134 169 204 246 300
#     4  10  20  34  53  76 103 135 169 207 252 301
#     4  11  21  33  53  78 103 133 170 211 253 299
#
# _framework density 17.854574
#
# number of rings (size 3 to 8) (size 9 to 14) (size 15 to 20)
#    0.000    2.167    0.000    6.000    0.000    5.333 
#    0.000    1.667    0.000    5.000    0.000    0.000 
#    0.000    0.000    0.000    0.000    0.000    0.000 
#
# Total GULP energy -133802.936996 kJ/mol
# GULP energy per Si atom -5575.122375 kJ/mol
# Density = 1.781394 g / cm^3
# Si number density = 17.854574 Si / 1000 Ang^3
#
#
#
# Elastic Constant Matrix: (Units=GPa)
#
#
# Indices 1 2 3 4 5 6 
#
# 1 149.8070 40.0051 52.0249 0.0000 33.0217 0.0000
# 2 40.0051 60.8240 30.2304 0.0000 15.2556 0.0000
# 3 52.0249 30.2304 77.6218 0.0000 35.8197 0.0000
# 4 0.0000 0.0000 0.0000 23.3739 0.0000 3.5061
# 5 33.0217 15.2556 35.8197 0.0000 31.9889 0.0000
# 6 0.0000 0.0000 0.0000 3.5061 0.0000 30.7492
#
#
#
# Elastic Compliance Matrix: (Units=1/GPa)
#
#
# Indices 1 2 3 4 5 6 
#
# 1 0.009773 -0.003791 -0.002592 0.000000 -0.005379 0.000000
# 2 -0.003791 0.021903 -0.006156 0.000000 0.000361 0.000000
# 3 -0.002592 -0.006156 0.029855 0.000000 -0.027819 0.000000
# 4 0.000000 0.000000 0.000000 0.043527 0.000000 -0.004963
# 5 -0.005379 0.000361 -0.027819 0.000000 0.067791 0.000000
# 6 0.000000 0.000000 0.000000 -0.004963 0.000000 0.033087
#
#
# Mechanical properties :
#
#
# Convention : Reuss Voigt Hill
#
# Bulk Modulus (GPa) = 27.43197 59.19707 43.31452
# Shear Modulus (GPa) = 20.56197 28.28855 24.42526
#
# Velocity S-wave (km/s) = 3.39726 3.98475 3.70268
# Velocity P-wave (km/s) = 5.54851 7.37551 6.52626
#
# Compressibility (1/GPa) = 0.03645382
#
# Stress axis : x y z
#
# Youngs Moduli (GPa) = 102.31933 45.65497 33.49482
#
# Poissons Ratio (x) = 0.17307 0.08682
# Poissons Ratio (y) = 0.38787 0.20620
# Poissons Ratio (z) = 0.26522 0.28107
#
# Static dielectric constant tensor:
#      x y z
#    x 1.642870 0.000000 0.043660 
#    y 0.000000 1.593540 0.000000 
#    z 0.043660 0.000000 1.609960 
# 
# From -- ./inp_files/273644.got.cif
#   From: 2010.05.17/outbox.cif.g08.bks.cpg/sg12_137_cif.got.tgz:273644.got - 2010.06.03 13:09:07.
