data_PCOD9193252
_publ_section_title
;
Structure prediction by ZEFSAII (Michael W. Deem and Ramdas Pophale) SiO2 
 PCOD9193252
Probable space group: C 2/M
;
_chemical_formula_sum "Si O2"
_cell_formula_units_Z 64
_cell_length_a 8.813502
_cell_length_b 20.257586
_cell_length_c 24.499486
_cell_angle_alpha 90.000000
_cell_angle_beta 57.342657
_cell_angle_gamma 90.000000
_cell_volume 3682.648458
_symmetry_space_group_name_H-M "C 2/M"
_symmetry_group_IT_number 12
_symmetry_cell_setting 'monoclinic'
loop_
_space_group_symop_operation_xyz
x,y,z
-x,y,-z
-x,-y,-z
x,-y,z
1/2+x,1/2+y,z
1/2-x,1/2+y,-z
1/2-x,1/2-y,-z
1/2+x,1/2-y,z
loop_
_atom_site_type_symbol
_atom_site_label
_atom_site_fract_x
_atom_site_fract_y
_atom_site_fract_z
Si Si1 0.157234 0.576400 0.183361
Si Si2 0.172326 0.177867 0.929983
Si Si3 0.792682 0.576400 0.183361
Si Si4 0.568718 0.321778 0.575183
Si Si5 0.946970 0.076916 0.322937
Si Si6 0.794267 0.678222 0.424817
Si Si7 0.415780 0.076916 0.677063
Si Si8 0.962274 0.677867 0.070017
O O1 0.218832 0.500000 0.168716
O O2 0.286191 0.625193 0.125172
O O3 0.132684 0.594775 0.251240
O O4 0.962622 0.579727 0.191586
O O5 0.128489 0.250000 0.914341
O O6 0.348504 0.182006 0.934331
O O7 0.000000 0.158886 0.000000
O O8 0.775020 0.500000 0.168716
O O9 0.613597 0.594775 0.251240
O O10 0.838295 0.625193 0.125172
O O11 0.561344 0.376308 0.623328
O O12 0.379367 0.318960 0.580422
O O13 0.720956 0.336522 0.500000
O O14 0.613867 0.250000 0.590755
O O15 0.762609 0.082333 0.324927
O O16 0.972269 0.000000 0.333886
O O17 0.931329 0.623692 0.376671
O O18 0.473927 0.000000 0.666114
O O19 0.000000 0.658886 0.000000
#
# Coordination Sequence:
#
# PCOD9193252 Si02
#       8
#     8   8   8   8   8   8   8   8
#     4   9  19  36  55  75 102 137 176 216 259 308
#     4  10  20  34  53  76 103 135 170 211 258 308
#     4   9  19  36  55  75 102 137 176 216 259 308
#     4  10  21  37  57  80 107 140 177 218 264 314
#     4  10  21  36  55  80 109 141 177 218 263 311
#     4  10  21  37  57  80 107 140 177 218 264 314
#     4  10  21  36  55  80 109 141 177 218 263 311
#     4  10  20  34  53  76 103 135 170 211 258 308
#
# _framework density 17.378796999999999
#
# number of rings (size 3 to 8) (size 9 to 14) (size 15 to 20)
#    0.000    2.250    0.000    3.000    0.000    7.000 
#    0.000    5.000    0.000    0.000    0.000    0.000 
#    0.000    0.000    0.000    0.000    0.000    0.000 
#
# Total GULP energy -178634.332277 kJ/mol
# GULP energy per Si atom -5582.322884 kJ/mol
# Density = 1.733924 g / cm^3
# Si number density = 17.378797 Si / 1000 Ang^3
#
#
#
# Elastic Constant Matrix: (Units=GPa)
#
#
# Indices 1 2 3 4 5 6 
#
# 1 54.4227 57.1356 64.8762 0.0000 -4.6897 0.0000
# 2 57.1356 119.1946 126.4498 0.0000 -5.3289 0.0000
# 3 64.8762 126.4498 158.0446 0.0000 -3.2766 0.0000
# 4 0.0000 0.0000 0.0000 44.5743 0.0000 -1.1204
# 5 -4.6897 -5.3289 -3.2766 0.0000 25.1649 0.0000
# 6 0.0000 0.0000 0.0000 -1.1204 0.0000 30.0021
#
#
#
# Elastic Compliance Matrix: (Units=1/GPa)
#
#
# Indices 1 2 3 4 5 6 
#
# 1 0.038448 -0.010556 -0.007255 0.000000 0.003985 0.000000
# 2 -0.010556 0.059295 -0.043005 0.000000 0.004990 0.000000
# 3 -0.007255 -0.043005 0.043614 0.000000 -0.004780 0.000000
# 4 0.000000 0.000000 0.000000 0.022456 0.000000 0.000839
# 5 0.003985 0.004990 -0.004780 0.000000 0.040915 0.000000
# 6 0.000000 0.000000 0.000000 0.000839 0.000000 0.033362
#
#
# Mechanical properties :
#
#
# Convention : Reuss Voigt Hill
#
# Bulk Modulus (GPa) = 50.69250 92.06500 71.37875
# Shear Modulus (GPa) = 13.65021 25.49496 19.57259
#
# Velocity S-wave (km/s) = 2.80563 3.83432 3.35958
# Velocity P-wave (km/s) = 6.30301 8.52603 7.49737
#
# Compressibility (1/GPa) = 0.01972678
#
# Stress axis : x y z
#
# Youngs Moduli (GPa) = 26.00928 16.86485 22.92848
#
# Poissons Ratio (x) = 0.17802 0.16634
# Poissons Ratio (y) = 0.27454 0.98604
# Poissons Ratio (z) = 0.18869 0.72527
#
# Static dielectric constant tensor:
#      x y z
#    x 1.580190 0.000000 0.001330 
#    y 0.000000 1.570980 0.000000 
#    z 0.001330 0.000000 1.562910 
# 
# From -- ./inp_files/301681.got.cif
#   From: 2010.05.17/outbox.cif.g08.bks.cpg/sg12_151_cif.got.tgz:301681.got - 2010.06.03 13:09:07.
