data_PCOD9193682
_publ_section_title
;
Structure prediction by ZEFSAII (Michael W. Deem and Ramdas Pophale) SiO2 
 PCOD9193682
Probable space group: C 2/M
;
_chemical_formula_sum "Si O2"
_cell_formula_units_Z 40
_cell_length_a 26.843422
_cell_length_b 15.972769
_cell_length_c 9.387684
_cell_angle_alpha 90.000000
_cell_angle_beta 30.056272
_cell_angle_gamma 90.000000
_cell_volume 2015.972014
_symmetry_space_group_name_H-M "C 2/M"
_symmetry_group_IT_number 12
_symmetry_cell_setting 'monoclinic'
loop_
_space_group_symop_operation_xyz
x,y,z
-x,y,-z
-x,-y,-z
x,-y,z
1/2+x,1/2+y,z
1/2-x,1/2+y,-z
1/2-x,1/2-y,-z
1/2+x,1/2-y,z
loop_
_atom_site_type_symbol
_atom_site_label
_atom_site_fract_x
_atom_site_fract_y
_atom_site_fract_z
Si Si1 0.900878 0.602731 0.160727
Si Si2 0.407399 0.900002 0.820030
Si Si3 0.722086 0.345268 0.094741
Si Si4 0.293194 0.599759 0.192397
Si Si5 0.009324 0.902474 0.649256
O O1 0.898637 0.500000 0.167335
O O2 0.800652 0.632135 0.487209
O O3 0.905364 0.631516 0.986503
O O4 0.000000 0.627487 0.000000
O O5 0.500000 0.864724 0.500000
O O6 0.421472 0.000000 0.794613
O O7 0.305172 0.883431 0.991436
O O8 0.611312 0.355917 0.431348
O O9 0.750000 0.250000 0.000000
O O10 0.723766 0.387168 0.934095
O O11 0.298858 0.500000 0.201061
O O12 0.402857 0.632643 0.963152
O O13 0.000000 0.901939 0.500000
O O14 0.020277 0.000000 0.665375
#
# Coordination Sequence:
#
# PCOD9193682 Si02
#       5
#     8   8   8   8   8
#     4   9  17  31  53  80 106 134 174 223 271 315
#     4  10  20  34  54  79 105 134 173 222 269 314
#     4  11  21  32  50  77 107 140 171 211 261 316
#     4   9  17  33  56  76  98 135 180 221 260 307
#     4   8  15  30  52  73  95 129 173 214 251 298
#
# _framework density 19.841546000000001
#
# number of rings (size 3 to 8) (size 9 to 14) (size 15 to 20)
#    0.000    2.600    0.000    4.200    0.000    5.600 
#    0.000    2.000    0.000    7.200    0.000    0.000 
#    0.000    0.000    0.000    0.000    0.000    0.200 
#
# Total GULP energy -111549.418119 kJ/mol
# GULP energy per Si atom -5577.470906 kJ/mol
# Density = 1.979639 g / cm^3
# Si number density = 19.841546 Si / 1000 Ang^3
#
#
#
# Elastic Constant Matrix: (Units=GPa)
#
#
# Indices 1 2 3 4 5 6 
#
# 1 125.1100 -2.3663 103.2619 0.0000 -19.8497 0.0000
# 2 -2.3663 11.6664 17.5676 0.0000 -9.2402 0.0000
# 3 103.2619 17.5676 215.6672 0.0000 -31.6148 0.0000
# 4 0.0000 0.0000 0.0000 -2.2016 0.0000 8.4878
# 5 -19.8497 -9.2402 -31.6148 0.0000 36.2253 0.0000
# 6 0.0000 0.0000 0.0000 8.4878 0.0000 -16.5009
#
#
#
# Elastic Compliance Matrix: (Units=1/GPa)
#
#
# Indices 1 2 3 4 5 6 
#
# 1 0.016872 0.022495 -0.008846 0.000000 0.007263 0.000000
# 2 0.022495 0.143252 -0.017517 0.000000 0.033579 0.000000
# 3 -0.008846 -0.017517 0.010244 0.000000 -0.000375 0.000000
# 4 0.000000 0.000000 0.000000 0.462018 0.000000 0.237655
# 5 0.007263 0.033579 -0.000375 0.000000 0.039823 0.000000
# 6 0.000000 0.000000 0.000000 0.237655 0.000000 0.061643
#
#
# Mechanical properties :
#
#
# Convention : Reuss Voigt Hill
#
# Bulk Modulus (GPa) = 6.14884 65.48556 35.81720
# Shear Modulus (GPa) = 6.28299 19.10327 12.69313
#
# Velocity S-wave (km/s) = 1.78142 3.10625 2.53202
# Velocity P-wave (km/s) = 2.70869 6.77798 5.16130
#
# Compressibility (1/GPa) = 0.16263225
#
# Stress axis : x y z
#
# Youngs Moduli (GPa) = 59.26966 6.98069 97.61592
#
# Poissons Ratio (x) = -0.15703 0.86352
# Poissons Ratio (y) = -1.33329 1.70997
# Poissons Ratio (z) = 0.52431 0.12228
#
# Static dielectric constant tensor:
#      x y z
#    x 1.741170 0.000000 -0.027860 
#    y 0.000000 1.687780 0.000000 
#    z -0.027860 0.000000 1.741150 
# 
# From -- ./inp_files/105710.got.cif
#   From: 2010.05.17/outbox.cif.g08.bks.cpg/sg12_53_cif.got.tgz:105710.got - 2010.06.03 13:09:07.
