data_PCOD9193303
_publ_section_title
;
Structure prediction by ZEFSAII (Michael W. Deem and Ramdas Pophale) SiO2 
 PCOD9193303
Probable space group: C 2/M
;
_chemical_formula_sum "Si O2"
_cell_formula_units_Z 32
_cell_length_a 18.636050
_cell_length_b 7.507816
_cell_length_c 11.729345
_cell_angle_alpha 90.000000
_cell_angle_beta 113.393816
_cell_angle_gamma 90.000000
_cell_volume 1506.218964
_symmetry_space_group_name_H-M "C 2/M"
_symmetry_group_IT_number 12
_symmetry_cell_setting 'monoclinic'
loop_
_space_group_symop_operation_xyz
x,y,z
-x,y,-z
-x,-y,-z
x,-y,z
1/2+x,1/2+y,z
1/2-x,1/2+y,-z
1/2-x,1/2-y,-z
1/2+x,1/2-y,z
loop_
_atom_site_type_symbol
_atom_site_label
_atom_site_fract_x
_atom_site_fract_y
_atom_site_fract_z
Si Si1 0.266192 0.211861 0.878104
Si Si2 0.948795 0.217104 0.634694
Si Si3 0.117197 0.782893 0.642959
Si Si4 0.068274 0.792147 0.122064
O O1 0.194603 0.280309 0.755517
O O2 0.349314 0.282708 0.889212
O O3 0.269387 0.000000 0.865989
O O4 0.250000 0.250000 0.000000
O O5 0.894237 0.275428 0.495140
O O6 0.927230 0.281830 0.746850
O O7 0.037852 0.267355 0.659454
O O8 0.945656 0.000000 0.630764
O O9 0.118974 0.000000 0.644870
O O10 0.047482 0.000000 0.125138
O O11 0.000000 0.713116 0.000000
#
# Coordination Sequence:
#
# PCOD9193303 Si02
#       4
#     8   8   8   8
#     4  11  22  35  52  75 103 134 171 213 256 302
#     4   8  14  28  51  75 100 131 167 205 246 295
#     4   8  15  29  50  75 100 130 168 207 247 295
#     4  10  20  34  53  77 104 135 171 209 251 301
#
# _framework density 21.245249000000001
#
# number of rings (size 3 to 8) (size 9 to 14) (size 15 to 20)
#    0.000    2.750    0.000    3.750    0.000    5.500 
#    0.000    0.000    0.000    1.500    0.000   10.500 
#    0.000    0.000    0.000    0.000    0.000    0.000 
#
# Total GULP energy -89322.562904 kJ/mol
# GULP energy per Si atom -5582.660182 kJ/mol
# Density = 2.119689 g / cm^3
# Si number density = 21.245249 Si / 1000 Ang^3
#
#
#
# Elastic Constant Matrix: (Units=GPa)
#
#
# Indices 1 2 3 4 5 6 
#
# 1 117.5968 -19.9145 121.2617 0.0000 -8.0298 0.0000
# 2 -19.9145 53.6273 -4.7863 0.0000 0.3325 0.0000
# 3 121.2617 -4.7863 226.2065 0.0000 0.3154 0.0000
# 4 0.0000 0.0000 0.0000 -4.9176 0.0000 -5.4906
# 5 -8.0298 0.3325 0.3154 0.0000 47.7561 0.0000
# 6 0.0000 0.0000 0.0000 -5.4906 0.0000 10.9078
#
#
#
# Elastic Compliance Matrix: (Units=1/GPa)
#
#
# Indices 1 2 3 4 5 6 
#
# 1 0.021930 0.007084 -0.011611 0.000000 0.003715 0.000000
# 2 0.007084 0.020972 -0.003355 0.000000 0.001067 0.000000
# 3 -0.011611 -0.003355 0.010577 0.000000 -0.001999 0.000000
# 4 0.000000 0.000000 0.000000 -0.130184 0.000000 -0.065531
# 5 0.003715 0.001067 -0.001999 0.000000 0.021570 0.000000
# 6 0.000000 0.000000 0.000000 -0.065531 0.000000 0.058691
#
#
# Mechanical properties :
#
#
# Convention : Reuss Voigt Hill
#
# Bulk Modulus (GPa) = 26.51513 65.61694 46.06603
# Shear Modulus (GPa) = 156.77836 30.80724 93.79280
#
# Velocity S-wave (km/s) = 8.59969 3.81212 6.65158
# Velocity P-wave (km/s) = 10.54106 7.09428 8.98451
#
# Compressibility (1/GPa) = 0.03771432
#
# Stress axis : x y z
#
# Youngs Moduli (GPa) = 45.59924 47.68284 94.54507
#
# Poissons Ratio (x) = -0.33780 1.09779
# Poissons Ratio (y) = -0.32304 0.31724
# Poissons Ratio (z) = 0.52947 0.16000
#
# Static dielectric constant tensor:
#      x y z
#    x 1.649850 0.000000 0.006110 
#    y 0.000000 1.825600 0.000000 
#    z 0.006110 0.000000 1.777680 
# 
# From -- ./inp_files/82450.got.cif
#   From: 2010.05.17/outbox.cif.g08.bks.cpg/sg12_42_cif.got.tgz:82450.got - 2010.06.03 13:09:07.
