data_PCOD9193476
_publ_section_title
;
Structure prediction by ZEFSAII (Michael W. Deem and Ramdas Pophale) SiO2 
 PCOD9193476
Probable space group: C 2/M
;
_chemical_formula_sum "Si O2"
_cell_formula_units_Z 48
_cell_length_a 14.825057
_cell_length_b 7.839777
_cell_length_c 16.496601
_cell_angle_alpha 90.000000
_cell_angle_beta 76.743546
_cell_angle_gamma 90.000000
_cell_volume 1866.229788
_symmetry_space_group_name_H-M "C 2/M"
_symmetry_group_IT_number 12
_symmetry_cell_setting 'monoclinic'
loop_
_space_group_symop_operation_xyz
x,y,z
-x,y,-z
-x,-y,-z
x,-y,z
1/2+x,1/2+y,z
1/2-x,1/2+y,-z
1/2-x,1/2-y,-z
1/2+x,1/2-y,z
loop_
_atom_site_type_symbol
_atom_site_label
_atom_site_fract_x
_atom_site_fract_y
_atom_site_fract_z
Si Si1 0.720776 0.291737 0.128904
Si Si2 0.559821 0.805174 0.559894
Si Si3 0.065343 0.197688 0.054676
Si Si4 0.391993 0.697300 0.687340
Si Si5 0.600660 0.203073 0.819951
Si Si6 0.282868 0.698188 0.362031
O O1 0.720819 0.500000 0.126078
O O2 0.662067 0.225341 0.064779
O O3 0.662972 0.243828 0.221498
O O4 0.825781 0.239127 0.125413
O O5 0.500000 0.721765 0.500000
O O6 0.483952 0.799740 0.647535
O O7 0.655344 0.728079 0.571364
O O8 0.580442 0.000000 0.532387
O O9 0.996117 0.204845 0.146201
O O10 0.080989 0.000000 0.029799
O O11 0.000000 0.281251 0.000000
O O12 0.418214 0.500000 0.691944
O O13 0.315305 0.711060 0.631455
O O14 0.651638 0.241805 0.725604
O O15 0.587364 0.000000 0.828540
O O16 0.263695 0.500000 0.357077
#
# Coordination Sequence:
#
# PCOD9193476 Si02
#       6
#     8   8   8   8   8   8
#     4   8  17  34  54  77 106 141 178 222 276 328
#     4  11  24  40  58  84 118 153 189 229 277 338
#     4  10  20  34  53  79 112 148 185 227 280 342
#     4  10  20  37  61  85 112 148 192 239 284 334
#     4  10  20  36  57  79 107 143 186 234 281 334
#     4  11  22  38  61  86 113 146 188 237 288 340
#
# _framework density 25.720303999999999
#
# number of rings (size 3 to 8) (size 9 to 14) (size 15 to 20)
#    0.000    2.000    0.000    5.000    0.000    4.333 
#    0.000    4.167    0.000    0.000    0.000    0.000 
#    0.000    0.000    0.000    0.000    0.000    0.000 
#
# Total GULP energy -134300.697786 kJ/mol
# GULP energy per Si atom -5595.862408 kJ/mol
# Density = 2.566176 g / cm^3
# Si number density = 25.720304 Si / 1000 Ang^3
#
#
#
# Elastic Constant Matrix: (Units=GPa)
#
#
# Indices 1 2 3 4 5 6 
#
# 1 167.7339 -5.8506 40.1230 0.0000 25.0827 0.0000
# 2 -5.8506 76.5021 3.2703 0.0000 1.5740 0.0000
# 3 40.1230 3.2703 66.1758 0.0000 22.2911 0.0000
# 4 0.0000 0.0000 0.0000 17.3526 0.0000 1.3760
# 5 25.0827 1.5740 22.2911 0.0000 58.4840 0.0000
# 6 0.0000 0.0000 0.0000 1.3760 0.0000 14.1897
#
#
#
# Elastic Compliance Matrix: (Units=1/GPa)
#
#
# Indices 1 2 3 4 5 6 
#
# 1 0.007145 0.000743 -0.003820 0.000000 -0.001628 0.000000
# 2 0.000743 0.013177 -0.001004 0.000000 -0.000291 0.000000
# 3 -0.003820 -0.001004 0.019408 0.000000 -0.005732 0.000000
# 4 0.000000 0.000000 0.000000 0.058075 0.000000 -0.005632
# 5 -0.001628 -0.000291 -0.005732 0.000000 0.019990 0.000000
# 6 0.000000 0.000000 0.000000 -0.005632 0.000000 0.071020
#
#
# Mechanical properties :
#
#
# Convention : Reuss Voigt Hill
#
# Bulk Modulus (GPa) = 31.67738 42.83302 37.25520
# Shear Modulus (GPa) = 24.09646 36.19654 30.14650
#
# Velocity S-wave (km/s) = 3.06415 3.75549 3.42729
# Velocity P-wave (km/s) = 4.98613 5.95772 5.49345
#
# Compressibility (1/GPa) = 0.03156827
#
# Stress axis : x y z
#
# Youngs Moduli (GPa) = 139.95612 75.88825 51.52522
#
# Poissons Ratio (x) = -0.05640 0.19685
# Poissons Ratio (y) = -0.10402 0.05173
# Poissons Ratio (z) = 0.53469 0.07618
#
# Static dielectric constant tensor:
#      x y z
#    x 1.979860 0.000000 0.047050 
#    y 0.000000 1.876820 0.000000 
#    z 0.047050 0.000000 2.165370 
# 
# From -- ./inp_files/267636.got.cif
#   From: 2010.05.17/outbox.cif.g08.bks.cpg/sg12_134_cif.got.tgz:267636.got - 2010.06.03 13:09:07.
