data_PCOD9193590
_publ_section_title
;
Structure prediction by ZEFSAII (Michael W. Deem and Ramdas Pophale) SiO2 
 PCOD9193590
Probable space group: C 2/M
;
_chemical_formula_sum "Si O2"
_cell_formula_units_Z 44
_cell_length_a 8.941405
_cell_length_b 10.745549
_cell_length_c 27.367937
_cell_angle_alpha 90.000000
_cell_angle_beta 122.446355
_cell_angle_gamma 90.000000
_cell_volume 2219.036307
_symmetry_space_group_name_H-M "C 2/M"
_symmetry_group_IT_number 12
_symmetry_cell_setting 'monoclinic'
loop_
_space_group_symop_operation_xyz
x,y,z
-x,y,-z
-x,-y,-z
x,-y,z
1/2+x,1/2+y,z
1/2-x,1/2+y,-z
1/2-x,1/2-y,-z
1/2+x,1/2-y,z
loop_
_atom_site_type_symbol
_atom_site_label
_atom_site_fract_x
_atom_site_fract_y
_atom_site_fract_z
Si Si1 0.293725 0.860148 0.609995
Si Si2 0.569959 0.855273 0.209130
Si Si3 0.030341 0.360097 0.563152
Si Si4 0.643645 0.860530 0.922046
Si Si5 0.500000 0.793642 0.000000
Si Si6 0.155528 0.639663 0.735215
O O1 0.161657 0.750545 0.600509
O O2 0.351590 0.848558 0.563457
O O3 0.477683 0.850837 0.671704
O O4 0.221339 0.000000 0.605687
O O5 0.492900 0.815278 0.143062
O O6 0.714704 0.754621 0.250926
O O7 0.412499 0.853768 0.220967
O O8 0.634499 0.000000 0.218114
O O9 0.100466 0.500000 0.586359
O O10 0.000000 0.352626 0.500000
O O11 0.553279 0.861800 0.959421
O O12 0.690358 0.000000 0.915210
O O13 0.824536 0.784686 0.956682
O O14 0.231479 0.500000 0.740019
#
# Coordination Sequence:
#
# PCOD9193590 Si02
#       6
#     8   8   8   8   4   8
#     4  10  21  36  55  79 107 139 177 219 262 312
#     4  10  21  36  55  79 107 138 175 217 261 312
#     4  10  21  36  54  79 109 140 177 219 262 312
#     4  10  20  35  53  76 104 134 171 213 256 307
#     4  10  20  34  54  76 102 136 170 208 260 308
#     4  10  21  37  55  79 108 138 176 219 262 312
#
# _framework density 19.828429
#
# number of rings (size 3 to 8) (size 9 to 14) (size 15 to 20)
#    0.000    2.000    0.000    3.273    0.000    2.545 
#    0.000    4.545    0.000    0.000    0.000    0.000 
#    0.000    0.000    0.000    0.000    0.000    0.000 
#
# Total GULP energy -122744.623667 kJ/mol
# GULP energy per Si atom -5579.301076 kJ/mol
# Density = 1.978330 g / cm^3
# Si number density = 19.828429 Si / 1000 Ang^3
#
#
#
# Elastic Constant Matrix: (Units=GPa)
#
#
# Indices 1 2 3 4 5 6 
#
# 1 46.8624 36.4380 -6.0890 0.0000 -0.7720 0.0000
# 2 36.4380 139.4462 17.7299 0.0000 31.8295 0.0000
# 3 -6.0890 17.7299 42.8319 0.0000 -8.6543 0.0000
# 4 0.0000 0.0000 0.0000 26.3879 0.0000 3.1528
# 5 -0.7720 31.8295 -8.6543 0.0000 28.7137 0.0000
# 6 0.0000 0.0000 0.0000 3.1528 0.0000 17.5552
#
#
#
# Elastic Compliance Matrix: (Units=1/GPa)
#
#
# Indices 1 2 3 4 5 6 
#
# 1 0.038996 -0.018945 0.018998 0.000000 0.027776 0.000000
# 2 -0.018945 0.020886 -0.017165 0.000000 -0.028835 0.000000
# 3 0.018998 -0.017165 0.039507 0.000000 0.031446 0.000000
# 4 0.000000 0.000000 0.000000 0.038727 0.000000 -0.006955
# 5 0.027776 -0.028835 0.031446 0.000000 0.077016 0.000000
# 6 0.000000 0.000000 0.000000 -0.006955 0.000000 0.058212
#
#
# Mechanical properties :
#
#
# Convention : Reuss Voigt Hill
#
# Bulk Modulus (GPa) = 15.34581 36.14426 25.74504
# Shear Modulus (GPa) = 15.18417 26.60216 20.89316
#
# Velocity S-wave (km/s) = 2.77027 3.66678 3.24959
# Velocity P-wave (km/s) = 4.24130 6.01624 5.20499
#
# Compressibility (1/GPa) = 0.06516438
#
# Stress axis : x y z
#
# Youngs Moduli (GPa) = 25.64353 47.87875 25.31199
#
# Poissons Ratio (x) = 0.90708 -0.48088
# Poissons Ratio (y) = 0.48583 0.43448
# Poissons Ratio (z) = -0.48718 0.82185
#
# Static dielectric constant tensor:
#      x y z
#    x 1.669890 0.000000 -0.033360 
#    y 0.000000 1.696270 0.000000 
#    z -0.033360 0.000000 1.740700 
# 
# From -- ./inp_files/299232.got.cif
#   From: 2010.05.17/outbox.cif.g08.bks.cpg/sg12_150_cif.got.tgz:299232.got - 2010.06.03 13:09:07.
