data_PCOD9193206
_publ_section_title
;
Structure prediction by ZEFSAII (Michael W. Deem and Ramdas Pophale) SiO2 
 PCOD9193206
Probable space group: C 2/M
;
_chemical_formula_sum "Si O2"
_cell_formula_units_Z 56
_cell_length_a 16.806112
_cell_length_b 7.443165
_cell_length_c 20.054639
_cell_angle_alpha 90.000000
_cell_angle_beta 58.768076
_cell_angle_gamma 90.000000
_cell_volume 2145.083531
_symmetry_space_group_name_H-M "C 2/M"
_symmetry_group_IT_number 12
_symmetry_cell_setting 'monoclinic'
loop_
_space_group_symop_operation_xyz
x,y,z
-x,y,-z
-x,-y,-z
x,-y,z
1/2+x,1/2+y,z
1/2-x,1/2+y,-z
1/2-x,1/2-y,-z
1/2+x,1/2-y,z
loop_
_atom_site_type_symbol
_atom_site_label
_atom_site_fract_x
_atom_site_fract_y
_atom_site_fract_z
Si Si1 0.640551 0.708848 0.121023
Si Si2 0.300253 0.782603 0.690928
Si Si3 0.514822 0.779599 0.606214
Si Si4 0.879501 0.293587 0.161484
Si Si5 0.853824 0.282089 0.029668
Si Si6 0.542456 0.796112 0.737703
Si Si7 0.307534 0.214008 0.541844
O O1 0.642595 0.500000 0.137470
O O2 0.745800 0.779230 0.076710
O O3 0.568315 0.801292 0.201086
O O4 0.606662 0.727415 0.058938
O O5 0.407711 0.726273 0.648657
O O6 0.231478 0.707069 0.776567
O O7 0.269168 0.723425 0.629735
O O8 0.296048 0.000000 0.698265
O O9 0.556167 0.715927 0.659162
O O10 0.586950 0.722655 0.518166
O O11 0.514350 0.000000 0.606788
O O12 0.913991 0.500000 0.145367
O O13 0.897572 0.218876 0.080195
O O14 0.918002 0.207053 0.212575
O O15 0.854791 0.500000 0.030545
O O16 0.577817 0.000000 0.719831
O O17 0.250000 0.250000 0.500000
O O18 0.312833 0.000000 0.546606
#
# Coordination Sequence:
#
# PCOD9193206 Si02
#       7
#     8   8   8   8   8   8   8
#     4  10  20  34  54  78 103 133 171 217 261 301
#     4  10  20  34  55  80 104 135 175 217 258 301
#     4   9  18  34  55  77 103 138 177 212 252 307
#     4  10  21  36  54  77 106 139 172 210 259 311
#     4   9  19  36  55  75 102 137 174 210 254 310
#     4  10  20  34  53  75 102 138 174 209 255 312
#     4  10  20  35  55  79 108 139 173 214 258 305
#
# _framework density 26.106210000000001
#
# number of rings (size 3 to 8) (size 9 to 14) (size 15 to 20)
#    0.000    2.286    0.000    2.571    0.000    5.714 
#    0.000    4.286    0.000    1.714    0.000    0.000 
#    0.000    0.000    0.000    0.000    0.000    0.000 
#
# Total GULP energy -156646.953712 kJ/mol
# GULP energy per Si atom -5594.534061 kJ/mol
# Density = 2.604679 g / cm^3
# Si number density = 26.106210 Si / 1000 Ang^3
#
#
#
# Elastic Constant Matrix: (Units=GPa)
#
#
# Indices 1 2 3 4 5 6 
#
# 1 71.7333 -0.7931 10.1890 0.0001 11.7153 0.0006
# 2 -0.7931 94.6899 -1.7073 0.0002 -0.2652 0.0012
# 3 10.1890 -1.7073 134.8226 0.0000 11.2530 0.0000
# 4 0.0001 0.0002 0.0000 14.3143 0.0000 -3.2329
# 5 11.7153 -0.2652 11.2530 0.0000 53.3063 0.0001
# 6 0.0006 0.0012 0.0000 -3.2329 0.0001 14.1128
#
#
#
# Elastic Compliance Matrix: (Units=1/GPa)
#
#
# Indices 1 2 3 4 5 6 
#
# 1 0.014555 0.000098 -0.000847 0.000000 -0.003020 -0.000001
# 2 0.000098 0.010564 0.000126 0.000000 0.000004 -0.000001
# 3 -0.000847 0.000126 0.007601 0.000000 -0.001418 0.000000
# 4 0.000000 0.000000 0.000000 0.073672 0.000000 0.016877
# 5 -0.003020 0.000004 -0.001418 0.000000 0.019722 0.000000
# 6 -0.000001 -0.000001 0.000000 0.016877 0.000000 0.074724
#
#
# Mechanical properties :
#
#
# Convention : Reuss Voigt Hill
#
# Bulk Modulus (GPa) = 31.77130 35.18034 33.47582
# Shear Modulus (GPa) = 23.52111 35.91715 29.71913
#
# Velocity S-wave (km/s) = 3.00489 3.71321 3.37767
# Velocity P-wave (km/s) = 4.92296 5.64704 5.29739
#
# Compressibility (1/GPa) = 0.03147494
#
# Stress axis : x y z
#
# Youngs Moduli (GPa) = 68.70477 94.66204 131.56019
#
# Poissons Ratio (x) = -0.00929 0.11139
# Poissons Ratio (y) = -0.00675 -0.01657
# Poissons Ratio (z) = 0.05817 -0.01193
#
# Static dielectric constant tensor:
#      x y z
#    x 2.135990 0.000000 0.026930 
#    y 0.000000 1.990650 0.000000 
#    z 0.026930 0.000000 1.999550 
# 
# From -- ./inp_files/313718.got.cif
#   From: 2010.05.17/outbox.cif.g08.bks.cpg/sg12_157_cif.got.tgz:313718.got - 2010.06.03 13:09:07.
