data_PCOD9193485
_publ_section_title
;
Structure prediction by ZEFSAII (Michael W. Deem and Ramdas Pophale) SiO2 
 PCOD9193485
Probable space group: C 2/M
;
_chemical_formula_sum "Si O2"
_cell_formula_units_Z 56
_cell_length_a 21.531239
_cell_length_b 9.196973
_cell_length_c 17.788665
_cell_angle_alpha 90.000000
_cell_angle_beta 54.223041
_cell_angle_gamma 90.000000
_cell_volume 2857.842066
_symmetry_space_group_name_H-M "C 2/M"
_symmetry_group_IT_number 12
_symmetry_cell_setting 'monoclinic'
loop_
_space_group_symop_operation_xyz
x,y,z
-x,y,-z
-x,-y,-z
x,-y,z
1/2+x,1/2+y,z
1/2-x,1/2+y,-z
1/2-x,1/2-y,-z
1/2+x,1/2-y,z
loop_
_atom_site_type_symbol
_atom_site_label
_atom_site_fract_x
_atom_site_fract_y
_atom_site_fract_z
Si Si1 0.186139 0.674477 0.764773
Si Si2 0.680060 0.826849 0.402488
Si Si3 0.467228 0.169663 0.194894
Si Si4 0.439704 0.663478 0.611795
Si Si5 0.937969 0.669182 0.385759
Si Si6 0.260375 0.825896 0.105709
Si Si7 0.128597 0.826653 0.092231
O O1 0.190556 0.500000 0.751598
O O2 0.238535 0.751835 0.665845
O O3 0.097159 0.716003 0.819071
O O4 0.219952 0.710600 0.822624
O O5 0.627178 0.763869 0.372814
O O6 0.634788 0.789758 0.511508
O O7 0.686427 0.000000 0.392940
O O8 0.426879 0.179723 0.305021
O O9 0.544908 0.259168 0.144101
O O10 0.486634 0.000000 0.168037
O O11 0.500000 0.654237 0.500000
O O12 0.412315 0.500000 0.648801
O O13 0.489497 0.734092 0.642197
O O14 0.955365 0.500000 0.392004
O O15 0.174437 0.792704 0.137442
O O16 0.271546 0.000000 0.088483
O O17 0.318032 0.741145 0.010379
O O18 0.124820 0.000000 0.087899
#
# Coordination Sequence:
#
# PCOD9193485 Si02
#       7
#     8   8   8   8   8   8   8
#     4  10  22  39  58  83 115 153 197 236 279 340
#     4  10  20  34  53  79 114 152 192 239 287 334
#     4  10  22  39  58  82 116 157 194 232 283 341
#     4   9  17  30  50  76 104 139 186 236 283 330
#     4   9  19  35  53  78 113 153 194 235 284 337
#     4   9  20  40  63  86 113 146 184 231 286 345
#     4  10  21  38  62  90 115 142 184 237 287 343
#
# _framework density 19.595203999999999
#
# number of rings (size 3 to 8) (size 9 to 14) (size 15 to 20)
#    0.000    2.429    0.000    1.286    2.000    5.714 
#    0.000    2.857    0.000    0.000    0.000    0.000 
#    0.000    0.000    0.000    0.000    0.000    0.000 
#
# Total GULP energy -156285.988182 kJ/mol
# GULP energy per Si atom -5581.642435 kJ/mol
# Density = 1.955060 g / cm^3
# Si number density = 19.595204 Si / 1000 Ang^3
#
#
#
# Elastic Constant Matrix: (Units=GPa)
#
#
# Indices 1 2 3 4 5 6 
#
# 1 112.9334 42.5494 50.3301 -0.0001 -28.9369 0.0001
# 2 42.5494 42.0285 34.9865 0.0000 -12.0349 0.0001
# 3 50.3301 34.9865 66.7042 0.0000 -17.7377 0.0000
# 4 -0.0001 0.0000 0.0000 28.5948 0.0000 -9.2989
# 5 -28.9369 -12.0349 -17.7377 0.0000 23.8337 0.0000
# 6 0.0001 0.0001 0.0000 -9.2989 0.0000 28.5270
#
#
#
# Elastic Compliance Matrix: (Units=1/GPa)
#
#
# Indices 1 2 3 4 5 6 
#
# 1 0.018528 -0.011082 -0.004580 0.000000 0.013491 0.000000
# 2 -0.011082 0.049569 -0.018152 0.000000 -0.001934 0.000000
# 3 -0.004580 -0.018152 0.029986 0.000000 0.007590 0.000000
# 4 0.000000 0.000000 0.000000 0.039118 0.000000 0.012751
# 5 0.013491 -0.001934 0.007590 0.000000 0.063009 0.000000
# 6 0.000000 0.000000 0.000000 0.012751 0.000000 0.039211
#
#
# Mechanical properties :
#
#
# Convention : Reuss Voigt Hill
#
# Bulk Modulus (GPa) = 32.83398 53.04422 42.93910
# Shear Modulus (GPa) = 15.76290 22.44445 19.10368
#
# Velocity S-wave (km/s) = 2.83932 3.38806 3.12575
# Velocity P-wave (km/s) = 5.24800 6.51414 5.91504
#
# Compressibility (1/GPa) = 0.03045625
#
# Stress axis : x y z
#
# Youngs Moduli (GPa) = 53.97291 20.17381 33.34869
#
# Poissons Ratio (x) = 0.22356 0.15273
# Poissons Ratio (y) = 0.59812 0.60534
# Poissons Ratio (z) = 0.24719 0.36619
#
# Static dielectric constant tensor:
#      x y z
#    x 1.689630 0.000000 0.002520 
#    y 0.000000 1.659160 0.000000 
#    z 0.002520 0.000000 1.700010 
# 
# From -- ./inp_files/280996.got.cif
#   From: 2010.05.17/outbox.cif.g08.bks.cpg/sg12_141_cif.got.tgz:280996.got - 2010.06.03 13:09:07.
