data_PCOD9193784
_publ_section_title
;
Structure prediction by ZEFSAII (Michael W. Deem and Ramdas Pophale) SiO2 
 PCOD9193784
Probable space group: C 2/M
;
_chemical_formula_sum "Si O2"
_cell_formula_units_Z 64
_cell_length_a 24.437000
_cell_length_b 9.231377
_cell_length_c 14.173838
_cell_angle_alpha 90.000000
_cell_angle_beta 87.741355
_cell_angle_gamma 90.000000
_cell_volume 3194.951773
_symmetry_space_group_name_H-M "C 2/M"
_symmetry_group_IT_number 12
_symmetry_cell_setting 'monoclinic'
loop_
_space_group_symop_operation_xyz
x,y,z
-x,y,-z
-x,-y,-z
x,-y,z
1/2+x,1/2+y,z
1/2-x,1/2+y,-z
1/2-x,1/2-y,-z
1/2+x,1/2-y,z
loop_
_atom_site_type_symbol
_atom_site_label
_atom_site_fract_x
_atom_site_fract_y
_atom_site_fract_z
Si Si1 0.094146 0.171222 0.113286
Si Si2 0.241682 0.169713 0.400625
Si Si3 0.065068 0.661352 0.484097
Si Si4 0.516988 0.830001 0.831398
Si Si5 0.928296 0.162375 0.335122
Si Si6 0.187988 0.165196 0.761650
Si Si7 0.619517 0.664521 0.327000
Si Si8 0.866288 0.329389 0.069027
O O1 0.033799 0.242686 0.122271
O O2 0.120325 0.189142 0.215189
O O3 0.089647 0.000000 0.093316
O O4 0.129145 0.250654 0.031212
O O5 0.250000 0.250000 0.500000
O O6 0.275365 0.248442 0.315545
O O7 0.178646 0.175407 0.371673
O O8 0.257346 0.000000 0.407925
O O9 0.087165 0.500000 0.497941
O O10 0.085083 0.770218 0.563067
O O11 0.081491 0.721394 0.381964
O O12 0.000000 0.657693 0.500000
O O13 0.531764 0.763603 0.728393
O O14 0.572661 0.815581 0.888774
O O15 0.503599 0.000000 0.825991
O O16 0.871911 0.155665 0.281803
O O17 0.950959 0.000000 0.342463
O O18 0.176956 0.251916 0.858887
O O19 0.207610 0.000000 0.775446
O O20 0.598925 0.500000 0.343199
O O21 0.854709 0.500000 0.061684
#
# Coordination Sequence:
#
# PCOD9193784 Si02
#       8
#     8   8   8   8   8   8   8   8
#     4  11  22  37  57  81 113 153 194 236 282 333
#     4  11  23  41  64  89 116 146 185 233 286 341
#     4  11  23  36  53  80 113 149 188 229 274 330
#     4  10  20  34  54  83 118 153 191 234 280 332
#     4  10  20  34  54  80 111 146 184 229 280 336
#     4  10  21  38  60  87 114 142 184 234 283 336
#     4  10  24  42  58  81 114 151 190 233 282 338
#     4  10  21  37  58  85 117 153 191 234 283 332
#
# _framework density 20.031601999999999
#
# number of rings (size 3 to 8) (size 9 to 14) (size 15 to 20)
#    0.000    1.625    0.000    4.500    0.000   12.500 
#    0.000    0.625    0.000    0.000    0.000    0.000 
#    0.000    0.000    0.000    0.000    0.000    0.000 
#
# Total GULP energy -178867.131738 kJ/mol
# GULP energy per Si atom -5589.597867 kJ/mol
# Density = 1.998601 g / cm^3
# Si number density = 20.031602 Si / 1000 Ang^3
#
#
#
# Elastic Constant Matrix: (Units=GPa)
#
#
# Indices 1 2 3 4 5 6 
#
# 1 39.3249 36.9673 23.1128 0.0000 -19.7956 0.0000
# 2 36.9673 168.2005 88.7801 0.0000 -16.4176 0.0000
# 3 23.1128 88.7801 123.3870 0.0000 -26.2701 0.0000
# 4 0.0000 0.0000 0.0000 35.7341 0.0000 -9.0271
# 5 -19.7956 -16.4176 -26.2701 0.0000 30.0479 0.0000
# 6 0.0000 0.0000 0.0000 -9.0271 0.0000 15.7232
#
#
#
# Elastic Compliance Matrix: (Units=1/GPa)
#
#
# Indices 1 2 3 4 5 6 
#
# 1 0.046814 -0.009828 0.004577 0.000000 0.029473 0.000000
# 2 -0.009828 0.011672 -0.008083 0.000000 -0.007164 0.000000
# 3 0.004577 -0.008083 0.015684 0.000000 0.012312 0.000000
# 4 0.000000 0.000000 0.000000 0.032732 0.000000 0.018792
# 5 0.029473 -0.007164 0.012312 0.000000 0.059547 0.000000
# 6 0.000000 0.000000 0.000000 0.018792 0.000000 0.074389
#
#
# Mechanical properties :
#
#
# Convention : Reuss Voigt Hill
#
# Bulk Modulus (GPa) = 21.05100 69.84808 45.44954
# Shear Modulus (GPa) = 17.64668 28.43787 23.04227
#
# Velocity S-wave (km/s) = 2.97129 3.77191 3.39528
# Velocity P-wave (km/s) = 4.72262 7.34264 6.17323
#
# Compressibility (1/GPa) = 0.04750368
#
# Stress axis : x y z
#
# Youngs Moduli (GPa) = 21.36108 85.67249 63.75872
#
# Poissons Ratio (x) = 0.84200 -0.29185
# Poissons Ratio (y) = 0.20994 0.51535
# Poissons Ratio (z) = -0.09778 0.69247
#
# Static dielectric constant tensor:
#      x y z
#    x 1.711350 0.000000 0.015380 
#    y 0.000000 1.695760 0.000000 
#    z 0.015380 0.000000 1.697340 
# 
# From -- ./inp_files/238734.got.cif
#   From: 2010.05.17/outbox.cif.g08.bks.cpg/sg12_120_cif.got.tgz:238734.got - 2010.06.03 13:09:07.
