data_PCOD9193955
_publ_section_title
;
Structure prediction by ZEFSAII (Michael W. Deem and Ramdas Pophale) SiO2 
 PCOD9193955
Probable space group: C 2/M
;
_chemical_formula_sum "Si O2"
_cell_formula_units_Z 64
_cell_length_a 10.911060
_cell_length_b 16.656636
_cell_length_c 16.019660
_cell_angle_alpha 90.000000
_cell_angle_beta 83.549685
_cell_angle_gamma 90.000000
_cell_volume 2893.007489
_symmetry_space_group_name_H-M "C 2/M"
_symmetry_group_IT_number 12
_symmetry_cell_setting 'monoclinic'
loop_
_space_group_symop_operation_xyz
x,y,z
-x,y,-z
-x,-y,-z
x,-y,z
1/2+x,1/2+y,z
1/2-x,1/2+y,-z
1/2-x,1/2-y,-z
1/2+x,1/2-y,z
loop_
_atom_site_type_symbol
_atom_site_label
_atom_site_fract_x
_atom_site_fract_y
_atom_site_fract_z
Si Si1 0.366035 0.906477 0.169675
Si Si2 0.183918 0.902318 0.047181
Si Si3 0.014166 0.304370 0.286168
Si Si4 0.360464 0.360171 0.699355
Si Si5 0.806543 0.689285 0.430138
Si Si6 0.638145 0.906045 0.421726
Si Si7 0.908905 0.098333 0.123194
Si Si8 0.633348 0.408540 0.695039
O O1 0.307631 0.877496 0.086234
O O2 0.465255 0.849282 0.207444
O O3 0.244315 0.902057 0.237826
O O4 0.407144 0.000000 0.161338
O O5 0.053384 0.878976 0.100684
O O6 0.186251 0.000000 0.049269
O O7 0.167992 0.877098 0.952330
O O8 0.895937 0.276112 0.350976
O O9 0.104248 0.228876 0.269683
O O10 0.074946 0.367133 0.345511
O O11 0.303740 0.351026 0.612143
O O12 0.489122 0.405592 0.687395
O O13 0.750000 0.750000 0.500000
O O14 0.879914 0.628442 0.484180
O O15 0.781400 0.886026 0.388228
O O16 0.615206 0.000000 0.425095
O O17 0.855692 0.131394 0.214139
O O18 0.909387 0.000000 0.123582
O O19 0.672408 0.500000 0.707568
#
# Coordination Sequence:
#
# PCOD9193955 Si02
#       8
#     8   8   8   8   8   8   8   8
#     4  10  20  36  59  90 119 146 194 248 286 332
#     4   8  13  25  51  85 115 142 184 237 286 332
#     4  11  24  38  58  81 113 153 188 236 282 351
#     4  11  22  35  59  83 111 147 190 235 295 343
#     4  11  23  40  58  78 105 141 191 242 282 337
#     4  11  24  39  57  82 111 151 194 234 288 345
#     4   8  13  25  49  83 116 145 180 235 291 333
#     4  10  20  34  54  83 119 146 183 239 290 342
#
# _framework density 22.122306999999999
#
# number of rings (size 3 to 8) (size 9 to 14) (size 15 to 20)
#    0.000    2.000    2.500    2.625    1.750    5.000 
#    0.000    1.250    0.000    1.500    3.250    4.375 
#    0.000    0.000    0.000    0.000    0.000    0.000 
#
# Total GULP energy -178516.776262 kJ/mol
# GULP energy per Si atom -5578.649258 kJ/mol
# Density = 2.207196 g / cm^3
# Si number density = 22.122307 Si / 1000 Ang^3
#
#
#
# Elastic Constant Matrix: (Units=GPa)
#
#
# Indices 1 2 3 4 5 6 
#
# 1 37.4218 4.8817 13.7075 0.0000 26.3894 0.0000
# 2 4.8817 66.8940 5.5141 0.0000 16.8199 0.0000
# 3 13.7075 5.5141 94.0595 0.0000 32.8791 0.0000
# 4 0.0000 0.0000 0.0000 12.4366 0.0000 14.0390
# 5 26.3894 16.8199 32.8791 0.0000 44.1215 0.0000
# 6 0.0000 0.0000 0.0000 14.0390 0.0000 21.1984
#
#
#
# Elastic Compliance Matrix: (Units=1/GPa)
#
#
# Indices 1 2 3 4 5 6 
#
# 1 0.048617 0.004701 0.004639 0.000000 -0.034327 0.000000
# 2 0.004701 0.017184 0.002137 0.000000 -0.010955 0.000000
# 3 0.004639 0.002137 0.014989 0.000000 -0.014759 0.000000
# 4 0.000000 0.000000 0.000000 0.318567 0.000000 -0.210976
# 5 -0.034327 -0.010955 -0.014759 0.000000 0.058371 0.000000
# 6 0.000000 0.000000 0.000000 -0.210976 0.000000 0.186896
#
#
# Mechanical properties :
#
#
# Convention : Reuss Voigt Hill
#
# Bulk Modulus (GPa) = 9.63910 27.39798 18.51854
# Shear Modulus (GPa) = 7.61901 27.16942 17.39422
#
# Velocity S-wave (km/s) = 1.85783 3.50829 2.80710
# Velocity P-wave (km/s) = 2.99477 5.36866 4.34690
#
# Compressibility (1/GPa) = 0.10374411
#
# Stress axis : x y z
#
# Youngs Moduli (GPa) = 20.56887 58.19232 66.71361
#
# Poissons Ratio (x) = -0.27356 -0.30946
# Poissons Ratio (y) = -0.09669 -0.14256
# Poissons Ratio (z) = -0.09541 -0.12435
#
# Static dielectric constant tensor:
#      x y z
#    x 1.846810 0.000000 -0.033930 
#    y 0.000000 1.824840 0.000000 
#    z -0.033930 0.000000 1.781520 
# 
# From -- ./inp_files/263899.got.cif
#   From: 2010.05.17/outbox.cif.g08.bks.cpg/sg12_132_cif.got.tgz:263899.got - 2010.06.03 13:09:07.
