data_PCOD9193969
_publ_section_title
;
Structure prediction by ZEFSAII (Michael W. Deem and Ramdas Pophale) SiO2 
 PCOD9193969
Probable space group: C 2/M
;
_chemical_formula_sum "Si O2"
_cell_formula_units_Z 38
_cell_length_a 8.333731
_cell_length_b 17.131905
_cell_length_c 12.317775
_cell_angle_alpha 90.000000
_cell_angle_beta 102.540487
_cell_angle_gamma 90.000000
_cell_volume 1716.685610
_symmetry_space_group_name_H-M "C 2/M"
_symmetry_group_IT_number 12
_symmetry_cell_setting 'monoclinic'
loop_
_space_group_symop_operation_xyz
x,y,z
-x,y,-z
-x,-y,-z
x,-y,z
1/2+x,1/2+y,z
1/2-x,1/2+y,-z
1/2-x,1/2-y,-z
1/2+x,1/2-y,z
loop_
_atom_site_type_symbol
_atom_site_label
_atom_site_fract_x
_atom_site_fract_y
_atom_site_fract_z
Si Si1 0.661830 0.361480 0.806587
Si Si2 0.778266 0.136464 0.419305
Si Si3 0.875201 0.790002 0.878434
Si Si4 0.000000 0.717685 0.500000
Si Si5 0.174150 0.415591 0.966475
Si Si6 0.500000 0.500000 0.500000
O O1 0.699513 0.399468 0.697414
O O2 0.791534 0.290904 0.837698
O O3 0.480950 0.326019 0.796517
O O4 0.694975 0.414286 0.915969
O O5 0.873554 0.220147 0.428401
O O6 0.599309 0.162501 0.432345
O O7 0.864206 0.070989 0.505813
O O8 0.269435 0.847646 0.104604
O O9 0.000000 0.781767 0.000000
O O10 0.173564 0.500000 0.911879
O O11 0.000000 0.404818 0.000000
#
# Coordination Sequence:
#
# PCOD9193969 Si02
#       6
#     8   8   8   4   8   2
#     4  11  20  33  60  82 110 146 201 227 270 343
#     4  10  21  39  64  88 118 152 198 246 299 355
#     4  10  20  34  54  84 114 151 186 236 271 326
#     4   9  20  40  64  87 114 156 192 247 310 354
#     4  10  21  36  52  76 120 157 182 228 284 327
#     4  10  24  42  56  86 124 148 186 254 316 342
#
# _framework density 22.135677999999999
#
# number of rings (size 3 to 8) (size 9 to 14) (size 15 to 20)
#    0.000    1.895    0.000    5.684    1.474    4.211 
#    0.000    0.000    4.632    0.000    0.000    0.000 
#    0.000    0.000    0.000    0.000    0.000    0.000 
#
# Total GULP energy -105816.549497 kJ/mol
# GULP energy per Si atom -5569.292079 kJ/mol
# Density = 2.208530 g / cm^3
# Si number density = 22.135678 Si / 1000 Ang^3
#
#
#
# Elastic Constant Matrix: (Units=GPa)
#
#
# Indices 1 2 3 4 5 6 
#
# 1 102.2715 27.4272 -0.6281 0.0000 -17.8444 0.0000
# 2 27.4272 98.2656 -9.8516 0.0000 0.8843 0.0000
# 3 -0.6281 -9.8516 31.4593 0.0000 -17.5426 0.0000
# 4 0.0000 0.0000 0.0000 -0.1777 0.0000 -0.5870
# 5 -17.8444 0.8843 -17.5426 0.0000 23.9097 0.0000
# 6 0.0000 0.0000 0.0000 -0.5870 0.0000 8.6341
#
#
#
# Elastic Compliance Matrix: (Units=1/GPa)
#
#
# Indices 1 2 3 4 5 6 
#
# 1 0.013516 -0.003072 0.008456 0.000000 0.016405 0.000000
# 2 -0.003072 0.011373 0.003363 0.000000 -0.000246 0.000000
# 3 0.008456 0.003363 0.061704 0.000000 0.051459 0.000000
# 4 0.000000 0.000000 0.000000 -4.595741 0.000000 -0.312472
# 5 0.016405 -0.000246 0.051459 0.000000 0.091832 0.000000
# 6 0.000000 0.000000 0.000000 -0.312472 0.000000 0.094574
#
#
# Mechanical properties :
#
#
# Convention : Reuss Voigt Hill
#
# Bulk Modulus (GPa) = 9.60745 29.54349 19.57547
# Shear Modulus (GPa) = -1.16130 20.80981 9.82426
#
# Velocity S-wave (km/s) = -0.72510 3.06944 2.10899
# Velocity P-wave (km/s) = 1.91015 5.09288 3.84617
#
# Compressibility (1/GPa) = 0.10408585
#
# Stress axis : x y z
#
# Youngs Moduli (GPa) = 73.98545 87.92423 16.20642
#
# Poissons Ratio (x) = 0.27014 -0.13704
# Poissons Ratio (y) = 0.22732 -0.05450
# Poissons Ratio (z) = -0.62560 -0.29568
#
# Static dielectric constant tensor:
#      x y z
#    x 1.842480 0.000000 0.047940 
#    y 0.000000 1.806520 0.000000 
#    z 0.047940 0.000000 1.901550 
# 
# From -- ./inp_files/195113.got.cif
#   From: 2010.05.17/outbox.cif.g08.bks.cpg/sg12_98_cif.got.tgz:195113.got - 2010.06.03 13:09:07.
