data_PCOD9193411
_publ_section_title
;
Structure prediction by ZEFSAII (Michael W. Deem and Ramdas Pophale) SiO2 
 PCOD9193411
Probable space group: C 2/M
;
_chemical_formula_sum "Si O2"
_cell_formula_units_Z 48
_cell_length_a 16.453347
_cell_length_b 7.625390
_cell_length_c 30.334548
_cell_angle_alpha 90.000000
_cell_angle_beta 145.646200
_cell_angle_gamma 90.000000
_cell_volume 2147.657621
_symmetry_space_group_name_H-M "C 2/M"
_symmetry_group_IT_number 12
_symmetry_cell_setting 'monoclinic'
loop_
_space_group_symop_operation_xyz
x,y,z
-x,y,-z
-x,-y,-z
x,-y,z
1/2+x,1/2+y,z
1/2-x,1/2+y,-z
1/2-x,1/2-y,-z
1/2+x,1/2-y,z
loop_
_atom_site_type_symbol
_atom_site_label
_atom_site_fract_x
_atom_site_fract_y
_atom_site_fract_z
Si Si1 0.401502 0.715423 0.820548
Si Si2 0.076968 0.295326 0.324665
Si Si3 0.601191 0.787966 0.504805
Si Si4 0.916064 0.285846 0.339132
Si Si5 0.095720 0.199298 0.831929
Si Si6 0.613425 0.294462 0.085474
O O1 0.403922 0.500000 0.821048
O O2 0.249461 0.767931 0.730420
O O3 0.535308 0.775754 0.850601
O O4 0.397576 0.775585 0.869596
O O5 0.046318 0.500000 0.303646
O O6 0.238704 0.276322 0.414328
O O7 0.973995 0.229309 0.317556
O O8 0.038693 0.202007 0.262127
O O9 0.500000 0.736365 0.500000
O O10 0.524567 0.726455 0.425767
O O11 0.607596 0.000000 0.506340
O O12 0.919238 0.500000 0.340977
O O13 0.228754 0.283131 0.865552
O O14 0.140286 0.000000 0.860345
O O15 0.578287 0.500000 0.074623
O O16 0.500000 0.216937 0.000000
#
# Coordination Sequence:
#
# PCOD9193411 Si02
#       6
#     8   8   8   8   8   8
#     4   9  18  36  60  85 116 156 194 230 286 349
#     4  11  21  35  56  80 113 153 194 243 290 337
#     4  10  20  34  53  78 109 149 197 241 287 345
#     4   9  17  32  55  78 107 150 194 235 281 339
#     4  11  22  37  61  88 117 155 196 239 285 342
#     4  10  21  40  65  89 117 153 190 233 290 353
#
# _framework density 22.349930000000001
#
# number of rings (size 3 to 8) (size 9 to 14) (size 15 to 20)
#    0.000    2.000    1.667    2.500    0.000    4.000 
#    0.000    2.500    0.000    0.000    0.000    0.000 
#    0.000    0.000    0.000    0.000    0.000    0.000 
#
# Total GULP energy -134077.325390 kJ/mol
# GULP energy per Si atom -5586.555225 kJ/mol
# Density = 2.229906 g / cm^3
# Si number density = 22.349930 Si / 1000 Ang^3
#
#
#
# Elastic Constant Matrix: (Units=GPa)
#
#
# Indices 1 2 3 4 5 6 
#
# 1 148.9772 -0.6216 46.5983 0.0000 -16.1933 0.0001
# 2 -0.6216 42.0015 -4.3336 0.0000 -1.2412 0.0002
# 3 46.5983 -4.3336 121.1955 0.0000 -10.0054 0.0001
# 4 0.0000 0.0000 0.0000 6.0514 0.0000 2.8482
# 5 -16.1933 -1.2412 -10.0054 0.0000 9.9019 0.0000
# 6 0.0001 0.0002 0.0001 2.8482 0.0000 8.2021
#
#
#
# Elastic Compliance Matrix: (Units=1/GPa)
#
#
# Indices 1 2 3 4 5 6 
#
# 1 0.008754 0.000238 -0.002371 0.000000 0.011950 0.000000
# 2 0.000238 0.024065 0.001146 0.000001 0.004564 -0.000001
# 3 -0.002371 0.001146 0.009705 0.000000 0.006073 0.000000
# 4 0.000000 0.000001 0.000000 0.197534 0.000000 -0.068593
# 5 0.011950 0.004564 0.006073 0.000000 0.127243 0.000000
# 6 0.000000 -0.000001 0.000000 -0.068593 0.000000 0.145738
#
#
# Mechanical properties :
#
#
# Convention : Reuss Voigt Hill
#
# Bulk Modulus (GPa) = 24.66065 43.94003 34.30034
# Shear Modulus (GPa) = 9.46020 22.86651 16.16335
#
# Velocity S-wave (km/s) = 2.05960 3.20208 2.69215
# Velocity P-wave (km/s) = 4.08825 5.77701 5.00438
#
# Compressibility (1/GPa) = 0.04055044
#
# Stress axis : x y z
#
# Youngs Moduli (GPa) = 114.23453 41.55367 103.04000
#
# Poissons Ratio (x) = -0.00989 0.24428
# Poissons Ratio (y) = -0.02720 -0.11806
# Poissons Ratio (z) = 0.27082 -0.04761
#
# Static dielectric constant tensor:
#      x y z
#    x 1.813150 0.000000 -0.012630 
#    y 0.000000 1.852490 0.000000 
#    z -0.012630 0.000000 1.814310 
# 
# From -- ./inp_files/360242.got.cif
#   From: 2010.05.17/outbox.cif.g08.bks.cpg/sg12_181_cif.got.tgz:360242.got - 2010.06.03 13:09:07.
