data_PCOD9193276
_publ_section_title
;
Structure prediction by ZEFSAII (Michael W. Deem and Ramdas Pophale) SiO2 
 PCOD9193276
Probable space group: C 2/M
;
_chemical_formula_sum "Si O2"
_cell_formula_units_Z 56
_cell_length_a 19.463371
_cell_length_b 7.508747
_cell_length_c 25.980917
_cell_angle_alpha 90.000000
_cell_angle_beta 139.415427
_cell_angle_gamma 90.000000
_cell_volume 2470.210021
_symmetry_space_group_name_H-M "C 2/M"
_symmetry_group_IT_number 12
_symmetry_cell_setting 'monoclinic'
loop_
_space_group_symop_operation_xyz
x,y,z
-x,y,-z
-x,-y,-z
x,-y,z
1/2+x,1/2+y,z
1/2-x,1/2+y,-z
1/2-x,1/2-y,-z
1/2+x,1/2-y,z
loop_
_atom_site_type_symbol
_atom_site_label
_atom_site_fract_x
_atom_site_fract_y
_atom_site_fract_z
Si Si1 0.134348 0.787508 0.913251
Si Si2 0.422799 0.295983 0.837675
Si Si3 0.325682 0.288769 0.494855
Si Si4 0.708210 0.220245 0.750899
Si Si5 0.652859 0.782761 0.318884
Si Si6 0.458278 0.205168 0.423021
Si Si7 0.562305 0.794458 0.759110
O O1 0.115694 0.713601 0.845610
O O2 0.039324 0.717570 0.895672
O O3 0.120131 0.000000 0.901248
O O4 0.250000 0.750000 0.000000
O O5 0.437768 0.500000 0.863026
O O6 0.329259 0.217817 0.818956
O O7 0.371865 0.290946 0.751374
O O8 0.338831 0.500000 0.499673
O O9 0.250000 0.250000 0.500000
O O10 0.261318 0.228819 0.407425
O O11 0.442492 0.209235 0.559821
O O12 0.643261 0.281127 0.663571
O O13 0.640181 0.281660 0.760879
O O14 0.710734 0.000000 0.751835
O O15 0.555377 0.721076 0.299646
O O16 0.649835 0.000000 0.314089
O O17 0.500000 0.288219 0.500000
O O18 0.432256 0.000000 0.419508
O O19 0.546929 0.000000 0.735753
#
# Coordination Sequence:
#
# PCOD9193276 Si02
#       7
#     8   8   8   8   8   8   8
#     4  10  20  35  56  81 106 130 162 202 247 303
#     4   9  18  33  55  79  99 127 169 209 243 294
#     4  11  22  34  49  71 101 136 178 226 271 314
#     4   9  17  32  53  76 103 135 173 215 258 304
#     4   9  18  32  49  70  97 131 169 210 258 307
#     4  10  20  34  53  76 105 143 182 221 269 319
#     4   9  17  32  54  75  99 133 169 207 253 301
#
# _framework density 22.670138000000001
#
# number of rings (size 3 to 8) (size 9 to 14) (size 15 to 20)
#    0.000    2.429    0.000    2.571    0.000    5.429 
#    0.000    5.714    0.000    4.286    0.000    0.000 
#    0.000    0.000    0.000    0.000    0.000    0.000 
#
# Total GULP energy -156365.221238 kJ/mol
# GULP energy per Si atom -5584.472187 kJ/mol
# Density = 2.261854 g / cm^3
# Si number density = 22.670138 Si / 1000 Ang^3
#
#
#
# Elastic Constant Matrix: (Units=GPa)
#
#
# Indices 1 2 3 4 5 6 
#
# 1 112.1281 -2.3408 17.5275 0.0000 31.5043 0.0000
# 2 -2.3408 72.9724 -6.8035 0.0000 1.8102 0.0001
# 3 17.5275 -6.8035 90.6932 0.0000 35.8891 0.0000
# 4 0.0000 0.0000 0.0000 7.0031 0.0000 -2.7046
# 5 31.5043 1.8102 35.8891 0.0000 33.5041 0.0000
# 6 0.0000 0.0001 0.0000 -2.7046 0.0000 14.7220
#
#
#
# Elastic Compliance Matrix: (Units=1/GPa)
#
#
# Indices 1 2 3 4 5 6 
#
# 1 0.013016 0.001232 0.004246 0.000000 -0.016854 0.000000
# 2 0.001232 0.014120 0.002745 0.000000 -0.004861 0.000000
# 3 0.004246 0.002745 0.020916 0.000000 -0.026547 0.000000
# 4 0.000000 0.000000 0.000000 0.153698 0.000000 0.028235
# 5 -0.016854 -0.004861 -0.026547 0.000000 0.074394 0.000000
# 6 0.000000 0.000000 0.000000 0.028235 0.000000 0.073113
#
#
# Mechanical properties :
#
#
# Convention : Reuss Voigt Hill
#
# Bulk Modulus (GPa) = 15.50444 32.50667 24.00556
# Shear Modulus (GPa) = 14.11195 28.87322 21.49259
#
# Velocity S-wave (km/s) = 2.49768 3.57266 3.08239
# Velocity P-wave (km/s) = 3.89511 5.60256 4.82496
#
# Compressibility (1/GPa) = 0.06449764
#
# Stress axis : x y z
#
# Youngs Moduli (GPa) = 76.83007 70.82240 47.80931
#
# Poissons Ratio (x) = -0.08722 -0.20302
# Poissons Ratio (y) = -0.09462 -0.13123
# Poissons Ratio (z) = -0.32625 -0.19440
#
# Static dielectric constant tensor:
#      x y z
#    x 1.897310 0.000000 0.021470 
#    y 0.000000 1.881190 0.000000 
#    z 0.021470 0.000000 1.798620 
# 
# From -- ./inp_files/280370.got.cif
#   From: 2010.05.17/outbox.cif.g08.bks.cpg/sg12_141_cif.got.tgz:280370.got - 2010.06.03 13:09:07.
