data_PCOD9193340
_publ_section_title
;
Structure prediction by ZEFSAII (Michael W. Deem and Ramdas Pophale) SiO2 
 PCOD9193340
Probable space group: C 2/M
;
_chemical_formula_sum "Si O2"
_cell_formula_units_Z 54
_cell_length_a 6.805189
_cell_length_b 17.464389
_cell_length_c 17.627329
_cell_angle_alpha 90.000000
_cell_angle_beta 93.598249
_cell_angle_gamma 90.000000
_cell_volume 2090.851098
_symmetry_space_group_name_H-M "C 2/M"
_symmetry_group_IT_number 12
_symmetry_cell_setting 'monoclinic'
loop_
_space_group_symop_operation_xyz
x,y,z
-x,y,-z
-x,-y,-z
x,-y,z
1/2+x,1/2+y,z
1/2-x,1/2+y,-z
1/2-x,1/2-y,-z
1/2+x,1/2-y,z
loop_
_atom_site_type_symbol
_atom_site_label
_atom_site_fract_x
_atom_site_fract_y
_atom_site_fract_z
Si Si1 0.782473 0.410181 0.060925
Si Si2 0.174739 0.909258 0.897393
Si Si3 0.414817 0.855851 0.220580
Si Si4 0.533512 0.084760 0.618668
Si Si5 0.036644 0.865450 0.406447
Si Si6 0.964170 0.178229 0.243220
Si Si7 0.500000 0.778728 0.500000
Si Si8 0.000000 0.000000 0.500000
O O1 0.819018 0.500000 0.053617
O O2 0.555408 0.402298 0.082456
O O3 0.916467 0.382691 0.133578
O O4 0.788601 0.379002 0.975013
O O5 0.181408 0.862620 0.819299
O O6 0.211918 0.000000 0.886294
O O7 0.505574 0.903026 0.292639
O O8 0.475772 0.767791 0.227637
O O9 0.180780 0.855646 0.234753
O O10 0.771529 0.086818 0.612251
O O11 0.479408 0.158870 0.567867
O O12 0.474616 0.000000 0.592385
O O13 0.923975 0.833845 0.330830
O O14 0.115815 0.791844 0.455983
O O15 0.909706 0.929690 0.445547
#
# Coordination Sequence:
#
# PCOD9193340 Si02
#       8
#     8   8   8   8   8   8   4   2
#     4   8  14  28  49  78 103 135 174 223 262 314
#     4   8  15  27  50  77 106 133 176 222 268 308
#     4  10  20  34  53  78 108 141 177 221 272 319
#     4  11  21  36  56  81 104 142 185 225 265 332
#     4  10  21  36  55  79 107 139 183 221 278 317
#     4  10  20  34  53  77 107 141 175 221 270 326
#     4  11  21  37  55  76 110 140 169 229 283 323
#     4  10  20  36  54  78 102 134 182 230 264 318
#
# _framework density 25.826803999999999
#
# number of rings (size 3 to 8) (size 9 to 14) (size 15 to 20)
#    0.000    2.370    2.222    2.000    1.037    2.370 
#    0.000    0.000    0.000    1.778    0.000    2.074 
#    0.000    0.000    0.000    0.000    0.000    0.000 
#
# Total GULP energy -150462.116945 kJ/mol
# GULP energy per Si atom -5572.670998 kJ/mol
# Density = 2.576802 g / cm^3
# Si number density = 25.826804 Si / 1000 Ang^3
#
#
#
# Elastic Constant Matrix: (Units=GPa)
#
#
# Indices 1 2 3 4 5 6 
#
# 1 70.2386 10.9799 19.5794 0.0000 1.4681 0.0000
# 2 10.9799 195.9043 100.9040 0.0000 8.9076 0.0000
# 3 19.5794 100.9040 213.7605 0.0000 -1.8260 0.0000
# 4 0.0000 0.0000 0.0000 36.8711 0.0000 -10.6165
# 5 1.4681 8.9076 -1.8260 0.0000 33.4501 0.0000
# 6 0.0000 0.0000 0.0000 -10.6165 0.0000 -15.6405
#
#
#
# Elastic Compliance Matrix: (Units=1/GPa)
#
#
# Indices 1 2 3 4 5 6 
#
# 1 0.014630 -0.000127 -0.001286 0.000000 -0.000679 0.000000
# 2 -0.000127 0.006878 -0.003252 0.000000 -0.002003 0.000000
# 3 -0.001286 -0.003252 0.006342 0.000000 0.001269 0.000000
# 4 0.000000 0.000000 0.000000 0.022687 0.000000 -0.015400
# 5 -0.000679 -0.002003 0.001269 0.000000 0.030528 0.000000
# 6 0.000000 0.000000 0.000000 -0.015400 0.000000 -0.053484
#
#
# Mechanical properties :
#
#
# Convention : Reuss Voigt Hill
#
# Bulk Modulus (GPa) = 53.99661 82.53668 68.26665
# Shear Modulus (GPa) = 116.05258 34.16548 75.10903
#
# Velocity S-wave (km/s) = 6.71062 3.64107 5.39861
# Velocity P-wave (km/s) = 8.99977 7.05008 8.08392
#
# Compressibility (1/GPa) = 0.01851968
#
# Stress axis : x y z
#
# Youngs Moduli (GPa) = 68.35436 145.39551 157.68157
#
# Poissons Ratio (x) = 0.01843 0.20277
# Poissons Ratio (y) = 0.00866 0.51280
# Poissons Ratio (z) = 0.08790 0.47284
#
# Static dielectric constant tensor:
#      x y z
#    x 2.617450 0.000000 0.140230 
#    y 0.000000 1.924030 0.000000 
#    z 0.140230 0.000000 2.221990 
# 
# From -- ./inp_files/262997.got.cif
#   From: 2010.05.17/outbox.cif.g08.bks.cpg/sg12_132_cif.got.tgz:262997.got - 2010.06.03 13:09:07.
