data_PCOD9193338
_publ_section_title
;
Structure prediction by ZEFSAII (Michael W. Deem and Ramdas Pophale) SiO2 
 PCOD9193338
Probable space group: C 2/M
;
_chemical_formula_sum "Si O2"
_cell_formula_units_Z 56
_cell_length_a 29.131482
_cell_length_b 8.827659
_cell_length_c 19.664122
_cell_angle_alpha 90.000000
_cell_angle_beta 137.793352
_cell_angle_gamma 90.000000
_cell_volume 3397.245366
_symmetry_space_group_name_H-M "C 2/M"
_symmetry_group_IT_number 12
_symmetry_cell_setting 'monoclinic'
loop_
_space_group_symop_operation_xyz
x,y,z
-x,y,-z
-x,-y,-z
x,-y,z
1/2+x,1/2+y,z
1/2-x,1/2+y,-z
1/2-x,1/2-y,-z
1/2+x,1/2-y,z
loop_
_atom_site_type_symbol
_atom_site_label
_atom_site_fract_x
_atom_site_fract_y
_atom_site_fract_z
Si Si1 0.203213 0.817813 0.691608
Si Si2 0.445395 0.180370 0.500000
Si Si3 0.640632 0.819448 0.379758
Si Si4 0.488395 0.682187 0.691608
Si Si5 0.260874 0.680552 0.620242
Si Si6 0.750583 0.182309 0.107585
Si Si7 0.142999 0.817691 0.892415
O O1 0.127156 0.752317 0.599078
O O2 0.248205 0.755103 0.679060
O O3 0.233012 0.771658 0.797590
O O4 0.200339 0.000000 0.685478
O O5 0.500000 0.206484 0.500000
O O6 0.471923 0.252317 0.599078
O O7 0.436775 0.000000 0.500000
O O8 0.569145 0.744897 0.320940
O O9 0.675957 0.750000 0.351913
O O10 0.693652 0.788825 0.500000
O O11 0.634093 0.000000 0.366051
O O12 0.485139 0.500000 0.685478
O O13 0.564578 0.728342 0.797590
O O14 0.268042 0.500000 0.633949
O O15 0.812587 0.227982 0.125174
O O16 0.746267 0.000000 0.101127
O O17 0.682158 0.250000 0.000000
O O18 0.145140 0.000000 0.898873
#
# Coordination Sequence:
#
# PCOD9193338 Si02
#       7
#     8   8   8   8   8   8   8
#     4  11  21  34  54  78 107 140 175 216 265 316
#     4  11  23  35  48  73 108 143 177 213 259 313
#     4  10  20  34  53  77 107 139 176 216 260 314
#     4  11  21  34  54  78 107 140 175 216 265 316
#     4  10  20  34  53  77 107 139 176 216 260 314
#     4   9  19  35  54  77 104 138 180 220 259 307
#     4   9  19  35  54  77 104 138 180 220 259 307
#
# _framework density 16.483941999999999
#
# number of rings (size 3 to 8) (size 9 to 14) (size 15 to 20)
#    0.000    1.857    1.429    3.000    0.000    5.714 
#    0.000    2.857    0.000    0.857    0.000    6.000 
#    0.000    0.000    0.000    0.000    0.000    0.000 
#
# Total GULP energy -156362.664636 kJ/mol
# GULP energy per Si atom -5584.380880 kJ/mol
# Density = 1.644642 g / cm^3
# Si number density = 16.483942 Si / 1000 Ang^3
#
#
#
# Elastic Constant Matrix: (Units=GPa)
#
#
# Indices 1 2 3 4 5 6 
#
# 1 139.9532 60.7231 101.7791 0.0000 0.0015 0.0000
# 2 60.7231 51.8990 53.9349 0.0000 0.0824 0.0000
# 3 101.7791 53.9349 151.8596 0.0000 -0.1454 0.0000
# 4 0.0000 0.0000 0.0000 27.4951 0.0000 0.0457
# 5 0.0015 0.0824 -0.1454 0.0000 19.0423 0.0000
# 6 0.0000 0.0000 0.0000 0.0457 0.0000 31.2642
#
#
#
# Elastic Compliance Matrix: (Units=1/GPa)
#
#
# Indices 1 2 3 4 5 6 
#
# 1 0.018764 -0.014083 -0.007574 0.000000 0.000002 0.000000
# 2 -0.014083 0.041111 -0.005163 0.000000 -0.000216 0.000000
# 3 -0.007574 -0.005163 0.013495 0.000000 0.000126 0.000000
# 4 0.000000 0.000000 0.000000 0.036370 0.000000 -0.000053
# 5 0.000002 -0.000216 0.000126 0.000000 0.052517 0.000000
# 6 0.000000 0.000000 0.000000 -0.000053 0.000000 0.031986
#
#
# Mechanical properties :
#
#
# Convention : Reuss Voigt Hill
#
# Bulk Modulus (GPa) = 50.68293 86.28732 68.48513
# Shear Modulus (GPa) = 19.64961 24.04531 21.84746
#
# Velocity S-wave (km/s) = 3.45635 3.82345 3.64452
# Velocity P-wave (km/s) = 6.83682 8.48243 7.70369
#
# Compressibility (1/GPa) = 0.01973051
#
# Stress axis : x y z
#
# Youngs Moduli (GPa) = 53.29465 24.32439 74.10120
#
# Poissons Ratio (x) = 0.34255 0.56125
# Poissons Ratio (y) = 0.75053 0.38257
# Poissons Ratio (z) = 0.40366 0.12558
#
# Static dielectric constant tensor:
#      x y z
#    x 1.543000 0.000000 0.000200 
#    y 0.000000 1.551550 0.000000 
#    z 0.000200 0.000000 1.526370 
# 
# From -- ./inp_files/288251.got.cif
#   From: 2010.05.17/outbox.cif.g08.bks.cpg/sg12_145_cif.got.tgz:288251.got - 2010.06.03 13:09:07.
