data_PCOD9193115
_publ_section_title
;
Structure prediction by ZEFSAII (Michael W. Deem and Ramdas Pophale) SiO2 
 PCOD9193115
Probable space group: C 2/M
;
_chemical_formula_sum "Si O2"
_cell_formula_units_Z 64
_cell_length_a 24.192907
_cell_length_b 16.893196
_cell_length_c 14.445453
_cell_angle_alpha 90.000000
_cell_angle_beta 35.199350
_cell_angle_gamma 90.000000
_cell_volume 3403.081722
_symmetry_space_group_name_H-M "C 2/M"
_symmetry_group_IT_number 12
_symmetry_cell_setting 'monoclinic'
loop_
_space_group_symop_operation_xyz
x,y,z
-x,y,-z
-x,-y,-z
x,-y,z
1/2+x,1/2+y,z
1/2-x,1/2+y,-z
1/2-x,1/2-y,-z
1/2+x,1/2-y,z
loop_
_atom_site_type_symbol
_atom_site_label
_atom_site_fract_x
_atom_site_fract_y
_atom_site_fract_z
Si Si1 0.950036 0.827749 0.784471
Si Si2 0.775056 0.822764 0.397699
Si Si3 0.899629 0.589883 0.292799
Si Si4 0.671359 0.817492 0.782774
Si Si5 0.296993 0.407212 0.866519
Si Si6 0.590707 0.845536 0.096529
Si Si7 0.973409 0.094192 0.142918
Si Si8 0.864271 0.906007 0.562861
O O1 0.856562 0.857517 0.858769
O O2 0.945100 0.733688 0.803968
O O3 0.958500 0.865909 0.874802
O O4 0.043039 0.859608 0.601136
O O5 0.750000 0.750000 0.500000
O O6 0.684915 0.880430 0.523992
O O7 0.800588 0.773921 0.271117
O O8 0.868264 0.869613 0.302601
O O9 0.883657 0.500000 0.283842
O O10 0.893549 0.648044 0.211856
O O11 0.000201 0.597586 0.207176
O O12 0.768213 0.870148 0.648859
O O13 0.622376 0.826038 0.948274
O O14 0.303479 0.500000 0.879889
O O15 0.346058 0.396563 0.697956
O O16 0.186058 0.381565 0.011655
O O17 0.972894 0.000000 0.156676
O O18 0.000000 0.110915 0.000000
O O19 0.874140 0.000000 0.529964
#
# Coordination Sequence:
#
# PCOD9193115 Si02
#       8
#     8   8   8   8   8   8   8   8
#     4  12  21  36  58  81 111 144 180 224 281 331
#     4  10  20  34  52  78 109 141 181 223 266 321
#     4  11  21  34  55  80 110 150 187 223 273 326
#     4  10  20  35  54  78 111 147 181 223 274 327
#     4  10  22  39  58  82 110 142 183 229 276 326
#     4  11  23  36  53  80 112 145 183 224 267 325
#     4  11  23  37  55  81 111 143 182 227 272 323
#     4  10  20  35  58  87 113 138 178 230 278 328
#
# _framework density 18.806483
#
# number of rings (size 3 to 8) (size 9 to 14) (size 15 to 20)
#    0.000    1.375    0.000    7.875    0.000    3.000 
#    0.000    0.000    0.000    0.000    0.000    0.000 
#    0.000   18.000    0.000    0.000    0.000    0.000 
#
# Total GULP energy -178767.773028 kJ/mol
# GULP energy per Si atom -5586.492907 kJ/mol
# Density = 1.876368 g / cm^3
# Si number density = 18.806483 Si / 1000 Ang^3
#
#
#
# Elastic Constant Matrix: (Units=GPa)
#
#
# Indices 1 2 3 4 5 6 
#
# 1 76.4128 2.4061 21.3214 0.0000 -17.4097 0.0000
# 2 2.4061 -5.5481 1.7663 0.0000 7.2330 0.0000
# 3 21.3214 1.7663 58.6392 0.0000 -16.2114 0.0000
# 4 0.0000 0.0000 0.0000 28.2815 0.0000 -5.6265
# 5 -17.4097 7.2330 -16.2114 0.0000 23.4622 0.0000
# 6 0.0000 0.0000 0.0000 -5.6265 0.0000 28.1169
#
#
#
# Elastic Compliance Matrix: (Units=1/GPa)
#
#
# Indices 1 2 3 4 5 6 
#
# 1 0.015053 0.011103 -0.004532 0.000000 0.004616 0.000000
# 2 0.011103 -0.106196 0.012967 0.000000 0.049937 0.000000
# 3 -0.004532 0.012967 0.020119 0.000000 0.006541 0.000000
# 4 0.000000 0.000000 0.000000 0.036825 0.000000 0.007369
# 5 0.004616 0.049937 0.006541 0.000000 0.035171 0.000000
# 6 0.000000 0.000000 0.000000 0.007369 0.000000 0.037040
#
#
# Mechanical properties :
#
#
# Convention : Reuss Voigt Hill
#
# Bulk Modulus (GPa) = -31.30286 20.05461 -5.62413
# Shear Modulus (GPa) = -426.87743 22.90615 -201.98564
#
# Velocity S-wave (km/s) = -15.08234 3.49376 -10.37474
# Velocity P-wave (km/s) = 17.88808 5.19249 12.10416
#
# Compressibility (1/GPa) = -0.03194596
#
# Stress axis : x y z
#
# Youngs Moduli (GPa) = 66.43041 -9.41657 49.70439
#
# Poissons Ratio (x) = 0.10456 0.22525
# Poissons Ratio (y) = -0.73760 -0.64453
# Poissons Ratio (z) = 0.30105 0.12211
#
# Static dielectric constant tensor:
#      x y z
#    x 1.650450 0.000000 0.016120 
#    y 0.000000 1.642710 0.000000 
#    z 0.016120 0.000000 1.687710 
# 
# From -- ./inp_files/241466.got.cif
#   From: 2010.05.17/outbox.cif.g08.bks.cpg/sg12_121_cif.got.tgz:241466.got - 2010.06.03 13:09:07.
