data_PCOD9193490
_publ_section_title
;
Structure prediction by ZEFSAII (Michael W. Deem and Ramdas Pophale) SiO2 
 PCOD9193490
Probable space group: C 2/M
;
_chemical_formula_sum "Si O2"
_cell_formula_units_Z 64
_cell_length_a 20.676372
_cell_length_b 7.590612
_cell_length_c 34.842342
_cell_angle_alpha 90.000000
_cell_angle_beta 145.153048
_cell_angle_gamma 90.000000
_cell_volume 3124.555748
_symmetry_space_group_name_H-M "C 2/M"
_symmetry_group_IT_number 12
_symmetry_cell_setting 'monoclinic'
loop_
_space_group_symop_operation_xyz
x,y,z
-x,y,-z
-x,-y,-z
x,-y,z
1/2+x,1/2+y,z
1/2-x,1/2+y,-z
1/2-x,1/2-y,-z
1/2+x,1/2-y,z
loop_
_atom_site_type_symbol
_atom_site_label
_atom_site_fract_x
_atom_site_fract_y
_atom_site_fract_z
Si Si1 0.391562 0.284677 0.971504
Si Si2 0.644510 0.216600 0.821277
Si Si3 0.620496 0.709918 0.946982
Si Si4 0.879451 0.709718 0.553735
Si Si5 0.227598 0.785962 0.704971
Si Si6 0.023225 0.206697 0.553153
Si Si7 0.917651 0.708646 0.293968
Si Si8 0.526647 0.796486 0.196914
O O1 0.390562 0.500000 0.971072
O O2 0.270962 0.228843 0.895191
O O3 0.500000 0.227721 0.000000
O O4 0.401918 0.227991 0.020714
O O5 0.610122 0.276742 0.761930
O O6 0.553197 0.277659 0.808449
O O7 0.645703 0.000000 0.822330
O O8 0.603246 0.500000 0.937437
O O9 0.542269 0.790622 0.876232
O O10 0.750000 0.750000 0.000000
O O11 0.892783 0.500000 0.559024
O O12 0.750000 0.750000 0.500000
O O13 0.918347 0.778156 0.531159
O O14 0.970237 0.779164 0.629503
O O15 0.130783 0.720585 0.628643
O O16 0.186341 0.734437 0.727320
O O17 0.349873 0.719502 0.751399
O O18 0.228664 0.000000 0.705319
O O19 0.000000 0.283882 0.500000
O O20 0.048199 0.000000 0.559755
O O21 0.935648 0.500000 0.298067
O O22 0.545963 0.000000 0.217308
#
# Coordination Sequence:
#
# PCOD9193490 Si02
#       8
#     8   8   8   8   8   8   8   8
#     4   9  18  31  50  77 101 127 168 211 252 297
#     4   9  17  32  52  73 101 135 172 215 253 296
#     4  11  21  35  56  78 102 133 169 215 263 308
#     4  10  20  34  53  80 109 141 179 221 268 318
#     4   9  19  34  53  77 108 140 169 211 266 315
#     4   9  18  34  56  81 107 140 181 223 266 318
#     4   9  19  34  55  78 102 135 178 219 253 304
#     4  10  20  35  53  75 104 138 173 208 256 312
#
# _framework density 20.482913
#
# number of rings (size 3 to 8) (size 9 to 14) (size 15 to 20)
#    0.000    2.500    1.250    0.750    1.750    2.250 
#    0.000    4.375    0.000    3.000    0.000    0.000 
#    0.000    0.000    0.000    0.000    0.000    0.000 
#
# Total GULP energy -178594.518162 kJ/mol
# GULP energy per Si atom -5581.078693 kJ/mol
# Density = 2.043629 g / cm^3
# Si number density = 20.482913 Si / 1000 Ang^3
#
#
#
# Elastic Constant Matrix: (Units=GPa)
#
#
# Indices 1 2 3 4 5 6 
#
# 1 206.0303 -13.7563 120.6574 -0.0002 -5.6313 -0.0003
# 2 -13.7563 41.3158 -7.3603 -0.0004 -4.8080 -0.0015
# 3 120.6574 -7.3603 123.7850 -0.0003 -8.6878 0.0004
# 4 -0.0002 -0.0004 -0.0003 10.5335 0.0002 -0.7217
# 5 -5.6313 -4.8080 -8.6878 0.0002 46.4636 0.0000
# 6 -0.0003 -0.0015 0.0004 -0.7217 0.0000 9.7831
#
#
#
# Elastic Compliance Matrix: (Units=1/GPa)
#
#
# Indices 1 2 3 4 5 6 
#
# 1 0.011458 0.001780 -0.011098 0.000000 -0.000502 0.000001
# 2 0.001780 0.025115 -0.000044 0.000001 0.002806 0.000004
# 3 -0.011098 -0.000044 0.019049 0.000000 0.002212 -0.000001
# 4 0.000000 0.000001 0.000000 0.095417 0.000000 0.007039
# 5 -0.000502 0.002806 0.002212 0.000000 0.022165 0.000000
# 6 0.000001 0.000004 -0.000001 0.007039 0.000000 0.102736
#
#
# Mechanical properties :
#
#
# Convention : Reuss Voigt Hill
#
# Bulk Modulus (GPa) = 27.10297 63.35696 45.22997
# Shear Modulus (GPa) = 16.28852 31.46208 23.87530
#
# Velocity S-wave (km/s) = 2.82303 3.92346 3.41782
# Velocity P-wave (km/s) = 4.88741 7.17798 6.14045
#
# Compressibility (1/GPa) = 0.03689632
#
# Stress axis : x y z
#
# Youngs Moduli (GPa) = 87.27483 39.81685 52.49690
#
# Poissons Ratio (x) = -0.07085 0.58261
# Poissons Ratio (y) = -0.15531 0.00232
# Poissons Ratio (z) = 0.96858 0.00176
#
# Static dielectric constant tensor:
#      x y z
#    x 1.700220 0.000000 -0.001530 
#    y 0.000000 1.796040 0.000000 
#    z -0.001530 0.000000 1.758960 
# 
# From -- ./inp_files/378514.got.cif
#   From: 2010.05.17/outbox.cif.g08.bks.cpg/sg12_190_cif.got.tgz:378514.got - 2010.06.03 13:09:07.
