data_PCOD9193140
_publ_section_title
;
Structure prediction by ZEFSAII (Michael W. Deem and Ramdas Pophale) SiO2 
 PCOD9193140
Probable space group: C 2/M
;
_chemical_formula_sum "Si O2"
_cell_formula_units_Z 56
_cell_length_a 14.621467
_cell_length_b 8.461391
_cell_length_c 28.981561
_cell_angle_alpha 90.000000
_cell_angle_beta 124.591466
_cell_angle_gamma 90.000000
_cell_volume 2951.691020
_symmetry_space_group_name_H-M "C 2/M"
_symmetry_group_IT_number 12
_symmetry_cell_setting 'monoclinic'
loop_
_space_group_symop_operation_xyz
x,y,z
-x,y,-z
-x,-y,-z
x,-y,z
1/2+x,1/2+y,z
1/2-x,1/2+y,-z
1/2-x,1/2-y,-z
1/2+x,1/2-y,z
loop_
_atom_site_type_symbol
_atom_site_label
_atom_site_fract_x
_atom_site_fract_y
_atom_site_fract_z
Si Si1 0.009794 0.685702 0.072854
Si Si2 0.945104 0.309324 0.343475
Si Si3 0.249369 0.190974 0.354987
Si Si4 0.695918 0.810838 0.437683
Si Si5 0.498034 0.690530 0.260861
Si Si6 0.918170 0.189795 0.137239
Si Si7 0.674074 0.313969 0.045296
O O1 0.032514 0.500000 0.074809
O O2 0.000501 0.737432 0.122925
O O3 0.100736 0.781962 0.069998
O O4 0.892673 0.725797 0.014421
O O5 0.943994 0.500000 0.343380
O O6 0.847065 0.253959 0.349072
O O7 0.934955 0.253424 0.287842
O O8 0.067228 0.257027 0.395795
O O9 0.258866 0.250518 0.410061
O O10 0.127082 0.240890 0.302394
O O11 0.251388 0.000000 0.356225
O O12 0.750000 0.750000 0.500000
O O13 0.696625 0.000000 0.437861
O O14 0.495508 0.500000 0.261581
O O15 0.447977 0.740812 0.197655
O O16 0.795442 0.246449 0.088753
O O17 0.923890 0.000000 0.136348
O O18 0.678028 0.500000 0.036190
#
# Coordination Sequence:
#
# PCOD9193140 Si02
#       7
#     8   8   8   8   8   8   8
#     4  11  22  38  58  82 110 142 178 224 278 332
#     4   9  19  35  56  78 105 140 179 218 264 315
#     4   9  18  36  57  77 103 140 177 215 262 313
#     4  10  20  34  52  79 110 141 175 218 262 310
#     4   9  20  36  55  78 106 137 175 220 265 311
#     4  11  22  37  55  81 113 145 181 223 270 327
#     4  11  22  38  58  81 108 143 182 224 273 328
#
# _framework density 18.972175
#
# number of rings (size 3 to 8) (size 9 to 14) (size 15 to 20)
#    0.000    2.000    0.000    4.714    0.000    4.000 
#    0.000    4.286    0.000    0.000    0.000    0.000 
#    0.000    0.000    0.000    0.000    0.000    0.000 
#
# Total GULP energy -156398.273351 kJ/mol
# GULP energy per Si atom -5585.652620 kJ/mol
# Density = 1.892899 g / cm^3
# Si number density = 18.972175 Si / 1000 Ang^3
#
#
#
# Elastic Constant Matrix: (Units=GPa)
#
#
# Indices 1 2 3 4 5 6 
#
# 1 116.7436 2.9265 47.9888 0.0000 -30.7136 0.0000
# 2 2.9265 30.8771 -0.4611 0.0000 -2.5698 0.0000
# 3 47.9888 -0.4611 52.2738 0.0000 -29.6549 0.0000
# 4 0.0000 0.0000 0.0000 27.8884 0.0000 -6.2764
# 5 -30.7136 -2.5698 -29.6549 0.0000 22.6528 0.0000
# 6 0.0000 0.0000 0.0000 -6.2764 0.0000 27.1924
#
#
#
# Elastic Compliance Matrix: (Units=1/GPa)
#
#
# Indices 1 2 3 4 5 6 
#
# 1 0.014183 -0.000796 -0.008430 0.000000 0.008103 0.000000
# 2 -0.000796 0.033945 0.010113 0.000000 0.016011 0.000000
# 3 -0.008430 0.010113 0.082089 0.000000 0.097180 0.000000
# 4 0.000000 0.000000 0.000000 0.037822 0.000000 0.008730
# 5 0.008103 0.016011 0.097180 0.000000 0.184167 0.000000
# 6 0.000000 0.000000 0.000000 0.008730 0.000000 0.038790
#
#
# Mechanical properties :
#
#
# Convention : Reuss Voigt Hill
#
# Bulk Modulus (GPa) = 7.57630 33.42254 20.49942
# Shear Modulus (GPa) = 11.54152 25.50942 18.52547
#
# Velocity S-wave (km/s) = 2.46913 3.67082 3.12822
# Velocity P-wave (km/s) = 3.48294 5.96836 4.88632
#
# Compressibility (1/GPa) = 0.13199063
#
# Stress axis : x y z
#
# Youngs Moduli (GPa) = 70.50693 29.45910 12.18196
#
# Poissons Ratio (x) = 0.02344 0.10270
# Poissons Ratio (y) = 0.05611 -0.12319
# Poissons Ratio (z) = 0.59439 -0.29792
#
# Static dielectric constant tensor:
#      x y z
#    x 1.666320 0.000000 0.001780 
#    y 0.000000 1.642720 0.000000 
#    z 0.001780 0.000000 1.640520 
# 
# From -- ./inp_files/360012.got.cif
#   From: 2010.05.17/outbox.cif.g08.bks.cpg/sg12_181_cif.got.tgz:360012.got - 2010.06.03 13:09:07.
