data_PCOD9193752
_publ_section_title
;
Structure prediction by ZEFSAII (Michael W. Deem and Ramdas Pophale) SiO2 
 PCOD9193752
Probable space group: C 2/M
;
_chemical_formula_sum "Si O2"
_cell_formula_units_Z 64
_cell_length_a 20.027010
_cell_length_b 14.722125
_cell_length_c 8.531347
_cell_angle_alpha 90.000000
_cell_angle_beta 97.905159
_cell_angle_gamma 90.000000
_cell_volume 2491.480103
_symmetry_space_group_name_H-M "C 2/M"
_symmetry_group_IT_number 12
_symmetry_cell_setting 'monoclinic'
loop_
_space_group_symop_operation_xyz
x,y,z
-x,y,-z
-x,-y,-z
x,-y,z
1/2+x,1/2+y,z
1/2-x,1/2+y,-z
1/2-x,1/2-y,-z
1/2+x,1/2-y,z
loop_
_atom_site_type_symbol
_atom_site_label
_atom_site_fract_x
_atom_site_fract_y
_atom_site_fract_z
Si Si1 0.166108 0.389950 0.873767
Si Si2 0.585125 0.395333 0.391705
Si Si3 0.342929 0.391815 0.272169
Si Si4 0.215464 0.848733 0.297601
Si Si5 0.084090 0.397026 0.145826
Si Si6 0.969177 0.610848 0.326326
Si Si7 0.206936 0.640984 0.371099
Si Si8 0.466633 0.611687 0.147190
O O1 0.174511 0.500000 0.885982
O O2 0.237793 0.351907 0.839904
O O3 0.108850 0.367302 0.726080
O O4 0.130274 0.356691 0.022406
O O5 0.571104 0.500000 0.426098
O O6 0.621361 0.356112 0.557019
O O7 0.642273 0.394384 0.274126
O O8 0.515376 0.357637 0.304666
O O9 0.349535 0.500000 0.274528
O O10 0.263959 0.377553 0.258455
O O11 0.390121 0.357836 0.148654
O O12 0.199655 0.748355 0.353872
O O13 0.260896 0.889895 0.454221
O O14 0.069912 0.500000 0.088308
O O15 0.015143 0.357790 0.193396
O O16 0.135381 0.400519 0.308929
O O17 0.973906 0.500000 0.326230
O O18 0.000000 0.642996 0.500000
O O19 0.468786 0.500000 0.145159
O O20 0.500000 0.644497 0.000000
#
# Coordination Sequence:
#
# PCOD9193752 Si02
#       8
#     8   8   8   8   8   8   8   8
#     4  10  20  34  54  80 108 137 171 214 264 316
#     4   9  17  31  52  75  99 129 165 205 249 298
#     4   9  17  31  52  75  99 129 165 205 249 298
#     4  10  21  36  53  75 104 139 178 216 255 304
#     4  10  20  34  54  80 108 137 171 214 264 316
#     4   9  17  31  54  81 106 133 169 215 262 309
#     4  10  21  36  53  75 104 139 178 216 255 304
#     4   9  17  29  48  75 102 125 157 205 254 299
#
# _framework density 25.687542000000001
#
# number of rings (size 3 to 8) (size 9 to 14) (size 15 to 20)
#    0.000    2.500    0.000    2.250    0.000    7.000 
#    0.000    3.750    0.000    3.000    0.000    0.000 
#    0.000    0.000    0.000    0.000    0.000    0.000 
#
# Total GULP energy -178832.546328 kJ/mol
# GULP energy per Si atom -5588.517073 kJ/mol
# Density = 2.562908 g / cm^3
# Si number density = 25.687542 Si / 1000 Ang^3
#
#
#
# Elastic Constant Matrix: (Units=GPa)
#
#
# Indices 1 2 3 4 5 6 
#
# 1 141.0645 -3.3434 6.9539 0.0000 -30.7931 0.0000
# 2 -3.3434 62.5914 2.0617 0.0000 -6.5990 0.0000
# 3 6.9539 2.0617 53.7990 0.0000 -22.5277 0.0000
# 4 0.0000 0.0000 0.0000 20.9153 0.0000 -18.5206
# 5 -30.7931 -6.5990 -22.5277 0.0000 51.3022 0.0000
# 6 0.0000 0.0000 0.0000 -18.5206 0.0000 45.1169
#
#
#
# Elastic Compliance Matrix: (Units=1/GPa)
#
#
# Indices 1 2 3 4 5 6 
#
# 1 0.008285 0.000997 0.001258 0.000000 0.005653 0.000000
# 2 0.000997 0.016320 0.000460 0.000000 0.002900 0.000000
# 3 0.001258 0.000460 0.022973 0.000000 0.010902 0.000000
# 4 0.000000 0.000000 0.000000 0.075117 0.000000 0.030836
# 5 0.005653 0.002900 0.010902 0.000000 0.028046 0.000000
# 6 0.000000 0.000000 0.000000 0.030836 0.000000 0.034823
#
#
# Mechanical properties :
#
#
# Convention : Reuss Voigt Hill
#
# Bulk Modulus (GPa) = 18.86493 29.86657 24.36575
# Shear Modulus (GPa) = 25.27770 40.25239 32.76504
#
# Velocity S-wave (km/s) = 3.14035 3.96283 3.57532
# Velocity P-wave (km/s) = 4.52869 5.70884 5.15266
#
# Compressibility (1/GPa) = 0.05300841
#
# Stress axis : x y z
#
# Youngs Moduli (GPa) = 120.70487 61.27273 43.53021
#
# Poissons Ratio (x) = -0.06110 -0.05477
# Poissons Ratio (y) = -0.12036 -0.02002
# Poissons Ratio (z) = -0.15188 -0.02818
#
# Static dielectric constant tensor:
#      x y z
#    x 1.986250 0.000000 -0.016850 
#    y 0.000000 2.069480 0.000000 
#    z -0.016850 0.000000 2.089420 
# 
# From -- ./inp_files/87989.got.cif
#   From: 2010.05.17/outbox.cif.g08.bks.cpg/sg12_44_cif.got.tgz:87989.got - 2010.06.03 13:09:07.
