data_PCOD9193326
_publ_section_title
;
Structure prediction by ZEFSAII (Michael W. Deem and Ramdas Pophale) SiO2 
 PCOD9193326
Probable space group: C 2/M
;
_chemical_formula_sum "Si O2"
_cell_formula_units_Z 64
_cell_length_a 32.991160
_cell_length_b 8.704196
_cell_length_c 25.032664
_cell_angle_alpha 90.000000
_cell_angle_beta 150.757097
_cell_angle_gamma 90.000000
_cell_volume 3511.636789
_symmetry_space_group_name_H-M "C 2/M"
_symmetry_group_IT_number 12
_symmetry_cell_setting 'monoclinic'
loop_
_space_group_symop_operation_xyz
x,y,z
-x,y,-z
-x,-y,-z
x,-y,z
1/2+x,1/2+y,z
1/2-x,1/2+y,-z
1/2-x,1/2-y,-z
1/2+x,1/2-y,z
loop_
_atom_site_type_symbol
_atom_site_label
_atom_site_fract_x
_atom_site_fract_y
_atom_site_fract_z
Si Si1 0.212694 0.315644 0.163630
Si Si2 0.659239 0.181434 0.399647
Si Si3 0.867879 0.177236 0.741474
Si Si4 0.270722 0.814341 0.939813
Si Si5 0.567156 0.812505 0.400487
Si Si6 0.379600 0.814150 0.163032
Si Si7 0.520740 0.828189 0.962202
Si Si8 0.282729 0.185515 0.352569
O O1 0.224070 0.500000 0.178286
O O2 0.229092 0.262268 0.121647
O O3 0.265150 0.245907 0.272838
O O4 0.115858 0.284574 0.063492
O O5 0.750000 0.250000 0.500000
O O6 0.621705 0.227054 0.300275
O O7 0.610399 0.239022 0.395152
O O8 0.664494 0.000000 0.411282
O O9 0.793073 0.232195 0.694464
O O10 0.956376 0.200539 0.869975
O O11 0.849788 0.000000 0.707945
O O12 0.190428 0.751278 0.878227
O O13 0.268400 0.000000 0.936569
O O14 0.349925 0.771047 0.068477
O O15 0.471256 0.762735 0.286766
O O16 0.629377 0.765640 0.519936
O O17 0.566003 0.000000 0.400054
O O18 0.378195 0.000000 0.163633
O O19 0.508112 0.000000 0.922768
O O20 0.500000 0.845660 0.000000
O O21 0.281336 0.000000 0.349483
#
# Coordination Sequence:
#
# PCOD9193326 Si02
#       8
#     8   8   8   8   8   8   8   8
#     4  10  21  36  55  81 109 143 185 222 270 330
#     4  11  21  35  55  78 110 147 186 227 270 318
#     4  11  22  35  50  75 111 148 185 226 275 321
#     4   9  19  36  58  83 111 135 167 221 278 328
#     4   9  19  36  57  80 106 142 185 224 266 322
#     4   9  18  36  62  83 103 136 176 218 271 327
#     4  10  20  34  53  77 105 142 189 226 262 321
#     4  10  20  36  54  75 109 147 184 224 267 316
#
# _framework density 18.225118999999999
#
# number of rings (size 3 to 8) (size 9 to 14) (size 15 to 20)
#    0.000    2.125    2.500    0.750    1.750    1.750 
#    0.000    2.500    0.000    3.750    0.000    0.000 
#    0.000    0.000    0.000    0.000    0.000    0.000 
#
# Total GULP energy -178292.899531 kJ/mol
# GULP energy per Si atom -5571.653110 kJ/mol
# Density = 1.818364 g / cm^3
# Si number density = 18.225119 Si / 1000 Ang^3
#
#
#
# Elastic Constant Matrix: (Units=GPa)
#
#
# Indices 1 2 3 4 5 6 
#
# 1 116.2004 14.9850 76.8147 0.0000 -17.3107 0.0000
# 2 14.9850 10.9887 24.1904 0.0000 -2.7506 0.0000
# 3 76.8147 24.1904 153.1023 0.0000 -8.9150 0.0000
# 4 0.0000 0.0000 0.0000 29.0809 0.0000 -3.4958
# 5 -17.3107 -2.7506 -8.9150 0.0000 27.1906 0.0000
# 6 0.0000 0.0000 0.0000 -3.4958 0.0000 25.7651
#
#
#
# Elastic Compliance Matrix: (Units=1/GPa)
#
#
# Indices 1 2 3 4 5 6 
#
# 1 0.014125 -0.004382 -0.006011 0.000000 0.006578 0.000000
# 2 -0.004382 0.142224 -0.019979 0.000000 0.005047 0.000000
# 3 -0.006011 -0.019979 0.012604 0.000000 -0.001716 0.000000
# 4 0.000000 0.000000 0.000000 0.034957 0.000000 0.004743
# 5 0.006578 0.005047 -0.001716 0.000000 0.040913 0.000000
# 6 0.000000 0.000000 0.000000 0.004743 0.000000 0.039456
#
#
# Mechanical properties :
#
#
# Convention : Reuss Voigt Hill
#
# Bulk Modulus (GPa) = 9.24143 56.91909 33.08026
# Shear Modulus (GPa) = 13.12015 27.36074 20.24044
#
# Velocity S-wave (km/s) = 2.68599 3.87882 3.33615
# Velocity P-wave (km/s) = 3.83421 7.16654 5.74719
#
# Compressibility (1/GPa) = 0.10820836
#
# Stress axis : x y z
#
# Youngs Moduli (GPa) = 70.79831 7.03117 79.33702
#
# Poissons Ratio (x) = 0.03081 0.47692
# Poissons Ratio (y) = 0.31021 1.58510
# Poissons Ratio (z) = 0.42559 0.14048
#
# Static dielectric constant tensor:
#      x y z
#    x 1.506040 0.000000 0.131930 
#    y 0.000000 1.614680 0.000000 
#    z 0.131930 0.000000 1.408090 
# 
# From -- ./inp_files/353431.got.cif
#   From: 2010.05.17/outbox.cif.g08.bks.cpg/sg12_177_cif.got.tgz:353431.got - 2010.06.03 13:09:07.
