data_PCOD9193288
_publ_section_title
;
Structure prediction by ZEFSAII (Michael W. Deem and Ramdas Pophale) SiO2 
 PCOD9193288
Probable space group: C 2/M
;
_chemical_formula_sum "Si O2"
_cell_formula_units_Z 64
_cell_length_a 20.355208
_cell_length_b 20.363147
_cell_length_c 13.678757
_cell_angle_alpha 90.000000
_cell_angle_beta 135.865473
_cell_angle_gamma 90.000000
_cell_volume 3948.133226
_symmetry_space_group_name_H-M "C 2/M"
_symmetry_group_IT_number 12
_symmetry_cell_setting 'monoclinic'
loop_
_space_group_symop_operation_xyz
x,y,z
-x,y,-z
-x,-y,-z
x,-y,z
1/2+x,1/2+y,z
1/2-x,1/2+y,-z
1/2-x,1/2-y,-z
1/2+x,1/2-y,z
loop_
_atom_site_type_symbol
_atom_site_label
_atom_site_fract_x
_atom_site_fract_y
_atom_site_fract_z
Si Si1 0.261037 0.815948 0.147314
Si Si2 0.111029 0.423793 0.608856
Si Si3 0.389125 0.574270 0.356715
Si Si4 0.059424 0.767832 0.303760
Si Si5 0.668629 0.859266 0.476424
Si Si6 0.325004 0.728162 0.755955
Si Si7 0.716684 0.644580 0.584360
Si Si8 0.858576 0.810866 0.171295
O O1 0.326100 0.874260 0.258863
O O2 0.179810 0.799885 0.140393
O O3 0.322073 0.749729 0.198291
O O4 0.215265 0.827634 0.993125
O O5 0.127136 0.500000 0.651807
O O6 0.136613 0.410812 0.522782
O O7 0.000000 0.408880 0.500000
O O8 0.500000 0.576818 0.500000
O O9 0.365141 0.500000 0.302411
O O10 0.329237 0.596005 0.387336
O O11 0.372216 0.626540 0.253836
O O12 0.086989 0.692817 0.360748
O O13 0.082744 0.775494 0.213339
O O14 0.132486 0.814202 0.441987
O O15 0.955619 0.787634 0.224859
O O16 0.747498 0.814368 0.613843
O O17 0.719227 0.885900 0.433291
O O18 0.284032 0.801950 0.708866
#
# Coordination Sequence:
#
# PCOD9193288 Si02
#       8
#     8   8   8   8   8   8   8   8
#     4  10  21  34  51  75 100 131 171 208 258 309
#     4  10  20  34  53  77 102 128 164 211 261 310
#     4  11  22  33  49  74 102 140 180 211 249 300
#     4   9  16  28  50  76 100 129 162 207 255 292
#     4   8  16  28  50  78  99 124 163 206 257 301
#     4   8  15  29  49  74  99 125 163 209 255 297
#     4   9  15  30  50  72 102 129 163 213 250 287
#     4  11  21  33  51  73 103 136 173 212 253 303
#
# _framework density 16.210191999999999
#
# number of rings (size 3 to 8) (size 9 to 14) (size 15 to 20)
#    0.000    2.500    2.500    2.250    0.000    2.000 
#    0.000    0.000    0.000    0.000    0.000    3.500 
#    0.000    8.000    0.000    0.000    0.000    0.000 
#
# Total GULP energy -178249.876838 kJ/mol
# GULP energy per Si atom -5570.308651 kJ/mol
# Density = 1.617330 g / cm^3
# Si number density = 16.210192 Si / 1000 Ang^3
#
#
#
# Elastic Constant Matrix: (Units=GPa)
#
#
# Indices 1 2 3 4 5 6 
#
# 1 116.8365 50.0229 27.3051 0.0000 -7.8014 0.0000
# 2 50.0229 88.7624 44.3310 0.0000 -6.6542 0.0000
# 3 27.3051 44.3310 43.4975 0.0000 -7.6362 0.0000
# 4 0.0000 0.0000 0.0000 7.2075 0.0000 12.0997
# 5 -7.8014 -6.6542 -7.6362 0.0000 18.9235 0.0000
# 6 0.0000 0.0000 0.0000 12.0997 0.0000 5.3441
#
#
#
# Elastic Compliance Matrix: (Units=1/GPa)
#
#
# Indices 1 2 3 4 5 6 
#
# 1 0.011407 -0.005870 -0.000770 0.000000 0.002328 0.000000
# 2 -0.005870 0.026004 -0.023287 0.000000 -0.002673 0.000000
# 3 -0.000770 -0.023287 0.049198 0.000000 0.011347 0.000000
# 4 0.000000 0.000000 0.000000 -0.049535 0.000000 0.112153
# 5 0.002328 -0.002673 0.011347 0.000000 0.057443 0.000000
# 6 0.000000 0.000000 0.000000 0.112153 0.000000 -0.066807
#
#
# Mechanical properties :
#
#
# Convention : Reuss Voigt Hill
#
# Bulk Modulus (GPa) = 37.37397 54.71272 46.04335
# Shear Modulus (GPa) = 51.82322 14.79085 33.30703
#
# Velocity S-wave (km/s) = 5.66029 3.02394 4.53779
# Velocity P-wave (km/s) = 8.11323 6.78363 7.47804
#
# Compressibility (1/GPa) = 0.02675659
#
# Stress axis : x y z
#
# Youngs Moduli (GPa) = 87.66202 38.45605 20.32601
#
# Poissons Ratio (x) = 0.22572 0.01565
# Poissons Ratio (y) = 0.51455 0.47332
# Poissons Ratio (z) = 0.06750 0.89551
#
# Static dielectric constant tensor:
#      x y z
#    x 1.563570 0.000000 -0.014530 
#    y 0.000000 1.522080 0.000000 
#    z -0.014530 0.000000 1.532330 
# 
# From -- ./inp_files/169689.got.cif
#   From: 2010.05.17/outbox.cif.g08.bks.cpg/sg12_85_cif.got.tgz:169689.got - 2010.06.03 13:09:07.
