data_PCOD9193985
_publ_section_title
;
Structure prediction by ZEFSAII (Michael W. Deem and Ramdas Pophale) SiO2 
 PCOD9193985
Probable space group: C 2/M
;
_chemical_formula_sum "Si O2"
_cell_formula_units_Z 40
_cell_length_a 28.696979
_cell_length_b 9.260260
_cell_length_c 12.974304
_cell_angle_alpha 90.000000
_cell_angle_beta 149.918838
_cell_angle_gamma 90.000000
_cell_volume 1728.133334
_symmetry_space_group_name_H-M "C 2/M"
_symmetry_group_IT_number 12
_symmetry_cell_setting 'monoclinic'
loop_
_space_group_symop_operation_xyz
x,y,z
-x,y,-z
-x,-y,-z
x,-y,z
1/2+x,1/2+y,z
1/2-x,1/2+y,-z
1/2-x,1/2-y,-z
1/2+x,1/2-y,z
loop_
_atom_site_type_symbol
_atom_site_label
_atom_site_fract_x
_atom_site_fract_y
_atom_site_fract_z
Si Si1 0.063149 0.170080 0.851255
Si Si2 0.201105 0.846460 0.537632
Si Si3 0.596596 0.222890 0.144527
Si Si4 0.576432 0.169458 0.555861
Si Si5 0.249284 0.323264 0.148971
O O1 0.972184 0.247809 0.632534
O O2 0.064951 0.000000 0.831330
O O3 0.072458 0.192743 0.992796
O O4 0.147254 0.255857 0.956813
O O5 0.307585 0.857249 0.701216
O O6 0.135043 0.805250 0.318317
O O7 0.214289 0.763270 0.668635
O O8 0.165168 0.000000 0.505104
O O9 0.500000 0.155099 0.000000
O O10 0.500000 0.175967 0.500000
O O11 0.670784 0.253328 0.767722
O O12 0.595024 0.000000 0.570236
O O13 0.243930 0.500000 0.130452
#
# Coordination Sequence:
#
# PCOD9193985 Si02
#       5
#     8   8   8   8   8
#     4  11  23  39  62  91 123 161 201 244 298 356
#     4   9  19  35  54  82 120 159 198 238 285 343
#     4  10  20  34  54  84 120 159 200 240 285 342
#     4  11  25  44  65  89 117 152 198 252 307 362
#     4  10  21  40  65  91 123 160 198 245 296 351
#
# _framework density 23.146363000000001
#
# number of rings (size 3 to 8) (size 9 to 14) (size 15 to 20)
#    0.000    1.800    0.000    3.600    0.000    6.800 
#    0.000    7.000    0.000    0.000    0.000    0.000 
#    0.000    0.000    0.000    0.000    0.000    0.000 
#
# Total GULP energy -111378.293404 kJ/mol
# GULP energy per Si atom -5568.914670 kJ/mol
# Density = 2.309368 g / cm^3
# Si number density = 23.146363 Si / 1000 Ang^3
#
#
#
# Elastic Constant Matrix: (Units=GPa)
#
#
# Indices 1 2 3 4 5 6 
#
# 1 80.2674 19.8643 38.3685 0.0000 24.7658 0.0000
# 2 19.8643 137.8711 53.2875 0.0000 26.3623 0.0000
# 3 38.3685 53.2875 168.0660 0.0000 31.5218 0.0000
# 4 0.0000 0.0000 0.0000 0.9318 0.0000 -12.7537
# 5 24.7658 26.3623 31.5218 0.0000 61.1386 0.0000
# 6 0.0000 0.0000 0.0000 -12.7537 0.0000 66.4183
#
#
#
# Elastic Compliance Matrix: (Units=1/GPa)
#
#
# Indices 1 2 3 4 5 6 
#
# 1 0.015183 -0.000326 -0.002475 0.000000 -0.004734 0.000000
# 2 -0.000326 0.008618 -0.002199 0.000000 -0.002451 0.000000
# 3 -0.002475 -0.002199 0.007579 0.000000 -0.001957 0.000000
# 4 0.000000 0.000000 0.000000 -0.659144 0.000000 -0.126569
# 5 -0.004734 -0.002451 -0.001957 0.000000 0.020340 0.000000
# 6 0.000000 0.000000 0.000000 -0.126569 0.000000 -0.009248
#
#
# Mechanical properties :
#
#
# Convention : Reuss Voigt Hill
#
# Bulk Modulus (GPa) = 46.76936 67.69392 57.23164
# Shear Modulus (GPa) = -8.33964 44.01003 17.83519
#
# Velocity S-wave (km/s) = -1.90022 4.36521 2.77887
# Velocity P-wave (km/s) = 3.92879 7.39705 5.92248
#
# Compressibility (1/GPa) = 0.02138152
#
# Stress axis : x y z
#
# Youngs Moduli (GPa) = 65.86506 116.03037 131.93966
#
# Poissons Ratio (x) = 0.03780 0.32655
# Poissons Ratio (y) = 0.02146 0.29008
# Poissons Ratio (z) = 0.16301 0.25510
#
# Static dielectric constant tensor:
#      x y z
#    x 1.982210 0.000000 -0.036700 
#    y 0.000000 1.829090 0.000000 
#    z -0.036700 0.000000 1.927490 
# 
# From -- ./inp_files/250225.got.cif
#   From: 2010.05.17/outbox.cif.g08.bks.cpg/sg12_126_cif.got.tgz:250225.got - 2010.06.03 13:09:07.
