data_PCOD9193527
_publ_section_title
;
Structure prediction by ZEFSAII (Michael W. Deem and Ramdas Pophale) SiO2 
 PCOD9193527
Probable space group: C 2/M
;
_chemical_formula_sum "Si O2"
_cell_formula_units_Z 64
_cell_length_a 15.017248
_cell_length_b 7.659445
_cell_length_c 24.481584
_cell_angle_alpha 90.000000
_cell_angle_beta 102.451852
_cell_angle_gamma 90.000000
_cell_volume 2749.726061
_symmetry_space_group_name_H-M "C 2/M"
_symmetry_group_IT_number 12
_symmetry_cell_setting 'monoclinic'
loop_
_space_group_symop_operation_xyz
x,y,z
-x,y,-z
-x,-y,-z
x,-y,z
1/2+x,1/2+y,z
1/2-x,1/2+y,-z
1/2-x,1/2-y,-z
1/2+x,1/2-y,z
loop_
_atom_site_type_symbol
_atom_site_label
_atom_site_fract_x
_atom_site_fract_y
_atom_site_fract_z
Si Si1 0.470395 0.207094 0.635878
Si Si2 0.750094 0.792200 0.722610
Si Si3 0.726962 0.710349 0.398130
Si Si4 0.494715 0.204259 0.938650
Si Si5 0.362616 0.701657 0.127009
Si Si6 0.173540 0.710888 0.154836
Si Si7 0.919010 0.713661 0.450393
Si Si8 0.942291 0.288585 0.248220
O O1 0.373119 0.239412 0.595863
O O2 0.549631 0.267549 0.606161
O O3 0.481008 0.274450 0.699067
O O4 0.482284 0.000000 0.641680
O O5 0.766978 0.723153 0.664002
O O6 0.821685 0.754018 0.780238
O O7 0.652455 0.736948 0.734367
O O8 0.744071 0.000000 0.716078
O O9 0.730324 0.500000 0.397650
O O10 0.814882 0.772007 0.443471
O O11 0.589837 0.215941 0.919039
O O12 0.414056 0.277193 0.889674
O O13 0.471916 0.000000 0.942117
O O14 0.500000 0.281456 0.000000
O O15 0.347037 0.500000 0.112092
O O16 0.267018 0.774750 0.137733
O O17 0.434033 0.716802 0.186567
O O18 0.174944 0.500000 0.153349
O O19 0.919313 0.500000 0.453219
O O20 0.000000 0.775271 0.500000
O O21 0.946286 0.500000 0.243093
#
# Coordination Sequence:
#
# PCOD9193527 Si02
#       8
#     8   8   8   8   8   8   8   8
#     4  10  20  34  54  81 108 141 183 224 270 326
#     4   9  17  32  54  78 107 141 179 220 266 323
#     4  10  20  34  53  81 111 141 180 227 274 322
#     4  10  22  40  59  79 108 148 188 221 262 324
#     4  10  21  36  55  82 112 140 176 226 277 319
#     4   9  20  37  55  79 110 142 177 221 271 319
#     4   9  18  36  59  78 105 149 192 226 265 322
#     4   9  17  33  55  77 107 144 181 218 264 329
#
# _framework density 23.275046
#
# number of rings (size 3 to 8) (size 9 to 14) (size 15 to 20)
#    0.000    2.500    1.250    0.375    1.750    3.250 
#    0.000    0.625    0.000    0.750    0.000    0.000 
#    0.000    0.000    0.000    0.000    0.000    0.000 
#
# Total GULP energy -178653.942380 kJ/mol
# GULP energy per Si atom -5582.935699 kJ/mol
# Density = 2.322207 g / cm^3
# Si number density = 23.275046 Si / 1000 Ang^3
#
#
#
# Elastic Constant Matrix: (Units=GPa)
#
#
# Indices 1 2 3 4 5 6 
#
# 1 60.5606 -7.7716 -2.6347 0.0000 16.0822 0.0000
# 2 -7.7716 30.3344 1.0613 0.0000 -0.9697 0.0000
# 3 -2.6347 1.0613 49.2332 0.0000 13.4892 0.0000
# 4 0.0000 0.0000 0.0000 0.8566 0.0000 17.8955
# 5 16.0822 -0.9697 13.4892 0.0000 25.5535 0.0000
# 6 0.0000 0.0000 0.0000 17.8955 0.0000 -5.9912
#
#
#
# Elastic Compliance Matrix: (Units=1/GPa)
#
#
# Indices 1 2 3 4 5 6 
#
# 1 0.021741 0.004850 0.005562 0.000000 -0.016435 0.000000
# 2 0.004850 0.034152 0.000005 0.000000 -0.001759 0.000000
# 3 0.005562 0.000005 0.025215 0.000000 -0.016811 0.000000
# 4 0.000000 0.000000 0.000000 0.018413 0.000000 0.054999
# 5 -0.016435 -0.001759 -0.016811 0.000000 0.058284 0.000000
# 6 0.000000 0.000000 0.000000 0.054999 0.000000 -0.002633
#
#
# Mechanical properties :
#
#
# Convention : Reuss Voigt Hill
#
# Bulk Modulus (GPa) = 9.80947 13.49314 11.65130
# Shear Modulus (GPa) = 29.70549 14.04864 21.87707
#
# Velocity S-wave (km/s) = 3.57638 2.45948 3.06916
# Velocity P-wave (km/s) = 4.61278 3.72494 4.19243
#
# Compressibility (1/GPa) = 0.10194235
#
# Stress axis : x y z
#
# Youngs Moduli (GPa) = 45.99588 29.28082 39.65916
#
# Poissons Ratio (x) = -0.14201 -0.22058
# Poissons Ratio (y) = -0.22308 -0.00021
# Poissons Ratio (z) = -0.25582 -0.00016
#
# Static dielectric constant tensor:
#      x y z
#    x 1.881360 0.000000 0.021620 
#    y 0.000000 1.864260 0.000000 
#    z 0.021620 0.000000 1.897540 
# 
# From -- ./inp_files/359933.got.cif
#   From: 2010.05.17/outbox.cif.g08.bks.cpg/sg12_180_cif.got.tgz:359933.got - 2010.06.03 13:09:07.
