data_PCOD9193565
_publ_section_title
;
Structure prediction by ZEFSAII (Michael W. Deem and Ramdas Pophale) SiO2 
 PCOD9193565
Probable space group: C 2/M
;
_chemical_formula_sum "Si O2"
_cell_formula_units_Z 44
_cell_length_a 14.389663
_cell_length_b 27.848807
_cell_length_c 5.161342
_cell_angle_alpha 90.000000
_cell_angle_beta 99.342847
_cell_angle_gamma 90.000000
_cell_volume 2040.892869
_symmetry_space_group_name_H-M "C 2/M"
_symmetry_group_IT_number 12
_symmetry_cell_setting 'monoclinic'
loop_
_space_group_symop_operation_xyz
x,y,z
-x,y,-z
-x,-y,-z
x,-y,z
1/2+x,1/2+y,z
1/2-x,1/2+y,-z
1/2-x,1/2-y,-z
1/2+x,1/2-y,z
loop_
_atom_site_type_symbol
_atom_site_label
_atom_site_fract_x
_atom_site_fract_y
_atom_site_fract_z
Si Si1 0.000000 0.132467 0.000000
Si Si2 0.113972 0.709498 0.539974
Si Si3 0.387603 0.151138 0.961227
Si Si4 0.224869 0.908523 0.709037
Si Si5 0.869924 0.054431 0.807453
Si Si6 0.393656 0.315620 0.334648
O O1 0.917788 0.168429 0.052170
O O2 0.048040 0.093438 0.212677
O O3 0.134900 0.692362 0.260670
O O4 0.144999 0.762945 0.629894
O O5 0.000000 0.711297 0.500000
O O6 0.142358 0.670849 0.770916
O O7 0.329085 0.104788 0.849067
O O8 0.500000 0.143268 0.000000
O O9 0.209843 0.939532 0.446644
O O10 0.176744 0.857311 0.616622
O O11 0.170056 0.931856 0.927428
O O12 0.904241 0.000000 0.817826
O O13 0.500000 0.318443 0.500000
#
# Coordination Sequence:
#
# PCOD9193565 Si02
#       6
#     4   8   8   8   8   8
#     4  10  21  36  58  84 124 160 188 228 279 352
#     4   9  20  32  56  80 116 155 192 238 271 331
#     4  10  21  39  56  84 111 154 199 237 289 332
#     4  11  23  38  61  83 115 152 191 243 291 345
#     4  11  23  40  61  88 115 149 192 240 297 352
#     4  10  20  34  53  83 121 156 193 227 279 333
#
# _framework density 21.559190999999998
#
# number of rings (size 3 to 8) (size 9 to 14) (size 15 to 20)
#    0.000    1.818    1.818    1.909    6.364    1.455 
#    0.000    2.727    0.000    3.273    0.000    0.000 
#    0.000    0.000    0.000    0.000    0.000    0.000 
#
# Total GULP energy -122728.919167 kJ/mol
# GULP energy per Si atom -5578.587235 kJ/mol
# Density = 2.151012 g / cm^3
# Si number density = 21.559191 Si / 1000 Ang^3
#
#
#
# Elastic Constant Matrix: (Units=GPa)
#
#
# Indices 1 2 3 4 5 6 
#
# 1 61.8369 18.2695 14.5433 0.0000 19.6408 0.0000
# 2 18.2695 64.3340 22.6250 0.0000 12.1809 0.0000
# 3 14.5433 22.6250 97.1217 0.0000 17.0657 0.0000
# 4 0.0000 0.0000 0.0000 19.6191 0.0000 -0.6887
# 5 19.6408 12.1809 17.0657 0.0000 21.8832 0.0000
# 6 0.0000 0.0000 0.0000 -0.6887 0.0000 11.7881
#
#
#
# Elastic Compliance Matrix: (Units=1/GPa)
#
#
# Indices 1 2 3 4 5 6 
#
# 1 0.023148 -0.003111 0.000701 0.000000 -0.019591 0.000000
# 2 -0.003111 0.018437 -0.002916 0.000000 -0.005196 0.000000
# 3 0.000701 -0.002916 0.012394 0.000000 -0.008672 0.000000
# 4 0.000000 0.000000 0.000000 0.051075 0.000000 0.002984
# 5 -0.019591 -0.005196 -0.008672 0.000000 0.072936 0.000000
# 6 0.000000 0.000000 0.000000 0.002984 0.000000 0.085005
#
#
# Mechanical properties :
#
#
# Convention : Reuss Voigt Hill
#
# Bulk Modulus (GPa) = 23.07992 37.12977 30.10484
# Shear Modulus (GPa) = 17.35565 21.84842 19.60204
#
# Velocity S-wave (km/s) = 2.84037 3.18687 3.01860
# Velocity P-wave (km/s) = 4.63525 5.54988 5.11306
#
# Compressibility (1/GPa) = 0.04332772
#
# Stress axis : x y z
#
# Youngs Moduli (GPa) = 43.19940 54.23989 80.68114
#
# Poissons Ratio (x) = 0.16873 -0.05654
# Poissons Ratio (y) = 0.13438 0.23527
# Poissons Ratio (z) = -0.03028 0.15816
#
# Static dielectric constant tensor:
#      x y z
#    x 1.850260 0.000000 -0.008730 
#    y 0.000000 1.757270 0.000000 
#    z -0.008730 0.000000 1.905680 
# 
# From -- ./inp_files/12168.got.cif
#   From: 2010.05.17/outbox.cif.g08.bks.cpg/sg12_7_cif.got.tgz:12168.got - 2010.06.03 13:09:07.
