data_PCOD9193562
_publ_section_title
;
Structure prediction by ZEFSAII (Michael W. Deem and Ramdas Pophale) SiO2 
 PCOD9193562
Probable space group: C 2/M
;
_chemical_formula_sum "Si O2"
_cell_formula_units_Z 56
_cell_length_a 21.492280
_cell_length_b 15.507839
_cell_length_c 8.121652
_cell_angle_alpha 90.000000
_cell_angle_beta 53.290148
_cell_angle_gamma 90.000000
_cell_volume 2170.077965
_symmetry_space_group_name_H-M "C 2/M"
_symmetry_group_IT_number 12
_symmetry_cell_setting 'monoclinic'
loop_
_space_group_symop_operation_xyz
x,y,z
-x,y,-z
-x,-y,-z
x,-y,z
1/2+x,1/2+y,z
1/2-x,1/2+y,-z
1/2-x,1/2-y,-z
1/2+x,1/2-y,z
loop_
_atom_site_type_symbol
_atom_site_label
_atom_site_fract_x
_atom_site_fract_y
_atom_site_fract_z
Si Si1 0.094184 0.601672 0.201786
Si Si2 0.826968 0.854460 0.302114
Si Si3 0.886192 0.105540 0.751865
Si Si4 0.262749 0.098624 0.865878
Si Si5 0.969985 0.103943 0.278774
Si Si6 0.811926 0.656745 0.267443
Si Si7 0.049412 0.599978 0.750492
O O1 0.077115 0.500000 0.250902
O O2 0.150383 0.635722 0.257153
O O3 0.009816 0.639544 0.289322
O O4 0.148187 0.614267 0.953745
O O5 0.785340 0.907876 0.225582
O O6 0.916214 0.865084 0.214110
O O7 0.811173 0.759130 0.258753
O O8 0.773604 0.873330 0.547013
O O9 0.923923 0.126983 0.518776
O O10 0.943067 0.133391 0.811486
O O11 0.884271 0.000000 0.760471
O O12 0.800093 0.140881 0.913021
O O13 0.274808 0.000000 0.902220
O O14 0.972886 0.000000 0.257846
O O15 0.869239 0.640643 0.331687
O O16 0.065621 0.500000 0.685392
O O17 0.000000 0.601613 0.000000
#
# Coordination Sequence:
#
# PCOD9193562 Si02
#       7
#     8   8   8   8   8   8   8
#     4   9  18  36  62  83 101 131 180 234 273 320
#     4  11  23  34  49  75 116 148 172 217 264 320
#     4   8  16  32  54  77 103 135 179 227 257 302
#     4  10  20  34  53  83 112 137 175 221 273 318
#     4   9  17  33  55  76 101 141 187 221 257 306
#     4  10  21  37  53  73 108 143 180 215 262 326
#     4   8  15  32  59  83  97 121 176 236 269 304
#
# _framework density 25.805526
#
# number of rings (size 3 to 8) (size 9 to 14) (size 15 to 20)
#    0.000    2.714    0.000    3.429    0.000    4.571 
#    7.714    2.857    6.286    2.571    0.000    0.000 
#    0.000    0.000    0.000    0.000    0.000    0.000 
#
# Total GULP energy -156364.711129 kJ/mol
# GULP energy per Si atom -5584.453969 kJ/mol
# Density = 2.574679 g / cm^3
# Si number density = 25.805526 Si / 1000 Ang^3
#
#
#
# Elastic Constant Matrix: (Units=GPa)
#
#
# Indices 1 2 3 4 5 6 
#
# 1 206.6445 5.9633 24.1863 0.0000 -10.9958 0.0000
# 2 5.9633 31.7657 -0.1634 0.0000 -2.2866 0.0000
# 3 24.1863 -0.1634 61.3909 0.0000 5.8834 0.0000
# 4 0.0000 0.0000 0.0000 183.4430 0.0000 -203.6066
# 5 -10.9958 -2.2866 5.8834 0.0000 51.2626 0.0000
# 6 0.0000 0.0000 0.0000 -203.6066 0.0000 177.8606
#
#
#
# Elastic Compliance Matrix: (Units=1/GPa)
#
#
# Indices 1 2 3 4 5 6 
#
# 1 0.005190 -0.000890 -0.002174 0.000000 0.001323 0.000000
# 2 -0.000890 0.031735 0.000321 0.000000 0.001188 0.000000
# 3 -0.002174 0.000321 0.017381 0.000000 -0.002447 0.000000
# 4 0.000000 0.000000 0.000000 -0.020146 0.000000 -0.023063
# 5 0.001323 0.001188 -0.002447 0.000000 0.020125 0.000000
# 6 0.000000 0.000000 0.000000 -0.023063 0.000000 -0.020779
#
#
# Mechanical properties :
#
#
# Convention : Reuss Voigt Hill
#
# Bulk Modulus (GPa) = 20.48340 39.97485 30.22912
# Shear Modulus (GPa) = 90.47563 100.50090 95.48826
#
# Velocity S-wave (km/s) = 5.92762 6.24740 6.08961
# Velocity P-wave (km/s) = 7.40295 8.21976 7.82203
#
# Compressibility (1/GPa) = 0.04882002
#
# Stress axis : x y z
#
# Youngs Moduli (GPa) = 192.68787 31.51122 57.53478
#
# Poissons Ratio (x) = 0.02805 0.12507
# Poissons Ratio (y) = 0.17153 -0.01849
# Poissons Ratio (z) = 0.41886 -0.01013
#
# Static dielectric constant tensor:
#      x y z
#    x 2.080410 0.000000 0.056330 
#    y 0.000000 2.010480 0.000000 
#    z 0.056330 0.000000 2.100490 
# 
# From -- ./inp_files/87819.got.cif
#   From: 2010.05.17/outbox.cif.g08.bks.cpg/sg12_44_cif.got.tgz:87819.got - 2010.06.03 13:09:07.
