data_PCOD9193898
_publ_section_title
;
Structure prediction by ZEFSAII (Michael W. Deem and Ramdas Pophale) SiO2 
 PCOD9193898
Probable space group: C 2/M
;
_chemical_formula_sum "Si O2"
_cell_formula_units_Z 56
_cell_length_a 24.034197
_cell_length_b 8.512042
_cell_length_c 15.029486
_cell_angle_alpha 90.000000
_cell_angle_beta 69.680348
_cell_angle_gamma 90.000000
_cell_volume 2883.392628
_symmetry_space_group_name_H-M "C 2/M"
_symmetry_group_IT_number 12
_symmetry_cell_setting 'monoclinic'
loop_
_space_group_symop_operation_xyz
x,y,z
-x,y,-z
-x,-y,-z
x,-y,z
1/2+x,1/2+y,z
1/2-x,1/2+y,-z
1/2-x,1/2-y,-z
1/2+x,1/2-y,z
loop_
_atom_site_type_symbol
_atom_site_label
_atom_site_fract_x
_atom_site_fract_y
_atom_site_fract_z
Si Si1 0.099497 0.310846 0.733428
Si Si2 0.565383 0.315588 0.368718
Si Si3 0.321682 0.813747 0.795383
Si Si4 0.488302 0.310853 0.904619
Si Si5 0.064720 0.686697 0.562004
Si Si6 0.696939 0.810993 0.820908
Si Si7 0.851700 0.188680 0.964136
O O1 0.099819 0.500000 0.732630
O O2 0.099544 0.260237 0.630647
O O3 0.154161 0.258004 0.764368
O O4 0.038634 0.257038 0.813416
O O5 0.553225 0.500000 0.365187
O O6 0.619467 0.264803 0.277029
O O7 0.580702 0.276124 0.462730
O O8 0.504971 0.221519 0.382383
O O9 0.263455 0.752637 0.777574
O O10 0.317112 0.764258 0.901185
O O11 0.326085 0.000000 0.785627
O O12 0.492500 0.500000 0.899691
O O13 0.421294 0.268139 0.916039
O O14 0.500000 0.260286 0.000000
O O15 0.072574 0.500000 0.543903
O O16 0.697786 0.000000 0.822796
O O17 0.670214 0.748002 0.928370
O O18 0.846250 0.000000 0.963498
#
# Coordination Sequence:
#
# PCOD9193898 Si02
#       7
#     8   8   8   8   8   8   8
#     4  10  22  37  58  86 118 154 192 234 286 342
#     4  11  22  39  62  91 119 149 189 238 289 341
#     4  12  25  41  60  83 112 152 197 243 290 341
#     4  10  20  34  54  82 116 151 188 232 280 335
#     4  10  20  38  63  92 121 152 187 232 288 345
#     4  11  23  40  58  82 116 155 196 240 284 340
#     4  11  22  38  59  85 116 154 195 239 288 341
#
# _framework density 19.421565000000001
#
# number of rings (size 3 to 8) (size 9 to 14) (size 15 to 20)
#    0.000    1.286    1.429    6.000    0.000    5.429 
#    0.000    0.714    0.000    0.000    0.000    0.000 
#    0.000    0.000    0.000    0.000    0.000    0.000 
#
# Total GULP energy -156582.201964 kJ/mol
# GULP energy per Si atom -5592.221499 kJ/mol
# Density = 1.937736 g / cm^3
# Si number density = 19.421565 Si / 1000 Ang^3
#
#
#
# Elastic Constant Matrix: (Units=GPa)
#
#
# Indices 1 2 3 4 5 6 
#
# 1 58.8595 1.7096 20.3210 0.0000 15.1635 0.0000
# 2 1.7096 35.6359 -6.8057 0.0000 1.0445 0.0000
# 3 20.3210 -6.8057 63.9789 0.0000 18.1075 0.0000
# 4 0.0000 0.0000 0.0000 26.9423 0.0000 -11.2656
# 5 15.1635 1.0445 18.1075 0.0000 26.8051 0.0000
# 6 0.0000 0.0000 0.0000 -11.2656 0.0000 11.9889
#
#
#
# Elastic Compliance Matrix: (Units=1/GPa)
#
#
# Indices 1 2 3 4 5 6 
#
# 1 0.020779 -0.001555 -0.004272 0.000000 -0.008808 0.000000
# 2 -0.001555 0.029098 0.004526 0.000000 -0.003312 0.000000
# 3 -0.004272 0.004526 0.020814 0.000000 -0.011820 0.000000
# 4 0.000000 0.000000 0.000000 0.061138 0.000000 0.057450
# 5 -0.008808 -0.003312 -0.011820 0.000000 0.050402 0.000000
# 6 0.000000 0.000000 0.000000 0.057450 0.000000 0.137394
#
#
# Mechanical properties :
#
#
# Convention : Reuss Voigt Hill
#
# Bulk Modulus (GPa) = 14.68659 20.99158 17.83909
# Shear Modulus (GPa) = 14.49600 22.69723 18.59661
#
# Velocity S-wave (km/s) = 2.73497 3.42228 3.09775
# Velocity P-wave (km/s) = 4.18949 5.14275 4.69040
#
# Compressibility (1/GPa) = 0.06808931
#
# Stress axis : x y z
#
# Youngs Moduli (GPa) = 48.12590 34.36702 48.04478
#
# Poissons Ratio (x) = 0.05343 0.20526
# Poissons Ratio (y) = 0.07482 -0.21747
# Poissons Ratio (z) = 0.20561 -0.15556
#
# Static dielectric constant tensor:
#      x y z
#    x 1.680630 0.000000 0.023630 
#    y 0.000000 1.651070 0.000000 
#    z 0.023630 0.000000 1.669760 
# 
# From -- ./inp_files/237353.got.cif
#   From: 2010.05.17/outbox.cif.g08.bks.cpg/sg12_119_cif.got.tgz:237353.got - 2010.06.03 13:09:07.
