data_PCOD9193487
_publ_section_title
;
Structure prediction by ZEFSAII (Michael W. Deem and Ramdas Pophale) SiO2 
 PCOD9193487
Probable space group: C 2/M
;
_chemical_formula_sum "Si O2"
_cell_formula_units_Z 64
_cell_length_a 27.690607
_cell_length_b 12.852815
_cell_length_c 7.924543
_cell_angle_alpha 90.000000
_cell_angle_beta 86.049730
_cell_angle_gamma 90.000000
_cell_volume 2813.662114
_symmetry_space_group_name_H-M "C 2/M"
_symmetry_group_IT_number 12
_symmetry_cell_setting 'monoclinic'
loop_
_space_group_symop_operation_xyz
x,y,z
-x,y,-z
-x,-y,-z
x,-y,z
1/2+x,1/2+y,z
1/2-x,1/2+y,-z
1/2-x,1/2-y,-z
1/2+x,1/2-y,z
loop_
_atom_site_type_symbol
_atom_site_label
_atom_site_fract_x
_atom_site_fract_y
_atom_site_fract_z
Si Si1 0.071048 0.616509 0.455768
Si Si2 0.660893 0.625624 0.298622
Si Si3 0.028602 0.818786 0.648142
Si Si4 0.066671 0.236191 0.173083
Si Si5 0.883285 0.805938 0.179424
Si Si6 0.769295 0.125493 0.417868
Si Si7 0.831508 0.380331 0.379602
Si Si8 0.291122 0.385139 0.050954
O O1 0.054604 0.500000 0.494976
O O2 0.044879 0.703168 0.577998
O O3 0.063566 0.652999 0.266596
O O4 0.128213 0.619186 0.482955
O O5 0.657180 0.500000 0.288473
O O6 0.608624 0.675328 0.270175
O O7 0.684285 0.651538 0.474983
O O8 0.697933 0.659476 0.137941
O O9 0.079784 0.859250 0.699654
O O10 0.000000 0.869857 0.500000
O O11 0.986304 0.812705 0.795125
O O12 0.083784 0.236675 0.979303
O O13 0.852691 0.706028 0.249071
O O14 0.845508 0.886521 0.112996
O O15 0.721173 0.147419 0.536605
O O16 0.765253 0.161804 0.223418
O O17 0.771409 0.000000 0.401571
O O18 0.829421 0.500000 0.313488
O O19 0.270395 0.500000 0.027197
#
# Coordination Sequence:
#
# PCOD9193487 Si02
#       8
#     8   8   8   8   8   8   8   8
#     4   9  19  36  55  76 106 140 176 218 263 316
#     4   9  19  36  55  79 111 141 177 222 263 314
#     4   9  19  33  55  74 102 137 173 213 260 316
#     4  10  20  34  53  80 105 137 176 217 268 316
#     4  10  20  35  53  78 106 138 170 223 269 311
#     4   9  18  34  57  77 103 146 184 215 263 317
#     4   9  19  36  53  76 106 139 176 217 266 315
#     4   9  19  35  54  78 107 142 182 218 261 315
#
# _framework density 22.746157
#
# number of rings (size 3 to 8) (size 9 to 14) (size 15 to 20)
#    0.000    2.750    0.000    0.375    5.250    3.250 
#    2.250    1.875    0.000   12.750    0.000    0.000 
#    0.000    0.000    0.000    0.000    0.000    0.000 
#
# Total GULP energy -178364.002875 kJ/mol
# GULP energy per Si atom -5573.875090 kJ/mol
# Density = 2.269439 g / cm^3
# Si number density = 22.746157 Si / 1000 Ang^3
#
#
#
# Elastic Constant Matrix: (Units=GPa)
#
#
# Indices 1 2 3 4 5 6 
#
# 1 102.5686 20.2652 7.4645 0.0000 -18.8793 0.0000
# 2 20.2652 64.0912 14.4394 0.0000 5.2576 0.0000
# 3 7.4645 14.4394 83.5256 0.0000 -31.8120 0.0000
# 4 0.0000 0.0000 0.0000 14.0343 0.0000 4.7295
# 5 -18.8793 5.2576 -31.8120 0.0000 35.5675 0.0000
# 6 0.0000 0.0000 0.0000 4.7295 0.0000 4.7264
#
#
#
# Elastic Compliance Matrix: (Units=1/GPa)
#
#
# Indices 1 2 3 4 5 6 
#
# 1 0.012707 -0.005905 0.004226 0.000000 0.011397 0.000000
# 2 -0.005905 0.020393 -0.008098 0.000000 -0.013392 0.000000
# 3 0.004226 -0.008098 0.021696 0.000000 0.022845 0.000000
# 4 0.000000 0.000000 0.000000 0.107506 0.000000 -0.107575
# 5 0.011397 -0.013392 0.022845 0.000000 0.056578 0.000000
# 6 0.000000 0.000000 0.000000 -0.107575 0.000000 0.319222
#
#
# Mechanical properties :
#
#
# Convention : Reuss Voigt Hill
#
# Bulk Modulus (GPa) = 28.37592 37.16931 32.77262
# Shear Modulus (GPa) = 8.78115 24.73339 16.75727
#
# Velocity S-wave (km/s) = 1.96695 3.30110 2.71718
# Velocity P-wave (km/s) = 4.20245 5.55932 4.92781
#
# Compressibility (1/GPa) = 0.03524114
#
# Stress axis : x y z
#
# Youngs Moduli (GPa) = 78.69961 49.03658 46.09226
#
# Poissons Ratio (x) = 0.28955 -0.19479
# Poissons Ratio (y) = 0.46471 0.37327
# Poissons Ratio (z) = -0.33259 0.39711
#
# Static dielectric constant tensor:
#      x y z
#    x 1.856710 0.000000 -0.005090 
#    y 0.000000 1.875080 0.000000 
#    z -0.005090 0.000000 1.905200 
# 
# From -- ./inp_files/104485.got.cif
#   From: 2010.05.17/outbox.cif.g08.bks.cpg/sg12_53_cif.got.tgz:104485.got - 2010.06.03 13:09:07.
