data_PCOD9193289
_publ_section_title
;
Structure prediction by ZEFSAII (Michael W. Deem and Ramdas Pophale) SiO2 
 PCOD9193289
Probable space group: C 2/M
;
_chemical_formula_sum "Si O2"
_cell_formula_units_Z 40
_cell_length_a 27.719198
_cell_length_b 8.658517
_cell_length_c 11.650447
_cell_angle_alpha 90.000000
_cell_angle_beta 54.895383
_cell_angle_gamma 90.000000
_cell_volume 2287.572937
_symmetry_space_group_name_H-M "C 2/M"
_symmetry_group_IT_number 12
_symmetry_cell_setting 'monoclinic'
loop_
_space_group_symop_operation_xyz
x,y,z
-x,y,-z
-x,-y,-z
x,-y,z
1/2+x,1/2+y,z
1/2-x,1/2+y,-z
1/2-x,1/2-y,-z
1/2+x,1/2-y,z
loop_
_atom_site_type_symbol
_atom_site_label
_atom_site_fract_x
_atom_site_fract_y
_atom_site_fract_z
Si Si1 0.423416 0.312400 0.212716
Si Si2 0.337318 0.815592 0.939830
Si Si3 0.776504 0.684623 0.785385
Si Si4 0.945189 0.813344 0.920565
Si Si5 0.695788 0.314575 0.500564
O O1 0.423318 0.500000 0.213461
O O2 0.486279 0.265574 0.180404
O O3 0.365817 0.259814 0.359111
O O4 0.423728 0.267597 0.078166
O O5 0.317905 0.773039 0.837071
O O6 0.401529 0.758376 0.888004
O O7 0.333347 0.000000 0.955411
O O8 0.288862 0.740159 0.090199
O O9 0.776096 0.500000 0.773716
O O10 0.797307 0.759910 0.639272
O O11 0.942444 0.000000 0.917191
O O12 0.696971 0.500000 0.503572
O O13 0.750000 0.250000 0.500000
#
# Coordination Sequence:
#
# PCOD9193289 Si02
#       5
#     8   8   8   8   8
#     4   8  17  32  51  76 103 133 168 205 248 304
#     4  10  20  34  53  77 102 130 169 216 261 302
#     4  10  21  36  52  73 103 137 172 209 253 307
#     4   9  16  32  56  76  99 133 170 207 251 302
#     4  11  21  34  53  78 107 136 169 209 255 303
#
# _framework density 17.485782
#
# number of rings (size 3 to 8) (size 9 to 14) (size 15 to 20)
#    0.000    2.400    0.000    4.200    0.000    4.000 
#    0.000    6.000    0.000    6.000    0.000    0.000 
#    0.000    0.000    0.000    0.000    0.000    0.000 
#
# Total GULP energy -111605.527470 kJ/mol
# GULP energy per Si atom -5580.276373 kJ/mol
# Density = 1.744598 g / cm^3
# Si number density = 17.485782 Si / 1000 Ang^3
#
#
#
# Elastic Constant Matrix: (Units=GPa)
#
#
# Indices 1 2 3 4 5 6 
#
# 1 134.0448 30.0646 72.3170 0.0000 -18.7286 0.0000
# 2 30.0646 33.5511 31.8180 0.0000 -2.7624 0.0000
# 3 72.3170 31.8180 140.9300 0.0000 -12.4017 0.0000
# 4 0.0000 0.0000 0.0000 24.5136 0.0000 1.0046
# 5 -18.7286 -2.7624 -12.4017 0.0000 17.1191 0.0000
# 6 0.0000 0.0000 0.0000 1.0046 0.0000 32.0836
#
#
#
# Elastic Compliance Matrix: (Units=1/GPa)
#
#
# Indices 1 2 3 4 5 6 
#
# 1 0.012467 -0.006509 -0.004080 0.000000 0.009633 0.000000
# 2 -0.006509 0.041324 -0.006440 0.000000 -0.005118 0.000000
# 3 -0.004080 -0.006440 0.010851 0.000000 0.002358 0.000000
# 4 0.000000 0.000000 0.000000 0.040846 0.000000 -0.001279
# 5 0.009633 -0.005118 0.002358 0.000000 0.069835 0.000000
# 6 0.000000 0.000000 0.000000 -0.001279 0.000000 0.031209
#
#
# Mechanical properties :
#
#
# Convention : Reuss Voigt Hill
#
# Bulk Modulus (GPa) = 32.69751 64.10280 48.40015
# Shear Modulus (GPa) = 19.93732 26.36501 23.15117
#
# Velocity S-wave (km/s) = 3.38035 3.88725 3.64263
# Velocity P-wave (km/s) = 5.82887 7.54236 6.74029
#
# Compressibility (1/GPa) = 0.03058337
#
# Stress axis : x y z
#
# Youngs Moduli (GPa) = 80.20953 24.19894 92.15818
#
# Poissons Ratio (x) = 0.15752 0.37602
# Poissons Ratio (y) = 0.52210 0.59351
# Poissons Ratio (z) = 0.32727 0.15584
#
# Static dielectric constant tensor:
#      x y z
#    x 1.586570 0.000000 -0.005350 
#    y 0.000000 1.592330 0.000000 
#    z -0.005350 0.000000 1.575730 
# 
# From -- ./inp_files/162362.got.cif
#   From: 2010.05.17/outbox.cif.g08.bks.cpg/sg12_82_cif.got.tgz:162362.got - 2010.06.03 13:09:07.
