data_PCOD9193488
_publ_section_title
;
Structure prediction by ZEFSAII (Michael W. Deem and Ramdas Pophale) SiO2 
 PCOD9193488
Probable space group: C 2/M
;
_chemical_formula_sum "Si O2"
_cell_formula_units_Z 48
_cell_length_a 20.898209
_cell_length_b 7.446575
_cell_length_c 15.453338
_cell_angle_alpha 90.000000
_cell_angle_beta 71.258581
_cell_angle_gamma 90.000000
_cell_volume 2277.340390
_symmetry_space_group_name_H-M "C 2/M"
_symmetry_group_IT_number 12
_symmetry_cell_setting 'monoclinic'
loop_
_space_group_symop_operation_xyz
x,y,z
-x,y,-z
-x,-y,-z
x,-y,z
1/2+x,1/2+y,z
1/2-x,1/2+y,-z
1/2-x,1/2-y,-z
1/2+x,1/2-y,z
loop_
_atom_site_type_symbol
_atom_site_label
_atom_site_fract_x
_atom_site_fract_y
_atom_site_fract_z
Si Si1 0.943993 0.280278 0.257940
Si Si2 0.297870 0.286466 0.561708
Si Si3 0.456843 0.780945 0.934789
Si Si4 0.692260 0.214618 0.955687
Si Si5 0.701470 0.219477 0.755669
Si Si6 0.549963 0.792072 0.549977
O O1 0.942830 0.500000 0.259410
O O2 0.871592 0.226517 0.250094
O O3 0.952510 0.215064 0.352180
O O4 0.003905 0.223509 0.168188
O O5 0.305313 0.500000 0.565611
O O6 0.250000 0.250000 0.500000
O O7 0.259554 0.220499 0.664322
O O8 0.372520 0.212088 0.514470
O O9 0.456266 0.000000 0.933617
O O10 0.500000 0.728311 0.000000
O O11 0.380284 0.718124 0.979585
O O12 0.708392 0.280261 0.851717
O O13 0.685449 0.000000 0.950500
O O14 0.750000 0.250000 0.000000
O O15 0.702605 0.000000 0.754371
O O16 0.500000 0.711639 0.500000
O O17 0.529041 0.000000 0.569043
#
# Coordination Sequence:
#
# PCOD9193488 Si02
#       6
#     8   8   8   8   8   8
#     4   9  15  28  51  77 103 133 174 219 261 305
#     4  11  21  35  57  82 108 143 186 227 269 323
#     4   9  15  26  50  78  96 124 176 220 244 294
#     4  10  20  34  53  80 109 137 171 215 267 317
#     4   9  17  31  53  77 104 141 178 213 262 322
#     4  10  21  36  54  79 112 144 177 224 277 320
#
# _framework density 21.077217999999998
#
# number of rings (size 3 to 8) (size 9 to 14) (size 15 to 20)
#    0.000    2.333    3.333    0.500    0.000    1.667 
#    0.000    3.333    0.000    1.500    0.000    0.000 
#    0.000    0.000    0.000    0.000    0.000    0.000 
#
# Total GULP energy -134057.051142 kJ/mol
# GULP energy per Si atom -5585.710464 kJ/mol
# Density = 2.102924 g / cm^3
# Si number density = 21.077218 Si / 1000 Ang^3
#
#
#
# Elastic Constant Matrix: (Units=GPa)
#
#
# Indices 1 2 3 4 5 6 
#
# 1 173.2327 -10.8024 123.3384 0.0000 12.2258 0.0000
# 2 -10.8024 62.8775 -0.1254 0.0000 3.4934 0.0000
# 3 123.3384 -0.1254 251.3036 0.0000 2.7152 0.0000
# 4 0.0000 0.0000 0.0000 7.8975 0.0000 -1.2233
# 5 12.2258 3.4934 2.7152 0.0000 39.9901 0.0000
# 6 0.0000 0.0000 0.0000 -1.2233 0.0000 14.5770
#
#
#
# Elastic Compliance Matrix: (Units=1/GPa)
#
#
# Indices 1 2 3 4 5 6 
#
# 1 0.009299 0.001738 -0.004534 0.000000 -0.002687 0.000000
# 2 0.001738 0.016306 -0.000824 0.000000 -0.001900 0.000000
# 3 -0.004534 -0.000824 0.006193 0.000000 0.001038 0.000000
# 4 0.000000 0.000000 0.000000 0.128290 0.000000 0.010766
# 5 -0.002687 -0.001900 0.001038 0.000000 0.025923 0.000000
# 6 0.000000 0.000000 0.000000 0.010766 0.000000 0.069505
#
#
# Mechanical properties :
#
#
# Convention : Reuss Voigt Hill
#
# Bulk Modulus (GPa) = 40.72129 79.13720 59.92924
# Shear Modulus (GPa) = 18.45418 37.49313 27.97366
#
# Velocity S-wave (km/s) = 2.96218 4.22221 3.64703
# Velocity P-wave (km/s) = 5.57327 7.83564 6.79921
#
# Compressibility (1/GPa) = 0.02455718
#
# Stress axis : x y z
#
# Youngs Moduli (GPa) = 107.54417 61.32568 161.47862
#
# Poissons Ratio (x) = -0.10657 0.73210
# Poissons Ratio (y) = -0.18688 0.13309
# Poissons Ratio (z) = 0.48758 0.05054
#
# Static dielectric constant tensor:
#      x y z
#    x 1.730830 0.000000 -0.003730 
#    y 0.000000 1.844740 0.000000 
#    z -0.003730 0.000000 1.747740 
# 
# From -- ./inp_files/229923.got.cif
#   From: 2010.05.17/outbox.cif.g08.bks.cpg/sg12_115_cif.got.tgz:229923.got - 2010.06.03 13:09:07.
