data_PCOD9193635
_publ_section_title
;
Structure prediction by ZEFSAII (Michael W. Deem and Ramdas Pophale) SiO2 
 PCOD9193635
Probable space group: C 2/M
;
_chemical_formula_sum "Si O2"
_cell_formula_units_Z 48
_cell_length_a 9.307610
_cell_length_b 13.490089
_cell_length_c 18.031604
_cell_angle_alpha 90.000000
_cell_angle_beta 84.125148
_cell_angle_gamma 90.000000
_cell_volume 2252.165792
_symmetry_space_group_name_H-M "C 2/M"
_symmetry_group_IT_number 12
_symmetry_cell_setting 'monoclinic'
loop_
_space_group_symop_operation_xyz
x,y,z
-x,y,-z
-x,-y,-z
x,-y,z
1/2+x,1/2+y,z
1/2-x,1/2+y,-z
1/2-x,1/2-y,-z
1/2+x,1/2-y,z
loop_
_atom_site_type_symbol
_atom_site_label
_atom_site_fract_x
_atom_site_fract_y
_atom_site_fract_z
Si Si1 0.605818 0.114903 0.923006
Si Si2 0.157963 0.203989 0.822072
Si Si3 0.701264 0.805589 0.619018
Si Si4 0.842502 0.881854 0.020864
Si Si5 0.562121 0.266103 0.280843
Si Si6 0.159405 0.112814 0.526471
O O1 0.591305 0.191927 0.857152
O O2 0.613716 0.000000 0.897673
O O3 0.500000 0.114947 0.000000
O O4 0.749487 0.152950 0.956749
O O5 0.192678 0.140230 0.892700
O O6 0.307809 0.217655 0.771959
O O7 0.036100 0.169043 0.770197
O O8 0.553566 0.808276 0.674284
O O9 0.843780 0.821607 0.661514
O O10 0.723720 0.872751 0.545646
O O11 0.697449 0.693134 0.586875
O O12 0.841605 0.000000 0.012666
O O13 0.000000 0.839625 0.000000
O O14 0.000000 0.134933 0.500000
O O15 0.158257 0.000000 0.553141
#
# Coordination Sequence:
#
# PCOD9193635 Si02
#       6
#     8   8   8   8   8   8
#     4  10  20  34  54  78 104 138 187 246 292 323
#     4  11  20  36  54  77 108 151 188 225 272 358
#     4  10  20  41  58  87 122 149 176 247 272 328
#     4  10  20  34  54  78 102 134 187 244 287 322
#     4  10  22  36  56  79 118 156 184 212 292 338
#     4  10  20  37  68  93 110 147 195 230 276 333
#
# _framework density 21.312818
#
# number of rings (size 3 to 8) (size 9 to 14) (size 15 to 20)
#    0.000    1.833    1.667    3.000    0.000    0.000 
#    0.000   11.667    0.000    0.000    0.000    0.000 
#    0.000    0.000    0.000    0.000    0.000    0.000 
#
# Total GULP energy -133774.329346 kJ/mol
# GULP energy per Si atom -5573.930389 kJ/mol
# Density = 2.126431 g / cm^3
# Si number density = 21.312818 Si / 1000 Ang^3
#
#
#
# Elastic Constant Matrix: (Units=GPa)
#
#
# Indices 1 2 3 4 5 6 
#
# 1 89.1378 -9.6030 21.4629 0.0000 -1.8133 0.0000
# 2 -9.6030 60.1709 5.1243 0.0000 12.9525 0.0000
# 3 21.4629 5.1243 89.8393 0.0000 -6.2734 0.0000
# 4 0.0000 0.0000 0.0000 8.4912 0.0000 2.4928
# 5 -1.8133 12.9525 -6.2734 0.0000 47.2819 0.0000
# 6 0.0000 0.0000 0.0000 2.4928 0.0000 11.3866
#
#
#
# Elastic Compliance Matrix: (Units=1/GPa)
#
#
# Indices 1 2 3 4 5 6 
#
# 1 0.012202 0.002336 -0.003089 0.000000 -0.000582 0.000000
# 2 0.002336 0.018273 -0.001962 0.000000 -0.005177 0.000000
# 3 -0.003089 -0.001962 0.012122 0.000000 0.002027 0.000000
# 4 0.000000 0.000000 0.000000 0.125859 0.000000 -0.027554
# 5 -0.000582 -0.005177 0.002027 0.000000 0.022814 0.000000
# 6 0.000000 0.000000 0.000000 -0.027554 0.000000 0.093855
#
#
# Mechanical properties :
#
#
# Convention : Reuss Voigt Hill
#
# Bulk Modulus (GPa) = 26.90491 30.34627 28.62559
# Shear Modulus (GPa) = 16.50460 28.24286 22.37373
#
# Velocity S-wave (km/s) = 2.78582 3.64422 3.24354
# Velocity P-wave (km/s) = 4.79572 5.65478 5.24288
#
# Compressibility (1/GPa) = 0.03716793
#
# Stress axis : x y z
#
# Youngs Moduli (GPa) = 81.95275 54.72412 82.49180
#
# Poissons Ratio (x) = -0.12782 0.25482
# Poissons Ratio (y) = -0.19142 0.16183
# Poissons Ratio (z) = 0.25315 0.10736
#
# Static dielectric constant tensor:
#      x y z
#    x 1.832880 0.000000 -0.047360 
#    y 0.000000 1.740060 0.000000 
#    z -0.047360 0.000000 1.775740 
# 
# From -- ./inp_files/255760.got.cif
#   From: 2010.05.17/outbox.cif.g08.bks.cpg/sg12_128_cif.got.tgz:255760.got - 2010.06.03 13:09:07.
