data_PCOD9193280
_publ_section_title
;
Structure prediction by ZEFSAII (Michael W. Deem and Ramdas Pophale) SiO2 
 PCOD9193280
Probable space group: C 2/M
;
_chemical_formula_sum "Si O2"
_cell_formula_units_Z 56
_cell_length_a 19.205033
_cell_length_b 8.501556
_cell_length_c 30.148433
_cell_angle_alpha 90.000000
_cell_angle_beta 142.499077
_cell_angle_gamma 90.000000
_cell_volume 2996.639274
_symmetry_space_group_name_H-M "C 2/M"
_symmetry_group_IT_number 12
_symmetry_cell_setting 'monoclinic'
loop_
_space_group_symop_operation_xyz
x,y,z
-x,y,-z
-x,-y,-z
x,-y,z
1/2+x,1/2+y,z
1/2-x,1/2+y,-z
1/2-x,1/2-y,-z
1/2+x,1/2-y,z
loop_
_atom_site_type_symbol
_atom_site_label
_atom_site_fract_x
_atom_site_fract_y
_atom_site_fract_z
Si Si1 0.761748 0.809539 0.869249
Si Si2 0.051310 0.691054 0.704266
Si Si3 0.368245 0.690136 0.430522
Si Si4 0.289324 0.188630 0.296175
Si Si5 0.087967 0.312741 0.134842
Si Si6 0.332008 0.688661 0.003065
Si Si7 0.790751 0.690627 0.568278
O O1 0.638598 0.759886 0.787243
O O2 0.856582 0.746455 0.883195
O O3 0.765965 0.000000 0.869739
O O4 0.786592 0.758777 0.931755
O O5 0.049311 0.500000 0.703629
O O6 0.110556 0.738907 0.687781
O O7 0.921157 0.744803 0.642625
O O8 0.500000 0.743484 0.500000
O O9 0.367952 0.500000 0.430134
O O10 0.313992 0.748212 0.357327
O O11 0.294401 0.742614 0.435625
O O12 0.171550 0.249965 0.215597
O O13 0.286984 0.000000 0.295361
O O14 0.087478 0.500000 0.135388
O O15 0.960346 0.249021 0.074654
O O16 0.332446 0.500000 0.003566
O O17 0.250000 0.750000 0.000000
O O18 0.790465 0.500000 0.567619
O O19 0.750000 0.750000 0.500000
#
# Coordination Sequence:
#
# PCOD9193280 Si02
#       7
#     8   8   8   8   8   8   8
#     4   9  19  37  59  81 108 144 186 232 281 335
#     4   8  16  33  55  77 100 133 178 222 267 319
#     4  10  21  35  52  79 114 147 180 225 280 333
#     4  10  20  36  58  81 106 139 183 231 276 330
#     4  11  22  37  59  84 112 147 186 230 282 340
#     4  11  23  38  57  83 116 151 188 233 282 332
#     4  10  20  34  53  76 106 143 181 222 268 324
#
# _framework density 18.6876
#
# number of rings (size 3 to 8) (size 9 to 14) (size 15 to 20)
#    0.000    2.143    0.000    4.286    0.000    4.857 
#    0.000    5.714    0.000    0.000    0.000    0.000 
#    0.000    0.000    0.000    0.000    0.000    0.000 
#
# Total GULP energy -156374.382778 kJ/mol
# GULP energy per Si atom -5584.799385 kJ/mol
# Density = 1.864507 g / cm^3
# Si number density = 18.687600 Si / 1000 Ang^3
#
#
#
# Elastic Constant Matrix: (Units=GPa)
#
#
# Indices 1 2 3 4 5 6 
#
# 1 182.0759 34.3830 148.0916 0.0000 5.4484 0.0001
# 2 34.3830 24.4722 30.0664 0.0000 -1.2974 0.0001
# 3 148.0916 30.0664 170.2720 0.0000 0.1987 0.0000
# 4 0.0000 0.0000 0.0000 25.8577 0.0000 -5.5043
# 5 5.4484 -1.2974 0.1987 0.0000 39.7608 0.0000
# 6 0.0001 0.0001 0.0000 -5.5043 0.0000 23.4447
#
#
#
# Elastic Compliance Matrix: (Units=1/GPa)
#
#
# Indices 1 2 3 4 5 6 
#
# 1 0.020460 -0.009000 -0.016202 0.000000 -0.003016 0.000000
# 2 -0.009000 0.056264 -0.002111 0.000000 0.003080 0.000000
# 3 -0.016202 -0.002111 0.020335 0.000000 0.002050 0.000000
# 4 0.000000 0.000000 0.000000 0.040708 0.000000 0.009557
# 5 -0.003016 0.003080 0.002050 0.000000 0.025654 0.000000
# 6 0.000000 0.000000 0.000000 0.009557 0.000000 0.044897
#
#
# Mechanical properties :
#
#
# Convention : Reuss Voigt Hill
#
# Bulk Modulus (GPa) = 23.56659 89.10024 56.33341
# Shear Modulus (GPa) = 18.04478 28.76460 23.40469
#
# Velocity S-wave (km/s) = 3.11078 3.92756 3.54279
# Velocity P-wave (km/s) = 5.05379 8.26740 6.85167
#
# Compressibility (1/GPa) = 0.04243295
#
# Stress axis : x y z
#
# Youngs Moduli (GPa) = 48.87593 17.77324 49.17681
#
# Poissons Ratio (x) = 0.15996 0.79676
# Poissons Ratio (y) = 0.43989 0.10381
# Poissons Ratio (z) = 0.79189 0.03752
#
# Static dielectric constant tensor:
#      x y z
#    x 1.621120 0.000000 0.007610 
#    y 0.000000 1.651180 0.000000 
#    z 0.007610 0.000000 1.629740 
# 
# From -- ./inp_files/363178.got.cif
#   From: 2010.05.17/outbox.cif.g08.bks.cpg/sg12_182_cif.got.tgz:363178.got - 2010.06.03 13:09:07.
