data_PCOD9193067
_publ_section_title
;
Structure prediction by ZEFSAII (Michael W. Deem and Ramdas Pophale) SiO2 
 PCOD9193067
Probable space group: C 2/M
;
_chemical_formula_sum "Si O2"
_cell_formula_units_Z 56
_cell_length_a 28.688467
_cell_length_b 9.373999
_cell_length_c 15.219465
_cell_angle_alpha 90.000000
_cell_angle_beta 131.174036
_cell_angle_gamma 90.000000
_cell_volume 3080.783880
_symmetry_space_group_name_H-M "C 2/M"
_symmetry_group_IT_number 12
_symmetry_cell_setting 'monoclinic'
loop_
_space_group_symop_operation_xyz
x,y,z
-x,y,-z
-x,-y,-z
x,-y,z
1/2+x,1/2+y,z
1/2-x,1/2+y,-z
1/2-x,1/2-y,-z
1/2+x,1/2-y,z
loop_
_atom_site_type_symbol
_atom_site_label
_atom_site_fract_x
_atom_site_fract_y
_atom_site_fract_z
Si Si1 0.544624 0.672987 0.475188
Si Si2 0.615803 0.833165 0.922349
Si Si3 0.066032 0.832690 0.126726
Si Si4 0.816401 0.167672 0.331092
Si Si5 0.680867 0.170370 0.185226
Si Si6 0.002817 0.166342 0.224818
Si Si7 0.692378 0.334551 0.889370
O O1 0.500000 0.722885 0.500000
O O2 0.548041 0.500000 0.489707
O O3 0.615488 0.728613 0.565104
O O4 0.519228 0.699685 0.345894
O O5 0.550597 0.772430 0.872321
O O6 0.633739 0.739832 0.860715
O O7 0.614071 0.000000 0.899508
O O8 0.664558 0.811521 0.061592
O O9 0.125415 0.746488 0.167647
O O10 0.057171 0.820278 0.220832
O O11 0.074528 0.000000 0.114877
O O12 0.000000 0.790250 0.000000
O O13 0.751165 0.224423 0.288304
O O14 0.810056 0.173748 0.218004
O O15 0.818071 0.000000 0.358593
O O16 0.679042 0.000000 0.199579
O O17 0.982138 0.000000 0.195011
O O18 0.695793 0.500000 0.918762
O O19 0.750000 0.250000 0.000000
#
# Coordination Sequence:
#
# PCOD9193067 Si02
#       7
#     8   8   8   8   8   8   8
#     4   9  17  32  57  83 104 135 184 230 264 311
#     4  11  21  33  50  78 111 142 178 220 271 328
#     4  10  20  34  52  78 111 140 174 223 278 328
#     4   9  18  34  53  77 109 141 180 227 266 316
#     4  10  20  34  52  76 107 142 180 219 268 326
#     4  10  20  35  56  81 105 138 182 227 275 319
#     4  11  20  32  51  77 110 142 177 220 270 325
#
# _framework density 18.177192000000002
#
# number of rings (size 3 to 8) (size 9 to 14) (size 15 to 20)
#    0.000    2.000    2.857    1.714    0.000    3.714 
#    0.000    0.714    0.000    5.571    0.000    0.000 
#    0.000    0.000    0.000    0.000    0.000    0.000 
#
# Total GULP energy -156033.720162 kJ/mol
# GULP energy per Si atom -5572.632863 kJ/mol
# Density = 1.813582 g / cm^3
# Si number density = 18.177192 Si / 1000 Ang^3
#
#
#
# Elastic Constant Matrix: (Units=GPa)
#
#
# Indices 1 2 3 4 5 6 
#
# 1 131.6221 34.5586 37.3764 0.0000 12.4863 0.0000
# 2 34.5586 41.3784 21.3028 0.0000 2.0614 0.0000
# 3 37.3764 21.3028 66.1326 0.0000 14.3496 0.0000
# 4 0.0000 0.0000 0.0000 11.9541 0.0000 0.3014
# 5 12.4863 2.0614 14.3496 0.0000 31.3476 0.0000
# 6 0.0000 0.0000 0.0000 0.3014 0.0000 28.9888
#
#
#
# Elastic Compliance Matrix: (Units=1/GPa)
#
#
# Indices 1 2 3 4 5 6 
#
# 1 0.010582 -0.007073 -0.003207 0.000000 -0.002282 0.000000
# 2 -0.007073 0.033896 -0.007826 0.000000 0.004171 0.000000
# 3 -0.003207 -0.007826 0.021168 0.000000 -0.007898 0.000000
# 4 0.000000 0.000000 0.000000 0.083675 0.000000 -0.000870
# 5 -0.002282 0.004171 -0.007898 0.000000 0.036150 0.000000
# 6 0.000000 0.000000 0.000000 -0.000870 0.000000 0.034505
#
#
# Mechanical properties :
#
#
# Convention : Reuss Voigt Hill
#
# Bulk Modulus (GPa) = 33.97480 47.28985 40.63233
# Shear Modulus (GPa) = 18.79699 24.18445 21.49072
#
# Velocity S-wave (km/s) = 3.21923 3.65154 3.44218
# Velocity P-wave (km/s) = 5.70521 6.62199 6.18062
#
# Compressibility (1/GPa) = 0.02943358
#
# Stress axis : x y z
#
# Youngs Moduli (GPa) = 94.50246 29.50216 47.24022
#
# Poissons Ratio (x) = 0.20867 0.15150
# Poissons Ratio (y) = 0.66841 0.36971
# Poissons Ratio (z) = 0.30308 0.23089
#
# Static dielectric constant tensor:
#      x y z
#    x 1.684210 0.000000 0.031820 
#    y 0.000000 1.600990 0.000000 
#    z 0.031820 0.000000 1.645450 
# 
# From -- ./inp_files/249275.got.cif
#   From: 2010.05.17/outbox.cif.g08.bks.cpg/sg12_125_cif.got.tgz:249275.got - 2010.06.03 13:09:07.
