data_PCOD9193232
_publ_section_title
;
Structure prediction by ZEFSAII (Michael W. Deem and Ramdas Pophale) SiO2 
 PCOD9193232
Probable space group: C 2/M
;
_chemical_formula_sum "Si O2"
_cell_formula_units_Z 64
_cell_length_a 19.643907
_cell_length_b 8.936724
_cell_length_c 21.918037
_cell_angle_alpha 90.000000
_cell_angle_beta 77.471597
_cell_angle_gamma 90.000000
_cell_volume 3756.138511
_symmetry_space_group_name_H-M "C 2/M"
_symmetry_group_IT_number 12
_symmetry_cell_setting 'monoclinic'
loop_
_space_group_symop_operation_xyz
x,y,z
-x,y,-z
-x,-y,-z
x,-y,z
1/2+x,1/2+y,z
1/2-x,1/2+y,-z
1/2-x,1/2-y,-z
1/2+x,1/2-y,z
loop_
_atom_site_type_symbol
_atom_site_label
_atom_site_fract_x
_atom_site_fract_y
_atom_site_fract_z
Si Si1 0.538447 0.178286 0.556225
Si Si2 0.963778 0.680618 0.814260
Si Si3 0.658774 0.327974 0.691178
Si Si4 0.688835 0.680977 0.552205
Si Si5 0.120566 0.320306 0.819100
Si Si6 0.494944 0.672614 0.684903
Si Si7 0.839542 0.319671 0.927970
Si Si8 0.690398 0.819381 0.930736
O O1 0.500000 0.208294 0.500000
O O2 0.613759 0.257849 0.544988
O O3 0.493106 0.239256 0.621774
O O4 0.548255 0.000000 0.560852
O O5 0.963317 0.500000 0.808686
O O6 0.903798 0.725920 0.873031
O O7 0.040008 0.725330 0.824906
O O8 0.955451 0.751724 0.749028
O O9 0.677975 0.500000 0.699099
O O10 0.696975 0.275216 0.622253
O O11 0.663960 0.236842 0.752428
O O12 0.576884 0.324226 0.688223
O O13 0.688597 0.500000 0.549690
O O14 0.750000 0.750000 0.500000
O O15 0.121864 0.500000 0.818616
O O16 0.150824 0.267833 0.877734
O O17 0.474708 0.500000 0.680928
O O18 0.833836 0.500000 0.925878
O O19 0.767618 0.247946 0.919383
O O20 0.847131 0.279543 0.998055
O O21 0.695062 0.000000 0.927811
#
# Coordination Sequence:
#
# PCOD9193232 Si02
#       8
#     8   8   8   8   8   8   8   8
#     4  10  20  34  53  76 102 132 166 205 248 295
#     4   9  17  30  49  72  95 121 157 198 240 285
#     4   8  16  30  47  69  96 125 156 192 237 287
#     4  10  20  34  53  76 102 133 168 206 248 294
#     4   9  17  29  48  72  94 119 154 197 239 279
#     4   9  17  30  49  72  98 128 160 197 243 291
#     4   9  18  32  49  68  93 127 160 191 234 286
#     4   9  18  32  48  68  95 125 158 194 234 283
#
# _framework density 17.038777
#
# number of rings (size 3 to 8) (size 9 to 14) (size 15 to 20)
#    0.000    2.875    0.000    1.875    0.000    6.000 
#    0.000    3.750    0.000    1.500    0.000    7.000 
#    0.000    0.000    0.000    0.000    0.000    0.000 
#
# Total GULP energy -178280.916609 kJ/mol
# GULP energy per Si atom -5571.278644 kJ/mol
# Density = 1.700000 g / cm^3
# Si number density = 17.038777 Si / 1000 Ang^3
#
#
#
# Elastic Constant Matrix: (Units=GPa)
#
#
# Indices 1 2 3 4 5 6 
#
# 1 54.5749 30.1062 81.6696 0.0000 -6.6081 0.0000
# 2 30.1062 37.7147 58.5799 0.0000 1.9212 0.0000
# 3 81.6696 58.5799 198.5107 0.0000 -9.1312 0.0000
# 4 0.0000 0.0000 0.0000 25.9508 0.0000 -1.8651
# 5 -6.6081 1.9212 -9.1312 0.0000 31.4757 0.0000
# 6 0.0000 0.0000 0.0000 -1.8651 0.0000 21.2741
#
#
#
# Elastic Compliance Matrix: (Units=1/GPa)
#
#
# Indices 1 2 3 4 5 6 
#
# 1 0.053708 -0.017492 -0.016588 0.000000 0.007531 0.000000
# 2 -0.017492 0.056350 -0.009892 0.000000 -0.009981 0.000000
# 3 -0.016588 -0.009892 0.014847 0.000000 0.001428 0.000000
# 4 0.000000 0.000000 0.000000 0.038779 0.000000 0.003400
# 5 0.007531 -0.009981 0.001428 0.000000 0.034375 0.000000
# 6 0.000000 0.000000 0.000000 0.003400 0.000000 0.047304
#
#
# Mechanical properties :
#
#
# Convention : Reuss Voigt Hill
#
# Bulk Modulus (GPa) = 27.05451 70.16801 48.61126
# Shear Modulus (GPa) = 14.46654 23.76977 19.11816
#
# Velocity S-wave (km/s) = 2.91698 3.73907 3.35332
# Velocity P-wave (km/s) = 5.22089 7.74026 6.60187
#
# Compressibility (1/GPa) = 0.03696241
#
# Stress axis : x y z
#
# Youngs Moduli (GPa) = 18.61931 17.74615 67.35519
#
# Poissons Ratio (x) = 0.31041 1.11728
# Poissons Ratio (y) = 0.32568 0.66626
# Poissons Ratio (z) = 0.30885 0.17554
#
# Static dielectric constant tensor:
#      x y z
#    x 1.552460 0.000000 -0.001190 
#    y 0.000000 1.576620 0.000000 
#    z -0.001190 0.000000 1.588750 
# 
# From -- ./inp_files/319108.got.cif
#   From: 2010.05.17/outbox.cif.g08.bks.cpg/sg12_160_cif.got.tgz:319108.got - 2010.06.03 13:09:07.
