data_PCOD9193193
_publ_section_title
;
Structure prediction by ZEFSAII (Michael W. Deem and Ramdas Pophale) SiO2 
 PCOD9193193
Probable space group: C 2/M
;
_chemical_formula_sum "Si O2"
_cell_formula_units_Z 64
_cell_length_a 15.060284
_cell_length_b 7.688565
_cell_length_c 26.499836
_cell_angle_alpha 90.000000
_cell_angle_beta 105.950944
_cell_angle_gamma 90.000000
_cell_volume 2950.324093
_symmetry_space_group_name_H-M "C 2/M"
_symmetry_group_IT_number 12
_symmetry_cell_setting 'monoclinic'
loop_
_space_group_symop_operation_xyz
x,y,z
-x,y,-z
-x,-y,-z
x,-y,z
1/2+x,1/2+y,z
1/2-x,1/2+y,-z
1/2-x,1/2-y,-z
1/2+x,1/2-y,z
loop_
_atom_site_type_symbol
_atom_site_label
_atom_site_fract_x
_atom_site_fract_y
_atom_site_fract_z
Si Si1 0.355233 0.291511 0.002006
Si Si2 0.935137 0.193039 0.599244
Si Si3 0.453872 0.707429 0.710258
Si Si4 0.041042 0.212686 0.082717
Si Si5 0.142343 0.287920 0.624279
Si Si6 0.137627 0.213571 0.199984
Si Si7 0.341575 0.202636 0.485245
Si Si8 0.669779 0.208631 0.737349
O O1 0.360664 0.500000 0.002143
O O2 0.436443 0.231282 0.052915
O O3 0.250000 0.250000 0.000000
O O4 0.390784 0.232666 0.952285
O O5 0.917340 0.256624 0.539540
O O6 0.912431 0.278786 0.650190
O O7 0.044720 0.199130 0.619375
O O8 0.893618 0.000000 0.593269
O O9 0.437155 0.500000 0.704636
O O10 0.408092 0.771916 0.754511
O O11 0.565189 0.730739 0.730834
O O12 0.079860 0.270877 0.142482
O O13 0.040909 0.000000 0.083161
O O14 0.131601 0.500000 0.622091
O O15 0.167168 0.223420 0.572374
O O16 0.198427 0.249356 0.683654
O O17 0.245082 0.268791 0.215263
O O18 0.136584 0.000000 0.200292
O O19 0.250000 0.250000 0.500000
O O20 0.349205 0.000000 0.478533
O O21 0.665118 0.000000 0.740282
#
# Coordination Sequence:
#
# PCOD9193193 Si02
#       8
#     8   8   8   8   8   8   8   8
#     4   9  17  31  52  76 106 140 174 214 256 300
#     4  10  20  34  53  73  97 125 160 204 253 307
#     4   9  19  34  53  75 101 132 169 212 257 306
#     4   8  16  31  49  74 105 139 178 211 248 305
#     4   9  19  35  53  70  94 125 160 201 251 306
#     4   9  17  31  54  76  99 138 179 211 248 302
#     4  11  23  35  50  73  99 126 160 204 253 308
#     4   9  18  33  54  75  97 129 170 211 253 305
#
# _framework density 21.692533000000001
#
# number of rings (size 3 to 8) (size 9 to 14) (size 15 to 20)
#    0.000    2.750    0.000    1.875    1.750    4.000 
#    0.000    1.875    0.000    1.500    0.000    0.000 
#    0.000    0.000    0.000    0.000    0.000    0.000 
#
# Total GULP energy -178174.689385 kJ/mol
# GULP energy per Si atom -5567.959043 kJ/mol
# Density = 2.164316 g / cm^3
# Si number density = 21.692533 Si / 1000 Ang^3
#
#
#
# Elastic Constant Matrix: (Units=GPa)
#
#
# Indices 1 2 3 4 5 6 
#
# 1 79.7676 -6.2163 30.6576 0.0000 8.6742 0.0000
# 2 -6.2163 26.5702 13.2006 0.0000 3.3218 0.0000
# 3 30.6576 13.2006 103.3983 0.0000 15.5443 0.0000
# 4 0.0000 0.0000 0.0000 5.0676 0.0000 1.7850
# 5 8.6742 3.3218 15.5443 0.0000 27.5982 0.0000
# 6 0.0000 0.0000 0.0000 1.7850 0.0000 21.5596
#
#
#
# Elastic Compliance Matrix: (Units=1/GPa)
#
#
# Indices 1 2 3 4 5 6 
#
# 1 0.015218 0.006345 -0.004904 0.000000 -0.002785 0.000000
# 2 0.006345 0.042945 -0.006869 0.000000 -0.003295 0.000000
# 3 -0.004904 -0.006869 0.012724 0.000000 -0.004798 0.000000
# 4 0.000000 0.000000 0.000000 0.203261 0.000000 -0.016829
# 5 -0.002785 -0.003295 -0.004798 0.000000 0.040209 0.000000
# 6 0.000000 0.000000 0.000000 -0.016829 0.000000 0.047776
#
#
# Mechanical properties :
#
#
# Convention : Reuss Voigt Hill
#
# Bulk Modulus (GPa) = 16.65777 31.66885 24.16331
# Shear Modulus (GPa) = 12.72271 22.31803 17.52037
#
# Velocity S-wave (km/s) = 2.42441 3.21103 2.84503
# Velocity P-wave (km/s) = 3.94116 5.32712 4.68567
#
# Compressibility (1/GPa) = 0.06003203
#
# Stress axis : x y z
#
# Youngs Moduli (GPa) = 65.71016 23.28565 78.59469
#
# Poissons Ratio (x) = -0.14774 0.38540
# Poissons Ratio (y) = -0.41692 0.53984
# Poissons Ratio (z) = 0.32222 0.15994
#
# Static dielectric constant tensor:
#      x y z
#    x 1.823430 0.000000 0.088490 
#    y 0.000000 1.814830 0.000000 
#    z 0.088490 0.000000 2.078870 
# 
# From -- ./inp_files/359912.got.cif
#   From: 2010.05.17/outbox.cif.g08.bks.cpg/sg12_180_cif.got.tgz:359912.got - 2010.06.03 13:09:07.
