data_PCOD9193370
_publ_section_title
;
Structure prediction by ZEFSAII (Michael W. Deem and Ramdas Pophale) SiO2 
 PCOD9193370
Probable space group: C 2/M
;
_chemical_formula_sum "Si O2"
_cell_formula_units_Z 56
_cell_length_a 17.028327
_cell_length_b 7.425460
_cell_length_c 23.871134
_cell_angle_alpha 90.000000
_cell_angle_beta 47.143539
_cell_angle_gamma 90.000000
_cell_volume 2212.625421
_symmetry_space_group_name_H-M "C 2/M"
_symmetry_group_IT_number 12
_symmetry_cell_setting 'monoclinic'
loop_
_space_group_symop_operation_xyz
x,y,z
-x,y,-z
-x,-y,-z
x,-y,z
1/2+x,1/2+y,z
1/2-x,1/2+y,-z
1/2-x,1/2-y,-z
1/2+x,1/2-y,z
loop_
_atom_site_type_symbol
_atom_site_label
_atom_site_fract_x
_atom_site_fract_y
_atom_site_fract_z
Si Si1 0.380818 0.718003 0.540024
Si Si2 0.884451 0.785510 0.175257
Si Si3 0.102522 0.781761 0.030098
Si Si4 0.079729 0.780442 0.600690
Si Si5 0.855205 0.783813 0.747329
Si Si6 0.346096 0.708533 0.314918
Si Si7 0.824950 0.207513 0.882754
O O1 0.500000 0.773171 0.500000
O O2 0.378153 0.500000 0.543784
O O3 0.364592 0.779402 0.483482
O O4 0.282806 0.783606 0.625010
O O5 0.763748 0.757702 0.214518
O O6 0.893349 0.713412 0.234646
O O7 0.978867 0.723617 0.087941
O O8 0.899934 0.000000 0.171556
O O9 0.138890 0.718899 0.074895
O O10 0.108525 0.000000 0.022868
O O11 0.195472 0.714596 0.944291
O O12 0.123601 0.714505 0.639071
O O13 0.954265 0.727950 0.660939
O O14 0.086425 0.000000 0.596742
O O15 0.869304 0.713386 0.803915
O O16 0.861540 0.000000 0.746992
O O17 0.380315 0.500000 0.300303
O O18 0.859184 0.000000 0.867996
#
# Coordination Sequence:
#
# PCOD9193370 Si02
#       7
#     8   8   8   8   8   8   8
#     4  10  20  34  53  78 107 135 165 204 252 304
#     4  10  21  35  51  74 103 134 169 208 252 302
#     4   9  18  34  54  74 101 136 169 205 252 302
#     4   9  18  34  55  76 100 134 172 207 248 299
#     4  10  20  35  55  76 101 134 170 209 253 300
#     4  10  20  35  55  76 100 133 173 212 248 293
#     4   9  18  33  54  78 100 128 171 214 249 294
#
# _framework density 25.3093
#
# number of rings (size 3 to 8) (size 9 to 14) (size 15 to 20)
#    0.000    2.429    0.000    2.143    0.000    7.143 
#    0.000    4.286    0.000    3.429    0.000    0.000 
#    0.000    0.000    0.000    0.000    0.000    0.000 
#
# Total GULP energy -156509.530343 kJ/mol
# GULP energy per Si atom -5589.626084 kJ/mol
# Density = 2.525170 g / cm^3
# Si number density = 25.309300 Si / 1000 Ang^3
#
#
#
# Elastic Constant Matrix: (Units=GPa)
#
#
# Indices 1 2 3 4 5 6 
#
# 1 53.8007 -7.3488 -13.5729 0.0001 -13.6287 0.0018
# 2 -7.3488 82.8048 -5.8245 0.0004 3.7510 0.0035
# 3 -13.5729 -5.8245 110.7842 0.0000 -14.2917 0.0002
# 4 0.0001 0.0004 0.0000 9.9489 -0.0001 -6.1942
# 5 -13.6287 3.7510 -14.2917 -0.0001 44.3274 0.0001
# 6 0.0018 0.0035 0.0002 -6.1942 0.0001 11.5974
#
#
#
# Elastic Compliance Matrix: (Units=1/GPa)
#
#
# Indices 1 2 3 4 5 6 
#
# 1 0.021749 0.001844 0.003760 -0.000004 0.007743 -0.000006
# 2 0.001844 0.012309 0.000847 -0.000005 -0.000202 -0.000006
# 3 0.003760 0.000847 0.010091 -0.000001 0.004338 -0.000002
# 4 -0.000004 -0.000005 -0.000001 0.150590 -0.000001 0.080430
# 5 0.007743 -0.000202 0.004338 -0.000001 0.026356 -0.000002
# 6 -0.000006 -0.000006 -0.000002 0.080430 -0.000002 0.129184
#
#
# Mechanical properties :
#
#
# Convention : Reuss Voigt Hill
#
# Bulk Modulus (GPa) = 17.52768 21.54416 19.53592
# Shear Modulus (GPa) = 14.02945 31.45048 22.73997
#
# Velocity S-wave (km/s) = 2.35695 3.52894 3.00072
# Velocity P-wave (km/s) = 3.78780 5.01352 4.44313
#
# Compressibility (1/GPa) = 0.05705261
#
# Stress axis : x y z
#
# Youngs Moduli (GPa) = 45.97869 81.24170 99.09379
#
# Poissons Ratio (x) = -0.14981 -0.37264
# Poissons Ratio (y) = -0.08478 -0.08394
# Poissons Ratio (z) = -0.17290 -0.06882
#
# Static dielectric constant tensor:
#      x y z
#    x 2.033280 0.000000 -0.015340 
#    y 0.000000 2.217230 0.000000 
#    z -0.015340 0.000000 1.964950 
# 
# From -- ./inp_files/342349.got.cif
#   From: 2010.05.17/outbox.cif.g08.bks.cpg/sg12_172_cif.got.tgz:342349.got - 2010.06.03 13:09:07.
