data_PCOD9193129
_publ_section_title
;
Structure prediction by ZEFSAII (Michael W. Deem and Ramdas Pophale) SiO2 
 PCOD9193129
Probable space group: C 2/M
;
_chemical_formula_sum "Si O2"
_cell_formula_units_Z 40
_cell_length_a 8.257652
_cell_length_b 30.660969
_cell_length_c 15.749311
_cell_angle_alpha 90.000000
_cell_angle_beta 153.031807
_cell_angle_gamma 90.000000
_cell_volume 1808.328305
_symmetry_space_group_name_H-M "C 2/M"
_symmetry_group_IT_number 12
_symmetry_cell_setting 'monoclinic'
loop_
_space_group_symop_operation_xyz
x,y,z
-x,y,-z
-x,-y,-z
x,-y,z
1/2+x,1/2+y,z
1/2-x,1/2+y,-z
1/2-x,1/2-y,-z
1/2+x,1/2-y,z
loop_
_atom_site_type_symbol
_atom_site_label
_atom_site_fract_x
_atom_site_fract_y
_atom_site_fract_z
Si Si1 0.429267 0.633338 0.692342
Si Si2 0.198921 0.452265 0.182263
Si Si3 0.693514 0.700408 0.500693
Si Si4 0.433672 0.049143 0.696773
Si Si5 0.169916 0.865578 0.171878
O O1 0.547921 0.588999 0.703689
O O2 0.511017 0.673922 0.669363
O O3 0.572119 0.634415 0.856060
O O4 0.000000 0.632699 0.500000
O O5 0.377346 0.500000 0.275121
O O6 0.952798 0.447701 0.150644
O O7 0.000000 0.453057 0.000000
O O8 0.500000 0.698395 0.500000
O O9 0.750000 0.750000 0.500000
O O10 0.061346 0.674501 0.687273
O O11 0.613462 0.088622 0.731279
O O12 0.000000 0.053489 0.500000
O O13 0.519954 0.000000 0.707375
O O14 0.000000 0.860248 0.000000
#
# Coordination Sequence:
#
# PCOD9193129 Si02
#       5
#     8   8   8   8   8
#     4  10  21  36  57  85 114 150 192 231 282 342
#     4  10  20  34  52  78 114 154 194 235 280 328
#     4  11  23  44  67  85 112 149 188 234 292 353
#     4  10  20  35  56  82 116 161 203 235 280 341
#     4  11  22  37  59  90 122 151 192 242 291 339
#
# _framework density 22.119878
#
# number of rings (size 3 to 8) (size 9 to 14) (size 15 to 20)
#    0.000    1.600    0.000    7.200    0.000    1.600 
#    0.000    5.000    0.000    0.000    0.000    0.000 
#    0.000    0.000    0.000    0.000    0.000    0.000 
#
# Total GULP energy -111767.806596 kJ/mol
# GULP energy per Si atom -5588.390330 kJ/mol
# Density = 2.206953 g / cm^3
# Si number density = 22.119878 Si / 1000 Ang^3
#
#
#
# Elastic Constant Matrix: (Units=GPa)
#
#
# Indices 1 2 3 4 5 6 
#
# 1 116.5547 82.3277 19.7184 0.0000 -40.7047 0.0000
# 2 82.3277 218.4450 40.5302 0.0000 -17.5216 0.0000
# 3 19.7184 40.5302 82.5518 0.0000 -39.0281 0.0000
# 4 0.0000 0.0000 0.0000 28.7914 0.0000 -10.1391
# 5 -40.7047 -17.5216 -39.0281 0.0000 42.6628 0.0000
# 6 0.0000 0.0000 0.0000 -10.1391 0.0000 40.4433
#
#
#
# Elastic Compliance Matrix: (Units=1/GPa)
#
#
# Indices 1 2 3 4 5 6 
#
# 1 0.023260 -0.008765 0.013282 0.000000 0.030743 0.000000
# 2 -0.008765 0.008342 -0.007640 0.000000 -0.011926 0.000000
# 3 0.013282 -0.007640 0.030308 0.000000 0.037260 0.000000
# 4 0.000000 0.000000 0.000000 0.038096 0.000000 0.009551
# 5 0.030743 -0.011926 0.037260 0.000000 0.081959 0.000000
# 6 0.000000 0.000000 0.000000 0.009551 0.000000 0.027120
#
#
# Mechanical properties :
#
#
# Convention : Reuss Voigt Hill
#
# Bulk Modulus (GPa) = 17.96525 78.07824 48.02175
# Shear Modulus (GPa) = 21.37798 40.71116 31.04457
#
# Velocity S-wave (km/s) = 3.11217 4.29473 3.75036
# Velocity P-wave (km/s) = 4.58841 7.74386 6.36478
#
# Compressibility (1/GPa) = 0.05566301
#
# Stress axis : x y z
#
# Youngs Moduli (GPa) = 42.99238 119.87505 32.99510
#
# Poissons Ratio (x) = 1.05065 -0.43823
# Poissons Ratio (y) = 0.37681 0.25209
# Poissons Ratio (z) = -0.57100 0.91587
#
# Static dielectric constant tensor:
#      x y z
#    x 1.855220 0.000000 -0.040400 
#    y 0.000000 1.244720 0.000000 
#    z -0.040400 0.000000 1.942150 
# 
# From -- ./inp_files/41424.got.cif
#   From: 2010.05.17/outbox.cif.g08.bks.cpg/sg12_21_cif.got.tgz:41424.got - 2010.06.03 13:09:07.
