data_PCOD9193899
_publ_section_title
;
Structure prediction by ZEFSAII (Michael W. Deem and Ramdas Pophale) SiO2 
 PCOD9193899
Probable space group: C 2/M
;
_chemical_formula_sum "Si O2"
_cell_formula_units_Z 64
_cell_length_a 30.579034
_cell_length_b 9.417719
_cell_length_c 24.207990
_cell_angle_alpha 90.000000
_cell_angle_beta 29.266055
_cell_angle_gamma 90.000000
_cell_volume 3408.142887
_symmetry_space_group_name_H-M "C 2/M"
_symmetry_group_IT_number 12
_symmetry_cell_setting 'monoclinic'
loop_
_space_group_symop_operation_xyz
x,y,z
-x,y,-z
-x,-y,-z
x,-y,z
1/2+x,1/2+y,z
1/2-x,1/2+y,-z
1/2-x,1/2-y,-z
1/2+x,1/2-y,z
loop_
_atom_site_type_symbol
_atom_site_label
_atom_site_fract_x
_atom_site_fract_y
_atom_site_fract_z
Si Si1 0.403217 0.156913 0.133691
Si Si2 0.693525 0.171464 0.188339
Si Si3 0.771004 0.161563 0.423150
Si Si4 0.962287 0.159781 0.169666
Si Si5 0.152466 0.168577 0.468753
Si Si6 0.723918 0.669124 0.269384
Si Si7 0.617340 0.672205 0.075182
Si Si8 0.050902 0.828761 0.271015
O O1 0.420923 0.260699 0.163877
O O2 0.325545 0.200866 0.177268
O O3 0.376056 0.000000 0.184014
O O4 0.500000 0.146426 0.000000
O O5 0.701569 0.237993 0.240650
O O6 0.610499 0.243451 0.248941
O O7 0.686704 0.000000 0.198185
O O8 0.782780 0.208749 0.054183
O O9 0.750000 0.250000 0.500000
O O10 0.878415 0.154162 0.302874
O O11 0.725368 0.240503 0.421683
O O12 0.737365 0.000000 0.462337
O O13 0.047104 0.226334 0.106698
O O14 0.986692 0.000000 0.125578
O O15 0.163803 0.195549 0.390476
O O16 0.053685 0.199566 0.601452
O O17 0.168511 0.000000 0.459433
O O18 0.718036 0.500000 0.262847
O O19 0.611111 0.500000 0.081376
O O20 0.584814 0.713896 0.172213
O O21 0.063837 0.000000 0.262420
#
# Coordination Sequence:
#
# PCOD9193899 Si02
#       8
#     8   8   8   8   8   8   8   8
#     4  10  20  34  54  82 116 151 188 233 281 332
#     4  11  23  38  59  86 115 148 192 245 298 344
#     4  11  22  35  56  85 118 155 193 235 285 340
#     4  10  20  35  56  83 113 149 190 227 276 339
#     4  10  21  39  62  85 114 154 196 242 290 345
#     4  10  21  38  58  82 117 155 194 236 286 349
#     4   9  19  37  59  85 116 149 189 239 289 350
#     4  10  21  40  64  84 110 150 195 242 298 355
#
# _framework density 18.778555999999998
#
# number of rings (size 3 to 8) (size 9 to 14) (size 15 to 20)
#    0.000    1.875    1.250    2.625    0.000    4.750 
#    0.000    4.375    0.000    0.000    0.000    0.000 
#    0.000    0.000    0.000    0.000    0.000    0.000 
#
# Total GULP energy -178483.433422 kJ/mol
# GULP energy per Si atom -5577.607294 kJ/mol
# Density = 1.873582 g / cm^3
# Si number density = 18.778556 Si / 1000 Ang^3
#
#
#
# Elastic Constant Matrix: (Units=GPa)
#
#
# Indices 1 2 3 4 5 6 
#
# 1 82.1207 31.4640 17.5769 0.0019 -4.4592 -0.0041
# 2 31.4640 45.2872 19.7030 -0.0003 -0.5864 -0.0005
# 3 17.5769 19.7030 88.3227 -0.0022 -1.5463 0.0083
# 4 0.0019 -0.0003 -0.0022 25.0082 0.0017 -13.5835
# 5 -4.4592 -0.5864 -1.5463 0.0017 32.0648 -0.0037
# 6 -0.0041 -0.0005 0.0083 -13.5835 -0.0037 88.9527
#
#
#
# Elastic Compliance Matrix: (Units=1/GPa)
#
#
# Indices 1 2 3 4 5 6 
#
# 1 0.016786 -0.011294 -0.000784 -0.000001 0.002090 0.000001
# 2 -0.011294 0.032054 -0.004925 0.000001 -0.001222 0.000000
# 3 -0.000784 -0.004925 0.012584 0.000000 0.000408 -0.000001
# 4 -0.000001 0.000001 0.000000 0.043604 -0.000002 0.006658
# 5 0.002090 -0.001222 0.000408 -0.000002 0.031475 0.000001
# 6 0.000001 0.000000 -0.000001 0.006658 0.000001 0.012259
#
#
# Mechanical properties :
#
#
# Convention : Reuss Voigt Hill
#
# Bulk Modulus (GPa) = 36.47165 39.24647 37.85906
# Shear Modulus (GPa) = 26.05439 39.00427 32.52933
#
# Velocity S-wave (km/s) = 3.72890 4.56243 4.16656
# Velocity P-wave (km/s) = 6.16471 6.97849 6.58419
#
# Compressibility (1/GPa) = 0.02741856
#
# Stress axis : x y z
#
# Youngs Moduli (GPa) = 59.57447 31.19689 79.46640
#
# Poissons Ratio (x) = 0.35233 0.06234
# Poissons Ratio (y) = 0.67282 0.39134
# Poissons Ratio (z) = 0.04674 0.15363
#
# Static dielectric constant tensor:
#      x y z
#    x 1.648970 0.000000 0.046210 
#    y 0.000000 1.668260 0.000000 
#    z 0.046210 0.000000 1.762000 
# 
# From -- ./inp_files/249719.got.cif
#   From: 2010.05.17/outbox.cif.g08.bks.cpg/sg12_125_cif.got.tgz:249719.got - 2010.06.03 13:09:07.
