data_PCOD9193966
_publ_section_title
;
Structure prediction by ZEFSAII (Michael W. Deem and Ramdas Pophale) SiO2 
 PCOD9193966
Probable space group: C 2/M
;
_chemical_formula_sum "Si O2"
_cell_formula_units_Z 40
_cell_length_a 12.871059
_cell_length_b 18.036196
_cell_length_c 8.008426
_cell_angle_alpha 90.000000
_cell_angle_beta 81.645300
_cell_angle_gamma 90.000000
_cell_volume 1839.385773
_symmetry_space_group_name_H-M "C 2/M"
_symmetry_group_IT_number 12
_symmetry_cell_setting 'monoclinic'
loop_
_space_group_symop_operation_xyz
x,y,z
-x,y,-z
-x,-y,-z
x,-y,z
1/2+x,1/2+y,z
1/2-x,1/2+y,-z
1/2-x,1/2-y,-z
1/2+x,1/2-y,z
loop_
_atom_site_type_symbol
_atom_site_label
_atom_site_fract_x
_atom_site_fract_y
_atom_site_fract_z
Si Si1 0.720011 0.353305 0.182050
Si Si2 0.831720 0.769853 0.335218
Si Si3 0.954262 0.262925 0.824254
Si Si4 0.620547 0.415508 0.534933
Si Si5 0.892406 0.581806 0.911696
O O1 0.790334 0.279344 0.193647
O O2 0.612223 0.312642 0.160011
O O3 0.694044 0.396412 0.359023
O O4 0.788319 0.405309 0.047691
O O5 0.750000 0.750000 0.500000
O O6 0.845615 0.857909 0.329751
O O7 0.950635 0.742755 0.328496
O O8 0.898496 0.341990 0.804413
O O9 0.000000 0.266782 0.000000
O O10 0.500000 0.404621 0.500000
O O11 0.631561 0.500000 0.584598
O O12 0.887917 0.500000 0.831846
O O13 0.000000 0.580912 0.000000
#
# Coordination Sequence:
#
# PCOD9193966 Si02
#       5
#     8   8   8   8   8
#     4  11  20  37  61  82 114 155 196 237 288 349
#     4  10  21  36  57  87 112 152 195 238 285 344
#     4  11  21  37  58  86 117 153 198 240 287 349
#     4  10  20  36  59  85 114 147 190 241 290 346
#     4  10  20  34  54  84 113 144 191 239 282 335
#
# _framework density 21.746389000000001
#
# number of rings (size 3 to 8) (size 9 to 14) (size 15 to 20)
#    0.000    1.600    6.000    1.200    0.000    0.000 
#    0.000    1.000    0.000    3.000    0.000    5.600 
#    0.000    0.000    0.000    0.000    0.000    0.000 
#
# Total GULP energy -111410.542105 kJ/mol
# GULP energy per Si atom -5570.527105 kJ/mol
# Density = 2.169689 g / cm^3
# Si number density = 21.746389 Si / 1000 Ang^3
#
#
#
# Elastic Constant Matrix: (Units=GPa)
#
#
# Indices 1 2 3 4 5 6 
#
# 1 83.0804 16.9763 19.7943 0.0000 -33.2709 0.0000
# 2 16.9763 144.5756 4.6351 0.0000 -0.0536 0.0000
# 3 19.7943 4.6351 29.0922 0.0000 -23.3185 0.0000
# 4 0.0000 0.0000 0.0000 25.5520 0.0000 -4.8005
# 5 -33.2709 -0.0536 -23.3185 0.0000 42.5954 0.0000
# 6 0.0000 0.0000 0.0000 -4.8005 0.0000 19.2383
#
#
#
# Elastic Compliance Matrix: (Units=1/GPa)
#
#
# Indices 1 2 3 4 5 6 
#
# 1 0.018168 -0.002091 -0.001169 0.000000 0.013548 0.000000
# 2 -0.002091 0.007220 -0.001834 0.000000 -0.002628 0.000000
# 3 -0.001169 -0.001834 0.061880 0.000000 0.032960 0.000000
# 4 0.000000 0.000000 0.000000 0.041061 0.000000 0.010246
# 5 0.013548 -0.002628 0.032960 0.000000 0.052099 0.000000
# 6 0.000000 0.000000 0.000000 0.010246 0.000000 0.054536
#
#
# Mechanical properties :
#
#
# Convention : Reuss Voigt Hill
#
# Bulk Modulus (GPa) = 12.97362 37.72887 25.35124
# Shear Modulus (GPa) = 18.46067 31.83329 25.14698
#
# Velocity S-wave (km/s) = 2.91676 3.83017 3.40424
# Velocity P-wave (km/s) = 4.16199 6.07844 5.20911
#
# Compressibility (1/GPa) = 0.07707950
#
# Stress axis : x y z
#
# Youngs Moduli (GPa) = 55.04226 138.50143 16.16036
#
# Poissons Ratio (x) = 0.28958 0.01889
# Poissons Ratio (y) = 0.11508 0.02964
# Poissons Ratio (z) = 0.06434 0.25407
#
# Static dielectric constant tensor:
#      x y z
#    x 1.954930 0.000000 -0.002970 
#    y 0.000000 1.801580 0.000000 
#    z -0.002970 0.000000 1.815830 
# 
# From -- ./inp_files/46918.got.cif
#   From: 2010.05.17/outbox.cif.g08.bks.cpg/sg12_24_cif.got.tgz:46918.got - 2010.06.03 13:09:07.
