data_PCOD9193056
_publ_section_title
;
Structure prediction by ZEFSAII (Michael W. Deem and Ramdas Pophale) SiO2 
 PCOD9193056
Probable space group: C 2/M
;
_chemical_formula_sum "Si O2"
_cell_formula_units_Z 64
_cell_length_a 20.663984
_cell_length_b 8.010008
_cell_length_c 23.515013
_cell_angle_alpha 90.000000
_cell_angle_beta 135.618435
_cell_angle_gamma 90.000000
_cell_volume 2722.316470
_symmetry_space_group_name_H-M "C 2/M"
_symmetry_group_IT_number 12
_symmetry_cell_setting 'monoclinic'
loop_
_space_group_symop_operation_xyz
x,y,z
-x,y,-z
-x,-y,-z
x,-y,z
1/2+x,1/2+y,z
1/2-x,1/2+y,-z
1/2-x,1/2-y,-z
1/2+x,1/2-y,z
loop_
_atom_site_type_symbol
_atom_site_label
_atom_site_fract_x
_atom_site_fract_y
_atom_site_fract_z
Si Si1 0.942510 0.807953 0.521832
Si Si2 0.261011 0.699542 0.350202
Si Si3 0.059738 0.302246 0.257937
Si Si4 0.128888 0.805265 0.917461
Si Si5 0.808837 0.804022 0.805617
Si Si6 0.777115 0.192253 0.135103
Si Si7 0.011303 0.204640 0.941855
Si Si8 0.541307 0.810816 0.693892
O O1 0.844033 0.733094 0.440753
O O2 0.001368 0.719240 0.606966
O O3 0.000000 0.811545 0.500000
O O4 0.929729 0.000000 0.533219
O O5 0.262438 0.500000 0.358694
O O6 0.160673 0.763256 0.306065
O O7 0.265150 0.730224 0.284909
O O8 0.052466 0.500000 0.238180
O O9 0.042285 0.291713 0.314240
O O10 0.972749 0.209426 0.175439
O O11 0.199037 0.734107 0.913234
O O12 0.100019 0.734745 0.961476
O O13 0.152305 0.000000 0.937866
O O14 0.789047 0.776203 0.859868
O O15 0.911630 0.738872 0.854873
O O16 0.809019 0.000000 0.796114
O O17 0.875277 0.199182 0.230620
O O18 0.750781 0.000000 0.111882
O O19 0.014898 0.000000 0.942666
O O20 0.000000 0.254843 0.000000
O O21 0.578034 0.000000 0.721800
#
# Coordination Sequence:
#
# PCOD9193056 Si02
#       8
#     8   8   8   8   8   8   8   8
#     4  10  21  35  49  68  99 141 182 220 270 325
#     4  10  20  34  53  75 105 143 180 219 270 323
#     4   9  18  32  51  76 105 137 172 221 274 315
#     4   9  17  33  56  80 105 141 185 218 255 317
#     4  11  21  34  56  84 110 137 180 228 266 314
#     4  10  20  34  55  79 108 145 182 222 267 318
#     4   9  18  34  57  84 112 141 175 218 267 317
#     4  10  20  34  52  76 105 136 178 226 273 317
#
# _framework density 23.509388999999999
#
# number of rings (size 3 to 8) (size 9 to 14) (size 15 to 20)
#    0.000    2.250    1.250    1.875    0.000    3.250 
#    0.000    0.625    0.000    3.375    0.000    0.000 
#    0.000    0.000    0.000    0.000    0.000    0.000 
#
# Total GULP energy -178657.139077 kJ/mol
# GULP energy per Si atom -5583.035596 kJ/mol
# Density = 2.345588 g / cm^3
# Si number density = 23.509389 Si / 1000 Ang^3
#
#
#
# Elastic Constant Matrix: (Units=GPa)
#
#
# Indices 1 2 3 4 5 6 
#
# 1 131.8287 5.5139 22.9169 0.0000 -3.4165 0.0000
# 2 5.5139 41.7787 10.1579 0.0000 1.3640 0.0001
# 3 22.9169 10.1579 75.2277 0.0000 -9.9094 0.0000
# 4 0.0000 0.0000 0.0000 -10.3931 0.0000 30.1838
# 5 -3.4165 1.3640 -9.9094 0.0000 44.1478 0.0000
# 6 0.0000 0.0001 0.0000 30.1838 0.0000 -4.1956
#
#
#
# Elastic Compliance Matrix: (Units=1/GPa)
#
#
# Indices 1 2 3 4 5 6 
#
# 1 0.008020 -0.000487 -0.002363 0.000000 0.000105 0.000000
# 2 -0.000487 0.024883 -0.003419 0.000000 -0.001574 0.000000
# 3 -0.002363 -0.003419 0.014905 0.000000 0.003268 0.000000
# 4 0.000000 0.000000 0.000000 0.004837 0.000000 0.034796
# 5 0.000105 -0.001574 0.003268 0.000000 0.023442 0.000000
# 6 0.000000 0.000000 0.000000 0.034796 0.000000 0.011981
#
#
# Mechanical properties :
#
#
# Convention : Reuss Voigt Hill
#
# Bulk Modulus (GPa) = 28.35394 36.22363 32.28878
# Shear Modulus (GPa) = 44.49924 19.92824 32.21374
#
# Velocity S-wave (km/s) = 4.35538 2.91464 3.70570
# Velocity P-wave (km/s) = 6.11387 5.17382 5.66338
#
# Compressibility (1/GPa) = 0.03526847
#
# Stress axis : x y z
#
# Youngs Moduli (GPa) = 124.69519 40.18879 67.09117
#
# Poissons Ratio (x) = 0.01958 0.15856
# Poissons Ratio (y) = 0.06076 0.22937
# Poissons Ratio (z) = 0.29470 0.13740
#
# Static dielectric constant tensor:
#      x y z
#    x 1.942760 0.000000 -0.002550 
#    y 0.000000 1.840990 0.000000 
#    z -0.002550 0.000000 1.939280 
# 
# From -- ./inp_files/346279.got.cif
#   From: 2010.05.17/outbox.cif.g08.bks.cpg/sg12_174_cif.got.tgz:346279.got - 2010.06.03 13:09:07.
