data_PCOD9193847
_publ_section_title
;
Structure prediction by ZEFSAII (Michael W. Deem and Ramdas Pophale) SiO2 
 PCOD9193847
Probable space group: C 2/M
;
_chemical_formula_sum "Si O2"
_cell_formula_units_Z 48
_cell_length_a 17.691294
_cell_length_b 12.722964
_cell_length_c 12.395100
_cell_angle_alpha 90.000000
_cell_angle_beta 99.759439
_cell_angle_gamma 90.000000
_cell_volume 2749.583831
_symmetry_space_group_name_H-M "C 2/M"
_symmetry_group_IT_number 12
_symmetry_cell_setting 'monoclinic'
loop_
_space_group_symop_operation_xyz
x,y,z
-x,y,-z
-x,-y,-z
x,-y,z
1/2+x,1/2+y,z
1/2-x,1/2+y,-z
1/2-x,1/2-y,-z
1/2+x,1/2-y,z
loop_
_atom_site_type_symbol
_atom_site_label
_atom_site_fract_x
_atom_site_fract_y
_atom_site_fract_z
Si Si1 0.920804 0.623266 0.042686
Si Si2 0.292761 0.123890 0.828134
Si Si3 0.364618 0.743064 0.228444
Si Si4 0.196467 0.624820 0.587877
Si Si5 0.648874 0.755078 0.367525
Si Si6 0.500977 0.622567 0.370368
O O1 0.924376 0.500000 0.076545
O O2 0.905584 0.697977 0.140077
O O3 0.850539 0.635059 0.942115
O O4 0.000000 0.647529 0.000000
O O5 0.212273 0.182727 0.826811
O O6 0.331435 0.176193 0.732401
O O7 0.279845 0.000000 0.806060
O O8 0.339910 0.827815 0.312599
O O9 0.421740 0.661949 0.300284
O O10 0.195830 0.500000 0.587223
O O11 0.282983 0.669885 0.602274
O O12 0.152341 0.671702 0.473971
O O13 0.569001 0.694776 0.341750
O O14 0.500000 0.634085 0.500000
O O15 0.514032 0.500000 0.349197
#
# Coordination Sequence:
#
# PCOD9193847 Si02
#       6
#     8   8   8   8   8   8
#     4  10  21  38  60  84 113 151 190 231 282 335
#     4  10  21  37  60  86 113 150 191 231 278 333
#     4  11  21  37  58  84 115 147 188 236 279 332
#     4  10  20  34  54  81 111 146 186 233 281 328
#     4  10  20  36  55  81 112 149 187 229 277 333
#     4  11  22  37  56  81 114 150 188 229 278 336
#
# _framework density 17.457187000000001
#
# number of rings (size 3 to 8) (size 9 to 14) (size 15 to 20)
#    0.000    1.667    1.667    3.500    0.000    0.000 
#    0.000    3.333    0.000   12.000    0.000    0.000 
#    0.000    0.000    0.000    0.000    0.000    0.000 
#
# Total GULP energy -134059.213044 kJ/mol
# GULP energy per Si atom -5585.800544 kJ/mol
# Density = 1.741745 g / cm^3
# Si number density = 17.457187 Si / 1000 Ang^3
#
#
#
# Elastic Constant Matrix: (Units=GPa)
#
#
# Indices 1 2 3 4 5 6 
#
# 1 82.6872 33.8767 31.8637 0.0000 -4.0129 0.0000
# 2 33.8767 111.8559 42.2069 0.0000 -10.3757 0.0000
# 3 31.8637 42.2069 70.2520 0.0000 -3.0730 0.0000
# 4 0.0000 0.0000 0.0000 18.0018 0.0000 1.5219
# 5 -4.0129 -10.3757 -3.0730 0.0000 24.8183 0.0000
# 6 0.0000 0.0000 0.0000 1.5219 0.0000 20.9339
#
#
#
# Elastic Compliance Matrix: (Units=1/GPa)
#
#
# Indices 1 2 3 4 5 6 
#
# 1 0.015228 -0.002520 -0.005360 0.000000 0.000745 0.000000
# 2 -0.002520 0.012386 -0.006123 0.000000 0.004013 0.000000
# 3 -0.005360 -0.006123 0.020304 0.000000 -0.000912 0.000000
# 4 0.000000 0.000000 0.000000 0.055893 0.000000 -0.004064
# 5 0.000745 0.004013 -0.000912 0.000000 0.041978 0.000000
# 6 0.000000 0.000000 0.000000 -0.004064 0.000000 0.048065
#
#
# Mechanical properties :
#
#
# Convention : Reuss Voigt Hill
#
# Bulk Modulus (GPa) = 50.22137 53.40995 51.81566
# Shear Modulus (GPa) = 21.88205 23.20732 22.54468
#
# Velocity S-wave (km/s) = 3.54428 3.65003 3.59754
# Velocity P-wave (km/s) = 6.75129 6.95880 6.85583
#
# Compressibility (1/GPa) = 0.01991184
#
# Stress axis : x y z
#
# Youngs Moduli (GPa) = 65.66845 80.73708 49.25092
#
# Poissons Ratio (x) = 0.20348 0.26399
# Poissons Ratio (y) = 0.16551 0.30155
# Poissons Ratio (z) = 0.35199 0.49433
#
# Static dielectric constant tensor:
#      x y z
#    x 1.577210 0.000000 0.005280 
#    y 0.000000 1.557220 0.000000 
#    z 0.005280 0.000000 1.572220 
# 
# From -- ./inp_files/153530.got.cif
#   From: 2010.05.17/outbox.cif.g08.bks.cpg/sg12_77_cif.got.tgz:153530.got - 2010.06.03 13:09:07.
