data_PCOD9193759
_publ_section_title
;
Structure prediction by ZEFSAII (Michael W. Deem and Ramdas Pophale) SiO2 
 PCOD9193759
Probable space group: C 2/M
;
_chemical_formula_sum "Si O2"
_cell_formula_units_Z 64
_cell_length_a 18.773087
_cell_length_b 7.705318
_cell_length_c 31.488868
_cell_angle_alpha 90.000000
_cell_angle_beta 41.886235
_cell_angle_gamma 90.000000
_cell_volume 3041.127166
_symmetry_space_group_name_H-M "C 2/M"
_symmetry_group_IT_number 12
_symmetry_cell_setting 'monoclinic'
loop_
_space_group_symop_operation_xyz
x,y,z
-x,y,-z
-x,-y,-z
x,-y,z
1/2+x,1/2+y,z
1/2-x,1/2+y,-z
1/2-x,1/2-y,-z
1/2+x,1/2-y,z
loop_
_atom_site_type_symbol
_atom_site_label
_atom_site_fract_x
_atom_site_fract_y
_atom_site_fract_z
Si Si1 0.326314 0.296725 0.804361
Si Si2 0.933622 0.212987 0.313392
Si Si3 0.259454 0.205455 0.926877
Si Si4 0.841157 0.290281 0.189894
Si Si5 0.418557 0.209588 0.930018
Si Si6 0.022042 0.203967 0.443475
Si Si7 0.236002 0.206710 0.681458
Si Si8 0.371770 0.291335 0.435216
O O1 0.337731 0.500000 0.788785
O O2 0.446702 0.226382 0.750463
O O3 0.275898 0.282051 0.873258
O O4 0.246777 0.222493 0.804255
O O5 0.847108 0.271216 0.317193
O O6 0.902791 0.270369 0.374443
O O7 0.932279 0.000000 0.312824
O O8 0.348107 0.272378 0.921132
O O9 0.273944 0.000000 0.916468
O O10 0.145842 0.240057 0.999227
O O11 0.844169 0.500000 0.184980
O O12 0.808286 0.246602 0.252261
O O13 0.960457 0.227323 0.126498
O O14 0.419194 0.000000 0.927953
O O15 0.146158 0.218872 0.377243
O O16 0.000000 0.279919 0.500000
O O17 0.949303 0.277483 0.437865
O O18 0.993812 0.000000 0.458469
O O19 0.245274 0.000000 0.672714
O O20 0.383713 0.500000 0.428546
O O21 0.250000 0.250000 0.500000
#
# Coordination Sequence:
#
# PCOD9193759 Si02
#       8
#     8   8   8   8   8   8   8   8
#     4  10  20  36  57  77 103 141 179 216 263 321
#     4   9  19  35  54  77 105 139 176 214 263 319
#     4  10  20  34  54  80 109 139 174 222 271 314
#     4  10  21  37  57  79 105 140 180 221 265 317
#     4   9  19  36  56  78 105 141 183 220 261 319
#     4  10  21  37  57  81 110 145 183 221 263 314
#     4  11  22  35  55  81 108 139 176 221 270 318
#     4  10  20  36  57  80 109 142 178 220 264 313
#
# _framework density 21.044827000000002
#
# number of rings (size 3 to 8) (size 9 to 14) (size 15 to 20)
#    0.000    2.125    0.000    3.000    0.000    4.750 
#    0.000    4.375    0.000    0.000    0.000    0.000 
#    0.000    0.000    0.000    0.000    0.000    0.000 
#
# Total GULP energy -178799.032106 kJ/mol
# GULP energy per Si atom -5587.469753 kJ/mol
# Density = 2.099693 g / cm^3
# Si number density = 21.044827 Si / 1000 Ang^3
#
#
#
# Elastic Constant Matrix: (Units=GPa)
#
#
# Indices 1 2 3 4 5 6 
#
# 1 197.6398 -4.1822 104.3167 -0.0015 6.7858 -0.0009
# 2 -4.1822 27.6616 -22.0478 -0.0112 -0.7305 -0.0093
# 3 104.3167 -22.0478 144.0146 -0.0026 6.2195 -0.0059
# 4 -0.0015 -0.0112 -0.0026 17.1315 0.0017 -4.7584
# 5 6.7858 -0.7305 6.2195 0.0017 32.8738 0.0033
# 6 -0.0009 -0.0093 -0.0059 -4.7584 0.0033 4.3329
#
#
#
# Elastic Compliance Matrix: (Units=1/GPa)
#
#
# Indices 1 2 3 4 5 6 
#
# 1 0.008605 -0.004171 -0.006847 -0.000011 -0.000574 -0.000028
# 2 -0.004171 0.043200 0.009635 0.000084 -0.000002 0.000198
# 3 -0.006847 0.009635 0.013418 0.000027 -0.000911 0.000068
# 4 -0.000011 0.000084 0.000027 0.083993 -0.000015 0.092241
# 5 -0.000574 -0.000002 -0.000911 -0.000015 0.030710 -0.000041
# 6 -0.000028 0.000198 0.000068 0.092241 -0.000041 0.332090
#
#
# Mechanical properties :
#
#
# Convention : Reuss Voigt Hill
#
# Bulk Modulus (GPa) = 16.01093 58.38772 37.19932
# Shear Modulus (GPa) = 9.33531 30.28294 19.80912
#
# Velocity S-wave (km/s) = 2.10845 3.79750 3.07136
# Velocity P-wave (km/s) = 3.68129 6.85803 5.50384
#
# Compressibility (1/GPa) = 0.06245733
#
# Stress axis : x y z
#
# Youngs Moduli (GPa) = 116.21164 23.14791 74.52824
#
# Poissons Ratio (x) = 0.09656 0.51028
# Poissons Ratio (y) = 0.48477 -0.71811
# Poissons Ratio (z) = 0.79569 -0.22304
#
# Static dielectric constant tensor:
#      x y z
#    x 1.749500 0.000000 -0.005840 
#    y 0.000000 1.792080 0.000000 
#    z -0.005840 0.000000 1.701970 
# 
# From -- ./inp_files/378118.got.cif
#   From: 2010.05.17/outbox.cif.g08.bks.cpg/sg12_190_cif.got.tgz:378118.got - 2010.06.03 13:09:07.
