data_PCOD9193110
_publ_section_title
;
Structure prediction by ZEFSAII (Michael W. Deem and Ramdas Pophale) SiO2 
 PCOD9193110
Probable space group: C 2/M
;
_chemical_formula_sum "Si O2"
_cell_formula_units_Z 44
_cell_length_a 23.657559
_cell_length_b 15.060015
_cell_length_c 19.254913
_cell_angle_alpha 90.000000
_cell_angle_beta 19.213536
_cell_angle_gamma 90.000000
_cell_volume 2257.622087
_symmetry_space_group_name_H-M "C 2/M"
_symmetry_group_IT_number 12
_symmetry_cell_setting 'monoclinic'
loop_
_space_group_symop_operation_xyz
x,y,z
-x,y,-z
-x,-y,-z
x,-y,z
1/2+x,1/2+y,z
1/2-x,1/2+y,-z
1/2-x,1/2-y,-z
1/2+x,1/2-y,z
loop_
_atom_site_type_symbol
_atom_site_label
_atom_site_fract_x
_atom_site_fract_y
_atom_site_fract_z
Si Si1 0.166838 0.000000 0.600776
Si Si2 0.747401 0.500000 0.343581
Si Si3 0.862480 0.000000 0.745973
Si Si4 0.779716 0.000000 0.007296
Si Si5 0.000000 0.347786 0.000000
Si Si6 0.365229 0.174762 0.400109
Si Si7 0.679472 0.820391 0.927069
Si Si8 0.363604 0.196114 0.811110
O O1 0.253204 0.913692 0.533693
O O2 0.960852 0.000000 0.837837
O O3 0.214211 0.000000 0.464170
O O4 0.567844 0.500000 0.511078
O O5 0.857855 0.413504 0.197461
O O6 0.810275 0.000000 0.888489
O O7 0.782453 0.912747 0.804355
O O8 0.684831 0.907610 0.133488
O O9 0.910196 0.296890 0.041277
O O10 0.250000 0.250000 0.500000
O O11 0.444254 0.203421 0.382345
O O12 0.527668 0.162753 0.159717
O O13 0.808889 0.745494 0.804714
O O14 0.250000 0.250000 0.000000
#
# Coordination Sequence:
#
# PCOD9193110 Si02
#       8
#     4   4   4   4   4   8   8   8
#     4  11  19  32  53  82 110 145 173 222 277 328
#     4  10  22  33  55  82 113 156 182 225 265 344
#     4  11  20  34  56  82 117 148 187 216 285 334
#     4  11  19  34  56  79 115 144 175 228 281 337
#     4  11  22  38  52  77 116 150 196 223 278 317
#     4  11  21  33  53  81 109 142 183 226 278 328
#     4  11  22  36  53  77 112 151 183 232 266 341
#     4  10  20  34  52  78 105 146 179 224 282 328
#
# _framework density 19.489532000000001
#
# number of rings (size 3 to 8) (size 9 to 14) (size 15 to 20)
#    0.000    1.273    5.455    4.364    2.545    1.455 
#    0.000    0.000    0.000    0.545    0.000    0.000 
#    0.000    7.273    0.000    0.000    0.000    1.091 
#
# Total GULP energy -122914.342001 kJ/mol
# GULP energy per Si atom -5587.015546 kJ/mol
# Density = 1.944517 g / cm^3
# Si number density = 19.489532 Si / 1000 Ang^3
#
#
#
# Elastic Constant Matrix: (Units=GPa)
#
#
# Indices 1 2 3 4 5 6 
#
# 1 136.1034 44.5700 29.1850 -0.0008 -50.7338 0.0010
# 2 44.5700 140.4170 30.0580 0.0042 -34.7060 0.0012
# 3 29.1850 30.0580 65.9994 0.0034 -37.7254 0.0022
# 4 -0.0008 0.0042 0.0034 23.8726 -0.0005 -21.9441
# 5 -50.7338 -34.7060 -37.7254 -0.0005 43.6713 -0.0013
# 6 0.0010 0.0012 0.0022 -21.9441 -0.0013 30.0666
#
#
#
# Elastic Compliance Matrix: (Units=1/GPa)
#
#
# Indices 1 2 3 4 5 6 
#
# 1 0.014167 -0.000538 0.006210 0.000000 0.021395 0.000000
# 2 -0.000538 0.008883 -0.000256 -0.000004 0.006213 -0.000003
# 3 0.006210 -0.000256 0.032653 -0.000014 0.035217 -0.000011
# 4 0.000000 -0.000004 -0.000014 0.127280 -0.000011 0.092895
# 5 0.021395 0.006213 0.035217 -0.000011 0.083113 -0.000008
# 6 0.000000 -0.000003 -0.000011 0.092895 -0.000008 0.101059
#
#
# Mechanical properties :
#
#
# Convention : Reuss Voigt Hill
#
# Bulk Modulus (GPa) = 15.03002 61.12731 38.07867
# Shear Modulus (GPa) = 13.20999 35.43588 24.32293
#
# Velocity S-wave (km/s) = 2.60628 4.26866 3.53654
# Velocity P-wave (km/s) = 4.09701 7.46509 6.02134
#
# Compressibility (1/GPa) = 0.06653351
#
# Stress axis : x y z
#
# Youngs Moduli (GPa) = 70.58598 112.57605 30.62526
#
# Poissons Ratio (x) = 0.06057 -0.19017
# Poissons Ratio (y) = 0.03798 0.00785
# Poissons Ratio (z) = -0.43832 0.02886
#
# Static dielectric constant tensor:
#      x y z
#    x 1.724510 0.000000 -0.002270 
#    y 0.000000 1.650740 0.000000 
#    z -0.002270 0.000000 1.705210 
# 
# From -- ./inp_files/325832.got.cif
#   From: 2010.05.17/outbox.cif.g08.bks.cpg/sg12_163_cif.got.tgz:325832.got - 2010.06.03 13:09:07.
