data_PCOD9193761
_publ_section_title
;
Structure prediction by ZEFSAII (Michael W. Deem and Ramdas Pophale) SiO2 
 PCOD9193761
Probable space group: C 2/M
;
_chemical_formula_sum "Si O2"
_cell_formula_units_Z 56
_cell_length_a 16.827260
_cell_length_b 9.242787
_cell_length_c 18.621538
_cell_angle_alpha 90.000000
_cell_angle_beta 67.223982
_cell_angle_gamma 90.000000
_cell_volume 2670.390179
_symmetry_space_group_name_H-M "C 2/M"
_symmetry_group_IT_number 12
_symmetry_cell_setting 'monoclinic'
loop_
_space_group_symop_operation_xyz
x,y,z
-x,y,-z
-x,-y,-z
x,-y,z
1/2+x,1/2+y,z
1/2-x,1/2+y,-z
1/2-x,1/2-y,-z
1/2+x,1/2-y,z
loop_
_atom_site_type_symbol
_atom_site_label
_atom_site_fract_x
_atom_site_fract_y
_atom_site_fract_z
Si Si1 0.034982 0.323799 0.323634
Si Si2 0.885274 0.667973 0.473081
Si Si3 0.250268 0.833495 0.388580
Si Si4 0.382977 0.328887 0.101122
Si Si5 0.232766 0.328496 0.256819
Si Si6 0.659427 0.169561 0.024360
Si Si7 0.500793 0.829386 0.823207
O O1 0.033700 0.500000 0.325020
O O2 0.134080 0.277666 0.289425
O O3 0.994466 0.282228 0.261142
O O4 0.977015 0.278231 0.411491
O O5 0.892338 0.500000 0.493890
O O6 0.835478 0.758359 0.550079
O O7 0.822667 0.672798 0.425093
O O8 0.277474 0.751636 0.307365
O O9 0.234127 0.000000 0.377879
O O10 0.397363 0.500000 0.085806
O O11 0.286052 0.306845 0.165617
O O12 0.443772 0.264993 0.141566
O O13 0.390498 0.242620 0.024679
O O14 0.232885 0.500000 0.271038
O O15 0.598239 0.180642 0.115275
O O16 0.673562 0.000000 0.005317
O O17 0.750000 0.250000 0.000000
O O18 0.525538 0.000000 0.819703
#
# Coordination Sequence:
#
# PCOD9193761 Si02
#       7
#     8   8   8   8   8   8   8
#     4   9  18  35  58  79 103 141 187 228 269 328
#     4   9  18  34  56  78 102 139 183 223 268 327
#     4  10  20  34  54  80 109 140 177 226 278 328
#     4  11  23  38  58  85 116 149 188 234 281 332
#     4  10  21  37  56  79 109 145 184 227 276 329
#     4  11  23  39  61  87 117 152 188 231 281 332
#     4  10  21  39  61  84 112 148 190 232 277 331
#
# _framework density 20.970718000000002
#
# number of rings (size 3 to 8) (size 9 to 14) (size 15 to 20)
#    0.000    2.000    0.000    3.429    0.000    8.571 
#    0.000    5.000    0.000    0.000    0.000    0.000 
#    0.000    0.000    0.000    0.000    0.000    0.000 
#
# Total GULP energy -156515.342652 kJ/mol
# GULP energy per Si atom -5589.833666 kJ/mol
# Density = 2.092299 g / cm^3
# Si number density = 20.970718 Si / 1000 Ang^3
#
#
#
# Elastic Constant Matrix: (Units=GPa)
#
#
# Indices 1 2 3 4 5 6 
#
# 1 62.4970 13.9633 -6.7188 0.0000 -11.3882 0.0000
# 2 13.9633 53.4970 24.4003 0.0000 -9.2604 0.0000
# 3 -6.7188 24.4003 70.4374 0.0000 -7.3965 0.0000
# 4 0.0000 0.0000 0.0000 25.3178 0.0000 3.3589
# 5 -11.3882 -9.2604 -7.3965 0.0000 34.2995 0.0000
# 6 0.0000 0.0000 0.0000 3.3589 0.0000 24.1163
#
#
#
# Elastic Compliance Matrix: (Units=1/GPa)
#
#
# Indices 1 2 3 4 5 6 
#
# 1 0.018836 -0.005980 0.004456 0.000000 0.005601 0.000000
# 2 -0.005980 0.024778 -0.008860 0.000000 0.002794 0.000000
# 3 0.004456 -0.008860 0.018003 0.000000 0.002970 0.000000
# 4 0.000000 0.000000 0.000000 0.040242 0.000000 -0.005605
# 5 0.005601 0.002794 0.002970 0.000000 0.032409 0.000000
# 6 0.000000 0.000000 0.000000 -0.005605 0.000000 0.042246
#
#
# Mechanical properties :
#
#
# Convention : Reuss Voigt Hill
#
# Bulk Modulus (GPa) = 24.47956 27.74677 26.11317
# Shear Modulus (GPa) = 23.70798 27.06581 25.38689
#
# Velocity S-wave (km/s) = 3.36598 3.59646 3.48312
# Velocity P-wave (km/s) = 5.17735 5.52322 5.35308
#
# Compressibility (1/GPa) = 0.04085041
#
# Stress axis : x y z
#
# Youngs Moduli (GPa) = 53.08881 40.35788 55.54542
#
# Poissons Ratio (x) = 0.24132 -0.24752
# Poissons Ratio (y) = 0.31745 0.49216
# Poissons Ratio (z) = -0.23658 0.35759
#
# Static dielectric constant tensor:
#      x y z
#    x 1.794670 0.000000 -0.020820 
#    y 0.000000 1.696650 0.000000 
#    z -0.020820 0.000000 1.736680 
# 
# From -- ./inp_files/274995.got.cif
#   From: 2010.05.17/outbox.cif.g08.bks.cpg/sg12_138_cif.got.tgz:274995.got - 2010.06.03 13:09:07.
