data_PCOD9193165
_publ_section_title
;
Structure prediction by ZEFSAII (Michael W. Deem and Ramdas Pophale) SiO2 
 PCOD9193165
Probable space group: C 2/M
;
_chemical_formula_sum "Si O2"
_cell_formula_units_Z 56
_cell_length_a 14.775844
_cell_length_b 8.489715
_cell_length_c 24.444031
_cell_angle_alpha 90.000000
_cell_angle_beta 97.184359
_cell_angle_gamma 90.000000
_cell_volume 3042.251264
_symmetry_space_group_name_H-M "C 2/M"
_symmetry_group_IT_number 12
_symmetry_cell_setting 'monoclinic'
loop_
_space_group_symop_operation_xyz
x,y,z
-x,y,-z
-x,-y,-z
x,-y,z
1/2+x,1/2+y,z
1/2-x,1/2+y,-z
1/2-x,1/2-y,-z
1/2+x,1/2-y,z
loop_
_atom_site_type_symbol
_atom_site_label
_atom_site_fract_x
_atom_site_fract_y
_atom_site_fract_z
Si Si1 0.475594 0.685239 0.561375
Si Si2 0.807440 0.310003 0.234839
Si Si3 0.064200 0.309560 0.855371
Si Si4 0.781735 0.684003 0.561019
Si Si5 0.853346 0.687324 0.361321
Si Si6 0.645173 0.809874 0.152098
Si Si7 0.726755 0.311304 0.938325
O O1 0.500000 0.720862 0.500000
O O2 0.452608 0.500000 0.562551
O O3 0.389167 0.786991 0.572225
O O4 0.560886 0.724801 0.605810
O O5 0.803717 0.500000 0.233782
O O6 0.884969 0.260342 0.196947
O O7 0.831608 0.260367 0.297991
O O8 0.710846 0.247037 0.205749
O O9 0.063785 0.500000 0.856798
O O10 0.129738 0.249805 0.908646
O O11 0.959474 0.255220 0.851563
O O12 0.758561 0.500000 0.562532
O O13 0.750000 0.750000 0.500000
O O14 0.730717 0.775332 0.605235
O O15 0.871042 0.500000 0.362389
O O16 0.696516 0.759268 0.100148
O O17 0.644057 0.000000 0.152618
O O18 0.725442 0.500000 0.938526
O O19 0.750000 0.250000 0.000000
#
# Coordination Sequence:
#
# PCOD9193165 Si02
#       7
#     8   8   8   8   8   8   8
#     4  11  23  39  60  85 113 146 185 228 282 342
#     4   9  20  37  57  82 111 142 181 229 278 329
#     4   9  18  36  58  79 108 146 185 228 276 326
#     4  12  24  39  60  84 111 146 185 229 280 336
#     4  11  23  39  59  86 118 150 187 231 282 345
#     4   9  19  35  57  81 109 147 189 231 277 329
#     4  10  20  34  52  80 114 149 188 230 277 327
#
# _framework density 18.407422
#
# number of rings (size 3 to 8) (size 9 to 14) (size 15 to 20)
#    0.000    1.857    1.429    2.571    0.000    4.571 
#    0.000    4.286    0.000    0.000    0.000    0.000 
#    0.000    0.000    0.000    0.000    0.000    0.000 
#
# Total GULP energy -156373.636385 kJ/mol
# GULP energy per Si atom -5584.772728 kJ/mol
# Density = 1.836553 g / cm^3
# Si number density = 18.407422 Si / 1000 Ang^3
#
#
#
# Elastic Constant Matrix: (Units=GPa)
#
#
# Indices 1 2 3 4 5 6 
#
# 1 145.9131 9.8382 68.4828 0.0000 15.0748 0.0000
# 2 9.8382 18.9711 15.0562 0.0000 3.2939 0.0000
# 3 68.4828 15.0562 156.8780 0.0000 24.6372 0.0000
# 4 0.0000 0.0000 0.0000 22.3140 0.0000 4.6886
# 5 15.0748 3.2939 24.6372 0.0000 16.9693 0.0000
# 6 0.0000 0.0000 0.0000 4.6886 0.0000 30.4893
#
#
#
# Elastic Compliance Matrix: (Units=1/GPa)
#
#
# Indices 1 2 3 4 5 6 
#
# 1 0.008765 -0.001485 -0.003246 0.000000 -0.002785 0.000000
# 2 -0.001485 0.057525 -0.004308 0.000000 -0.003591 0.000000
# 3 -0.003246 -0.004308 0.009872 0.000000 -0.010612 0.000000
# 4 0.000000 0.000000 0.000000 0.046311 0.000000 -0.007122
# 5 -0.002785 -0.003591 -0.010612 0.000000 0.077508 0.000000
# 6 0.000000 0.000000 0.000000 -0.007122 0.000000 0.033894
#
#
# Mechanical properties :
#
#
# Convention : Reuss Voigt Hill
#
# Bulk Modulus (GPa) = 17.21729 56.50183 36.85956
# Shear Modulus (GPa) = 18.42874 29.18018 23.80446
#
# Velocity S-wave (km/s) = 3.16754 3.98583 3.60001
# Velocity P-wave (km/s) = 4.76985 7.20723 6.11129
#
# Compressibility (1/GPa) = 0.05808114
#
# Stress axis : x y z
#
# Youngs Moduli (GPa) = 114.09195 17.38376 101.30092
#
# Poissons Ratio (x) = 0.02582 0.32885
# Poissons Ratio (y) = 0.16948 0.43645
# Poissons Ratio (z) = 0.37037 0.07490
#
# Static dielectric constant tensor:
#      x y z
#    x 1.623400 0.000000 -0.010340 
#    y 0.000000 1.629670 0.000000 
#    z -0.010340 0.000000 1.607460 
# 
# From -- ./inp_files/309037.got.cif
#   From: 2010.05.17/outbox.cif.g08.bks.cpg/sg12_155_cif.got.tgz:309037.got - 2010.06.03 13:09:07.
