data_PCOD9193706
_publ_section_title
;
Structure prediction by ZEFSAII (Michael W. Deem and Ramdas Pophale) SiO2 
 PCOD9193706
Probable space group: C 2/M
;
_chemical_formula_sum "Si O2"
_cell_formula_units_Z 32
_cell_length_a 7.942593
_cell_length_b 23.861290
_cell_length_c 12.316032
_cell_angle_alpha 90.000000
_cell_angle_beta 138.562488
_cell_angle_gamma 90.000000
_cell_volume 1544.740932
_symmetry_space_group_name_H-M "C 2/M"
_symmetry_group_IT_number 12
_symmetry_cell_setting 'monoclinic'
loop_
_space_group_symop_operation_xyz
x,y,z
-x,y,-z
-x,-y,-z
x,-y,z
1/2+x,1/2+y,z
1/2-x,1/2+y,-z
1/2-x,1/2-y,-z
1/2+x,1/2-y,z
loop_
_atom_site_type_symbol
_atom_site_label
_atom_site_fract_x
_atom_site_fract_y
_atom_site_fract_z
Si Si1 0.563708 0.362280 0.412579
Si Si2 0.866778 0.330628 0.262032
Si Si3 0.274468 0.436858 0.694426
Si Si4 0.396314 0.222173 0.829009
O O1 0.500000 0.388350 0.500000
O O2 0.548022 0.407440 0.309493
O O3 0.638947 0.313322 0.697332
O O4 0.847594 0.336228 0.552297
O O5 0.754767 0.392736 0.221644
O O6 0.685544 0.286130 0.234302
O O7 0.910215 0.305047 0.163549
O O8 0.346369 0.500000 0.758776
O O9 0.000000 0.439544 0.500000
O O10 0.500000 0.217869 0.000000
#
# Coordination Sequence:
#
# PCOD9193706 Si02
#       4
#     8   8   8   8
#     4   9  19  34  54  81 108 136 171 216 264 311
#     4  10  20  34  54  79 107 138 174 215 263 311
#     4   9  18  34  56  80 104 134 176 220 259 305
#     4  11  21  34  54  79 109 139 173 216 262 314
#
# _framework density 20.715447000000001
#
# number of rings (size 3 to 8) (size 9 to 14) (size 15 to 20)
#    0.000    2.250    0.000    3.000    0.000    7.500 
#    0.000    3.750    0.000    8.250    0.000    0.000 
#    0.000    0.000    0.000    0.000    0.000    0.000 
#
# Total GULP energy -89347.513792 kJ/mol
# GULP energy per Si atom -5584.219612 kJ/mol
# Density = 2.066830 g / cm^3
# Si number density = 20.715447 Si / 1000 Ang^3
#
#
#
# Elastic Constant Matrix: (Units=GPa)
#
#
# Indices 1 2 3 4 5 6 
#
# 1 93.1012 60.4697 31.6017 0.0000 -25.5778 0.0000
# 2 60.4697 184.1334 30.1816 0.0000 -22.8496 0.0000
# 3 31.6017 30.1816 46.0771 0.0000 -12.5434 0.0000
# 4 0.0000 0.0000 0.0000 -8.7567 0.0000 -17.1900
# 5 -25.5778 -22.8496 -12.5434 0.0000 23.6732 0.0000
# 6 0.0000 0.0000 0.0000 -17.1900 0.0000 19.4288
#
#
#
# Elastic Compliance Matrix: (Units=1/GPa)
#
#
# Indices 1 2 3 4 5 6 
#
# 1 0.019126 -0.003421 -0.007187 0.000000 0.013555 0.000000
# 2 -0.003421 0.007114 -0.001695 0.000000 0.002272 0.000000
# 3 -0.007187 -0.001695 0.029428 0.000000 0.006191 0.000000
# 4 0.000000 0.000000 0.000000 -0.041726 0.000000 -0.036918
# 5 0.013555 0.002272 0.006191 0.000000 0.062361 0.000000
# 6 0.000000 0.000000 0.000000 -0.036918 0.000000 0.018806
#
#
# Mechanical properties :
#
#
# Convention : Reuss Voigt Hill
#
# Bulk Modulus (GPa) = 32.19336 63.09085 47.64211
# Shear Modulus (GPa) = 38.44086 20.27296 29.35691
#
# Velocity S-wave (km/s) = 4.31241 3.13172 3.76859
# Velocity P-wave (km/s) = 6.35377 6.60295 6.47956
#
# Compressibility (1/GPa) = 0.03106230
#
# Stress axis : x y z
#
# Youngs Moduli (GPa) = 52.28351 140.56537 33.98181
#
# Poissons Ratio (x) = 0.48088 0.24422
# Poissons Ratio (y) = 0.17886 0.05760
# Poissons Ratio (z) = 0.37575 0.23827
#
# Static dielectric constant tensor:
#      x y z
#    x 1.795770 0.000000 -0.031140 
#    y 0.000000 1.728320 0.000000 
#    z -0.031140 0.000000 1.773440 
# 
# From -- ./inp_files/118310.got.cif
#   From: 2010.05.17/outbox.cif.g08.bks.cpg/sg12_60_cif.got.tgz:118310.got - 2010.06.03 13:09:07.
