data_PCOD9193417
_publ_section_title
;
Structure prediction by ZEFSAII (Michael W. Deem and Ramdas Pophale) SiO2 
 PCOD9193417
Probable space group: C 2/M
;
_chemical_formula_sum "Si O2"
_cell_formula_units_Z 56
_cell_length_a 19.167628
_cell_length_b 8.502800
_cell_length_c 19.009290
_cell_angle_alpha 90.000000
_cell_angle_beta 75.317832
_cell_angle_gamma 90.000000
_cell_volume 2996.942280
_symmetry_space_group_name_H-M "C 2/M"
_symmetry_group_IT_number 12
_symmetry_cell_setting 'monoclinic'
loop_
_space_group_symop_operation_xyz
x,y,z
-x,y,-z
-x,-y,-z
x,-y,z
1/2+x,1/2+y,z
1/2-x,1/2+y,-z
1/2-x,1/2-y,-z
1/2+x,1/2-y,z
loop_
_atom_site_type_symbol
_atom_site_label
_atom_site_fract_x
_atom_site_fract_y
_atom_site_fract_z
Si Si1 0.937476 0.809867 0.569781
Si Si2 0.652905 0.312919 0.700335
Si Si3 0.828040 0.309569 0.001276
Si Si4 0.776920 0.811424 0.568221
Si Si5 0.045598 0.690947 0.133773
Si Si6 0.116352 0.309744 0.860496
Si Si7 0.495847 0.811136 0.701640
O O1 0.858349 0.757493 0.564814
O O2 0.957177 0.751206 0.642281
O O3 0.000000 0.757372 0.500000
O O4 0.937737 0.000000 0.570337
O O5 0.652596 0.500000 0.695105
O O6 0.720901 0.245594 0.641320
O O7 0.652660 0.260850 0.781818
O O8 0.578207 0.248363 0.686355
O O9 0.828719 0.500000 0.000329
O O10 0.849091 0.260166 0.074852
O O11 0.750000 0.250000 0.000000
O O12 0.888217 0.253232 0.930226
O O13 0.750000 0.750000 0.500000
O O14 0.777252 0.000000 0.566432
O O15 0.048140 0.500000 0.132938
O O16 0.043394 0.740710 0.215892
O O17 0.968216 0.734645 0.120768
O O18 0.119920 0.500000 0.854365
O O19 0.497236 0.000000 0.700264
#
# Coordination Sequence:
#
# PCOD9193417 Si02
#       7
#     8   8   8   8   8   8   8
#     4  10  22  39  58  82 113 146 180 224 277 328
#     4  11  22  37  58  83 114 149 186 231 280 330
#     4  10  20  34  53  78 110 144 179 225 279 334
#     4  11  23  39  60  86 117 150 186 229 277 332
#     4   8  16  33  56  79 103 137 181 224 268 323
#     4   9  18  35  58  80 103 140 189 232 273 326
#     4  10  20  36  60  86 111 142 184 231 279 336
#
# _framework density 18.685711000000001
#
# number of rings (size 3 to 8) (size 9 to 14) (size 15 to 20)
#    0.000    2.143    0.000    4.286    0.000    6.000 
#    0.000    6.429    0.000    4.286    0.000    0.000 
#    0.000    0.000    0.000    0.000    0.000    0.000 
#
# Total GULP energy -156369.389759 kJ/mol
# GULP energy per Si atom -5584.621063 kJ/mol
# Density = 1.864318 g / cm^3
# Si number density = 18.685711 Si / 1000 Ang^3
#
#
#
# Elastic Constant Matrix: (Units=GPa)
#
#
# Indices 1 2 3 4 5 6 
#
# 1 172.1391 32.8214 143.8006 0.0000 5.2509 0.0000
# 2 32.8214 29.3906 33.2500 0.0000 0.2594 0.0000
# 3 143.8006 33.2500 176.0430 0.0000 -0.0241 0.0000
# 4 0.0000 0.0000 0.0000 22.8648 0.0000 7.3581
# 5 5.2509 0.2594 -0.0241 0.0000 39.3829 0.0000
# 6 0.0000 0.0000 0.0000 7.3581 0.0000 27.5941
#
#
#
# Elastic Compliance Matrix: (Units=1/GPa)
#
#
# Indices 1 2 3 4 5 6 
#
# 1 0.019011 -0.004628 -0.014655 0.000000 -0.002513 0.000000
# 2 -0.004628 0.044400 -0.004605 0.000000 0.000322 0.000000
# 3 -0.014655 -0.004605 0.018522 0.000000 0.001996 0.000000
# 4 0.000000 0.000000 0.000000 0.047841 0.000000 -0.012757
# 5 -0.002513 0.000322 0.001996 0.000000 0.025726 0.000000
# 6 0.000000 0.000000 0.000000 -0.012757 0.000000 0.039641
#
#
# Mechanical properties :
#
#
# Convention : Reuss Voigt Hill
#
# Bulk Modulus (GPa) = 29.27825 88.59075 58.93450
# Shear Modulus (GPa) = 19.66147 29.14840 24.40494
#
# Velocity S-wave (km/s) = 3.24731 3.95388 3.61789
# Velocity P-wave (km/s) = 5.45553 8.26790 7.00432
#
# Compressibility (1/GPa) = 0.03415504
#
# Stress axis : x y z
#
# Youngs Moduli (GPa) = 52.60077 22.52235 53.99039
#
# Poissons Ratio (x) = 0.10424 0.79125
# Poissons Ratio (y) = 0.24345 0.24865
# Poissons Ratio (z) = 0.77089 0.10373
#
# Static dielectric constant tensor:
#      x y z
#    x 1.617410 0.000000 -0.004980 
#    y 0.000000 1.643190 0.000000 
#    z -0.004980 0.000000 1.636390 
# 
# From -- ./inp_files/275197.got.cif
#   From: 2010.05.17/outbox.cif.g08.bks.cpg/sg12_138_cif.got.tgz:275197.got - 2010.06.03 13:09:07.
