data_PCOD9193514
_publ_section_title
;
Structure prediction by ZEFSAII (Michael W. Deem and Ramdas Pophale) SiO2 
 PCOD9193514
Probable space group: C 2/M
;
_chemical_formula_sum "Si O2"
_cell_formula_units_Z 64
_cell_length_a 15.377275
_cell_length_b 9.026903
_cell_length_c 34.062519
_cell_angle_alpha 90.000000
_cell_angle_beta 132.684170
_cell_angle_gamma 90.000000
_cell_volume 3475.701597
_symmetry_space_group_name_H-M "C 2/M"
_symmetry_group_IT_number 12
_symmetry_cell_setting 'monoclinic'
loop_
_space_group_symop_operation_xyz
x,y,z
-x,y,-z
-x,-y,-z
x,-y,z
1/2+x,1/2+y,z
1/2-x,1/2+y,-z
1/2-x,1/2-y,-z
1/2+x,1/2-y,z
loop_
_atom_site_type_symbol
_atom_site_label
_atom_site_fract_x
_atom_site_fract_y
_atom_site_fract_z
Si Si1 0.685923 0.831947 0.444739
Si Si2 0.262579 0.179143 0.257651
Si Si3 0.383795 0.821946 0.939114
Si Si4 0.691859 0.321606 0.943834
Si Si5 0.390883 0.331942 0.442374
Si Si6 0.981303 0.822199 0.665376
Si Si7 0.919665 0.178489 0.866169
Si Si8 0.720895 0.677234 0.333826
O O1 0.750000 0.750000 0.500000
O O2 0.783957 0.839884 0.440532
O O3 0.578212 0.742444 0.392429
O O4 0.651209 0.000000 0.444760
O O5 0.389715 0.253106 0.290034
O O6 0.170080 0.223007 0.195664
O O7 0.215358 0.220215 0.286596
O O8 0.275409 0.000000 0.260697
O O9 0.269674 0.780824 0.929883
O O10 0.385972 0.746772 0.897621
O O11 0.386089 0.000000 0.934975
O O12 0.500000 0.780555 0.000000
O O13 0.698040 0.500000 0.949721
O O14 0.555043 0.278123 0.898458
O O15 0.750000 0.250000 0.000000
O O16 0.500000 0.264498 0.500000
O O17 0.425041 0.500000 0.441134
O O18 0.337952 0.245220 0.389543
O O19 0.893215 0.781003 0.674639
O O20 0.986881 0.000000 0.664954
O O21 0.916530 0.000000 0.867955
O O22 0.729499 0.500000 0.338645
#
# Coordination Sequence:
#
# PCOD9193514 Si02
#       8
#     8   8   8   8   8   8   8   8
#     4  10  20  34  53  80 114 147 180 229 286 341
#     4  10  22  40  59  82 113 150 192 235 282 334
#     4  10  20  35  57  86 119 152 187 234 284 330
#     4  10  20  35  57  84 116 154 188 230 283 334
#     4   9  19  34  52  78 110 141 175 225 281 332
#     4  10  21  38  59  83 110 147 192 235 285 342
#     4  10  22  38  57  84 116 152 193 232 277 339
#     4   9  20  38  58  80 108 145 187 232 280 337
#
# _framework density 18.413547999999999
#
# number of rings (size 3 to 8) (size 9 to 14) (size 15 to 20)
#    0.000    2.250    1.250    0.750    1.750    4.000 
#    0.000    2.500    0.000    0.000    0.000    0.000 
#    0.000    0.000    0.000    0.000    0.000    0.000 
#
# Total GULP energy -178593.181091 kJ/mol
# GULP energy per Si atom -5581.036909 kJ/mol
# Density = 1.837164 g / cm^3
# Si number density = 18.413548 Si / 1000 Ang^3
#
#
#
# Elastic Constant Matrix: (Units=GPa)
#
#
# Indices 1 2 3 4 5 6 
#
# 1 127.1870 42.1953 98.1471 0.0000 2.1887 0.0000
# 2 42.1953 32.7993 55.2558 0.0000 -0.3650 0.0000
# 3 98.1471 55.2558 207.0539 0.0000 1.0500 0.0000
# 4 0.0000 0.0000 0.0000 29.7818 0.0000 0.8017
# 5 2.1887 -0.3650 1.0500 0.0000 34.4421 0.0000
# 6 0.0000 0.0000 0.0000 0.8017 0.0000 22.5559
#
#
#
# Elastic Compliance Matrix: (Units=1/GPa)
#
#
# Indices 1 2 3 4 5 6 
#
# 1 0.015076 -0.013400 -0.003566 0.000000 -0.000991 0.000000
# 2 -0.013400 0.067338 -0.011628 0.000000 0.001920 0.000000
# 3 -0.003566 -0.011628 0.009624 0.000000 -0.000190 0.000000
# 4 0.000000 0.000000 0.000000 0.033610 0.000000 -0.001195
# 5 -0.000991 0.001920 -0.000190 0.000000 0.029123 0.000000
# 6 0.000000 0.000000 0.000000 -0.001195 0.000000 0.044377
#
#
# Mechanical properties :
#
#
# Convention : Reuss Voigt Hill
#
# Bulk Modulus (GPa) = 28.69337 84.24854 56.47095
# Shear Modulus (GPa) = 18.66006 28.78541 23.72273
#
# Velocity S-wave (km/s) = 3.18683 3.95811 3.59323
# Velocity P-wave (km/s) = 5.39979 8.16956 6.92458
#
# Compressibility (1/GPa) = 0.03485126
#
# Stress axis : x y z
#
# Youngs Moduli (GPa) = 66.32914 14.85049 103.90737
#
# Poissons Ratio (x) = 0.19899 0.37048
# Poissons Ratio (y) = 0.88878 1.20827
# Poissons Ratio (z) = 0.23650 0.17269
#
# Static dielectric constant tensor:
#      x y z
#    x 1.637980 0.000000 0.003980 
#    y 0.000000 1.635990 0.000000 
#    z 0.003980 0.000000 1.604120 
# 
# From -- ./inp_files/375572.got.cif
#   From: 2010.05.17/outbox.cif.g08.bks.cpg/sg12_188_cif.got.tgz:375572.got - 2010.06.03 13:09:07.
