data_PCOD9193550
_publ_section_title
;
Structure prediction by ZEFSAII (Michael W. Deem and Ramdas Pophale) SiO2 
 PCOD9193550
Probable space group: C 2/M
;
_chemical_formula_sum "Si O2"
_cell_formula_units_Z 64
_cell_length_a 33.957512
_cell_length_b 8.838925
_cell_length_c 15.717964
_cell_angle_alpha 90.000000
_cell_angle_beta 134.575227
_cell_angle_gamma 90.000000
_cell_volume 3360.567122
_symmetry_space_group_name_H-M "C 2/M"
_symmetry_group_IT_number 12
_symmetry_cell_setting 'monoclinic'
loop_
_space_group_symop_operation_xyz
x,y,z
-x,y,-z
-x,-y,-z
x,-y,z
1/2+x,1/2+y,z
1/2-x,1/2+y,-z
1/2-x,1/2-y,-z
1/2+x,1/2-y,z
loop_
_atom_site_type_symbol
_atom_site_label
_atom_site_fract_x
_atom_site_fract_y
_atom_site_fract_z
Si Si1 0.428010 0.677984 0.339781
Si Si2 0.891949 0.816571 0.630409
Si Si3 0.964936 0.815713 0.581430
Si Si4 0.937340 0.316777 0.876845
Si Si5 0.769879 0.681613 0.440706
Si Si6 0.670856 0.179990 0.181770
Si Si7 0.319599 0.835920 0.160703
Si Si8 0.271613 0.167586 0.898510
O O1 0.437616 0.500000 0.359221
O O2 0.471668 0.734843 0.336030
O O3 0.438424 0.734724 0.451503
O O4 0.366058 0.711767 0.223622
O O5 0.932486 0.766215 0.615394
O O6 0.916835 0.755817 0.757101
O O7 0.830992 0.750050 0.519498
O O8 0.888545 0.000000 0.628396
O O9 0.962856 0.000000 0.582051
O O10 0.937437 0.500000 0.868312
O O11 0.889053 0.275882 0.871959
O O12 0.000000 0.272565 0.000000
O O13 0.772753 0.500000 0.448157
O O14 0.750000 0.750000 0.500000
O O15 0.722332 0.734776 0.303309
O O16 0.680231 0.202164 0.095249
O O17 0.676701 0.000000 0.208624
O O18 0.276572 0.790085 0.168499
O O19 0.344289 0.000000 0.216323
O O20 0.292170 0.842274 0.026357
O O21 0.249363 0.000000 0.841437
#
# Coordination Sequence:
#
# PCOD9193550 Si02
#       8
#     8   8   8   8   8   8   8   8
#     4   9  17  35  58  78 106 149 191 227 273 335
#     4  11  22  38  60  88 118 152 194 241 289 344
#     4   8  18  35  56  81 109 145 191 229 270 335
#     4  10  22  40  61  85 115 152 194 239 289 346
#     4  12  24  39  60  88 120 154 189 240 294 344
#     4  10  21  39  61  84 113 153 199 239 285 348
#     4  10  20  34  53  82 114 143 184 238 285 329
#     4   9  20  37  55  76 108 152 192 227 277 340
#
# _framework density 19.044405000000001
#
# number of rings (size 3 to 8) (size 9 to 14) (size 15 to 20)
#    0.000    2.125    1.250    2.625    1.750    2.250 
#    0.000    4.375    0.000    0.000    0.000    0.000 
#    0.000    0.000    0.000    0.000    0.000    0.000 
#
# Total GULP energy -178257.511794 kJ/mol
# GULP energy per Si atom -5570.547244 kJ/mol
# Density = 1.900106 g / cm^3
# Si number density = 19.044405 Si / 1000 Ang^3
#
#
#
# Elastic Constant Matrix: (Units=GPa)
#
#
# Indices 1 2 3 4 5 6 
#
# 1 188.0154 41.4447 48.7372 0.0000 -0.3731 0.0000
# 2 41.4447 37.8239 26.2368 0.0000 1.6110 0.0000
# 3 48.7372 26.2368 52.7200 0.0000 17.8478 0.0000
# 4 0.0000 0.0000 0.0000 25.5164 0.0000 -2.3502
# 5 -0.3731 1.6110 17.8478 0.0000 25.9420 0.0000
# 6 0.0000 0.0000 0.0000 -2.3502 0.0000 12.2882
#
#
#
# Elastic Compliance Matrix: (Units=1/GPa)
#
#
# Indices 1 2 3 4 5 6 
#
# 1 0.008120 -0.004049 -0.007321 0.000000 0.005405 0.000000
# 2 -0.004049 0.047247 -0.024453 0.000000 0.013831 0.000000
# 3 -0.007321 -0.024453 0.048791 0.000000 -0.032155 0.000000
# 4 0.000000 0.000000 0.000000 0.039893 0.000000 0.007630
# 5 0.005405 0.013831 -0.032155 0.000000 0.059888 0.000000
# 6 0.000000 0.000000 0.000000 0.007630 0.000000 0.082838
#
#
# Mechanical properties :
#
#
# Convention : Reuss Voigt Hill
#
# Bulk Modulus (GPa) = 30.75714 56.82185 43.78950
# Shear Modulus (GPa) = 13.54056 23.55871 18.54963
#
# Velocity S-wave (km/s) = 2.66935 3.52097 3.12432
# Velocity P-wave (km/s) = 5.06812 6.81403 6.00487
#
# Compressibility (1/GPa) = 0.03251277
#
# Stress axis : x y z
#
# Youngs Moduli (GPa) = 123.15684 21.16515 20.49551
#
# Poissons Ratio (x) = 0.08569 0.15005
# Poissons Ratio (y) = 0.49864 0.50117
# Poissons Ratio (z) = 0.90166 0.51755
#
# Static dielectric constant tensor:
#      x y z
#    x 1.672630 0.000000 0.009770 
#    y 0.000000 1.683950 0.000000 
#    z 0.009770 0.000000 1.687220 
# 
# From -- ./inp_files/249997.got.cif
#   From: 2010.05.17/outbox.cif.g08.bks.cpg/sg12_125_cif.got.tgz:249997.got - 2010.06.03 13:09:07.
