data_PCOD9193224
_publ_section_title
;
Structure prediction by ZEFSAII (Michael W. Deem and Ramdas Pophale) SiO2 
 PCOD9193224
Probable space group: C 2/M
;
_chemical_formula_sum "Si O2"
_cell_formula_units_Z 56
_cell_length_a 18.561623
_cell_length_b 7.845246
_cell_length_c 19.516527
_cell_angle_alpha 90.000000
_cell_angle_beta 103.931699
_cell_angle_gamma 90.000000
_cell_volume 2758.404302
_symmetry_space_group_name_H-M "C 2/M"
_symmetry_group_IT_number 12
_symmetry_cell_setting 'monoclinic'
loop_
_space_group_symop_operation_xyz
x,y,z
-x,y,-z
-x,-y,-z
x,-y,z
1/2+x,1/2+y,z
1/2-x,1/2+y,-z
1/2-x,1/2-y,-z
1/2+x,1/2-y,z
loop_
_atom_site_type_symbol
_atom_site_label
_atom_site_fract_x
_atom_site_fract_y
_atom_site_fract_z
Si Si1 0.239385 0.794357 0.290517
Si Si2 0.379190 0.295762 0.847186
Si Si3 0.093539 0.205406 0.710263
Si Si4 0.955229 0.204358 0.152156
Si Si5 0.524937 0.291213 0.430047
Si Si6 0.189932 0.794653 0.428919
Si Si7 0.917511 0.297259 0.999656
O O1 0.183793 0.730980 0.218523
O O2 0.323766 0.749658 0.293479
O O3 0.214608 0.731304 0.359733
O O4 0.233901 0.000000 0.290347
O O5 0.381537 0.500000 0.841064
O O6 0.461184 0.229813 0.844375
O O7 0.366899 0.257146 0.924539
O O8 0.074827 0.269380 0.782341
O O9 0.033432 0.265569 0.640889
O O10 0.087979 0.000000 0.710670
O O11 0.904325 0.243336 0.074605
O O12 0.960450 0.000000 0.158114
O O13 0.500000 0.237028 0.500000
O O14 0.524997 0.500000 0.429952
O O15 0.608001 0.234077 0.431050
O O16 0.250000 0.750000 0.500000
O O17 0.186077 0.000000 0.424201
O O18 0.920839 0.500000 0.999536
O O19 0.000000 0.226457 0.000000
#
# Coordination Sequence:
#
# PCOD9193224 Si02
#       7
#     8   8   8   8   8   8   8
#     4  10  21  35  51  74 105 137 167 206 256 303
#     4   9  17  32  53  74  99 133 171 209 252 303
#     4  10  20  34  53  76 101 133 174 213 249 297
#     4   9  17  31  52  75  98 129 171 213 251 298
#     4   9  17  31  53  78 102 131 168 208 247 290
#     4  10  20  35  55  79 106 135 169 208 251 299
#     4   9  17  29  48  76 105 130 162 208 259 306
#
# _framework density 20.301590999999998
#
# number of rings (size 3 to 8) (size 9 to 14) (size 15 to 20)
#    0.000    2.571    0.000    2.143    0.000    8.000 
#    0.000    1.429    0.000    6.000    0.000    0.000 
#    0.000    0.000    0.000    0.000    0.000    0.000 
#
# Total GULP energy -156253.705403 kJ/mol
# GULP energy per Si atom -5580.489479 kJ/mol
# Density = 2.025538 g / cm^3
# Si number density = 20.301591 Si / 1000 Ang^3
#
#
#
# Elastic Constant Matrix: (Units=GPa)
#
#
# Indices 1 2 3 4 5 6 
#
# 1 149.4760 4.4403 122.8720 0.0000 -2.8572 0.0000
# 2 4.4403 23.0533 9.6939 0.0000 -1.1425 0.0000
# 3 122.8720 9.6939 254.2731 0.0000 -4.8738 0.0000
# 4 0.0000 0.0000 0.0000 8.9438 0.0000 0.9843
# 5 -2.8572 -1.1425 -4.8738 0.0000 33.0541 0.0000
# 6 0.0000 0.0000 0.0000 0.9843 0.0000 20.7004
#
#
#
# Elastic Compliance Matrix: (Units=1/GPa)
#
#
# Indices 1 2 3 4 5 6 
#
# 1 0.011100 0.000127 -0.005365 0.000000 0.000173 0.000000
# 2 0.000127 0.044140 -0.001719 0.000000 0.001283 0.000000
# 3 -0.005365 -0.001719 0.006600 0.000000 0.000450 0.000000
# 4 0.000000 0.000000 0.000000 0.112397 0.000000 -0.005345
# 5 0.000173 0.001283 0.000450 0.000000 0.030379 0.000000
# 6 0.000000 0.000000 0.000000 -0.005345 0.000000 0.048562
#
#
# Mechanical properties :
#
#
# Convention : Reuss Voigt Hill
#
# Bulk Modulus (GPa) = 20.86659 77.86828 49.36744
# Shear Modulus (GPa) = 17.66356 31.85941 24.76149
#
# Velocity S-wave (km/s) = 2.95287 3.96574 3.49618
# Velocity P-wave (km/s) = 4.68258 7.70769 6.37711
#
# Compressibility (1/GPa) = 0.04792350
#
# Stress axis : x y z
#
# Youngs Moduli (GPa) = 90.09017 22.65520 151.52333
#
# Poissons Ratio (x) = -0.00287 0.81298
# Poissons Ratio (y) = -0.01142 0.26053
# Poissons Ratio (z) = 0.48337 0.03895
#
# Static dielectric constant tensor:
#      x y z
#    x 1.692800 0.000000 -0.007670 
#    y 0.000000 1.745780 0.000000 
#    z -0.007670 0.000000 1.727160 
# 
# From -- ./inp_files/275658.got.cif
#   From: 2010.05.17/outbox.cif.g08.bks.cpg/sg12_138_cif.got.tgz:275658.got - 2010.06.03 13:09:07.
