data_PCOD9193549
_publ_section_title
;
Structure prediction by ZEFSAII (Michael W. Deem and Ramdas Pophale) SiO2 
 PCOD9193549
Probable space group: C 2/M
;
_chemical_formula_sum "Si O2"
_cell_formula_units_Z 56
_cell_length_a 16.764097
_cell_length_b 19.695340
_cell_length_c 21.246985
_cell_angle_alpha 90.000000
_cell_angle_beta 154.403388
_cell_angle_gamma 90.000000
_cell_volume 3030.800133
_symmetry_space_group_name_H-M "C 2/M"
_symmetry_group_IT_number 12
_symmetry_cell_setting 'monoclinic'
loop_
_space_group_symop_operation_xyz
x,y,z
-x,y,-z
-x,-y,-z
x,-y,z
1/2+x,1/2+y,z
1/2-x,1/2+y,-z
1/2-x,1/2-y,-z
1/2+x,1/2-y,z
loop_
_atom_site_type_symbol
_atom_site_label
_atom_site_fract_x
_atom_site_fract_y
_atom_site_fract_z
Si Si1 0.290168 0.000000 0.245003
Si Si2 0.005540 0.778305 0.357165
Si Si3 0.605410 0.146096 0.641749
Si Si4 0.226827 0.627546 0.974600
Si Si5 0.872186 0.700646 0.677173
Si Si6 0.395868 0.500000 0.024775
Si Si7 0.039488 0.220265 0.142776
Si Si8 0.855359 0.344041 0.942369
O O1 0.401071 0.070205 0.334466
O O2 0.202123 0.000000 0.113026
O O3 0.115529 0.000000 0.168882
O O4 0.974805 0.707358 0.372718
O O5 0.824200 0.823431 0.224581
O O6 0.052723 0.755310 0.319815
O O7 0.175611 0.818793 0.508590
O O8 0.500000 0.145995 0.500000
O O9 0.822221 0.165591 0.787998
O O10 0.324030 0.563939 0.012451
O O11 0.030891 0.645424 0.802523
O O12 0.368425 0.688024 0.058524
O O13 0.196110 0.622128 0.027606
O O14 0.843628 0.736983 0.723590
O O15 0.953203 0.273355 0.033032
O O16 0.000000 0.381344 0.000000
#
# Coordination Sequence:
#
# PCOD9193549 Si02
#       8
#     4   8   8   8   8   4   8   8
#     4  11  25  38  58  84 115 161 207 228 273 353
#     4  11  20  32  55  84 116 147 192 234 287 348
#     4  12  23  36  54  84 127 159 190 233 286 343
#     4  11  21  40  56  81 116 151 197 243 292 347
#     4  10  20  34  53  82 112 154 184 240 298 335
#     4  11  24  40  63  80 107 162 204 243 279 351
#     4  11  19  34  57  81 118 154 188 236 291 345
#     4  11  21  33  59  89 113 146 189 247 298 345
#
# _framework density 18.476967999999999
#
# number of rings (size 3 to 8) (size 9 to 14) (size 15 to 20)
#    0.000    1.000    7.143    1.929    0.000    0.000 
#    0.000    0.357    0.000    0.000    0.000    1.000 
#    0.000    0.000    0.000    0.000    0.000    0.000 
#
# Total GULP energy -156262.743244 kJ/mol
# GULP energy per Si atom -5580.812259 kJ/mol
# Density = 1.843491 g / cm^3
# Si number density = 18.476968 Si / 1000 Ang^3
#
#
#
# Elastic Constant Matrix: (Units=GPa)
#
#
# Indices 1 2 3 4 5 6 
#
# 1 80.8739 8.6249 10.5015 -0.0145 -0.3185 -0.0043
# 2 8.6249 38.9673 7.6643 0.0050 -2.2083 0.0046
# 3 10.5015 7.6643 95.2488 0.0100 4.5000 0.0041
# 4 -0.0145 0.0050 0.0100 12.7732 0.0102 4.3223
# 5 -0.3185 -2.2083 4.5000 0.0102 27.4746 -0.0033
# 6 -0.0043 0.0046 0.0041 4.3223 -0.0033 23.2755
#
#
#
# Elastic Compliance Matrix: (Units=1/GPa)
#
#
# Indices 1 2 3 4 5 6 
#
# 1 0.012798 -0.002587 -0.001209 0.000016 0.000139 0.000000
# 2 -0.002587 0.026764 -0.001984 -0.000013 0.002446 -0.000003
# 3 -0.001209 -0.001984 0.010884 -0.000007 -0.001956 -0.000001
# 4 0.000016 -0.000013 -0.000007 0.083539 -0.000032 -0.015513
# 5 0.000139 0.002446 -0.001956 -0.000032 0.036916 0.000011
# 6 0.000000 -0.000003 -0.000001 -0.015513 0.000011 0.045844
#
#
# Mechanical properties :
#
#
# Convention : Reuss Voigt Hill
#
# Bulk Modulus (GPa) = 25.71634 29.85240 27.78437
# Shear Modulus (GPa) = 20.72380 25.25793 22.99087
#
# Velocity S-wave (km/s) = 3.35267 3.70130 3.53129
# Velocity P-wave (km/s) = 5.37917 5.87008 5.62997
#
# Compressibility (1/GPa) = 0.03888578
#
# Stress axis : x y z
#
# Youngs Moduli (GPa) = 78.13459 37.36367 91.87608
#
# Poissons Ratio (x) = 0.09666 0.11112
# Poissons Ratio (y) = 0.20214 0.18228
# Poissons Ratio (z) = 0.09450 0.07413
#
# Static dielectric constant tensor:
#      x y z
#    x 1.665510 0.000000 0.015200 
#    y 0.000000 1.640400 0.000000 
#    z 0.015200 0.000000 1.645460 
# 
# From -- ./inp_files/272444.got.cif
#   From: 2010.05.17/outbox.cif.g08.bks.cpg/sg12_137_cif.got.tgz:272444.got - 2010.06.03 13:09:07.
