data_PCOD9193852
_publ_section_title
;
Structure prediction by ZEFSAII (Michael W. Deem and Ramdas Pophale) SiO2 
 PCOD9193852
Probable space group: C 2/M
;
_chemical_formula_sum "Si O2"
_cell_formula_units_Z 64
_cell_length_a 21.153469
_cell_length_b 8.462167
_cell_length_c 25.741031
_cell_angle_alpha 90.000000
_cell_angle_beta 51.057543
_cell_angle_gamma 90.000000
_cell_volume 3583.806576
_symmetry_space_group_name_H-M "C 2/M"
_symmetry_group_IT_number 12
_symmetry_cell_setting 'monoclinic'
loop_
_space_group_symop_operation_xyz
x,y,z
-x,y,-z
-x,-y,-z
x,-y,z
1/2+x,1/2+y,z
1/2-x,1/2+y,-z
1/2-x,1/2-y,-z
1/2+x,1/2-y,z
loop_
_atom_site_type_symbol
_atom_site_label
_atom_site_fract_x
_atom_site_fract_y
_atom_site_fract_z
Si Si1 0.269323 0.690951 0.571520
Si Si2 0.629180 0.692030 0.924135
Si Si3 0.466637 0.811539 0.209268
Si Si4 0.621693 0.691023 0.577356
Si Si5 0.534940 0.688537 0.282523
Si Si6 0.778616 0.691042 0.291236
Si Si7 0.713232 0.188756 0.215607
Si Si8 0.979639 0.808924 0.926453
O O1 0.266892 0.500000 0.572351
O O2 0.344593 0.742100 0.496392
O O3 0.188124 0.750741 0.584737
O O4 0.267474 0.741446 0.632280
O O5 0.629806 0.500000 0.924783
O O6 0.717105 0.748150 0.860315
O O7 0.561549 0.735640 0.915928
O O8 0.594735 0.741700 0.997945
O O9 0.502992 0.736194 0.242243
O O10 0.373014 0.760116 0.248541
O O11 0.516393 0.764169 0.132336
O O12 0.466611 0.000000 0.215659
O O13 0.621942 0.500000 0.577992
O O14 0.533067 0.745923 0.641019
O O15 0.538445 0.500000 0.284104
O O16 0.623882 0.753958 0.247643
O O17 0.776793 0.500000 0.289261
O O18 0.739937 0.757733 0.259110
O O19 0.714467 0.000000 0.213126
O O20 0.978730 0.000000 0.922657
#
# Coordination Sequence:
#
# PCOD9193852 Si02
#       8
#     8   8   8   8   8   8   8   8
#     4   9  17  32  54  80 108 138 174 222 270 312
#     4   8  16  31  54  80 106 138 177 219 267 320
#     4  11  21  34  54  84 113 140 178 223 266 316
#     4   9  18  32  53  79 106 139 180 220 265 318
#     4  11  23  38  55  78 110 147 183 221 269 323
#     4  10  20  34  54  81 112 141 175 220 269 318
#     4  11  22  37  57  80 108 144 183 222 267 321
#     4   9  16  32  56  81 107 137 175 221 271 318
#
# _framework density 17.858107
#
# number of rings (size 3 to 8) (size 9 to 14) (size 15 to 20)
#    0.000    2.250    2.500    1.875    0.000    1.500 
#    0.000    3.750    0.000    3.750    0.000    0.000 
#    0.000    0.000    0.000    0.000    0.000    0.000 
#
# Total GULP energy -178497.251951 kJ/mol
# GULP energy per Si atom -5578.039123 kJ/mol
# Density = 1.781746 g / cm^3
# Si number density = 17.858107 Si / 1000 Ang^3
#
#
#
# Elastic Constant Matrix: (Units=GPa)
#
#
# Indices 1 2 3 4 5 6 
#
# 1 105.8665 19.1722 76.8470 -0.0001 -11.7976 0.0000
# 2 19.1722 14.8212 22.4046 0.0000 -2.0816 -0.0005
# 3 76.8470 22.4046 179.4517 0.0000 -12.8155 -0.0001
# 4 -0.0001 0.0000 0.0000 18.9214 0.0000 1.2325
# 5 -11.7976 -2.0816 -12.8155 0.0000 25.0119 -0.0001
# 6 0.0000 -0.0005 -0.0001 1.2325 -0.0001 28.1982
#
#
#
# Elastic Compliance Matrix: (Units=1/GPa)
#
#
# Indices 1 2 3 4 5 6 
#
# 1 0.015657 -0.012317 -0.004892 0.000000 0.003853 0.000000
# 2 -0.012317 0.092923 -0.006425 0.000000 -0.001368 0.000002
# 3 -0.004892 -0.006425 0.008580 0.000000 0.001554 0.000000
# 4 0.000000 0.000000 0.000000 0.053001 0.000000 -0.002317
# 5 0.003853 -0.001368 0.001554 0.000000 0.042481 0.000000
# 6 0.000000 0.000002 0.000000 -0.002317 0.000000 0.035565
#
#
# Mechanical properties :
#
#
# Convention : Reuss Voigt Hill
#
# Bulk Modulus (GPa) = 14.30744 59.66520 36.98632
# Shear Modulus (GPa) = 15.68519 26.54067 21.11293
#
# Velocity S-wave (km/s) = 2.96687 3.85931 3.44213
# Velocity P-wave (km/s) = 4.44584 7.30358 6.04598
#
# Compressibility (1/GPa) = 0.06989368
#
# Stress axis : x y z
#
# Youngs Moduli (GPa) = 63.87035 10.76155 116.54404
#
# Poissons Ratio (x) = 0.13255 0.57010
# Poissons Ratio (y) = 0.78670 0.74875
# Poissons Ratio (z) = 0.31244 0.06914
#
# Static dielectric constant tensor:
#      x y z
#    x 1.562290 0.000000 -0.015030 
#    y 0.000000 1.613270 0.000000 
#    z -0.015030 0.000000 1.653590 
# 
# From -- ./inp_files/345964.got.cif
#   From: 2010.05.17/outbox.cif.g08.bks.cpg/sg12_173_cif.got.tgz:345964.got - 2010.06.03 13:09:07.
