data_PCOD9193850
_publ_section_title
;
Structure prediction by ZEFSAII (Michael W. Deem and Ramdas Pophale) SiO2 
 PCOD9193850
Probable space group: C 2/M
;
_chemical_formula_sum "Si O2"
_cell_formula_units_Z 58
_cell_length_a 30.112780
_cell_length_b 7.277313
_cell_length_c 9.719240
_cell_angle_alpha 90.000000
_cell_angle_beta 92.050410
_cell_angle_gamma 90.000000
_cell_volume 2128.511787
_symmetry_space_group_name_H-M "C 2/M"
_symmetry_group_IT_number 12
_symmetry_cell_setting 'monoclinic'
loop_
_space_group_symop_operation_xyz
x,y,z
-x,y,-z
-x,-y,-z
x,-y,z
1/2+x,1/2+y,z
1/2-x,1/2+y,-z
1/2-x,1/2-y,-z
1/2+x,1/2-y,z
loop_
_atom_site_type_symbol
_atom_site_label
_atom_site_fract_x
_atom_site_fract_y
_atom_site_fract_z
Si Si1 0.197587 0.792681 0.775210
Si Si2 0.113721 0.213047 0.087082
Si Si3 0.086213 0.778954 0.384348
Si Si4 0.791598 0.721950 0.820651
Si Si5 0.000000 0.500000 0.000000
Si Si6 0.400963 0.723966 0.208225
Si Si7 0.503875 0.275770 0.738856
Si Si8 0.681292 0.788551 0.479227
O O1 0.242007 0.708498 0.843824
O O2 0.148870 0.706019 0.775389
O O3 0.204678 0.802380 0.611085
O O4 0.194311 0.000000 0.827806
O O5 0.101407 0.289701 0.233654
O O6 0.167114 0.227154 0.078845
O O7 0.101566 0.000000 0.091855
O O8 0.090536 0.286969 0.948800
O O9 0.127343 0.721415 0.483903
O O10 0.034342 0.731706 0.376385
O O11 0.088157 0.000000 0.392360
O O12 0.790041 0.500000 0.818883
O O13 0.805717 0.786404 0.668990
O O14 0.005165 0.661691 0.123303
O O15 0.398057 0.500000 0.214931
O O16 0.445154 0.770558 0.296356
O O17 0.502136 0.500000 0.761813
O O18 0.694047 0.000000 0.484519
#
# Coordination Sequence:
#
# PCOD9193850 Si02
#       8
#     8   8   8   8   2   8   8   8
#     4  10  20  36  57  76 104 149 193 229 278 344
#     4   9  17  31  52  78 107 140 177 222 279 337
#     4   9  18  34  58  81 108 145 184 231 282 335
#     4   9  19  34  52  79 109 139 181 235 286 335
#     4  12  22  32  60  90 114 156 194 236 288 328
#     4   9  19  37  56  77 111 151 189 228 274 340
#     4  10  21  38  57  85 121 154 194 237 285 343
#     4  10  20  34  54  81 112 139 180 244 294 330
#
# _framework density 27.249082999999999
#
# number of rings (size 3 to 8) (size 9 to 14) (size 15 to 20)
#    0.000    2.483    0.000    1.862    0.966    3.862 
#    7.448    0.690    0.000    4.138    0.000    0.000 
#    0.000    0.000    0.000    0.000    0.000    0.000 
#
# Total GULP energy -161855.028017 kJ/mol
# GULP energy per Si atom -5581.207863 kJ/mol
# Density = 2.718706 g / cm^3
# Si number density = 27.249083 Si / 1000 Ang^3
#
#
#
# Elastic Constant Matrix: (Units=GPa)
#
#
# Indices 1 2 3 4 5 6 
#
# 1 195.5325 -10.5183 37.0302 0.0000 32.1909 0.0000
# 2 -10.5183 137.6476 -0.5991 0.0000 -3.2074 0.0000
# 3 37.0302 -0.5991 91.7120 0.0000 31.6406 0.0000
# 4 0.0000 0.0000 0.0000 8.8769 0.0000 8.1450
# 5 32.1909 -3.2074 31.6406 0.0000 44.4019 0.0000
# 6 0.0000 0.0000 0.0000 8.1450 0.0000 5.5686
#
#
#
# Elastic Compliance Matrix: (Units=1/GPa)
#
#
# Indices 1 2 3 4 5 6 
#
# 1 0.005924 0.000368 -0.001216 0.000000 -0.003402 0.000000
# 2 0.000368 0.007302 -0.000253 0.000000 0.000441 0.000000
# 3 -0.001216 -0.000253 0.014712 0.000000 -0.009620 0.000000
# 4 0.000000 0.000000 0.000000 -0.329333 0.000000 0.481700
# 5 -0.003402 0.000441 -0.009620 0.000000 0.031875 0.000000
# 6 0.000000 0.000000 0.000000 0.481700 0.000000 -0.524984
#
#
# Mechanical properties :
#
#
# Convention : Reuss Voigt Hill
#
# Bulk Modulus (GPa) = 38.85466 52.96864 45.91165
# Shear Modulus (GPa) = -6.37982 38.36810 15.99414
#
# Velocity S-wave (km/s) = -1.53179 3.75647 2.42536
# Velocity P-wave (km/s) = 3.34089 6.18835 4.97278
#
# Compressibility (1/GPa) = 0.02573694
#
# Stress axis : x y z
#
# Youngs Moduli (GPa) = 168.79314 136.94441 67.97144
#
# Poissons Ratio (x) = -0.05042 0.08265
# Poissons Ratio (y) = -0.06214 0.01720
# Poissons Ratio (z) = 0.20525 0.03466
#
# Static dielectric constant tensor:
#      x y z
#    x 2.212830 0.000000 -0.082470 
#    y 0.000000 2.091620 0.000000 
#    z -0.082470 0.000000 2.092250 
# 
# From -- ./inp_files/186709.got.cif
#   From: 2010.05.17/outbox.cif.g08.bks.cpg/sg12_94_cif.got.tgz:186709.got - 2010.06.03 13:09:07.
