data_PCOD9193111
_publ_section_title
;
Structure prediction by ZEFSAII (Michael W. Deem and Ramdas Pophale) SiO2 
 PCOD9193111
Probable space group: C 2/M
;
_chemical_formula_sum "Si O2"
_cell_formula_units_Z 64
_cell_length_a 14.543291
_cell_length_b 9.138027
_cell_length_c 23.028508
_cell_angle_alpha 90.000000
_cell_angle_beta 88.425401
_cell_angle_gamma 90.000000
_cell_volume 3059.263673
_symmetry_space_group_name_H-M "C 2/M"
_symmetry_group_IT_number 12
_symmetry_cell_setting 'monoclinic'
loop_
_space_group_symop_operation_xyz
x,y,z
-x,y,-z
-x,-y,-z
x,-y,z
1/2+x,1/2+y,z
1/2-x,1/2+y,-z
1/2-x,1/2-y,-z
1/2+x,1/2-y,z
loop_
_atom_site_type_symbol
_atom_site_label
_atom_site_fract_x
_atom_site_fract_y
_atom_site_fract_z
Si Si1 0.358305 0.676242 0.696061
Si Si2 0.211760 0.673792 0.613033
Si Si3 0.945478 0.833094 0.326516
Si Si4 0.435720 0.677249 0.136685
Si Si5 0.424171 0.334323 0.458690
Si Si6 0.236722 0.829325 0.793524
Si Si7 0.124611 0.669783 0.103531
Si Si8 0.110892 0.166132 0.988264
O O1 0.361588 0.500000 0.697114
O O2 0.311599 0.718551 0.635182
O O3 0.462822 0.726683 0.704185
O O4 0.292784 0.734798 0.747140
O O5 0.207507 0.500000 0.607375
O O6 0.142402 0.729715 0.665510
O O7 0.169002 0.748825 0.556483
O O8 0.971486 0.845550 0.394609
O O9 0.923876 0.000000 0.307745
O O10 0.444845 0.500000 0.134835
O O11 0.368754 0.713729 0.191276
O O12 0.535921 0.748088 0.132149
O O13 0.384149 0.721496 0.077627
O O14 0.500000 0.267899 0.500000
O O15 0.402480 0.500000 0.479324
O O16 0.292385 0.819946 0.852909
O O17 0.238843 0.000000 0.775823
O O18 0.100793 0.500000 0.095501
O O19 0.147999 0.739340 0.040667
O O20 0.146866 0.000000 0.990591
O O21 0.000000 0.159868 0.000000
#
# Coordination Sequence:
#
# PCOD9193111 Si02
#       8
#     8   8   8   8   8   8   8   8
#     4  10  21  37  54  73 101 137 176 215 255 302
#     4   9  18  32  52  78 105 132 167 215 259 292
#     4   8  17  34  53  73 102 139 172 203 248 306
#     4   9  19  37  55  73 101 137 170 202 252 315
#     4   8  15  31  55  79 106 140 173 204 246 306
#     4  10  23  38  52  73 103 135 171 216 257 301
#     4  10  20  34  52  78 106 129 162 214 264 299
#     4   8  15  30  53  75  99 133 167 199 246 316
#
# _framework density 20.920068000000001
#
# number of rings (size 3 to 8) (size 9 to 14) (size 15 to 20)
#    0.750    2.250    0.000    1.125    0.000    7.000 
#    0.000    5.625    0.000    0.000    0.000    0.000 
#    0.000    0.000    0.000    0.000    0.000    0.000 
#
# Total GULP energy -178249.253060 kJ/mol
# GULP energy per Si atom -5570.289158 kJ/mol
# Density = 2.087245 g / cm^3
# Si number density = 20.920068 Si / 1000 Ang^3
#
#
#
# Elastic Constant Matrix: (Units=GPa)
#
#
# Indices 1 2 3 4 5 6 
#
# 1 81.6509 17.3407 10.2507 0.0000 4.6883 0.0000
# 2 17.3407 27.2641 -2.0395 0.0000 7.4394 0.0000
# 3 10.2507 -2.0395 25.8858 0.0000 6.9746 0.0000
# 4 0.0000 0.0000 0.0000 24.9041 0.0000 3.2974
# 5 4.6883 7.4394 6.9746 0.0000 30.6359 0.0000
# 6 0.0000 0.0000 0.0000 3.2974 0.0000 14.2499
#
#
#
# Elastic Compliance Matrix: (Units=1/GPa)
#
#
# Indices 1 2 3 4 5 6 
#
# 1 0.015386 -0.010890 -0.007488 0.000000 0.001995 0.000000
# 2 -0.010890 0.047895 0.011475 0.000000 -0.012576 0.000000
# 3 -0.007488 0.011475 0.045749 0.000000 -0.012056 0.000000
# 4 0.000000 0.000000 0.000000 0.041423 0.000000 -0.009585
# 5 0.001995 -0.012576 -0.012056 0.000000 0.038135 0.000000
# 6 0.000000 0.000000 0.000000 -0.009585 0.000000 0.072394
#
#
# Mechanical properties :
#
#
# Convention : Reuss Voigt Hill
#
# Bulk Modulus (GPa) = 10.50182 20.65606 15.57894
# Shear Modulus (GPa) = 16.31168 21.24124 18.77646
#
# Velocity S-wave (km/s) = 2.79537 3.18992 2.99914
# Velocity P-wave (km/s) = 3.93060 4.84383 4.41091
#
# Compressibility (1/GPa) = 0.09522157
#
# Stress axis : x y z
#
# Youngs Moduli (GPa) = 64.99574 20.87914 21.85852
#
# Poissons Ratio (x) = 0.22738 0.16368
# Poissons Ratio (y) = 0.70781 -0.25082
# Poissons Ratio (z) = 0.48670 -0.23958
#
# Static dielectric constant tensor:
#      x y z
#    x 1.801160 0.000000 0.011220 
#    y 0.000000 1.707930 0.000000 
#    z 0.011220 0.000000 1.809830 
# 
# From -- ./inp_files/359823.got.cif
#   From: 2010.05.17/outbox.cif.g08.bks.cpg/sg12_180_cif.got.tgz:359823.got - 2010.06.03 13:09:07.
