data_PCOD9193981
_publ_section_title
;
Structure prediction by ZEFSAII (Michael W. Deem and Ramdas Pophale) SiO2 
 PCOD9193981
Probable space group: C 2/M
;
_chemical_formula_sum "Si O2"
_cell_formula_units_Z 56
_cell_length_a 23.476391
_cell_length_b 13.599692
_cell_length_c 9.162267
_cell_angle_alpha 90.000000
_cell_angle_beta 87.589753
_cell_angle_gamma 90.000000
_cell_volume 2922.664543
_symmetry_space_group_name_H-M "C 2/M"
_symmetry_group_IT_number 12
_symmetry_cell_setting 'monoclinic'
loop_
_space_group_symop_operation_xyz
x,y,z
-x,y,-z
-x,-y,-z
x,-y,z
1/2+x,1/2+y,z
1/2-x,1/2+y,-z
1/2-x,1/2-y,-z
1/2+x,1/2-y,z
loop_
_atom_site_type_symbol
_atom_site_label
_atom_site_fract_x
_atom_site_fract_y
_atom_site_fract_z
Si Si1 0.939848 0.393579 0.925267
Si Si2 0.667235 0.251495 0.388695
Si Si3 0.995591 0.881063 0.327078
Si Si4 0.601734 0.308738 0.122837
Si Si5 0.117967 0.112900 0.816447
Si Si6 0.278235 0.382136 0.372968
Si Si7 0.438866 0.112233 0.575164
O O1 0.914133 0.500000 0.966884
O O2 0.904580 0.296086 0.958272
O O3 0.946961 0.391571 0.749404
O O4 0.000000 0.386380 0.000000
O O5 0.651644 0.297571 0.234185
O O6 0.687430 0.338389 0.492441
O O7 0.718167 0.172999 0.371527
O O8 0.611330 0.190454 0.447489
O O9 0.046094 0.834472 0.225411
O O10 0.000000 0.861758 0.500000
O O11 0.936005 0.843830 0.264916
O O12 0.999733 0.000000 0.309436
O O13 0.608609 0.382637 0.989606
O O14 0.180255 0.149311 0.764413
O O15 0.118444 0.000000 0.766827
O O16 0.270424 0.500000 0.380126
O O17 0.500000 0.137025 0.500000
O O18 0.423799 0.000000 0.529543
#
# Coordination Sequence:
#
# PCOD9193981 Si02
#       7
#     8   8   8   8   8   8   8
#     4   9  18  31  46  69 104 144 178 209 256 316
#     4  10  22  37  58  83 107 143 188 230 277 335
#     4  10  20  34  54  84 119 150 180 218 272 336
#     4  11  21  33  55  82 112 143 180 230 280 328
#     4  10  21  36  56  82 112 147 183 222 273 330
#     4  10  22  41  60  78 107 146 188 233 279 331
#     4   9  18  33  55  83 113 142 175 221 273 324
#
# _framework density 19.160599000000001
#
# number of rings (size 3 to 8) (size 9 to 14) (size 15 to 20)
#    0.000    2.143    0.000    3.000    0.000   10.286 
#    0.000    0.000    0.000    3.857    0.000    0.000 
#    0.000    0.000    0.000    0.000    0.000    0.000 
#
# Total GULP energy -156123.183550 kJ/mol
# GULP energy per Si atom -5575.827984 kJ/mol
# Density = 1.911699 g / cm^3
# Si number density = 19.160599 Si / 1000 Ang^3
#
#
#
# Elastic Constant Matrix: (Units=GPa)
#
#
# Indices 1 2 3 4 5 6 
#
# 1 94.1810 11.8771 35.9787 0.0000 -2.2602 0.0000
# 2 11.8771 47.9358 3.9983 0.0000 -7.8955 0.0000
# 3 35.9787 3.9983 50.9966 0.0000 -2.6645 0.0000
# 4 0.0000 0.0000 0.0000 19.8574 0.0000 1.4501
# 5 -2.2602 -7.8955 -2.6645 0.0000 20.2185 0.0000
# 6 0.0000 0.0000 0.0000 1.4501 0.0000 7.6509
#
#
#
# Elastic Compliance Matrix: (Units=1/GPa)
#
#
# Indices 1 2 3 4 5 6 
#
# 1 0.014922 -0.002976 -0.010339 0.000000 -0.000857 0.000000
# 2 -0.002976 0.022975 0.000755 0.000000 0.008739 0.000000
# 3 -0.010339 0.000755 0.026985 0.000000 0.002695 0.000000
# 4 0.000000 0.000000 0.000000 0.051066 0.000000 -0.009679
# 5 -0.000857 0.008739 0.002695 0.000000 0.053132 0.000000
# 6 0.000000 0.000000 0.000000 -0.009679 0.000000 0.132538
#
#
# Mechanical properties :
#
#
# Convention : Reuss Voigt Hill
#
# Bulk Modulus (GPa) = 25.14979 32.98017 29.06498
# Shear Modulus (GPa) = 14.70617 18.96264 16.83440
#
# Velocity S-wave (km/s) = 2.77342 3.14931 2.96733
# Velocity P-wave (km/s) = 4.83840 5.52033 5.19058
#
# Compressibility (1/GPa) = 0.03976176
#
# Stress axis : x y z
#
# Youngs Moduli (GPa) = 67.01331 43.52562 37.05715
#
# Poissons Ratio (x) = 0.12953 0.38315
# Poissons Ratio (y) = 0.19943 -0.02797
# Poissons Ratio (z) = 0.69287 -0.03286
#
# Static dielectric constant tensor:
#      x y z
#    x 1.665610 0.000000 -0.005050 
#    y 0.000000 1.733820 0.000000 
#    z -0.005050 0.000000 1.651740 
# 
# From -- ./inp_files/86319.got.cif
#   From: 2010.05.17/outbox.cif.g08.bks.cpg/sg12_44_cif.got.tgz:86319.got - 2010.06.03 13:09:07.
