data_PCOD9193238
_publ_section_title
;
Structure prediction by ZEFSAII (Michael W. Deem and Ramdas Pophale) SiO2 
 PCOD9193238
Probable space group: C 2/M
;
_chemical_formula_sum "Si O2"
_cell_formula_units_Z 48
_cell_length_a 33.493476
_cell_length_b 7.608504
_cell_length_c 16.711157
_cell_angle_alpha 90.000000
_cell_angle_beta 32.403964
_cell_angle_gamma 90.000000
_cell_volume 2282.116358
_symmetry_space_group_name_H-M "C 2/M"
_symmetry_group_IT_number 12
_symmetry_cell_setting 'monoclinic'
loop_
_space_group_symop_operation_xyz
x,y,z
-x,y,-z
-x,-y,-z
x,-y,z
1/2+x,1/2+y,z
1/2-x,1/2+y,-z
1/2-x,1/2-y,-z
1/2+x,1/2-y,z
loop_
_atom_site_type_symbol
_atom_site_label
_atom_site_fract_x
_atom_site_fract_y
_atom_site_fract_z
Si Si1 0.691596 0.789352 0.210570
Si Si2 0.521416 0.289274 0.203964
Si Si3 0.353620 0.788432 0.538376
Si Si4 0.728103 0.289011 0.627943
Si Si5 0.063424 0.215373 0.955133
Si Si6 0.644842 0.711165 0.118137
O O1 0.661368 0.722585 0.346235
O O2 0.641459 0.751536 0.217921
O O3 0.697051 0.000000 0.207547
O O4 0.775022 0.722473 0.049619
O O5 0.529864 0.500000 0.187502
O O6 0.436117 0.252324 0.368800
O O7 0.577447 0.222133 0.177692
O O8 0.543976 0.225312 0.077668
O O9 0.290835 0.722172 0.583135
O O10 0.347254 0.000000 0.551193
O O11 0.726114 0.500000 0.639681
O O12 0.750000 0.250000 0.500000
O O13 0.645392 0.225373 0.789650
O O14 0.063553 0.000000 0.954880
O O15 0.000000 0.270652 0.000000
O O16 0.646161 0.500000 0.109089
#
# Coordination Sequence:
#
# PCOD9193238 Si02
#       6
#     8   8   8   8   8   8
#     4   9  18  34  54  74 100 135 171 207 253 306
#     4  10  20  34  53  76 102 133 171 213 252 294
#     4  10  21  35  51  74 105 137 167 204 252 304
#     4  10  20  35  55  78 104 133 167 207 251 299
#     4   9  17  31  53  77  99 128 167 206 245 294
#     4   9  18  33  53  76 100 129 170 216 255 294
#
# _framework density 21.033107000000001
#
# number of rings (size 3 to 8) (size 9 to 14) (size 15 to 20)
#    0.000    2.500    0.000    2.000    0.000    8.000 
#    0.000    4.167    0.000    7.000    0.000    0.000 
#    0.000    0.000    0.000    0.000    0.000    0.000 
#
# Total GULP energy -134050.459397 kJ/mol
# GULP energy per Si atom -5585.435808 kJ/mol
# Density = 2.098523 g / cm^3
# Si number density = 21.033107 Si / 1000 Ang^3
#
#
#
# Elastic Constant Matrix: (Units=GPa)
#
#
# Indices 1 2 3 4 5 6 
#
# 1 253.8238 5.7168 150.5096 0.0000 1.6953 0.0001
# 2 5.7168 42.7859 0.3230 0.0006 0.0932 0.0002
# 3 150.5096 0.3230 196.5523 0.0003 11.2805 0.0000
# 4 0.0000 0.0006 0.0003 21.5094 0.0000 0.4488
# 5 1.6953 0.0932 11.2805 0.0000 41.7747 0.0000
# 6 0.0001 0.0002 0.0000 0.4488 0.0000 16.7851
#
#
#
# Elastic Compliance Matrix: (Units=1/GPa)
#
#
# Indices 1 2 3 4 5 6 
#
# 1 0.007315 -0.000937 -0.005671 0.000000 0.001237 0.000000
# 2 -0.000937 0.023493 0.000691 -0.000001 -0.000201 0.000000
# 3 -0.005671 0.000691 0.009564 0.000000 -0.002354 0.000000
# 4 0.000000 -0.000001 0.000000 0.046517 0.000000 -0.001244
# 5 0.001237 -0.000201 -0.002354 0.000000 0.024524 0.000000
# 6 0.000000 0.000000 0.000000 -0.001244 0.000000 0.059610
#
#
# Mechanical properties :
#
#
# Convention : Reuss Voigt Hill
#
# Bulk Modulus (GPa) = 35.04253 89.58454 62.31354
# Shear Modulus (GPa) = 25.99135 38.45467 32.22301
#
# Velocity S-wave (km/s) = 3.51912 4.28049 3.91834
# Velocity P-wave (km/s) = 5.76273 8.19236 7.08251
#
# Compressibility (1/GPa) = 0.02853675
#
# Stress axis : x y z
#
# Youngs Moduli (GPa) = 136.69693 42.56651 104.55432
#
# Poissons Ratio (x) = 0.03990 0.59295
# Poissons Ratio (y) = 0.12813 -0.07221
# Poissons Ratio (z) = 0.77524 -0.02940
#
# Static dielectric constant tensor:
#      x y z
#    x 1.738600 0.000000 -0.001040 
#    y 0.000000 1.814120 0.000000 
#    z -0.001040 0.000000 1.712550 
# 
# From -- ./inp_files/153574.got.cif
#   From: 2010.05.17/outbox.cif.g08.bks.cpg/sg12_77_cif.got.tgz:153574.got - 2010.06.03 13:09:07.
