data_PCOD9193594
_publ_section_title
;
Structure prediction by ZEFSAII (Michael W. Deem and Ramdas Pophale) SiO2 
 PCOD9193594
Probable space group: C 2/M
;
_chemical_formula_sum "Si O2"
_cell_formula_units_Z 60
_cell_length_a 8.427902
_cell_length_b 11.042365
_cell_length_c 30.180883
_cell_angle_alpha 90.000000
_cell_angle_beta 103.649065
_cell_angle_gamma 90.000000
_cell_volume 2729.431595
_symmetry_space_group_name_H-M "C 2/M"
_symmetry_group_IT_number 12
_symmetry_cell_setting 'monoclinic'
loop_
_space_group_symop_operation_xyz
x,y,z
-x,y,-z
-x,-y,-z
x,-y,z
1/2+x,1/2+y,z
1/2-x,1/2+y,-z
1/2-x,1/2-y,-z
1/2+x,1/2-y,z
loop_
_atom_site_type_symbol
_atom_site_label
_atom_site_fract_x
_atom_site_fract_y
_atom_site_fract_z
Si Si1 0.850798 0.365946 0.695582
Si Si2 0.500000 0.305435 0.500000
Si Si3 0.255617 0.368286 0.558912
Si Si4 0.880837 0.133605 0.925811
Si Si5 0.486423 0.637753 0.658268
Si Si6 0.377680 0.133993 0.171218
Si Si7 0.242655 0.366655 0.206919
Si Si8 0.425293 0.133852 0.044086
O O1 0.924538 0.500000 0.691670
O O2 0.677369 0.359314 0.658790
O O3 0.953308 0.249019 0.688974
O O4 0.802455 0.362150 0.744129
O O5 0.374083 0.371004 0.524017
O O6 0.386091 0.225553 0.460426
O O7 0.179128 0.500000 0.560408
O O8 0.369358 0.343731 0.608618
O O9 0.746113 0.139617 0.877976
O O10 0.770541 0.141787 0.963137
O O11 0.000213 0.245821 0.929706
O O12 0.959233 0.000000 0.929352
O O13 0.456412 0.500000 0.673882
O O14 0.343445 0.250160 0.199214
O O15 0.567578 0.138768 0.171003
O O16 0.353519 0.000000 0.190914
O O17 0.317818 0.500000 0.202923
O O18 0.467495 0.000000 0.066262
O O19 0.500000 0.132120 0.000000
#
# Coordination Sequence:
#
# PCOD9193594 Si02
#       8
#     8   4   8   8   8   8   8   8
#     4  10  21  37  56  81 109 140 179 220 265 319
#     4  10  20  34  54  76 102 138 176 214 266 318
#     4  10  20  35  53  76 105 137 175 219 264 314
#     4  10  21  36  54  79 110 141 178 223 267 316
#     4  10  21  36  55  80 110 141 178 223 268 317
#     4  10  21  36  54  79 109 141 178 220 266 317
#     4  10  21  37  57  80 109 142 178 221 266 316
#     4  10  21  37  57  81 109 143 182 223 268 318
#
# _framework density 21.982599
#
# number of rings (size 3 to 8) (size 9 to 14) (size 15 to 20)
#    0.000    2.000    0.000    3.200    0.000    4.000 
#    0.000    3.333    0.000    0.000    0.000    0.000 
#    0.000    0.000    0.000    0.000    0.000    0.000 
#
# Total GULP energy -167458.537278 kJ/mol
# GULP energy per Si atom -5581.951243 kJ/mol
# Density = 2.193257 g / cm^3
# Si number density = 21.982599 Si / 1000 Ang^3
#
#
#
# Elastic Constant Matrix: (Units=GPa)
#
#
# Indices 1 2 3 4 5 6 
#
# 1 34.7927 51.4047 -15.7143 0.0000 4.8726 0.0000
# 2 51.4047 197.9859 27.7842 0.0000 -4.8954 0.0000
# 3 -15.7143 27.7842 38.5431 0.0000 4.1181 0.0000
# 4 0.0000 0.0000 0.0000 5.8995 0.0000 5.2134
# 5 4.8726 -4.8954 4.1181 0.0000 29.3470 0.0000
# 6 0.0000 0.0000 0.0000 5.2134 0.0000 -2.5151
#
#
#
# Elastic Compliance Matrix: (Units=1/GPa)
#
#
# Indices 1 2 3 4 5 6 
#
# 1 0.309801 -0.113679 0.219060 0.000000 -0.101140 0.000000
# 2 -0.113679 0.047401 -0.084648 0.000000 0.038660 0.000000
# 3 0.219060 -0.084648 0.184437 0.000000 -0.076373 0.000000
# 4 0.000000 0.000000 0.000000 0.059858 0.000000 0.124077
# 5 -0.101140 0.038660 -0.076373 0.000000 0.068034 0.000000
# 6 0.000000 0.000000 0.000000 0.124077 0.000000 -0.140406
#
#
# Mechanical properties :
#
#
# Convention : Reuss Voigt Hill
#
# Bulk Modulus (GPa) = 1.71495 44.25236 22.98365
# Shear Modulus (GPa) = 7.33112 20.40275 13.86693
#
# Velocity S-wave (km/s) = 1.82817 3.04983 2.51433
# Velocity P-wave (km/s) = 2.28869 5.70756 4.34824
#
# Compressibility (1/GPa) = 0.58310663
#
# Stress axis : x y z
#
# Youngs Moduli (GPa) = 3.22788 21.09658 5.42192
#
# Poissons Ratio (x) = 2.39823 -1.18773
# Poissons Ratio (y) = 0.36694 0.45895
# Poissons Ratio (z) = -0.70710 1.78578
#
# Static dielectric constant tensor:
#      x y z
#    x 1.760190 0.000000 0.010110 
#    y 0.000000 1.814020 0.000000 
#    z 0.010110 0.000000 1.852010 
# 
# From -- ./inp_files/372181.got.cif
#   From: 2010.05.17/outbox.cif.g08.bks.cpg/sg12_187_cif.got.tgz:372181.got - 2010.06.03 13:09:07.
