data_PCOD9193737
_publ_section_title
;
Structure prediction by ZEFSAII (Michael W. Deem and Ramdas Pophale) SiO2 
 PCOD9193737
Probable space group: C 2/M
;
_chemical_formula_sum "Si O2"
_cell_formula_units_Z 48
_cell_length_a 23.194133
_cell_length_b 12.034257
_cell_length_c 8.926606
_cell_angle_alpha 90.000000
_cell_angle_beta 89.814702
_cell_angle_gamma 90.000000
_cell_volume 2491.618348
_symmetry_space_group_name_H-M "C 2/M"
_symmetry_group_IT_number 12
_symmetry_cell_setting 'monoclinic'
loop_
_space_group_symop_operation_xyz
x,y,z
-x,y,-z
-x,-y,-z
x,-y,z
1/2+x,1/2+y,z
1/2-x,1/2+y,-z
1/2-x,1/2-y,-z
1/2+x,1/2-y,z
loop_
_atom_site_type_symbol
_atom_site_label
_atom_site_fract_x
_atom_site_fract_y
_atom_site_fract_z
Si Si1 0.311502 0.178214 0.836000
Si Si2 0.271145 0.627460 0.426337
Si Si3 0.969704 0.630868 0.161293
Si Si4 0.081565 0.368675 0.355469
Si Si5 0.870793 0.272418 0.337293
Si Si6 0.227512 0.619922 0.842465
O O1 0.271564 0.118760 0.713877
O O2 0.375235 0.175996 0.771887
O O3 0.280733 0.296883 0.845116
O O4 0.305816 0.128529 0.000087
O O5 0.271206 0.500000 0.493236
O O6 0.250000 0.750000 0.500000
O O7 0.335787 0.658943 0.369896
O O8 0.950523 0.500000 0.163372
O O9 0.917952 0.713401 0.205664
O O10 0.017554 0.643719 0.291448
O O11 0.000000 0.649568 0.000000
O O12 0.091971 0.500000 0.374184
O O13 0.098634 0.310992 0.510413
O O14 0.819185 0.353737 0.284413
O O15 0.252160 0.500000 0.824742
#
# Coordination Sequence:
#
# PCOD9193737 Si02
#       6
#     8   8   8   8   8   8
#     4  10  21  35  53  83 116 153 196 241 296 354
#     4  11  23  39  62  91 125 161 199 248 303 363
#     4  10  21  36  57  85 118 159 206 255 303 355
#     4  11  20  33  54  81 117 154 197 249 299 350
#     4  11  22  36  56  87 116 153 197 248 298 361
#     4  10  20  34  54  79 116 156 194 239 294 358
#
# _framework density 19.264586999999999
#
# number of rings (size 3 to 8) (size 9 to 14) (size 15 to 20)
#    0.000    1.500    1.667    4.500    0.000    6.000 
#    0.000    0.000    0.000    3.500    0.000    0.000 
#    0.000    0.000    0.000    0.000    0.000    0.000 
#
# Total GULP energy -133703.579528 kJ/mol
# GULP energy per Si atom -5570.982480 kJ/mol
# Density = 1.922074 g / cm^3
# Si number density = 19.264587 Si / 1000 Ang^3
#
#
#
# Elastic Constant Matrix: (Units=GPa)
#
#
# Indices 1 2 3 4 5 6 
#
# 1 71.4047 27.1651 12.4765 0.0000 -15.0525 0.0000
# 2 27.1651 109.1442 35.5767 0.0000 -8.7917 0.0000
# 3 12.4765 35.5767 65.9748 0.0000 -5.2522 0.0000
# 4 0.0000 0.0000 0.0000 5.6150 0.0000 -15.5735
# 5 -15.0525 -8.7917 -5.2522 0.0000 40.8863 0.0000
# 6 0.0000 0.0000 0.0000 -15.5735 0.0000 71.3182
#
#
#
# Elastic Compliance Matrix: (Units=1/GPa)
#
#
# Indices 1 2 3 4 5 6 
#
# 1 0.016563 -0.003415 -0.000873 0.000000 0.005251 0.000000
# 2 -0.003415 0.011930 -0.005742 0.000000 0.000570 0.000000
# 3 -0.000873 -0.005742 0.018484 0.000000 0.000818 0.000000
# 4 0.000000 0.000000 0.000000 0.451623 0.000000 0.098619
# 5 0.005251 0.000570 0.000818 0.000000 0.026619 0.000000
# 6 0.000000 0.000000 0.000000 0.098619 0.000000 0.035557
#
#
# Mechanical properties :
#
#
# Convention : Reuss Voigt Hill
#
# Bulk Modulus (GPa) = 37.15017 44.10670 40.62843
# Shear Modulus (GPa) = 8.47734 34.98425 21.73080
#
# Velocity S-wave (km/s) = 2.10001 4.26606 3.36224
# Velocity P-wave (km/s) = 5.02057 6.87100 6.01734
#
# Compressibility (1/GPa) = 0.02691778
#
# Stress axis : x y z
#
# Youngs Moduli (GPa) = 60.37402 83.82427 54.10148
#
# Poissons Ratio (x) = 0.28626 0.04721
# Poissons Ratio (y) = 0.20618 0.31064
# Poissons Ratio (z) = 0.05269 0.48131
#
# Static dielectric constant tensor:
#      x y z
#    x 1.692240 0.000000 -0.036730 
#    y 0.000000 1.684530 0.000000 
#    z -0.036730 0.000000 1.757910 
# 
# From -- ./inp_files/94303.got.cif
#   From: 2010.05.17/outbox.cif.g08.bks.cpg/sg12_48_cif.got.tgz:94303.got - 2010.06.03 13:09:07.
