data_PCOD9193690
_publ_section_title
;
Structure prediction by ZEFSAII (Michael W. Deem and Ramdas Pophale) SiO2 
 PCOD9193690
Probable space group: C 2/M
;
_chemical_formula_sum "Si O2"
_cell_formula_units_Z 64
_cell_length_a 17.121737
_cell_length_b 11.646331
_cell_length_c 29.485300
_cell_angle_alpha 90.000000
_cell_angle_beta 145.032680
_cell_angle_gamma 90.000000
_cell_volume 3369.611421
_symmetry_space_group_name_H-M "C 2/M"
_symmetry_group_IT_number 12
_symmetry_cell_setting 'monoclinic'
loop_
_space_group_symop_operation_xyz
x,y,z
-x,y,-z
-x,-y,-z
x,-y,z
1/2+x,1/2+y,z
1/2-x,1/2+y,-z
1/2-x,1/2-y,-z
1/2+x,1/2-y,z
loop_
_atom_site_type_symbol
_atom_site_label
_atom_site_fract_x
_atom_site_fract_y
_atom_site_fract_z
Si Si1 0.917340 0.632798 0.507623
Si Si2 0.763919 0.636251 0.588047
Si Si3 0.814387 0.743278 0.804639
Si Si4 0.115108 0.370646 0.254738
Si Si5 0.346977 0.129107 0.909898
Si Si6 0.683730 0.208174 0.896136
Si Si7 0.584697 0.627980 0.930576
Si Si8 0.042352 0.629918 0.664662
O O1 0.855269 0.500000 0.480719
O O2 0.827706 0.750745 0.466285
O O3 0.014061 0.640478 0.597584
O O4 0.000000 0.635943 0.500000
O O5 0.714552 0.500000 0.558803
O O6 0.809145 0.648715 0.661889
O O7 0.898747 0.646660 0.621398
O O8 0.836439 0.709661 0.762913
O O9 0.841332 0.642377 0.853183
O O10 0.661985 0.787881 0.737425
O O11 0.933401 0.834165 0.872765
O O12 0.143900 0.500000 0.253688
O O13 0.952312 0.357266 0.183436
O O14 0.245232 0.217322 0.884960
O O15 0.311963 0.000000 0.907196
O O16 0.500000 0.152333 0.000000
O O17 0.634682 0.289514 0.914142
O O18 0.807573 0.137465 0.977183
O O19 0.582571 0.500000 0.911746
O O20 0.087536 0.500000 0.695679
#
# Coordination Sequence:
#
# PCOD9193690 Si02
#       8
#     8   8   8   8   8   8   8   8
#     4  10  21  39  63  92 122 157 194 236 291 350
#     4  10  21  39  61  88 120 159 197 238 292 348
#     4  11  21  37  57  83 112 146 191 235 285 342
#     4  10  21  37  58  81 113 151 191 240 293 344
#     4  11  22  37  54  75 107 145 185 234 290 343
#     4  10  20  36  54  78 104 143 188 232 284 339
#     4  10  20  34  54  79 105 138 185 234 279 333
#     4  10  21  38  61  86 120 156 188 234 290 342
#
# _framework density 18.993288
#
# number of rings (size 3 to 8) (size 9 to 14) (size 15 to 20)
#    0.000    1.750    1.250    3.375    0.000    0.250 
#    0.000    9.375    0.000    0.000    0.000    0.000 
#    0.000    0.000    0.000    0.000    0.000    0.000 
#
# Total GULP energy -178362.922572 kJ/mol
# GULP energy per Si atom -5573.841330 kJ/mol
# Density = 1.895006 g / cm^3
# Si number density = 18.993288 Si / 1000 Ang^3
#
#
#
# Elastic Constant Matrix: (Units=GPa)
#
#
# Indices 1 2 3 4 5 6 
#
# 1 53.8472 3.9443 5.1549 0.0000 -4.9390 0.0000
# 2 3.9443 92.1783 40.0541 0.0000 12.7552 0.0000
# 3 5.1549 40.0541 55.1878 0.0000 1.8912 0.0000
# 4 0.0000 0.0000 0.0000 3.6344 0.0000 -23.8780
# 5 -4.9390 12.7552 1.8912 0.0000 22.5162 0.0000
# 6 0.0000 0.0000 0.0000 -23.8780 0.0000 -66.7582
#
#
#
# Elastic Compliance Matrix: (Units=1/GPa)
#
#
# Indices 1 2 3 4 5 6 
#
# 1 0.019207 -0.000937 -0.001280 0.000000 0.004851 0.000000
# 2 -0.000937 0.017486 -0.012293 0.000000 -0.009079 0.000000
# 3 -0.001280 -0.012293 0.027010 0.000000 0.004414 0.000000
# 4 0.000000 0.000000 0.000000 0.082136 0.000000 -0.029378
# 5 0.004851 -0.009079 0.004414 0.000000 0.050249 0.000000
# 6 0.000000 0.000000 0.000000 -0.029378 0.000000 -0.004472
#
#
# Mechanical properties :
#
#
# Convention : Reuss Voigt Hill
#
# Bulk Modulus (GPa) = 28.83176 33.27998 31.05587
# Shear Modulus (GPa) = 21.53336 2.01580 11.77458
#
# Velocity S-wave (km/s) = 3.37075 1.03132 2.49255
# Velocity P-wave (km/s) = 5.51019 4.35639 4.96691
#
# Compressibility (1/GPa) = 0.03468397
#
# Stress axis : x y z
#
# Youngs Moduli (GPa) = 52.06371 57.18716 37.02324
#
# Poissons Ratio (x) = 0.05357 0.04740
# Poissons Ratio (y) = 0.04877 0.45511
# Poissons Ratio (z) = 0.06666 0.70298
#
# Static dielectric constant tensor:
#      x y z
#    x 1.653480 0.000000 0.000880 
#    y 0.000000 1.674530 0.000000 
#    z 0.000880 0.000000 1.642340 
# 
# From -- ./inp_files/379100.got.cif
#   From: 2010.05.17/outbox.cif.g08.bks.cpg/sg12_190_cif.got.tgz:379100.got - 2010.06.03 13:09:07.
