data_PCOD9193551
_publ_section_title
;
Structure prediction by ZEFSAII (Michael W. Deem and Ramdas Pophale) SiO2 
 PCOD9193551
Probable space group: C 2/M
;
_chemical_formula_sum "Si O2"
_cell_formula_units_Z 56
_cell_length_a 20.306760
_cell_length_b 26.954841
_cell_length_c 12.536798
_cell_angle_alpha 90.000000
_cell_angle_beta 157.967528
_cell_angle_gamma 90.000000
_cell_volume 2574.234824
_symmetry_space_group_name_H-M "C 2/M"
_symmetry_group_IT_number 12
_symmetry_cell_setting 'monoclinic'
loop_
_space_group_symop_operation_xyz
x,y,z
-x,y,-z
-x,-y,-z
x,-y,z
1/2+x,1/2+y,z
1/2-x,1/2+y,-z
1/2-x,1/2-y,-z
1/2+x,1/2-y,z
loop_
_atom_site_type_symbol
_atom_site_label
_atom_site_fract_x
_atom_site_fract_y
_atom_site_fract_z
Si Si1 0.467584 0.076470 0.833881
Si Si2 0.950838 0.940133 0.309887
Si Si3 0.511818 0.709687 0.148135
Si Si4 0.933472 0.058495 0.746162
Si Si5 0.754242 0.130203 0.750534
Si Si6 0.943665 0.443071 0.269819
Si Si7 0.608232 0.180878 0.318848
O O1 0.260215 0.068527 0.501824
O O2 0.561148 0.057300 0.867998
O O3 0.502495 0.135203 0.891292
O O4 0.500000 0.054849 0.000000
O O5 0.000000 0.919951 0.500000
O O6 0.065978 0.927894 0.379537
O O7 0.956321 0.000000 0.325508
O O8 0.749413 0.927276 0.983367
O O9 0.507951 0.767256 0.172966
O O10 0.708739 0.690374 0.469518
O O11 0.500000 0.707549 0.000000
O O12 0.360134 0.674786 0.968790
O O13 0.974157 0.000000 0.818428
O O14 0.084646 0.091893 0.024198
O O15 0.592918 0.093884 0.535073
O O16 0.670986 0.160441 0.527047
O O17 0.980214 0.500000 0.354470
#
# Coordination Sequence:
#
# PCOD9193551 Si02
#       7
#     8   8   8   8   8   8   8
#     4  11  21  33  51  83 117 145 190 233 285 336
#     4   9  19  37  57  78 111 158 203 234 270 326
#     4   9  16  31  52  75 111 147 183 232 284 335
#     4  11  22  35  55  82 117 157 189 228 279 340
#     4  10  20  34  53  82 115 143 186 232 284 343
#     4  10  21  35  54  81 118 157 190 232 278 334
#     4   9  18  31  51  77 112 145 181 227 288 335
#
# _framework density 21.754038000000001
#
# number of rings (size 3 to 8) (size 9 to 14) (size 15 to 20)
#    0.000    2.143    1.429    2.143    2.000    2.857 
#    0.000    4.286    0.000    0.000    0.000    9.000 
#    0.000    0.000    0.000    0.000    0.000    0.000 
#
# Total GULP energy -156156.576986 kJ/mol
# GULP energy per Si atom -5577.020607 kJ/mol
# Density = 2.170453 g / cm^3
# Si number density = 21.754038 Si / 1000 Ang^3
#
#
#
# Elastic Constant Matrix: (Units=GPa)
#
#
# Indices 1 2 3 4 5 6 
#
# 1 56.3931 -6.1867 3.9779 0.0000 -9.9590 0.0000
# 2 -6.1867 145.6880 25.1662 0.0000 1.2437 0.0000
# 3 3.9779 25.1662 36.4060 0.0000 -6.1241 0.0000
# 4 0.0000 0.0000 0.0000 38.8095 0.0000 2.3615
# 5 -9.9590 1.2437 -6.1241 0.0000 33.1389 0.0000
# 6 0.0000 0.0000 0.0000 2.3615 0.0000 65.6715
#
#
#
# Elastic Compliance Matrix: (Units=1/GPa)
#
#
# Indices 1 2 3 4 5 6 
#
# 1 0.018923 0.001092 -0.001933 0.000000 0.005288 0.000000
# 2 0.001092 0.007915 -0.005765 0.000000 -0.001034 0.000000
# 3 -0.001933 -0.005765 0.032617 0.000000 0.005663 0.000000
# 4 0.000000 0.000000 0.000000 0.025823 0.000000 -0.000929
# 5 0.005288 -0.001034 0.005663 0.000000 0.032851 0.000000
# 6 0.000000 0.000000 0.000000 -0.000929 0.000000 0.015261
#
#
# Mechanical properties :
#
#
# Convention : Reuss Voigt Hill
#
# Bulk Modulus (GPa) = 21.62457 31.60021 26.61239
# Shear Modulus (GPa) = 30.86139 41.89262 36.37701
#
# Velocity S-wave (km/s) = 3.77058 4.39309 4.09369
# Velocity P-wave (km/s) = 5.37759 6.34744 5.88253
#
# Compressibility (1/GPa) = 0.04624369
#
# Stress axis : x y z
#
# Youngs Moduli (GPa) = 52.84626 126.34258 30.65911
#
# Poissons Ratio (x) = -0.13801 0.05927
# Poissons Ratio (y) = -0.05773 0.17674
# Poissons Ratio (z) = 0.10216 0.72832
#
# Static dielectric constant tensor:
#      x y z
#    x 1.860850 0.000000 -0.063150 
#    y 0.000000 1.798960 0.000000 
#    z -0.063150 0.000000 1.838270 
# 
# From -- ./inp_files/242303.got.cif
#   From: 2010.05.17/outbox.cif.g08.bks.cpg/sg12_122_cif.got.tgz:242303.got - 2010.06.03 13:09:07.
