data_PCOD9193213
_publ_section_title
;
Structure prediction by ZEFSAII (Michael W. Deem and Ramdas Pophale) SiO2 
 PCOD9193213
Probable space group: C 2/M
;
_chemical_formula_sum "Si O2"
_cell_formula_units_Z 56
_cell_length_a 22.046231
_cell_length_b 8.900264
_cell_length_c 20.536645
_cell_angle_alpha 90.000000
_cell_angle_beta 51.035385
_cell_angle_gamma 90.000000
_cell_volume 3133.187541
_symmetry_space_group_name_H-M "C 2/M"
_symmetry_group_IT_number 12
_symmetry_cell_setting 'monoclinic'
loop_
_space_group_symop_operation_xyz
x,y,z
-x,y,-z
-x,-y,-z
x,-y,z
1/2+x,1/2+y,z
1/2-x,1/2+y,-z
1/2-x,1/2-y,-z
1/2+x,1/2-y,z
loop_
_atom_site_type_symbol
_atom_site_label
_atom_site_fract_x
_atom_site_fract_y
_atom_site_fract_z
Si Si1 0.588794 0.322714 0.455564
Si Si2 0.199731 0.324792 0.120253
Si Si3 0.321963 0.827980 0.716552
Si Si4 0.773683 0.318034 0.554068
Si Si5 0.663853 0.326237 0.749022
Si Si6 0.984229 0.322465 0.083933
Si Si7 0.631477 0.673846 0.042860
O O1 0.500000 0.271845 0.500000
O O2 0.586903 0.500000 0.471938
O O3 0.633295 0.288498 0.358326
O O4 0.642957 0.241154 0.473639
O O5 0.186695 0.500000 0.110164
O O6 0.169235 0.302549 0.213250
O O7 0.160696 0.215339 0.095048
O O8 0.292882 0.301875 0.053658
O O9 0.231537 0.819801 0.757639
O O10 0.347095 0.000000 0.683548
O O11 0.776313 0.500000 0.549409
O O12 0.750000 0.250000 0.500000
O O13 0.707619 0.275136 0.652943
O O14 0.641956 0.500000 0.753544
O O15 0.589619 0.241755 0.827397
O O16 0.973662 0.500000 0.085974
O O17 0.061411 0.280158 0.071013
O O18 0.000000 0.261569 0.000000
O O19 0.607964 0.500000 0.054041
#
# Coordination Sequence:
#
# PCOD9193213 Si02
#       7
#     8   8   8   8   8   8   8
#     4  10  21  37  57  84 116 148 186 233 279 333
#     4   9  18  34  54  77 105 138 178 221 269 323
#     4   9  18  34  57  81 106 139 178 222 272 325
#     4  10  21  39  63  88 115 150 191 236 289 347
#     4   9  19  36  57  82 110 142 182 225 269 329
#     4  11  23  36  52  78 110 143 182 227 272 320
#     4  10  20  34  53  75 104 142 179 220 268 319
#
# _framework density 17.873170999999999
#
# number of rings (size 3 to 8) (size 9 to 14) (size 15 to 20)
#    0.000    2.286    0.000    3.429    0.000    7.429 
#    2.571    0.000    0.000    0.000    0.000    0.000 
#    0.000    0.000    0.000    0.000    0.000    0.000 
#
# Total GULP energy -156075.808847 kJ/mol
# GULP energy per Si atom -5574.136030 kJ/mol
# Density = 1.783249 g / cm^3
# Si number density = 17.873171 Si / 1000 Ang^3
#
#
#
# Elastic Constant Matrix: (Units=GPa)
#
#
# Indices 1 2 3 4 5 6 
#
# 1 72.8044 28.2950 56.3424 0.0002 -7.2432 -0.0003
# 2 28.2950 35.5550 34.0757 0.0005 -3.0191 -0.0008
# 3 56.3424 34.0757 73.0876 0.0001 3.1939 -0.0002
# 4 0.0002 0.0005 0.0001 19.8292 0.0000 8.5140
# 5 -7.2432 -3.0191 3.1939 0.0000 21.3268 0.0001
# 6 -0.0003 -0.0008 -0.0002 8.5140 0.0001 18.6823
#
#
#
# Elastic Compliance Matrix: (Units=1/GPa)
#
#
# Indices 1 2 3 4 5 6 
#
# 1 0.040121 0.000083 -0.031771 0.000000 0.018396 0.000000
# 2 0.000083 0.053452 -0.025483 -0.000002 0.011411 0.000003
# 3 -0.031771 -0.025483 0.051019 0.000001 -0.022039 -0.000001
# 4 0.000000 -0.000002 0.000001 0.062699 0.000000 -0.028573
# 5 0.018396 0.011411 -0.022039 0.000000 0.058053 0.000000
# 6 0.000000 0.000003 -0.000001 -0.028573 0.000000 0.066548
#
#
# Mechanical properties :
#
#
# Convention : Reuss Voigt Hill
#
# Bulk Modulus (GPa) = 33.06056 46.54146 39.80101
# Shear Modulus (GPa) = 10.95727 16.14991 13.55359
#
# Velocity S-wave (km/s) = 2.47868 3.00923 2.75675
# Velocity P-wave (km/s) = 5.17004 6.17821 5.69647
#
# Compressibility (1/GPa) = 0.03024752
#
# Stress axis : x y z
#
# Youngs Moduli (GPa) = 24.92465 18.70852 19.60065
#
# Poissons Ratio (x) = -0.00155 0.62274
# Poissons Ratio (y) = -0.00207 0.49949
# Poissons Ratio (z) = 0.79189 0.47676
#
# Static dielectric constant tensor:
#      x y z
#    x 1.609990 0.000000 -0.001160 
#    y 0.000000 1.621080 0.000000 
#    z -0.001160 0.000000 1.607730 
# 
# From -- ./inp_files/319726.got.cif
#   From: 2010.05.17/outbox.cif.g08.bks.cpg/sg12_160_cif.got.tgz:319726.got - 2010.06.03 13:09:07.
