data_PCOD9193516
_publ_section_title
;
Structure prediction by ZEFSAII (Michael W. Deem and Ramdas Pophale) SiO2 
 PCOD9193516
Probable space group: C 2/M
;
_chemical_formula_sum "Si O2"
_cell_formula_units_Z 56
_cell_length_a 29.484128
_cell_length_b 8.774148
_cell_length_c 22.273890
_cell_angle_alpha 90.000000
_cell_angle_beta 149.331874
_cell_angle_gamma 90.000000
_cell_volume 2939.100322
_symmetry_space_group_name_H-M "C 2/M"
_symmetry_group_IT_number 12
_symmetry_cell_setting 'monoclinic'
loop_
_space_group_symop_operation_xyz
x,y,z
-x,y,-z
-x,-y,-z
x,-y,z
1/2+x,1/2+y,z
1/2-x,1/2+y,-z
1/2-x,1/2-y,-z
1/2+x,1/2-y,z
loop_
_atom_site_type_symbol
_atom_site_label
_atom_site_fract_x
_atom_site_fract_y
_atom_site_fract_z
Si Si1 0.747774 0.317351 0.216371
Si Si2 0.263565 0.319949 0.110185
Si Si3 0.108237 0.179868 0.857131
Si Si4 0.785541 0.182604 0.386785
Si Si5 0.414041 0.181816 0.629927
Si Si6 0.540558 0.683228 0.981675
Si Si7 0.115288 0.683336 0.270545
O O1 0.752530 0.500000 0.221223
O O2 0.789617 0.249202 0.203752
O O3 0.787936 0.254022 0.323578
O O4 0.643340 0.271029 0.095905
O O5 0.246914 0.500000 0.096572
O O6 0.338500 0.297654 0.144664
O O7 0.174884 0.238018 0.984575
O O8 0.016787 0.270766 0.751319
O O9 0.091233 0.000000 0.845970
O O10 0.865879 0.236086 0.520216
O O11 0.694898 0.234133 0.317575
O O12 0.784190 0.000000 0.380849
O O13 0.370693 0.228689 0.644402
O O14 0.405780 0.000000 0.613853
O O15 0.536512 0.500000 0.972654
O O16 0.500000 0.728547 0.000000
O O17 0.477758 0.752933 0.859535
O O18 0.111826 0.500000 0.264808
#
# Coordination Sequence:
#
# PCOD9193516 Si02
#       7
#     8   8   8   8   8   8   8
#     4  11  22  37  58  85 117 154 193 234 286 341
#     4  10  21  38  62  90 119 149 185 233 286 341
#     4  10  21  39  62  89 118 149 187 233 286 340
#     4  11  23  39  57  80 114 155 196 237 283 338
#     4  11  23  39  59  84 114 150 194 240 286 336
#     4  10  20  34  53  80 114 149 185 229 279 331
#     4  10  22  37  56  83 113 151 193 236 284 335
#
# _framework density 19.053449000000001
#
# number of rings (size 3 to 8) (size 9 to 14) (size 15 to 20)
#    0.000    1.571    1.429    3.429    0.000    7.143 
#    0.000    0.714    0.000    4.286    0.000    0.000 
#    0.000    0.000    0.000    0.000    0.000    0.000 
#
# Total GULP energy -156536.557910 kJ/mol
# GULP energy per Si atom -5590.591354 kJ/mol
# Density = 1.901008 g / cm^3
# Si number density = 19.053449 Si / 1000 Ang^3
#
#
#
# Elastic Constant Matrix: (Units=GPa)
#
#
# Indices 1 2 3 4 5 6 
#
# 1 72.7654 31.4218 29.1212 0.0000 -36.9798 0.0000
# 2 31.4218 33.8169 10.8579 0.0000 -15.5981 0.0000
# 3 29.1212 10.8579 73.7478 0.0000 -31.6308 0.0000
# 4 0.0000 0.0000 0.0000 35.6388 0.0000 -4.3136
# 5 -36.9798 -15.5981 -31.6308 0.0000 35.1483 0.0000
# 6 0.0000 0.0000 0.0000 -4.3136 0.0000 25.2355
#
#
#
# Elastic Compliance Matrix: (Units=1/GPa)
#
#
# Indices 1 2 3 4 5 6 
#
# 1 0.039442 -0.021766 0.002093 0.000000 0.033721 0.000000
# 2 -0.021766 0.049505 0.001477 0.000000 0.000398 0.000000
# 3 0.002093 0.001477 0.022380 0.000000 0.022998 0.000000
# 4 0.000000 0.000000 0.000000 0.028652 0.000000 0.004898
# 5 0.033721 0.000398 0.022998 0.000000 0.084803 0.000000
# 6 0.000000 0.000000 0.000000 0.004898 0.000000 0.040464
#
#
# Mechanical properties :
#
#
# Convention : Reuss Voigt Hill
#
# Bulk Modulus (GPa) = 13.34497 35.90353 24.62425
# Shear Modulus (GPa) = 15.30857 26.46647 20.88752
#
# Velocity S-wave (km/s) = 2.83760 3.73106 3.31457
# Velocity P-wave (km/s) = 4.21369 6.11928 5.25360
#
# Compressibility (1/GPa) = 0.07493461
#
# Stress axis : x y z
#
# Youngs Moduli (GPa) = 25.35394 20.19999 44.68367
#
# Poissons Ratio (x) = 0.43968 -0.09354
# Poissons Ratio (y) = 0.55186 -0.06600
# Poissons Ratio (z) = -0.05308 -0.02984
#
# Static dielectric constant tensor:
#      x y z
#    x 1.678660 0.000000 -0.001550 
#    y 0.000000 1.634150 0.000000 
#    z -0.001550 0.000000 1.623680 
# 
# From -- ./inp_files/329488.got.cif
#   From: 2010.05.17/outbox.cif.g08.bks.cpg/sg12_165_cif.got.tgz:329488.got - 2010.06.03 13:09:07.
