data_PCOD9193878
_publ_section_title
;
Structure prediction by ZEFSAII (Michael W. Deem and Ramdas Pophale) SiO2 
 PCOD9193878
Probable space group: C 2/M
;
_chemical_formula_sum "Si O2"
_cell_formula_units_Z 48
_cell_length_a 19.827718
_cell_length_b 14.588315
_cell_length_c 8.764962
_cell_angle_alpha 90.000000
_cell_angle_beta 95.451443
_cell_angle_gamma 90.000000
_cell_volume 2523.824567
_symmetry_space_group_name_H-M "C 2/M"
_symmetry_group_IT_number 12
_symmetry_cell_setting 'monoclinic'
loop_
_space_group_symop_operation_xyz
x,y,z
-x,y,-z
-x,-y,-z
x,-y,z
1/2+x,1/2+y,z
1/2-x,1/2+y,-z
1/2-x,1/2-y,-z
1/2+x,1/2-y,z
loop_
_atom_site_type_symbol
_atom_site_label
_atom_site_fract_x
_atom_site_fract_y
_atom_site_fract_z
Si Si1 0.822704 0.745725 0.856379
Si Si2 0.332230 0.758871 0.517457
Si Si3 0.764647 0.601466 0.048601
Si Si4 0.556186 0.735886 0.883205
Si Si5 0.394983 0.896723 0.289142
Si Si6 0.928932 0.892115 0.394408
O O1 0.852980 0.728323 0.697986
O O2 0.781519 0.840195 0.847429
O O3 0.773926 0.662958 0.899452
O O4 0.875529 0.757272 0.003856
O O5 0.250000 0.750000 0.500000
O O6 0.360059 0.843076 0.421988
O O7 0.369695 0.668927 0.458500
O O8 0.738679 0.500000 0.011159
O O9 0.836527 0.594081 0.148601
O O10 0.551340 0.826566 0.775038
O O11 0.559651 0.649935 0.771035
O O12 0.500000 0.730183 0.000000
O O13 0.418686 0.000000 0.330742
O O14 0.000000 0.879779 0.500000
O O15 0.912851 0.000000 0.388810
#
# Coordination Sequence:
#
# PCOD9193878 Si02
#       6
#     8   8   8   8   8   8
#     4  10  20  34  54  82 112 146 193 232 288 351
#     4  11  21  36  59  86 120 158 197 246 299 353
#     4   9  18  33  52  76 110 145 182 233 283 335
#     4  10  21  38  60  83 113 154 195 245 293 348
#     4   9  19  36  56  82 114 148 190 237 288 348
#     4  10  23  42  62  88 122 160 203 247 297 361
#
# _framework density 19.018756
#
# number of rings (size 3 to 8) (size 9 to 14) (size 15 to 20)
#    0.000    2.167    1.667    1.000    2.333    3.333 
#    0.000    0.000    0.000   17.000    0.000    0.000 
#    0.000    0.000    0.000    0.000    0.000    0.000 
#
# Total GULP energy -133782.027509 kJ/mol
# GULP energy per Si atom -5574.251146 kJ/mol
# Density = 1.897547 g / cm^3
# Si number density = 19.018756 Si / 1000 Ang^3
#
#
#
# Elastic Constant Matrix: (Units=GPa)
#
#
# Indices 1 2 3 4 5 6 
#
# 1 51.5792 36.4447 25.8577 0.0000 -17.3709 0.0000
# 2 36.4447 153.1682 55.3375 0.0000 -13.8550 0.0000
# 3 25.8577 55.3375 117.8173 0.0000 -24.9571 0.0000
# 4 0.0000 0.0000 0.0000 9.6346 0.0000 5.8427
# 5 -17.3709 -13.8550 -24.9571 0.0000 32.4053 0.0000
# 6 0.0000 0.0000 0.0000 5.8427 0.0000 14.7767
#
#
#
# Elastic Compliance Matrix: (Units=1/GPa)
#
#
# Indices 1 2 3 4 5 6 
#
# 1 0.027480 -0.005055 -0.001188 0.000000 0.011654 0.000000
# 2 -0.005055 0.008803 -0.003348 0.000000 -0.001525 0.000000
# 3 -0.001188 -0.003348 0.011810 0.000000 0.007027 0.000000
# 4 0.000000 0.000000 0.000000 0.136530 0.000000 -0.053984
# 5 0.011654 -0.001525 0.007027 0.000000 0.041866 0.000000
# 6 0.000000 0.000000 0.000000 -0.053984 0.000000 0.089019
#
#
# Mechanical properties :
#
#
# Convention : Reuss Voigt Hill
#
# Bulk Modulus (GPa) = 34.59005 61.98270 48.28637
# Shear Modulus (GPa) = 14.52102 25.02497 19.77300
#
# Velocity S-wave (km/s) = 2.76617 3.63134 3.22787
# Velocity P-wave (km/s) = 5.33189 7.08824 6.27185
#
# Compressibility (1/GPa) = 0.02891005
#
# Stress axis : x y z
#
# Youngs Moduli (GPa) = 36.38993 113.59263 84.67673
#
# Poissons Ratio (x) = 0.57423 0.10060
# Poissons Ratio (y) = 0.18396 0.28353
# Poissons Ratio (z) = 0.04323 0.38035
#
# Static dielectric constant tensor:
#      x y z
#    x 1.776230 0.000000 0.028220 
#    y 0.000000 1.674260 0.000000 
#    z 0.028220 0.000000 1.662260 
# 
# From -- ./inp_files/85174.got.cif
#   From: 2010.05.17/outbox.cif.g08.bks.cpg/sg12_43_cif.got.tgz:85174.got - 2010.06.03 13:09:07.
