data_PCOD9193521
_publ_section_title
;
Structure prediction by ZEFSAII (Michael W. Deem and Ramdas Pophale) SiO2 
 PCOD9193521
Probable space group: C 2/M
;
_chemical_formula_sum "Si O2"
_cell_formula_units_Z 64
_cell_length_a 23.157805
_cell_length_b 8.880665
_cell_length_c 16.163221
_cell_angle_alpha 90.000000
_cell_angle_beta 90.007468
_cell_angle_gamma 90.000000
_cell_volume 3324.074799
_symmetry_space_group_name_H-M "C 2/M"
_symmetry_group_IT_number 12
_symmetry_cell_setting 'monoclinic'
loop_
_space_group_symop_operation_xyz
x,y,z
-x,y,-z
-x,-y,-z
x,-y,z
1/2+x,1/2+y,z
1/2-x,1/2+y,-z
1/2-x,1/2-y,-z
1/2+x,1/2-y,z
loop_
_atom_site_type_symbol
_atom_site_label
_atom_site_fract_x
_atom_site_fract_y
_atom_site_fract_z
Si Si1 0.842713 0.333806 0.034985
Si Si2 0.946453 0.821779 0.936436
Si Si3 0.750822 0.335148 0.893163
Si Si4 0.741047 0.674252 0.629031
Si Si5 0.665166 0.322746 0.485574
Si Si6 0.452092 0.821312 0.571266
Si Si7 0.187433 0.828435 0.240631
Si Si8 0.936021 0.679003 0.757312
O O1 0.858463 0.500000 0.067868
O O2 0.815685 0.215092 0.099149
O O3 0.893796 0.267300 0.979407
O O4 0.786591 0.354367 0.977299
O O5 0.955841 0.759995 0.842657
O O6 0.933196 0.000000 0.930449
O O7 0.000000 0.803665 0.000000
O O8 0.754686 0.500000 0.851308
O O9 0.787590 0.206347 0.848781
O O10 0.744961 0.500000 0.652231
O O11 0.680883 0.699913 0.581893
O O12 0.791176 0.714674 0.563321
O O13 0.758691 0.781763 0.702798
O O14 0.676930 0.500000 0.467584
O O15 0.602043 0.277633 0.457284
O O16 0.500000 0.800565 0.500000
O O17 0.465808 0.784725 0.668202
O O18 0.436813 0.000000 0.571431
O O19 0.131186 0.726374 0.255031
O O20 0.170591 0.000000 0.253074
O O21 0.939987 0.500000 0.770648
#
# Coordination Sequence:
#
# PCOD9193521 Si02
#       8
#     8   8   8   8   8   8   8   8
#     4  10  20  35  57  84 114 151 192 237 293 353
#     4  11  24  41  62  88 120 161 206 254 306 359
#     4  10  20  34  55  83 118 152 186 235 293 352
#     4  10  20  34  53  80 116 151 188 236 292 353
#     4  10  20  34  55  83 112 149 191 238 294 351
#     4  10  22  40  62  87 119 160 203 249 303 363
#     4  12  22  33  55  87 120 153 196 245 295 358
#     4  11  22  38  61  88 117 154 202 254 305 360
#
# _framework density 19.253475999999999
#
# number of rings (size 3 to 8) (size 9 to 14) (size 15 to 20)
#    0.000    1.500    2.500    3.375    0.000    4.250 
#    0.000    1.250    0.000    6.000    0.000    0.000 
#    0.000    0.000    0.000    0.000    0.000    0.000 
#
# Total GULP energy -178218.564093 kJ/mol
# GULP energy per Si atom -5569.330128 kJ/mol
# Density = 1.920965 g / cm^3
# Si number density = 19.253476 Si / 1000 Ang^3
#
#
#
# Elastic Constant Matrix: (Units=GPa)
#
#
# Indices 1 2 3 4 5 6 
#
# 1 47.1336 25.5807 25.5289 0.0000 -0.4193 0.0000
# 2 25.5807 69.5647 14.9287 0.0000 8.1346 0.0000
# 3 25.5289 14.9287 55.1563 0.0000 4.4690 0.0000
# 4 0.0000 0.0000 0.0000 25.4944 0.0000 5.5917
# 5 -0.4193 8.1346 4.4690 0.0000 27.6289 0.0000
# 6 0.0000 0.0000 0.0000 5.5917 0.0000 15.5232
#
#
#
# Elastic Compliance Matrix: (Units=1/GPa)
#
#
# Indices 1 2 3 4 5 6 
#
# 1 0.034191 -0.010350 -0.013490 0.000000 0.005748 0.000000
# 2 -0.010350 0.018816 0.000162 0.000000 -0.005723 0.000000
# 3 -0.013490 0.000162 0.024674 0.000000 -0.004243 0.000000
# 4 0.000000 0.000000 0.000000 0.042589 0.000000 -0.015341
# 5 0.005748 -0.005723 -0.004243 0.000000 0.038653 0.000000
# 6 0.000000 0.000000 0.000000 -0.015341 0.000000 0.069946
#
#
# Mechanical properties :
#
#
# Convention : Reuss Voigt Hill
#
# Bulk Modulus (GPa) = 32.97681 33.77014 33.37347
# Shear Modulus (GPa) = 17.46218 20.78371 19.12295
#
# Velocity S-wave (km/s) = 3.01485 3.28911 3.15496
# Velocity P-wave (km/s) = 5.41147 5.65704 5.53562
#
# Compressibility (1/GPa) = 0.03032434
#
# Stress axis : x y z
#
# Youngs Moduli (GPa) = 29.24737 53.14719 40.52848
#
# Poissons Ratio (x) = 0.55008 0.54671
# Poissons Ratio (y) = 0.30272 -0.00655
# Poissons Ratio (z) = 0.39454 -0.00859
#
# Static dielectric constant tensor:
#      x y z
#    x 1.647400 0.000000 0.022860 
#    y 0.000000 1.724130 0.000000 
#    z 0.022860 0.000000 1.808900 
# 
# From -- ./inp_files/238701.got.cif
#   From: 2010.05.17/outbox.cif.g08.bks.cpg/sg12_120_cif.got.tgz:238701.got - 2010.06.03 13:09:07.
