data_PCOD9193463
_publ_section_title
;
Structure prediction by ZEFSAII (Michael W. Deem and Ramdas Pophale) SiO2 
 PCOD9193463
Probable space group: C 2/M
;
_chemical_formula_sum "Si O2"
_cell_formula_units_Z 64
_cell_length_a 18.245957
_cell_length_b 8.983786
_cell_length_c 31.124389
_cell_angle_alpha 90.000000
_cell_angle_beta 43.123497
_cell_angle_gamma 90.000000
_cell_volume 3487.481233
_symmetry_space_group_name_H-M "C 2/M"
_symmetry_group_IT_number 12
_symmetry_cell_setting 'monoclinic'
loop_
_space_group_symop_operation_xyz
x,y,z
-x,y,-z
-x,-y,-z
x,-y,z
1/2+x,1/2+y,z
1/2-x,1/2+y,-z
1/2-x,1/2-y,-z
1/2+x,1/2-y,z
loop_
_atom_site_type_symbol
_atom_site_label
_atom_site_fract_x
_atom_site_fract_y
_atom_site_fract_z
Si Si1 0.784620 0.320651 0.940335
Si Si2 0.091567 0.824609 0.695552
Si Si3 0.419087 0.828360 0.436759
Si Si4 0.970814 0.678486 0.188007
Si Si5 0.757104 0.171624 0.565204
Si Si6 0.082211 0.824568 0.306343
Si Si7 0.619760 0.681111 0.937037
Si Si8 0.690563 0.320861 0.811057
O O1 0.777676 0.500000 0.946655
O O2 0.704164 0.271234 0.937052
O O3 0.906320 0.282684 0.875829
O O4 0.750000 0.250000 0.000000
O O5 0.059596 0.738805 0.752118
O O6 0.199401 0.759002 0.628242
O O7 0.997894 0.805932 0.700006
O O8 0.103676 0.000000 0.698830
O O9 0.329559 0.827048 0.436912
O O10 0.362573 0.749692 0.501210
O O11 0.519884 0.741589 0.374057
O O12 0.444938 0.000000 0.434737
O O13 0.960133 0.500000 0.191516
O O14 0.893183 0.752900 0.186556
O O15 0.776830 0.000000 0.568041
O O16 0.191707 0.739209 0.250223
O O17 0.101830 0.000000 0.303648
O O18 0.618561 0.500000 0.937829
O O19 0.656660 0.725691 0.873757
O O20 0.500000 0.731850 0.000000
O O21 0.689188 0.500000 0.809434
#
# Coordination Sequence:
#
# PCOD9193463 Si02
#       8
#     8   8   8   8   8   8   8   8
#     4  10  21  37  58  84 113 145 181 223 273 327
#     4  10  20  34  54  80 109 144 186 229 275 331
#     4   9  16  27  46  74 107 142 182 225 271 327
#     4  11  23  38  55  78 111 147 185 231 279 326
#     4   9  16  27  46  74 108 143 179 225 279 326
#     4  10  20  34  53  79 111 143 180 229 281 330
#     4   9  18  34  57  83 110 141 179 222 268 322
#     4  11  22  37  58  80 106 144 188 230 276 331
#
# _framework density 18.351354000000001
#
# number of rings (size 3 to 8) (size 9 to 14) (size 15 to 20)
#    0.000    2.125    0.000    3.750    0.000    7.500 
#    0.000    1.250    0.000    4.125    0.000    5.250 
#    0.000    0.000    0.000    0.000    0.000    0.000 
#
# Total GULP energy -178695.022062 kJ/mol
# GULP energy per Si atom -5584.219439 kJ/mol
# Density = 1.830959 g / cm^3
# Si number density = 18.351354 Si / 1000 Ang^3
#
#
#
# Elastic Constant Matrix: (Units=GPa)
#
#
# Indices 1 2 3 4 5 6 
#
# 1 73.7781 53.7550 77.4850 0.0001 -2.6062 0.0007
# 2 53.7550 97.1949 84.1612 0.0006 -0.9137 0.0028
# 3 77.4850 84.1612 214.1943 -0.0001 -2.1193 0.0002
# 4 0.0001 0.0006 -0.0001 32.1811 0.0000 4.7088
# 5 -2.6062 -0.9137 -2.1193 0.0000 16.7493 -0.0002
# 6 0.0007 0.0028 0.0002 4.7088 -0.0002 20.9602
#
#
#
# Elastic Compliance Matrix: (Units=1/GPa)
#
#
# Indices 1 2 3 4 5 6 
#
# 1 0.026969 -0.009800 -0.005877 0.000000 0.002918 0.000001
# 2 -0.009800 0.019155 -0.003991 0.000000 -0.000985 -0.000002
# 3 -0.005877 -0.003991 0.008362 0.000000 -0.000074 0.000001
# 4 0.000000 0.000000 0.000000 0.032130 0.000000 -0.007218
# 5 0.002918 -0.000985 -0.000074 0.000000 0.060095 0.000001
# 6 0.000001 -0.000002 0.000001 -0.007218 0.000001 0.049331
#
#
# Mechanical properties :
#
#
# Convention : Reuss Voigt Hill
#
# Bulk Modulus (GPa) = 66.00063 90.66329 78.33196
# Shear Modulus (GPa) = 20.79617 25.29585 23.04601
#
# Velocity S-wave (km/s) = 3.36999 3.71673 3.54760
# Velocity P-wave (km/s) = 7.15440 8.24198 7.71737
#
# Compressibility (1/GPa) = 0.01515137
#
# Stress axis : x y z
#
# Youngs Moduli (GPa) = 37.07901 52.20546 119.58726
#
# Poissons Ratio (x) = 0.51159 0.70280
# Poissons Ratio (y) = 0.36336 0.47729
# Poissons Ratio (z) = 0.21791 0.20836
#
# Static dielectric constant tensor:
#      x y z
#    x 1.617170 0.000000 -0.003390 
#    y 0.000000 1.614140 0.000000 
#    z -0.003390 0.000000 1.602320 
# 
# From -- ./inp_files/378193.got.cif
#   From: 2010.05.17/outbox.cif.g08.bks.cpg/sg12_190_cif.got.tgz:378193.got - 2010.06.03 13:09:07.
