data_PCOD9193168
_publ_section_title
;
Structure prediction by ZEFSAII (Michael W. Deem and Ramdas Pophale) SiO2 
 PCOD9193168
Probable space group: C 2/M
;
_chemical_formula_sum "Si O2"
_cell_formula_units_Z 64
_cell_length_a 14.766560
_cell_length_b 8.580157
_cell_length_c 33.348444
_cell_angle_alpha 90.000000
_cell_angle_beta 51.840565
_cell_angle_gamma 90.000000
_cell_volume 3322.273604
_symmetry_space_group_name_H-M "C 2/M"
_symmetry_group_IT_number 12
_symmetry_cell_setting 'monoclinic'
loop_
_space_group_symop_operation_xyz
x,y,z
-x,y,-z
-x,-y,-z
x,-y,z
1/2+x,1/2+y,z
1/2-x,1/2+y,-z
1/2-x,1/2-y,-z
1/2+x,1/2-y,z
loop_
_atom_site_type_symbol
_atom_site_label
_atom_site_fract_x
_atom_site_fract_y
_atom_site_fract_z
Si Si1 0.761104 0.313802 0.169844
Si Si2 0.502196 0.682048 0.119102
Si Si3 0.793921 0.811292 0.363482
Si Si4 0.945359 0.812237 0.717542
Si Si5 0.721541 0.182737 0.093631
Si Si6 0.674113 0.186759 0.557015
Si Si7 0.089083 0.688167 0.360907
Si Si8 0.588585 0.181139 0.012949
O O1 0.774066 0.500000 0.169378
O O2 0.642630 0.264638 0.223630
O O3 0.759640 0.266588 0.123824
O O4 0.870477 0.231853 0.159945
O O5 0.518414 0.500000 0.122798
O O6 0.588081 0.781310 0.122860
O O7 0.539089 0.721616 0.063377
O O8 0.783076 0.750354 0.411800
O O9 0.691033 0.758896 0.362490
O O10 0.921670 0.761475 0.313859
O O11 0.791720 0.000000 0.365134
O O12 0.900818 0.751469 0.686928
O O13 0.946001 0.000000 0.716289
O O14 0.744729 0.000000 0.090184
O O15 0.792439 0.253329 0.036995
O O16 0.750000 0.250000 0.500000
O O17 0.539425 0.233716 0.589519
O O18 0.678891 0.000000 0.556256
O O19 0.092765 0.500000 0.358395
O O20 0.600565 0.000000 0.021920
O O21 0.500000 0.188659 0.000000
#
# Coordination Sequence:
#
# PCOD9193168 Si02
#       8
#     8   8   8   8   8   8   8   8
#     4  11  23  41  60  86 120 151 189 237 288 345
#     4  12  25  41  62  87 116 152 193 235 284 342
#     4   9  18  36  58  81 109 147 188 230 279 333
#     4   9  20  37  59  83 111 144 182 232 285 334
#     4  12  25  41  62  88 118 152 191 234 286 347
#     4  10  20  34  52  80 115 152 189 234 280 329
#     4   9  19  35  57  82 111 147 192 234 277 334
#     4  11  22  39  64  88 117 152 186 232 285 341
#
# _framework density 19.263916999999999
#
# number of rings (size 3 to 8) (size 9 to 14) (size 15 to 20)
#    0.000    1.625    1.250    3.750    0.000    4.000 
#    0.000    3.750    0.000    0.000    0.000    0.000 
#    0.000    0.000    0.000    0.000    0.000    0.000 
#
# Total GULP energy -178825.187518 kJ/mol
# GULP energy per Si atom -5588.287110 kJ/mol
# Density = 1.922007 g / cm^3
# Si number density = 19.263917 Si / 1000 Ang^3
#
#
#
# Elastic Constant Matrix: (Units=GPa)
#
#
# Indices 1 2 3 4 5 6 
#
# 1 106.1554 -1.2761 23.4576 0.0000 -5.8613 -0.0001
# 2 -1.2761 29.2028 14.5541 -0.0001 -3.9539 -0.0001
# 3 23.4576 14.5541 87.9395 0.0000 -12.9916 0.0000
# 4 0.0000 -0.0001 0.0000 26.8193 0.0000 2.2547
# 5 -5.8613 -3.9539 -12.9916 0.0000 11.5514 0.0000
# 6 -0.0001 -0.0001 0.0000 2.2547 0.0000 29.1441
#
#
#
# Elastic Compliance Matrix: (Units=1/GPa)
#
#
# Indices 1 2 3 4 5 6 
#
# 1 0.010192 0.002160 -0.002642 0.000000 0.002940 0.000000
# 2 0.002160 0.038256 -0.005770 0.000000 0.007701 0.000000
# 3 -0.002642 -0.005770 0.015040 0.000000 0.013600 0.000000
# 4 0.000000 0.000000 0.000000 0.037531 0.000000 -0.002904
# 5 0.002940 0.007701 0.013600 0.000000 0.105993 0.000000
# 6 0.000000 0.000000 0.000000 -0.002904 0.000000 0.034537
#
#
# Mechanical properties :
#
#
# Convention : Reuss Voigt Hill
#
# Bulk Modulus (GPa) = 19.61361 32.97432 26.29396
# Shear Modulus (GPa) = 18.44697 25.94043 22.19370
#
# Velocity S-wave (km/s) = 3.09786 3.67356 3.39792
# Velocity P-wave (km/s) = 4.79575 5.92855 5.39198
#
# Compressibility (1/GPa) = 0.05098501
#
# Stress axis : x y z
#
# Youngs Moduli (GPa) = 98.11395 26.13967 66.48818
#
# Poissons Ratio (x) = -0.05646 0.17566
# Poissons Ratio (y) = -0.21194 0.38363
# Poissons Ratio (z) = 0.25921 0.15082
#
# Static dielectric constant tensor:
#      x y z
#    x 1.686250 0.000000 -0.023950 
#    y 0.000000 1.646870 0.000000 
#    z -0.023950 0.000000 1.654950 
# 
# From -- ./inp_files/375403.got.cif
#   From: 2010.05.17/outbox.cif.g08.bks.cpg/sg12_188_cif.got.tgz:375403.got - 2010.06.03 13:09:07.
