data_PCOD9193066
_publ_section_title
;
Structure prediction by ZEFSAII (Michael W. Deem and Ramdas Pophale) SiO2 
 PCOD9193066
Probable space group: C 2/M
;
_chemical_formula_sum "Si O2"
_cell_formula_units_Z 44
_cell_length_a 17.195028
_cell_length_b 11.879696
_cell_length_c 28.714110
_cell_angle_alpha 90.000000
_cell_angle_beta 25.510333
_cell_angle_gamma 90.000000
_cell_volume 2526.109044
_symmetry_space_group_name_H-M "C 2/M"
_symmetry_group_IT_number 12
_symmetry_cell_setting 'monoclinic'
loop_
_space_group_symop_operation_xyz
x,y,z
-x,y,-z
-x,-y,-z
x,-y,z
1/2+x,1/2+y,z
1/2-x,1/2+y,-z
1/2-x,1/2-y,-z
1/2+x,1/2-y,z
loop_
_atom_site_type_symbol
_atom_site_label
_atom_site_fract_x
_atom_site_fract_y
_atom_site_fract_z
Si Si1 0.503602 0.264307 0.678993
Si Si2 0.117627 0.370818 0.526911
Si Si3 0.611380 0.131216 0.895850
Si Si4 0.610455 0.128719 0.712179
Si Si5 0.500000 0.730758 0.500000
Si Si6 0.632974 0.132745 0.064122
O O1 0.665341 0.355054 0.588128
O O2 0.539014 0.181251 0.616702
O O3 0.303061 0.311212 0.784906
O O4 0.533791 0.204560 0.712159
O O5 0.068972 0.500000 0.548963
O O6 0.044824 0.304157 0.521388
O O7 0.488571 0.137513 0.916480
O O8 0.648241 0.000000 0.886111
O O9 0.500000 0.178578 0.000000
O O10 0.819612 0.159793 0.607352
O O11 0.493747 0.141206 0.821940
O O12 0.600408 0.000000 0.702144
O O13 0.710067 0.000000 0.023322
O O14 0.750000 0.250000 0.000000
#
# Coordination Sequence:
#
# PCOD9193066 Si02
#       6
#     8   8   8   8   4   8
#     4  10  20  34  54  78 104 137 175 214 264 317
#     4  10  20  34  52  76 107 138 172 216 262 314
#     4  10  20  35  56  79 105 137 176 221 266 317
#     4  10  20  35  55  78 107 139 176 220 264 316
#     4  10  20  34  54  78 104 138 176 214 264 316
#     4  10  21  38  58  81 109 142 181 224 269 320
#
# _framework density 17.418091
#
# number of rings (size 3 to 8) (size 9 to 14) (size 15 to 20)
#    0.000    2.000    0.000    3.818    0.000    0.000 
#    0.000   13.636    0.000    4.909    0.000    0.000 
#    0.000    0.000    0.000    0.000    0.000    0.000 
#
# Total GULP energy -122626.958151 kJ/mol
# GULP energy per Si atom -5573.952643 kJ/mol
# Density = 1.737845 g / cm^3
# Si number density = 17.418091 Si / 1000 Ang^3
#
#
#
# Elastic Constant Matrix: (Units=GPa)
#
#
# Indices 1 2 3 4 5 6 
#
# 1 67.7355 13.5076 30.6438 -0.0014 14.2675 0.0019
# 2 13.5076 86.1181 50.3676 0.0014 -3.4797 0.0004
# 3 30.6438 50.3676 106.2613 0.0123 1.4396 -0.0007
# 4 -0.0014 0.0014 0.0123 11.3331 -0.0002 2.4475
# 5 14.2675 -3.4797 1.4396 -0.0002 31.0430 -0.0013
# 6 0.0019 0.0004 -0.0007 2.4475 -0.0013 16.0299
#
#
#
# Elastic Compliance Matrix: (Units=1/GPa)
#
#
# Indices 1 2 3 4 5 6 
#
# 1 0.018975 -0.000259 -0.005234 0.000009 -0.008507 -0.000004
# 2 -0.000259 0.016215 -0.007642 0.000007 0.002291 -0.000002
# 3 -0.005234 -0.007642 0.014531 -0.000016 0.000875 0.000004
# 4 0.000009 0.000007 -0.000016 0.091246 -0.000003 -0.013931
# 5 -0.008507 0.002291 0.000875 -0.000003 0.036339 0.000004
# 6 -0.000004 -0.000002 0.000004 -0.013931 0.000004 0.064510
#
#
# Mechanical properties :
#
#
# Convention : Reuss Voigt Hill
#
# Bulk Modulus (GPa) = 42.64346 49.90589 46.27467
# Shear Modulus (GPa) = 18.12232 22.72092 20.42162
#
# Velocity S-wave (km/s) = 3.22907 3.61563 3.42780
# Velocity P-wave (km/s) = 6.19984 6.79296 6.50316
#
# Compressibility (1/GPa) = 0.02345026
#
# Stress axis : x y z
#
# Youngs Moduli (GPa) = 52.70167 61.67220 68.81977
#
# Poissons Ratio (x) = 0.01595 0.36021
# Poissons Ratio (y) = 0.01363 0.52593
# Poissons Ratio (z) = 0.27585 0.47131
#
# Static dielectric constant tensor:
#      x y z
#    x 1.567040 0.000000 0.005990 
#    y 0.000000 1.598760 0.000000 
#    z 0.005990 0.000000 1.575390 
# 
# From -- ./inp_files/379018.got.cif
#   From: 2010.05.17/outbox.cif.g08.bks.cpg/sg12_190_cif.got.tgz:379018.got - 2010.06.03 13:09:07.
