data_PCOD9193677
_publ_section_title
;
Structure prediction by ZEFSAII (Michael W. Deem and Ramdas Pophale) SiO2 
 PCOD9193677
Probable space group: C 2/M
;
_chemical_formula_sum "Si O2"
_cell_formula_units_Z 56
_cell_length_a 19.413039
_cell_length_b 8.868244
_cell_length_c 26.249500
_cell_angle_alpha 90.000000
_cell_angle_beta 139.952769
_cell_angle_gamma 90.000000
_cell_volume 2907.675851
_symmetry_space_group_name_H-M "C 2/M"
_symmetry_group_IT_number 12
_symmetry_cell_setting 'monoclinic'
loop_
_space_group_symop_operation_xyz
x,y,z
-x,y,-z
-x,-y,-z
x,-y,z
1/2+x,1/2+y,z
1/2-x,1/2+y,-z
1/2-x,1/2-y,-z
1/2+x,1/2-y,z
loop_
_atom_site_type_symbol
_atom_site_label
_atom_site_fract_x
_atom_site_fract_y
_atom_site_fract_z
Si Si1 0.935068 0.681073 0.238727
Si Si2 0.707261 0.820097 0.744056
Si Si3 0.032889 0.180192 0.576141
Si Si4 0.140779 0.680762 0.918267
Si Si5 0.175437 0.322846 0.500379
Si Si6 0.358551 0.323760 0.682658
Si Si7 0.410362 0.820446 0.819055
O O1 0.954309 0.500000 0.251144
O O2 0.857881 0.720958 0.241705
O O3 0.881669 0.717558 0.153801
O O4 0.048090 0.766920 0.302467
O O5 0.640108 0.754379 0.658614
O O6 0.827187 0.756272 0.810070
O O7 0.710304 0.000000 0.741824
O O8 0.000000 0.223765 0.500000
O O9 0.935924 0.238000 0.556342
O O10 0.042928 0.000000 0.583860
O O11 0.146959 0.500000 0.925079
O O12 0.034783 0.728654 0.889837
O O13 0.250000 0.750000 0.000000
O O14 0.157365 0.500000 0.479956
O O15 0.250000 0.250000 0.500000
O O16 0.244401 0.308125 0.591203
O O17 0.375348 0.500000 0.704410
O O18 0.370934 0.225254 0.740174
O O19 0.406044 0.000000 0.822326
#
# Coordination Sequence:
#
# PCOD9193677 Si02
#       7
#     8   8   8   8   8   8   8
#     4   9  20  37  56  81 113 146 179 222 276 326
#     4  11  22  37  58  82 110 145 186 230 274 324
#     4  11  24  39  55  77 109 149 188 231 284 332
#     4   9  19  37  60  85 112 142 177 217 264 321
#     4  11  23  36  52  76 106 140 183 234 281 327
#     4  10  20  34  54  79 104 137 185 231 270 322
#     4  10  21  37  57  81 111 144 177 218 268 322
#
# _framework density 19.259367000000001
#
# number of rings (size 3 to 8) (size 9 to 14) (size 15 to 20)
#    0.000    1.857    0.000    4.714    0.000   12.000 
#    0.000    0.714    0.000    4.286    0.000    0.000 
#    0.000    0.000    0.000    0.000    0.000    0.000 
#
# Total GULP energy -156452.916326 kJ/mol
# GULP energy per Si atom -5587.604154 kJ/mol
# Density = 1.921553 g / cm^3
# Si number density = 19.259367 Si / 1000 Ang^3
#
#
#
# Elastic Constant Matrix: (Units=GPa)
#
#
# Indices 1 2 3 4 5 6 
#
# 1 102.9256 20.9414 28.4422 0.0000 27.8301 0.0000
# 2 20.9414 31.6892 24.6447 0.0000 10.2977 0.0000
# 3 28.4422 24.6447 84.2819 0.0000 25.5669 0.0000
# 4 0.0000 0.0000 0.0000 29.8976 0.0000 4.4995
# 5 27.8301 10.2977 25.5669 0.0000 28.9271 0.0000
# 6 0.0000 0.0000 0.0000 4.4995 0.0000 32.3558
#
#
#
# Elastic Compliance Matrix: (Units=1/GPa)
#
#
# Indices 1 2 3 4 5 6 
#
# 1 0.013945 -0.005823 0.000598 0.000000 -0.011872 0.000000
# 2 -0.005823 0.043913 -0.010702 0.000000 -0.000572 0.000000
# 3 0.000598 -0.010702 0.018871 0.000000 -0.013444 0.000000
# 4 0.000000 0.000000 0.000000 0.034163 0.000000 -0.004751
# 5 -0.011872 -0.000572 -0.013444 0.000000 0.058078 0.000000
# 6 0.000000 0.000000 0.000000 -0.004751 0.000000 0.031567
#
#
# Mechanical properties :
#
#
# Convention : Reuss Voigt Hill
#
# Bulk Modulus (GPa) = 22.28378 40.77257 31.52817
# Shear Modulus (GPa) = 20.21438 27.89400 24.05419
#
# Velocity S-wave (km/s) = 3.24325 3.80983 3.53790
# Velocity P-wave (km/s) = 5.06166 6.36940 5.75281
#
# Compressibility (1/GPa) = 0.04487569
#
# Stress axis : x y z
#
# Youngs Moduli (GPa) = 71.70865 22.77225 52.99181
#
# Poissons Ratio (x) = 0.13259 -0.03169
# Poissons Ratio (y) = 0.41753 0.56713
# Poissons Ratio (z) = -0.04288 0.24371
#
# Static dielectric constant tensor:
#      x y z
#    x 1.707670 0.000000 -0.000380 
#    y 0.000000 1.643050 0.000000 
#    z -0.000380 0.000000 1.662900 
# 
# From -- ./inp_files/363170.got.cif
#   From: 2010.05.17/outbox.cif.g08.bks.cpg/sg12_182_cif.got.tgz:363170.got - 2010.06.03 13:09:07.
