data_PCOD9193517
_publ_section_title
;
Structure prediction by ZEFSAII (Michael W. Deem and Ramdas Pophale) SiO2 
 PCOD9193517
Probable space group: C 2/M
;
_chemical_formula_sum "Si O2"
_cell_formula_units_Z 40
_cell_length_a 31.420043
_cell_length_b 9.198239
_cell_length_c 15.729863
_cell_angle_alpha 90.000000
_cell_angle_beta 27.638922
_cell_angle_gamma 90.000000
_cell_volume 2108.913905
_symmetry_space_group_name_H-M "C 2/M"
_symmetry_group_IT_number 12
_symmetry_cell_setting 'monoclinic'
loop_
_space_group_symop_operation_xyz
x,y,z
-x,y,-z
-x,-y,-z
x,-y,z
1/2+x,1/2+y,z
1/2-x,1/2+y,-z
1/2-x,1/2-y,-z
1/2+x,1/2-y,z
loop_
_atom_site_type_symbol
_atom_site_label
_atom_site_fract_x
_atom_site_fract_y
_atom_site_fract_z
Si Si1 0.805449 0.174033 0.156490
Si Si2 0.455150 0.335699 0.494815
Si Si3 0.096292 0.672512 0.575958
Si Si4 0.527079 0.825403 0.048104
Si Si5 0.756778 0.664996 0.076365
O O1 0.703961 0.207723 0.373919
O O2 0.809952 0.246789 0.055112
O O3 0.814362 0.000000 0.134204
O O4 0.883398 0.242347 0.077439
O O5 0.500000 0.268698 0.500000
O O6 0.492628 0.500000 0.418897
O O7 0.461232 0.249956 0.396587
O O8 0.347434 0.344479 0.705725
O O9 0.087871 0.500000 0.578642
O O10 0.054597 0.709414 0.741207
O O11 0.543094 0.000000 0.023374
O O12 0.500000 0.787589 0.000000
O O13 0.791996 0.500000 0.003382
O O14 0.750000 0.750000 0.000000
#
# Coordination Sequence:
#
# PCOD9193517 Si02
#       5
#     8   8   8   8   8
#     4  10  21  38  58  82 115 150 191 238 283 337
#     4   9  19  34  52  78 110 145 184 228 278 330
#     4   9  20  38  57  81 113 150 188 232 284 338
#     4  10  22  40  61  86 115 149 190 237 292 346
#     4  10  20  34  53  80 114 150 187 228 282 338
#
# _framework density 18.967109000000001
#
# number of rings (size 3 to 8) (size 9 to 14) (size 15 to 20)
#    0.000    2.400    0.000    1.200    2.800    4.000 
#    0.000    0.000    0.000    0.000    0.000    0.000 
#    0.000    0.000    0.000    0.000    0.000    0.000 
#
# Total GULP energy -111615.332286 kJ/mol
# GULP energy per Si atom -5580.766614 kJ/mol
# Density = 1.892394 g / cm^3
# Si number density = 18.967109 Si / 1000 Ang^3
#
#
#
# Elastic Constant Matrix: (Units=GPa)
#
#
# Indices 1 2 3 4 5 6 
#
# 1 205.6359 85.5481 71.7740 0.0000 18.6070 0.0000
# 2 85.5481 73.5188 53.0645 0.0000 8.6370 0.0000
# 3 71.7740 53.0645 80.5300 0.0000 17.4837 0.0000
# 4 0.0000 0.0000 0.0000 4.7938 0.0000 2.3015
# 5 18.6070 8.6370 17.4837 0.0000 35.8281 0.0000
# 6 0.0000 0.0000 0.0000 2.3015 0.0000 34.9692
#
#
#
# Elastic Compliance Matrix: (Units=1/GPa)
#
#
# Indices 1 2 3 4 5 6 
#
# 1 0.009745 -0.009804 -0.001834 0.000000 -0.001803 0.000000
# 2 -0.009804 0.035978 -0.015874 0.000000 0.004165 0.000000
# 3 -0.001834 -0.015874 0.026256 0.000000 -0.008034 0.000000
# 4 0.000000 0.000000 0.000000 0.215409 0.000000 -0.014177
# 5 -0.001803 0.004165 -0.008034 0.000000 0.031764 0.000000
# 6 0.000000 0.000000 0.000000 -0.014177 0.000000 0.029530
#
#
# Mechanical properties :
#
#
# Convention : Reuss Voigt Hill
#
# Bulk Modulus (GPa) = 58.97482 86.71757 72.84619
# Shear Modulus (GPa) = 12.21432 25.07143 18.64287
#
# Velocity S-wave (km/s) = 2.54042 3.63965 3.13853
# Velocity P-wave (km/s) = 6.30600 7.96756 7.18497
#
# Compressibility (1/GPa) = 0.01695639
#
# Stress axis : x y z
#
# Youngs Moduli (GPa) = 102.62056 27.79476 38.08667
#
# Poissons Ratio (x) = 0.27250 0.06983
# Poissons Ratio (y) = 1.00608 0.60457
# Poissons Ratio (z) = 0.18816 0.44120
#
# Static dielectric constant tensor:
#      x y z
#    x 1.624870 0.000000 -0.004370 
#    y 0.000000 1.664800 0.000000 
#    z -0.004370 0.000000 1.677070 
# 
# From -- ./inp_files/211158.got.cif
#   From: 2010.05.17/outbox.cif.g08.bks.cpg/sg12_106_cif.got.tgz:211158.got - 2010.06.03 13:09:07.
