data_PCOD9193982
_publ_section_title
;
Structure prediction by ZEFSAII (Michael W. Deem and Ramdas Pophale) SiO2 
 PCOD9193982
Probable space group: C 2/M
;
_chemical_formula_sum "Si O2"
_cell_formula_units_Z 64
_cell_length_a 29.664564
_cell_length_b 7.940843
_cell_length_c 15.372769
_cell_angle_alpha 90.000000
_cell_angle_beta 130.134349
_cell_angle_gamma 90.000000
_cell_volume 2768.561113
_symmetry_space_group_name_H-M "C 2/M"
_symmetry_group_IT_number 12
_symmetry_cell_setting 'monoclinic'
loop_
_space_group_symop_operation_xyz
x,y,z
-x,y,-z
-x,-y,-z
x,-y,z
1/2+x,1/2+y,z
1/2-x,1/2+y,-z
1/2-x,1/2-y,-z
1/2+x,1/2-y,z
loop_
_atom_site_type_symbol
_atom_site_label
_atom_site_fract_x
_atom_site_fract_y
_atom_site_fract_z
Si Si1 0.565261 0.696212 0.587382
Si Si2 0.713655 0.803896 0.074748
Si Si3 0.974263 0.299344 0.114396
Si Si4 0.130715 0.197318 0.125615
Si Si5 0.611963 0.796566 0.830590
Si Si6 0.609372 0.699478 0.292207
Si Si7 0.289695 0.191033 0.469218
Si Si8 0.686010 0.300845 0.685498
O O1 0.500000 0.773040 0.500000
O O2 0.558960 0.500000 0.553083
O O3 0.589554 0.711138 0.715467
O O4 0.619798 0.770914 0.600675
O O5 0.670166 0.793973 0.104559
O O6 0.773810 0.726336 0.187075
O O7 0.723523 0.000000 0.066625
O O8 0.674897 0.733306 0.947089
O O9 0.976118 0.500000 0.103300
O O10 0.936172 0.265013 0.153820
O O11 0.039981 0.232499 0.205668
O O12 0.936744 0.219554 0.989551
O O13 0.134761 0.255386 0.229968
O O14 0.146295 0.000000 0.140324
O O15 0.615061 0.000000 0.822210
O O16 0.620091 0.500000 0.313735
O O17 0.644047 0.788659 0.412469
O O18 0.250000 0.250000 0.500000
O O19 0.284060 0.283755 0.370815
O O20 0.274724 0.000000 0.431926
O O21 0.681023 0.500000 0.697304
#
# Coordination Sequence:
#
# PCOD9193982 Si02
#       8
#     8   8   8   8   8   8   8   8
#     4  10  23  41  62  91 124 162 206 255 312 371
#     4   9  19  37  61  86 117 157 200 251 309 371
#     4  10  21  36  56  85 120 159 203 251 306 369
#     4  10  20  34  54  84 119 156 199 250 306 364
#     4   9  20  38  59  87 120 155 199 250 307 366
#     4  11  23  37  56  83 118 159 206 258 308 365
#     4  12  26  43  63  90 123 161 207 255 311 372
#     4  10  22  42  65  90 123 164 209 258 314 372
#
# _framework density 23.116703000000001
#
# number of rings (size 3 to 8) (size 9 to 14) (size 15 to 20)
#    0.000    1.875    0.000    4.125    1.750    9.750 
#    0.000    0.000    0.000    0.000    0.000    0.000 
#    0.000    0.000    0.000    0.000    0.000    0.000 
#
# Total GULP energy -178885.791293 kJ/mol
# GULP energy per Si atom -5590.180978 kJ/mol
# Density = 2.306409 g / cm^3
# Si number density = 23.116703 Si / 1000 Ang^3
#
#
#
# Elastic Constant Matrix: (Units=GPa)
#
#
# Indices 1 2 3 4 5 6 
#
# 1 81.9288 2.0868 40.9402 0.0000 14.6559 0.0000
# 2 2.0868 28.7043 -7.8138 0.0000 -0.0123 0.0000
# 3 40.9402 -7.8138 123.3530 0.0000 17.7934 0.0000
# 4 0.0000 0.0000 0.0000 19.2399 0.0000 -8.2340
# 5 14.6559 -0.0123 17.7934 0.0000 44.0700 0.0000
# 6 0.0000 0.0000 0.0000 -8.2340 0.0000 12.7320
#
#
#
# Elastic Compliance Matrix: (Units=1/GPa)
#
#
# Indices 1 2 3 4 5 6 
#
# 1 0.015199 -0.002398 -0.004743 0.000000 -0.003140 0.000000
# 2 -0.002398 0.035865 0.003134 0.000000 -0.000458 0.000000
# 3 -0.004743 0.003134 0.010249 0.000000 -0.002560 0.000000
# 4 0.000000 0.000000 0.000000 0.071866 0.000000 0.046477
# 5 -0.003140 -0.000458 -0.002560 0.000000 0.024769 0.000000
# 6 0.000000 0.000000 0.000000 0.046477 0.000000 0.108600
#
#
# Mechanical properties :
#
#
# Convention : Reuss Voigt Hill
#
# Bulk Modulus (GPa) = 18.76229 33.82360 26.29294
# Shear Modulus (GPa) = 17.10408 28.45990 22.78199
#
# Velocity S-wave (km/s) = 2.72306 3.51257 3.14271
# Velocity P-wave (km/s) = 4.24508 5.57802 4.95656
#
# Compressibility (1/GPa) = 0.05329841
#
# Stress axis : x y z
#
# Youngs Moduli (GPa) = 65.79493 27.88220 97.57220
#
# Poissons Ratio (x) = 0.06685 0.46281
# Poissons Ratio (y) = 0.15774 -0.30576
# Poissons Ratio (z) = 0.31209 -0.08737
#
# Static dielectric constant tensor:
#      x y z
#    x 1.855650 0.000000 0.075800 
#    y 0.000000 1.848440 0.000000 
#    z 0.075800 0.000000 1.843620 
# 
# From -- ./inp_files/250128.got.cif
#   From: 2010.05.17/outbox.cif.g08.bks.cpg/sg12_126_cif.got.tgz:250128.got - 2010.06.03 13:09:07.
