data_PCOD9193324
_publ_section_title
;
Structure prediction by ZEFSAII (Michael W. Deem and Ramdas Pophale) SiO2 
 PCOD9193324
Probable space group: C 2/M
;
_chemical_formula_sum "Si O2"
_cell_formula_units_Z 56
_cell_length_a 32.259133
_cell_length_b 8.933657
_cell_length_c 18.658946
_cell_angle_alpha 90.000000
_cell_angle_beta 34.766145
_cell_angle_gamma 90.000000
_cell_volume 3066.322393
_symmetry_space_group_name_H-M "C 2/M"
_symmetry_group_IT_number 12
_symmetry_cell_setting 'monoclinic'
loop_
_space_group_symop_operation_xyz
x,y,z
-x,y,-z
-x,-y,-z
x,-y,z
1/2+x,1/2+y,z
1/2-x,1/2+y,-z
1/2-x,1/2-y,-z
1/2+x,1/2-y,z
loop_
_atom_site_type_symbol
_atom_site_label
_atom_site_fract_x
_atom_site_fract_y
_atom_site_fract_z
Si Si1 0.929791 0.322827 0.552429
Si Si2 0.555826 0.334511 0.129369
Si Si3 0.329152 0.180414 0.404745
Si Si4 0.457772 0.324041 0.130512
Si Si5 0.331904 0.670392 0.800855
Si Si6 0.839899 0.667940 0.931352
Si Si7 0.908681 0.174023 0.427535
O O1 0.937165 0.500000 0.530343
O O2 0.862312 0.281676 0.698759
O O3 0.916510 0.244630 0.495008
O O4 0.000000 0.272319 0.500000
O O5 0.589471 0.500000 0.087720
O O6 0.518339 0.319835 0.106323
O O7 0.613566 0.209612 0.066093
O O8 0.489142 0.323323 0.279256
O O9 0.250000 0.250000 0.500000
O O10 0.388027 0.237446 0.261597
O O11 0.358259 0.240251 0.440931
O O12 0.326243 0.000000 0.409177
O O13 0.437283 0.500000 0.148755
O O14 0.500000 0.268785 0.000000
O O15 0.353154 0.500000 0.754065
O O16 0.359746 0.719348 0.839445
O O17 0.244953 0.679319 0.930398
O O18 0.855155 0.500000 0.884523
O O19 0.885372 0.000000 0.464858
#
# Coordination Sequence:
#
# PCOD9193324 Si02
#       7
#     8   8   8   8   8   8   8
#     4  11  23  37  55  82 113 146 187 234 282 334
#     4   9  18  33  56  82 107 142 180 220 275 335
#     4  11  22  39  63  89 119 158 199 243 298 355
#     4   9  19  38  61  86 117 150 191 240 289 347
#     4  10  21  36  53  74 105 145 184 226 274 327
#     4  10  20  34  53  77 105 140 181 228 274 325
#     4  10  21  38  59  84 114 148 190 235 281 341
#
# _framework density 18.262920000000001
#
# number of rings (size 3 to 8) (size 9 to 14) (size 15 to 20)
#    0.000    2.000    0.000    4.714    0.000    8.286 
#    2.571    0.000    0.000    0.000    0.000    0.000 
#    0.000    0.000    0.000    0.000    0.000    0.000 
#
# Total GULP energy -156182.401087 kJ/mol
# GULP energy per Si atom -5577.942896 kJ/mol
# Density = 1.822135 g / cm^3
# Si number density = 18.262920 Si / 1000 Ang^3
#
#
#
# Elastic Constant Matrix: (Units=GPa)
#
#
# Indices 1 2 3 4 5 6 
#
# 1 94.4225 56.9867 54.1852 0.0020 1.0842 -0.0004
# 2 56.9867 94.9570 41.1953 0.0026 -4.5146 -0.0010
# 3 54.1852 41.1953 60.1120 0.0012 21.1034 -0.0006
# 4 0.0020 0.0026 0.0012 25.5717 0.0005 -1.3913
# 5 1.0842 -4.5146 21.1034 0.0005 27.6384 -0.0001
# 6 -0.0004 -0.0010 -0.0006 -1.3913 -0.0001 28.5568
#
#
#
# Elastic Compliance Matrix: (Units=1/GPa)
#
#
# Indices 1 2 3 4 5 6 
#
# 1 0.033914 -0.002097 -0.039000 -0.000001 0.028106 0.000000
# 2 -0.002097 0.020570 -0.018327 -0.000001 0.017436 0.000000
# 3 -0.039000 -0.018327 0.088620 0.000002 -0.069130 0.000001
# 4 -0.000001 -0.000001 0.000002 0.039210 -0.000003 0.001910
# 5 0.028106 0.017436 -0.069130 -0.000003 0.090712 0.000000
# 6 0.000000 0.000000 0.000001 0.001910 0.000000 0.035111
#
#
# Mechanical properties :
#
#
# Convention : Reuss Voigt Hill
#
# Bulk Modulus (GPa) = 41.23051 61.58065 51.40558
# Shear Modulus (GPa) = 11.49239 22.82833 17.16036
#
# Velocity S-wave (km/s) = 2.51126 3.53934 3.06866
# Velocity P-wave (km/s) = 5.57078 7.10597 6.38468
#
# Compressibility (1/GPa) = 0.02425388
#
# Stress axis : x y z
#
# Youngs Moduli (GPa) = 29.48594 48.61525 11.28417
#
# Poissons Ratio (x) = 0.10196 0.44009
# Poissons Ratio (y) = 0.06184 0.20681
# Poissons Ratio (z) = 1.14996 0.89099
#
# Static dielectric constant tensor:
#      x y z
#    x 1.630070 0.000000 0.003650 
#    y 0.000000 1.640370 0.000000 
#    z 0.003650 0.000000 1.619330 
# 
# From -- ./inp_files/295076.got.cif
#   From: 2010.05.17/outbox.cif.g08.bks.cpg/sg12_148_cif.got.tgz:295076.got - 2010.06.03 13:09:07.
