data_PCOD9193380
_publ_section_title
;
Structure prediction by ZEFSAII (Michael W. Deem and Ramdas Pophale) SiO2 
 PCOD9193380
Probable space group: C 2/M
;
_chemical_formula_sum "Si O2"
_cell_formula_units_Z 64
_cell_length_a 14.893109
_cell_length_b 8.476609
_cell_length_c 27.357898
_cell_angle_alpha 90.000000
_cell_angle_beta 103.129258
_cell_angle_gamma 90.000000
_cell_volume 3363.464268
_symmetry_space_group_name_H-M "C 2/M"
_symmetry_group_IT_number 12
_symmetry_cell_setting 'monoclinic'
loop_
_space_group_symop_operation_xyz
x,y,z
-x,y,-z
-x,-y,-z
x,-y,z
1/2+x,1/2+y,z
1/2-x,1/2+y,-z
1/2-x,1/2-y,-z
1/2+x,1/2-y,z
loop_
_atom_site_type_symbol
_atom_site_label
_atom_site_fract_x
_atom_site_fract_y
_atom_site_fract_z
Si Si1 0.556153 0.191695 0.363564
Si Si2 0.855374 0.187843 0.192445
Si Si3 0.715029 0.690594 0.921660
Si Si4 0.461445 0.188617 0.748627
Si Si5 0.603090 0.190662 0.999294
Si Si6 0.755853 0.813144 0.729254
Si Si7 0.054142 0.309149 0.555035
Si Si8 0.767153 0.188738 0.379627
O O1 0.521791 0.240840 0.305700
O O2 0.498350 0.247179 0.402580
O O3 0.663256 0.237953 0.380474
O O4 0.553166 0.000000 0.363377
O O5 0.810094 0.242185 0.136026
O O6 0.807177 0.266797 0.233037
O O7 0.963085 0.231222 0.208026
O O8 0.844017 0.000000 0.194886
O O9 0.712784 0.500000 0.922389
O O10 0.640720 0.751826 0.951684
O O11 0.816874 0.740547 0.952537
O O12 0.356256 0.233395 0.747010
O O13 0.471530 0.000000 0.752414
O O14 0.601423 0.000000 0.998627
O O15 0.500000 0.245611 0.000000
O O16 0.714589 0.756354 0.672339
O O17 0.767083 0.000000 0.728510
O O18 0.055124 0.500000 0.555325
O O19 0.157808 0.248959 0.573034
O O20 0.000000 0.257653 0.500000
O O21 0.769352 0.000000 0.377080
#
# Coordination Sequence:
#
# PCOD9193380 Si02
#       8
#     8   8   8   8   8   8   8   8
#     4   8  17  34  53  73 101 136 171 213 266 320
#     4  11  22  36  54  81 118 152 183 223 274 331
#     4   9  20  36  53  79 112 142 178 226 272 320
#     4  10  20  36  57  80 108 145 188 230 273 324
#     4   9  18  35  58  80 104 141 187 229 271 320
#     4  11  22  37  57  82 111 144 184 227 277 335
#     4  10  20  34  53  78 107 139 177 222 274 333
#     4  10  20  36  56  76 103 140 181 225 272 326
#
# _framework density 19.027999999999999
#
# number of rings (size 3 to 8) (size 9 to 14) (size 15 to 20)
#    0.000    2.250    0.000    3.750    0.000    4.000 
#    0.000    4.375    0.000    0.000    0.000    0.000 
#    0.000    0.000    0.000    0.000    0.000    0.000 
#
# Total GULP energy -178653.397352 kJ/mol
# GULP energy per Si atom -5582.918667 kJ/mol
# Density = 1.898469 g / cm^3
# Si number density = 19.028000 Si / 1000 Ang^3
#
#
#
# Elastic Constant Matrix: (Units=GPa)
#
#
# Indices 1 2 3 4 5 6 
#
# 1 78.8612 1.7440 30.7345 0.0000 12.0204 0.0000
# 2 1.7440 22.6299 12.6581 0.0000 0.8268 0.0000
# 3 30.7345 12.6581 69.0283 0.0000 23.4818 0.0000
# 4 0.0000 0.0000 0.0000 23.9270 0.0000 3.3543
# 5 12.0204 0.8268 23.4818 0.0000 16.9908 0.0000
# 6 0.0000 0.0000 0.0000 3.3543 0.0000 26.1045
#
#
#
# Elastic Compliance Matrix: (Units=1/GPa)
#
#
# Indices 1 2 3 4 5 6 
#
# 1 0.015544 0.002694 -0.006850 0.000000 -0.001661 0.000000
# 2 0.002694 0.053198 -0.017789 0.000000 0.020090 0.000000
# 3 -0.006850 -0.017789 0.035586 0.000000 -0.043469 0.000000
# 4 0.000000 0.000000 0.000000 0.042560 0.000000 -0.005469
# 5 -0.001661 0.020090 -0.043469 0.000000 0.119128 0.000000
# 6 0.000000 0.000000 0.000000 -0.005469 0.000000 0.039010
#
#
# Mechanical properties :
#
#
# Convention : Reuss Voigt Hill
#
# Bulk Modulus (GPa) = 16.54574 28.97696 22.76135
# Shear Modulus (GPa) = 13.54786 21.76333 17.65560
#
# Velocity S-wave (km/s) = 2.67122 3.38561 3.04941
# Velocity P-wave (km/s) = 4.26945 5.52673 4.93827
#
# Compressibility (1/GPa) = 0.06043851
#
# Stress axis : x y z
#
# Youngs Moduli (GPa) = 64.33500 18.79762 28.10115
#
# Poissons Ratio (x) = -0.05064 0.19248
# Poissons Ratio (y) = -0.17333 0.49989
# Poissons Ratio (z) = 0.44067 0.33439
#
# Static dielectric constant tensor:
#      x y z
#    x 1.652320 0.000000 0.008100 
#    y 0.000000 1.645360 0.000000 
#    z 0.008100 0.000000 1.647990 
# 
# From -- ./inp_files/359926.got.cif
#   From: 2010.05.17/outbox.cif.g08.bks.cpg/sg12_180_cif.got.tgz:359926.got - 2010.06.03 13:09:07.
