data_PCOD9193495
_publ_section_title
;
Structure prediction by ZEFSAII (Michael W. Deem and Ramdas Pophale) SiO2 
 PCOD9193495
Probable space group: C 2/M
;
_chemical_formula_sum "Si O2"
_cell_formula_units_Z 56
_cell_length_a 30.851943
_cell_length_b 8.680698
_cell_length_c 12.869978
_cell_angle_alpha 90.000000
_cell_angle_beta 105.489855
_cell_angle_gamma 90.000000
_cell_volume 3321.595986
_symmetry_space_group_name_H-M "C 2/M"
_symmetry_group_IT_number 12
_symmetry_cell_setting 'monoclinic'
loop_
_space_group_symop_operation_xyz
x,y,z
-x,y,-z
-x,-y,-z
x,-y,z
1/2+x,1/2+y,z
1/2-x,1/2+y,-z
1/2-x,1/2-y,-z
1/2+x,1/2-y,z
loop_
_atom_site_type_symbol
_atom_site_label
_atom_site_fract_x
_atom_site_fract_y
_atom_site_fract_z
Si Si1 0.297661 0.815724 0.654701
Si Si2 0.391786 0.315536 0.402226
Si Si3 0.952520 0.812648 0.019124
Si Si4 0.611605 0.314822 0.205311
Si Si5 0.443781 0.816101 0.634796
Si Si6 0.958367 0.186213 0.260988
Si Si7 0.299501 0.184285 0.411824
O O1 0.338221 0.746922 0.746976
O O2 0.305765 0.774012 0.538178
O O3 0.248754 0.750629 0.651689
O O4 0.297626 0.000000 0.661816
O O5 0.391004 0.500000 0.411927
O O6 0.419257 0.246055 0.516517
O O7 0.418181 0.275505 0.313746
O O8 0.341338 0.252068 0.376256
O O9 0.949151 0.764371 0.136539
O O10 0.953104 0.000000 0.019432
O O11 0.912299 0.765526 0.917121
O O12 0.000000 0.761839 0.000000
O O13 0.611633 0.500000 0.210233
O O14 0.581607 0.251795 0.281037
O O15 0.495209 0.760649 0.671299
O O16 0.440962 0.000000 0.635240
O O17 0.964142 0.000000 0.265543
O O18 0.299081 0.000000 0.404557
#
# Coordination Sequence:
#
# PCOD9193495 Si02
#       7
#     8   8   8   8   8   8   8
#     4  10  20  34  53  80 111 140 173 218 268 316
#     4  11  22  35  55  79 108 144 180 219 265 320
#     4   9  17  33  57  80 103 137 181 226 266 309
#     4  11  20  33  57  81 108 142 178 220 268 318
#     4  12  23  34  50  77 112 146 179 219 266 315
#     4  10  21  38  56  77 105 143 186 222 263 318
#     4  10  20  34  54  79 110 142 174 215 265 320
#
# _framework density 16.859366000000001
#
# number of rings (size 3 to 8) (size 9 to 14) (size 15 to 20)
#    0.000    1.571    2.857    3.429    0.000    4.000 
#    0.000    2.143    0.000    0.857    0.000    0.000 
#    0.000    0.000    0.000    0.000    0.000    0.000 
#
# Total GULP energy -156400.418084 kJ/mol
# GULP energy per Si atom -5585.729217 kJ/mol
# Density = 1.682099 g / cm^3
# Si number density = 16.859366 Si / 1000 Ang^3
#
#
#
# Elastic Constant Matrix: (Units=GPa)
#
#
# Indices 1 2 3 4 5 6 
#
# 1 167.0600 50.7553 76.1876 0.0000 12.5746 0.0000
# 2 50.7553 49.6540 29.6796 0.0000 2.9107 0.0000
# 3 76.1876 29.6796 71.5586 0.0000 4.3931 0.0000
# 4 0.0000 0.0000 0.0000 7.5298 0.0000 7.5041
# 5 12.5746 2.9107 4.3931 0.0000 29.3535 0.0000
# 6 0.0000 0.0000 0.0000 7.5041 0.0000 29.4096
#
#
#
# Elastic Compliance Matrix: (Units=1/GPa)
#
#
# Indices 1 2 3 4 5 6 
#
# 1 0.013465 -0.006808 -0.011304 0.000000 -0.003402 0.000000
# 2 -0.006808 0.030249 -0.005342 0.000000 0.000716 0.000000
# 3 -0.011304 -0.005342 0.028154 0.000000 0.001159 0.000000
# 4 0.000000 0.000000 0.000000 0.178091 0.000000 -0.045441
# 5 -0.003402 0.000716 0.001159 0.000000 0.035280 0.000000
# 6 0.000000 0.000000 0.000000 -0.045441 0.000000 0.045597
#
#
# Mechanical properties :
#
#
# Convention : Reuss Voigt Hill
#
# Bulk Modulus (GPa) = 40.06179 66.83529 53.44854
# Shear Modulus (GPa) = 12.95116 22.03525 17.49321
#
# Velocity S-wave (km/s) = 2.77463 3.61917 3.22467
# Velocity P-wave (km/s) = 5.83769 7.56263 6.75545
#
# Compressibility (1/GPa) = 0.02496144
#
# Stress axis : x y z
#
# Youngs Moduli (GPa) = 74.26408 33.05857 35.51862
#
# Poissons Ratio (x) = 0.22506 0.40150
# Poissons Ratio (y) = 0.50559 0.18973
# Poissons Ratio (z) = 0.83948 0.17659
#
# Static dielectric constant tensor:
#      x y z
#    x 1.553420 0.000000 -0.000370 
#    y 0.000000 1.566830 0.000000 
#    z -0.000370 0.000000 1.554920 
# 
# From -- ./inp_files/186837.got.cif
#   From: 2010.05.17/outbox.cif.g08.bks.cpg/sg12_94_cif.got.tgz:186837.got - 2010.06.03 13:09:07.
