data_PCOD9193875
_publ_section_title
;
Structure prediction by ZEFSAII (Michael W. Deem and Ramdas Pophale) SiO2 
 PCOD9193875
Probable space group: C 2/M
;
_chemical_formula_sum "Si O2"
_cell_formula_units_Z 40
_cell_length_a 16.270431
_cell_length_b 18.051202
_cell_length_c 10.220828
_cell_angle_alpha 90.000000
_cell_angle_beta 132.878479
_cell_angle_gamma 90.000000
_cell_volume 2199.762810
_symmetry_space_group_name_H-M "C 2/M"
_symmetry_group_IT_number 12
_symmetry_cell_setting 'monoclinic'
loop_
_space_group_symop_operation_xyz
x,y,z
-x,y,-z
-x,-y,-z
x,-y,z
1/2+x,1/2+y,z
1/2-x,1/2+y,-z
1/2-x,1/2-y,-z
1/2+x,1/2-y,z
loop_
_atom_site_type_symbol
_atom_site_label
_atom_site_fract_x
_atom_site_fract_y
_atom_site_fract_z
Si Si1 0.869166 0.135232 0.337286
Si Si2 0.366504 0.418130 0.841756
Si Si3 0.649645 0.694968 0.409411
Si Si4 0.056053 0.286720 0.696094
Si Si5 0.721485 0.084190 0.945638
O O1 0.827367 0.144106 0.439062
O O2 0.869177 0.217945 0.274160
O O3 0.000000 0.112644 0.500000
O O4 0.796260 0.088668 0.157934
O O5 0.326586 0.500000 0.755343
O O6 0.351280 0.355630 0.718404
O O7 0.304253 0.402117 0.911267
O O8 0.500000 0.422484 0.000000
O O9 0.750000 0.750000 0.500000
O O10 0.538077 0.744221 0.318989
O O11 0.126889 0.351911 0.839009
O O12 0.000000 0.316005 0.500000
O O13 0.676925 0.000000 0.884764
#
# Coordination Sequence:
#
# PCOD9193875 Si02
#       5
#     8   8   8   8   8
#     4   9  19  35  55  79 110 147 187 232 276 331
#     4  10  20  34  54  82 112 141 181 234 283 325
#     4  10  20  35  57  81 107 144 187 235 284 331
#     4   9  19  36  56  80 109 145 192 235 277 335
#     4  11  22  36  57  84 116 152 187 228 283 345
#
# _framework density 18.183779000000001
#
# number of rings (size 3 to 8) (size 9 to 14) (size 15 to 20)
#    0.000    2.600    0.000    5.400    0.000    3.200 
#    0.000    1.000    0.000    1.800    0.000    0.000 
#    0.000    0.000    0.000    0.000    0.000    0.000 
#
# Total GULP energy -111413.388438 kJ/mol
# GULP energy per Si atom -5570.669422 kJ/mol
# Density = 1.814239 g / cm^3
# Si number density = 18.183779 Si / 1000 Ang^3
#
#
#
# Elastic Constant Matrix: (Units=GPa)
#
#
# Indices 1 2 3 4 5 6 
#
# 1 55.6240 19.7445 25.8968 0.0000 -14.3717 0.0000
# 2 19.7445 74.3322 51.7882 0.0000 8.3744 0.0000
# 3 25.8968 51.7882 90.2772 0.0000 -4.8875 0.0000
# 4 0.0000 0.0000 0.0000 32.9050 0.0000 2.4918
# 5 -14.3717 8.3744 -4.8875 0.0000 16.7456 0.0000
# 6 0.0000 0.0000 0.0000 2.4918 0.0000 2.1012
#
#
#
# Elastic Compliance Matrix: (Units=1/GPa)
#
#
# Indices 1 2 3 4 5 6 
#
# 1 0.030365 -0.011218 -0.000569 0.000000 0.031504 0.000000
# 2 -0.011218 0.031141 -0.016268 0.000000 -0.029949 0.000000
# 3 -0.000569 -0.016268 0.021323 0.000000 0.013870 0.000000
# 4 0.000000 0.000000 0.000000 0.033389 0.000000 -0.039597
# 5 0.031504 -0.029949 0.013870 0.000000 0.105781 0.000000
# 6 0.000000 0.000000 0.000000 -0.039597 0.000000 0.522882
#
#
# Mechanical properties :
#
#
# Convention : Reuss Voigt Hill
#
# Bulk Modulus (GPa) = 37.42716 46.12138 41.77427
# Shear Modulus (GPa) = 6.17361 18.53728 12.35544
#
# Velocity S-wave (km/s) = 1.84458 3.19633 2.60950
# Velocity P-wave (km/s) = 5.01638 6.24829 5.66592
#
# Compressibility (1/GPa) = 0.02671856
#
# Stress axis : x y z
#
# Youngs Moduli (GPa) = 32.93280 32.11196 46.89700
#
# Poissons Ratio (x) = 0.36024 0.02670
# Poissons Ratio (y) = 0.36945 0.76290
# Poissons Ratio (z) = 0.01875 0.52239
#
# Static dielectric constant tensor:
#      x y z
#    x 1.616750 0.000000 0.006780 
#    y 0.000000 1.624400 0.000000 
#    z 0.006780 0.000000 1.617610 
# 
# From -- ./inp_files/63139.got.cif
#   From: 2010.05.17/outbox.cif.g08.bks.cpg/sg12_32_cif.got.tgz:63139.got - 2010.06.03 13:09:07.
