data_PCOD9193535
_publ_section_title
;
Structure prediction by ZEFSAII (Michael W. Deem and Ramdas Pophale) SiO2 
 PCOD9193535
Probable space group: C 2/M
;
_chemical_formula_sum "Si O2"
_cell_formula_units_Z 50
_cell_length_a 17.247495
_cell_length_b 18.827657
_cell_length_c 7.571693
_cell_angle_alpha 90.000000
_cell_angle_beta 58.526783
_cell_angle_gamma 90.000000
_cell_volume 2097.033795
_symmetry_space_group_name_H-M "C 2/M"
_symmetry_group_IT_number 12
_symmetry_cell_setting 'monoclinic'
loop_
_space_group_symop_operation_xyz
x,y,z
-x,y,-z
-x,-y,-z
x,-y,z
1/2+x,1/2+y,z
1/2-x,1/2+y,-z
1/2-x,1/2-y,-z
1/2+x,1/2-y,z
loop_
_atom_site_type_symbol
_atom_site_label
_atom_site_fract_x
_atom_site_fract_y
_atom_site_fract_z
Si Si1 0.135609 0.286151 0.470289
Si Si2 0.427754 0.372894 0.845796
Si Si3 0.437506 0.218646 0.838651
Si Si4 0.632422 0.632821 0.464410
Si Si5 0.000000 0.000000 0.000000
Si Si6 0.396852 0.924810 0.057517
Si Si7 0.768260 0.575401 0.549622
O O1 0.092452 0.276887 0.328494
O O2 0.179405 0.208851 0.446539
O O3 0.201197 0.353825 0.387266
O O4 0.047478 0.293871 0.705454
O O5 0.409330 0.295105 0.952193
O O6 0.364306 0.386687 0.747732
O O7 0.527514 0.360956 0.641930
O O8 0.441156 0.437281 0.962719
O O9 0.387550 0.149540 0.971067
O O10 0.673345 0.580048 0.559356
O O11 0.335869 0.925301 0.302660
O O12 0.379514 0.000000 0.979287
O O13 0.500000 0.926784 0.000000
O O14 0.776225 0.500000 0.637151
#
# Coordination Sequence:
#
# PCOD9193535 Si02
#       7
#     8   8   8   8   2   8   8
#     4   9  18  35  57  87 107 148 197 236 279 347
#     4   9  22  39  61  89 108 152 191 239 294 350
#     4   9  18  36  60  80 117 148 188 238 291 334
#     4   9  20  41  62  78 117 153 192 233 293 346
#     4  12  24  34  60  92 114 138 202 234 288 344
#     4  10  20  34  53  81 114 154 192 227 286 344
#     4  11  22  33  56  86 114 153 196 235 282 339
#
# _framework density 23.843202000000002
#
# number of rings (size 3 to 8) (size 9 to 14) (size 15 to 20)
#    0.000    2.400    1.600    2.400    3.360    1.280 
#    0.000    6.400    0.000    0.000    0.000    0.000 
#    0.000    0.000    0.000    0.000    0.000    0.000 
#
# Total GULP energy -139212.016029 kJ/mol
# GULP energy per Si atom -5568.480641 kJ/mol
# Density = 2.378893 g / cm^3
# Si number density = 23.843202 Si / 1000 Ang^3
#
#
#
# Elastic Constant Matrix: (Units=GPa)
#
#
# Indices 1 2 3 4 5 6 
#
# 1 57.0186 33.9453 2.3368 0.0000 11.2220 0.0000
# 2 33.9453 236.8352 26.7191 0.0000 33.2163 0.0000
# 3 2.3368 26.7191 38.1188 0.0000 5.3551 0.0000
# 4 0.0000 0.0000 0.0000 32.1765 0.0000 8.3392
# 5 11.2220 33.2163 5.3551 0.0000 22.9510 0.0000
# 6 0.0000 0.0000 0.0000 8.3392 0.0000 9.1508
#
#
#
# Elastic Compliance Matrix: (Units=1/GPa)
#
#
# Indices 1 2 3 4 5 6 
#
# 1 0.020101 -0.002004 0.001185 0.000000 -0.007204 0.000000
# 2 -0.002004 0.005786 -0.002992 0.000000 -0.006696 0.000000
# 3 0.001185 -0.002992 0.028671 0.000000 -0.002938 0.000000
# 4 0.000000 0.000000 0.000000 0.040689 0.000000 -0.037080
# 5 -0.007204 -0.006696 -0.002938 0.000000 0.057470 0.000000
# 6 0.000000 0.000000 0.000000 -0.037080 0.000000 0.143072
#
#
# Mechanical properties :
#
#
# Convention : Reuss Voigt Hill
#
# Bulk Modulus (GPa) = 21.30625 50.88611 36.09618
# Shear Modulus (GPa) = 15.67115 30.78709 23.22912
#
# Velocity S-wave (km/s) = 2.56649 3.59727 3.12468
# Velocity P-wave (km/s) = 4.21163 6.21628 5.30942
#
# Compressibility (1/GPa) = 0.04693458
#
# Stress axis : x y z
#
# Youngs Moduli (GPa) = 49.74966 172.82061 34.87796
#
# Poissons Ratio (x) = 0.34638 -0.04132
# Poissons Ratio (y) = 0.09971 0.10437
# Poissons Ratio (z) = -0.05894 0.51713
#
# Static dielectric constant tensor:
#      x y z
#    x 2.498630 0.000000 -0.265860 
#    y 0.000000 1.806610 0.000000 
#    z -0.265860 0.000000 2.015430 
# 
# From -- ./inp_files/75164.got.cif
#   From: 2010.05.17/outbox.cif.g08.bks.cpg/sg12_38_cif.got.tgz:75164.got - 2010.06.03 13:09:07.
