data_PCOD9193062
_publ_section_title
;
Structure prediction by ZEFSAII (Michael W. Deem and Ramdas Pophale) SiO2 
 PCOD9193062
Probable space group: C 2/M
;
_chemical_formula_sum "Si O2"
_cell_formula_units_Z 48
_cell_length_a 13.933844
_cell_length_b 21.867410
_cell_length_c 7.605504
_cell_angle_alpha 90.000000
_cell_angle_beta 79.782471
_cell_angle_gamma 90.000000
_cell_volume 2280.624502
_symmetry_space_group_name_H-M "C 2/M"
_symmetry_group_IT_number 12
_symmetry_cell_setting 'monoclinic'
loop_
_space_group_symop_operation_xyz
x,y,z
-x,y,-z
-x,-y,-z
x,-y,z
1/2+x,1/2+y,z
1/2-x,1/2+y,-z
1/2-x,1/2-y,-z
1/2+x,1/2-y,z
loop_
_atom_site_type_symbol
_atom_site_label
_atom_site_fract_x
_atom_site_fract_y
_atom_site_fract_z
Si Si1 0.824802 0.304889 0.420598
Si Si2 0.754296 0.933181 0.501824
Si Si3 0.542506 0.394955 0.684613
Si Si4 0.791741 0.806040 0.882868
Si Si5 0.339280 0.565279 0.876244
Si Si6 0.504822 0.736722 0.792505
O O1 0.750000 0.250000 0.500000
O O2 0.806218 0.370789 0.517672
O O3 0.787670 0.318034 0.237388
O O4 0.934544 0.281084 0.354013
O O5 0.855557 0.928535 0.363143
O O6 0.792021 0.933319 0.694399
O O7 0.707628 0.000000 0.486208
O O8 0.500000 0.385963 0.500000
O O9 0.455662 0.429114 0.812487
O O10 0.558728 0.328471 0.762928
O O11 0.808470 0.870735 0.972109
O O12 0.895108 0.781969 0.772843
O O13 0.750000 0.750000 0.000000
O O14 0.313578 0.500000 0.965562
O O15 0.500000 0.756057 0.000000
#
# Coordination Sequence:
#
# PCOD9193062 Si02
#       6
#     8   8   8   8   8   8
#     4  11  21  34  55  80 105 135 180 214 257 311
#     4   9  16  28  48  75 104 131 168 219 257 297
#     4   9  16  28  49  76 104 132 168 206 261 320
#     4  10  20  34  52  76 106 140 173 213 265 309
#     4   8  15  26  46  73 102 133 168 210 259 310
#     4  11  21  33  52  76 112 139 169 214 264 304
#
# _framework density 21.046865
#
# number of rings (size 3 to 8) (size 9 to 14) (size 15 to 20)
#    0.000    2.333    3.333    1.500    0.000    2.000 
#    0.000    0.000    0.000   19.000    0.000    1.167 
#    0.000    0.000    0.000    0.000    0.000    0.000 
#
# Total GULP energy -133718.075968 kJ/mol
# GULP energy per Si atom -5571.586499 kJ/mol
# Density = 2.099896 g / cm^3
# Si number density = 21.046865 Si / 1000 Ang^3
#
#
#
# Elastic Constant Matrix: (Units=GPa)
#
#
# Indices 1 2 3 4 5 6 
#
# 1 56.8779 34.4475 10.8310 0.0000 -7.6540 0.0000
# 2 34.4475 210.2890 32.0438 0.0000 -33.5862 0.0000
# 3 10.8310 32.0438 32.7715 0.0000 -3.0589 0.0000
# 4 0.0000 0.0000 0.0000 22.6960 0.0000 -4.9969
# 5 -7.6540 -33.5862 -3.0589 0.0000 23.4202 0.0000
# 6 0.0000 0.0000 0.0000 -4.9969 0.0000 17.9684
#
#
#
# Elastic Compliance Matrix: (Units=1/GPa)
#
#
# Indices 1 2 3 4 5 6 
#
# 1 0.020100 -0.002187 -0.004236 0.000000 0.002879 0.000000
# 2 -0.002187 0.007459 -0.005708 0.000000 0.009236 0.000000
# 3 -0.004236 -0.005708 0.037054 0.000000 -0.004730 0.000000
# 4 0.000000 0.000000 0.000000 0.046934 0.000000 0.013052
# 5 0.002879 0.009236 -0.004730 0.000000 0.056266 0.000000
# 6 0.000000 0.000000 0.000000 0.013052 0.000000 0.059283
#
#
# Mechanical properties :
#
#
# Convention : Reuss Voigt Hill
#
# Bulk Modulus (GPa) = 24.78264 50.50921 37.64593
# Shear Modulus (GPa) = 18.88163 27.65800 23.26981
#
# Velocity S-wave (km/s) = 2.99845 3.62900 3.32869
# Velocity P-wave (km/s) = 4.87731 6.45059 5.71832
#
# Compressibility (1/GPa) = 0.04035083
#
# Stress axis : x y z
#
# Youngs Moduli (GPa) = 49.75057 134.07499 26.98777
#
# Poissons Ratio (x) = 0.29328 0.11431
# Poissons Ratio (y) = 0.10883 0.15404
# Poissons Ratio (z) = 0.21072 0.76528
#
# Static dielectric constant tensor:
#      x y z
#    x 1.628470 0.000000 -0.057390 
#    y 0.000000 1.884120 0.000000 
#    z -0.057390 0.000000 1.804380 
# 
# From -- ./inp_files/63329.got.cif
#   From: 2010.05.17/outbox.cif.g08.bks.cpg/sg12_32_cif.got.tgz:63329.got - 2010.06.03 13:09:07.
