data_PCOD9193758
_publ_section_title
;
Structure prediction by ZEFSAII (Michael W. Deem and Ramdas Pophale) SiO2 
 PCOD9193758
Probable space group: C 2/M
;
_chemical_formula_sum "Si O2"
_cell_formula_units_Z 64
_cell_length_a 15.136575
_cell_length_b 7.733360
_cell_length_c 26.915748
_cell_angle_alpha 90.000000
_cell_angle_beta 105.726924
_cell_angle_gamma 90.000000
_cell_volume 3032.718711
_symmetry_space_group_name_H-M "C 2/M"
_symmetry_group_IT_number 12
_symmetry_cell_setting 'monoclinic'
loop_
_space_group_symop_operation_xyz
x,y,z
-x,y,-z
-x,-y,-z
x,-y,z
1/2+x,1/2+y,z
1/2-x,1/2+y,-z
1/2-x,1/2-y,-z
1/2+x,1/2-y,z
loop_
_atom_site_type_symbol
_atom_site_label
_atom_site_fract_x
_atom_site_fract_y
_atom_site_fract_z
Si Si1 0.285733 0.707495 0.779307
Si Si2 0.286823 0.209472 0.579073
Si Si3 0.906920 0.793889 0.889506
Si Si4 0.230735 0.704476 0.053720
Si Si5 0.611832 0.790738 0.306675
Si Si6 0.912008 0.210453 0.133859
Si Si7 0.918286 0.703684 0.248482
Si Si8 0.101198 0.293851 0.500409
O O1 0.278372 0.500000 0.784570
O O2 0.338159 0.775499 0.836190
O O3 0.342982 0.741891 0.738651
O O4 0.182737 0.778750 0.757846
O O5 0.328290 0.269502 0.637594
O O6 0.181981 0.263437 0.552782
O O7 0.352625 0.271955 0.543930
O O8 0.287934 0.000000 0.578394
O O9 0.865136 0.759243 0.936918
O O10 0.008856 0.732727 0.892207
O O11 0.909625 0.000000 0.884039
O O12 0.234623 0.500000 0.058157
O O13 0.313543 0.775699 0.100370
O O14 0.250000 0.750000 0.000000
O O15 0.506827 0.725220 0.290452
O O16 0.609052 0.000000 0.308396
O O17 0.935039 0.275252 0.192206
O O18 0.910340 0.000000 0.135657
O O19 0.913935 0.500000 0.259776
O O20 0.090710 0.500000 0.492513
O O21 0.000000 0.226045 0.500000
#
# Coordination Sequence:
#
# PCOD9193758 Si02
#       8
#     8   8   8   8   8   8   8   8
#     4  10  20  34  55  81 108 143 183 223 266 318
#     4   9  19  35  52  77 113 146 179 225 275 322
#     4  10  20  37  59  82 109 140 178 223 269 321
#     4  11  24  40  59  83 110 143 180 226 277 327
#     4  10  21  35  52  78 114 148 179 221 271 322
#     4  10  21  37  58  81 108 142 178 218 270 325
#     4  10  20  34  54  80 108 142 180 220 266 316
#     4   9  18  34  58  82 104 141 188 230 275 326
#
# _framework density 21.103176999999999
#
# number of rings (size 3 to 8) (size 9 to 14) (size 15 to 20)
#    0.000    2.125    2.500    0.375    0.000    4.250 
#    0.000    5.000    0.000    0.000    0.000    0.000 
#    0.000    0.000    0.000    0.000    0.000    0.000 
#
# Total GULP energy -178624.932619 kJ/mol
# GULP energy per Si atom -5582.029144 kJ/mol
# Density = 2.105515 g / cm^3
# Si number density = 21.103177 Si / 1000 Ang^3
#
#
#
# Elastic Constant Matrix: (Units=GPa)
#
#
# Indices 1 2 3 4 5 6 
#
# 1 91.9995 6.0476 -24.7357 0.0000 -6.6519 0.0000
# 2 6.0476 23.2955 -12.4879 0.0000 -0.2302 0.0000
# 3 -24.7357 -12.4879 25.3931 0.0000 -1.8387 0.0000
# 4 0.0000 0.0000 0.0000 22.2793 0.0000 -4.1323
# 5 -6.6519 -0.2302 -1.8387 0.0000 18.0459 0.0000
# 6 0.0000 0.0000 0.0000 -4.1323 0.0000 12.0271
#
#
#
# Elastic Compliance Matrix: (Units=1/GPa)
#
#
# Indices 1 2 3 4 5 6 
#
# 1 0.016304 0.006349 0.019589 0.000000 0.008087 0.000000
# 2 0.006349 0.061012 0.036685 0.000000 0.006856 0.000000
# 3 0.019589 0.036685 0.077634 0.000000 0.015599 0.000000
# 4 0.000000 0.000000 0.000000 0.047940 0.000000 0.016471
# 5 0.008087 0.006856 0.015599 0.000000 0.060072 0.000000
# 6 0.000000 0.000000 0.000000 0.016471 0.000000 0.088805
#
#
# Mechanical properties :
#
#
# Convention : Reuss Voigt Hill
#
# Bulk Modulus (GPa) = 3.56893 8.70403 6.13648
# Shear Modulus (GPa) = 15.62902 21.92808 18.77855
#
# Velocity S-wave (km/s) = 2.72435 3.22699 2.98626
# Velocity P-wave (km/s) = 3.40455 4.24477 3.84766
#
# Compressibility (1/GPa) = 0.28019584
#
# Stress axis : x y z
#
# Youngs Moduli (GPa) = 61.33469 16.39025 12.88103
#
# Poissons Ratio (x) = -0.10405 -0.25233
# Poissons Ratio (y) = -0.38939 -0.47254
# Poissons Ratio (z) = -1.20152 -0.60128
#
# Static dielectric constant tensor:
#      x y z
#    x 1.765600 0.000000 0.032120 
#    y 0.000000 1.783820 0.000000 
#    z 0.032120 0.000000 1.718070 
# 
# From -- ./inp_files/359876.got.cif
#   From: 2010.05.17/outbox.cif.g08.bks.cpg/sg12_180_cif.got.tgz:359876.got - 2010.06.03 13:09:07.
