data_PCOD9193993
_publ_section_title
;
Structure prediction by ZEFSAII (Michael W. Deem and Ramdas Pophale) SiO2 
 PCOD9193993
Probable space group: C 2/M
;
_chemical_formula_sum "Si O2"
_cell_formula_units_Z 48
_cell_length_a 25.646628
_cell_length_b 7.614671
_cell_length_c 10.946720
_cell_angle_alpha 90.000000
_cell_angle_beta 73.743552
_cell_angle_gamma 90.000000
_cell_volume 2052.319461
_symmetry_space_group_name_H-M "C 2/M"
_symmetry_group_IT_number 12
_symmetry_cell_setting 'monoclinic'
loop_
_space_group_symop_operation_xyz
x,y,z
-x,y,-z
-x,-y,-z
x,-y,z
1/2+x,1/2+y,z
1/2-x,1/2+y,-z
1/2-x,1/2-y,-z
1/2+x,1/2-y,z
loop_
_atom_site_type_symbol
_atom_site_label
_atom_site_fract_x
_atom_site_fract_y
_atom_site_fract_z
Si Si1 0.164160 0.790994 0.501507
Si Si2 0.621127 0.297125 0.143324
Si Si3 0.276475 0.284756 0.785781
Si Si4 0.940617 0.300107 0.052268
Si Si5 0.560154 0.208506 0.429773
Si Si6 0.334238 0.794222 0.227766
O O1 0.198024 0.729587 0.361556
O O2 0.102012 0.742413 0.512166
O O3 0.181515 0.718016 0.620352
O O4 0.169224 0.000000 0.503771
O O5 0.625775 0.500000 0.102351
O O6 0.681062 0.226802 0.138908
O O7 0.588580 0.198858 0.059996
O O8 0.587012 0.290206 0.291541
O O9 0.277085 0.500000 0.787734
O O10 0.214482 0.222588 0.823661
O O11 0.950436 0.500000 0.091168
O O12 0.894009 0.216625 0.167567
O O13 0.000000 0.216794 0.000000
O O14 0.500000 0.273407 0.500000
O O15 0.557072 0.000000 0.409930
O O16 0.338734 0.000000 0.193595
#
# Coordination Sequence:
#
# PCOD9193993 Si02
#       6
#     8   8   8   8   8   8
#     4  10  20  34  54  85 120 144 178 233 285 333
#     4  10  21  38  59  83 112 143 182 236 287 330
#     4   8  17  35  57  83 113 144 182 231 284 335
#     4  10  23  40  56  78 111 151 194 235 274 328
#     4  10  21  36  57  82 110 148 189 225 271 334
#     4  10  20  36  58  80 110 155 195 228 274 331
#
# _framework density 23.388169999999999
#
# number of rings (size 3 to 8) (size 9 to 14) (size 15 to 20)
#    0.000    2.333    0.000    3.000    2.333    3.000 
#    0.000    4.167    0.000    0.000    0.000    0.000 
#    0.000    0.000    0.000    0.000    0.000    0.000 
#
# Total GULP energy -134075.234237 kJ/mol
# GULP energy per Si atom -5586.468093 kJ/mol
# Density = 2.333494 g / cm^3
# Si number density = 23.388170 Si / 1000 Ang^3
#
#
#
# Elastic Constant Matrix: (Units=GPa)
#
#
# Indices 1 2 3 4 5 6 
#
# 1 142.0071 6.0186 18.3126 0.0000 -7.5343 0.0000
# 2 6.0186 63.7044 -3.3161 0.0000 -7.0859 0.0000
# 3 18.3126 -3.3161 60.3244 0.0000 12.4236 0.0000
# 4 0.0000 0.0000 0.0000 24.4430 0.0000 24.7806
# 5 -7.5343 -7.0859 12.4236 0.0000 29.9025 0.0000
# 6 0.0000 0.0000 0.0000 24.7806 0.0000 52.4250
#
#
#
# Elastic Compliance Matrix: (Units=1/GPa)
#
#
# Indices 1 2 3 4 5 6 
#
# 1 0.007607 -0.000537 -0.002960 0.000000 0.003019 0.000000
# 2 -0.000537 0.016161 0.000318 0.000000 0.003562 0.000000
# 3 -0.002960 0.000318 0.019281 0.000000 -0.008681 0.000000
# 4 0.000000 0.000000 0.000000 0.078557 0.000000 -0.037133
# 5 0.003019 0.003562 -0.008681 0.000000 0.038654 0.000000
# 6 0.000000 0.000000 0.000000 -0.037133 0.000000 0.036627
#
#
# Mechanical properties :
#
#
# Convention : Reuss Voigt Hill
#
# Bulk Modulus (GPa) = 27.25581 34.22958 30.74269
# Shear Modulus (GPa) = 23.20446 37.68883 30.44664
#
# Velocity S-wave (km/s) = 3.15325 4.01864 3.61196
# Velocity P-wave (km/s) = 4.99363 6.01663 5.52884
#
# Compressibility (1/GPa) = 0.03668942
#
# Stress axis : x y z
#
# Youngs Moduli (GPa) = 131.46441 61.87731 51.86424
#
# Poissons Ratio (x) = 0.03322 0.15354
# Poissons Ratio (y) = 0.07059 -0.01648
# Poissons Ratio (z) = 0.38920 -0.01966
#
# Static dielectric constant tensor:
#      x y z
#    x 1.908560 0.000000 -0.052160 
#    y 0.000000 1.936680 0.000000 
#    z -0.052160 0.000000 1.893110 
# 
# From -- ./inp_files/172028.got.cif
#   From: 2010.05.17/outbox.cif.g08.bks.cpg/sg12_87_cif.got.tgz:172028.got - 2010.06.03 13:09:07.
