data_PCOD9193359
_publ_section_title
;
Structure prediction by ZEFSAII (Michael W. Deem and Ramdas Pophale) SiO2 
 PCOD9193359
Probable space group: C 2/M
;
_chemical_formula_sum "Si O2"
_cell_formula_units_Z 64
_cell_length_a 24.362844
_cell_length_b 7.613690
_cell_length_c 16.716011
_cell_angle_alpha 90.000000
_cell_angle_beta 79.561717
_cell_angle_gamma 90.000000
_cell_volume 3049.357813
_symmetry_space_group_name_H-M "C 2/M"
_symmetry_group_IT_number 12
_symmetry_cell_setting 'monoclinic'
loop_
_space_group_symop_operation_xyz
x,y,z
-x,y,-z
-x,-y,-z
x,-y,z
1/2+x,1/2+y,z
1/2-x,1/2+y,-z
1/2-x,1/2-y,-z
1/2+x,1/2-y,z
loop_
_atom_site_type_symbol
_atom_site_label
_atom_site_fract_x
_atom_site_fract_y
_atom_site_fract_z
Si Si1 0.980203 0.199597 0.152250
Si Si2 0.946584 0.204089 0.731753
Si Si3 0.473005 0.200448 0.428708
Si Si4 0.797958 0.789130 0.240427
Si Si5 0.117998 0.784833 0.922604
Si Si6 0.177864 0.699340 0.236431
Si Si7 0.810662 0.209979 0.947560
Si Si8 0.103280 0.710145 0.683665
O O1 0.943403 0.276946 0.089437
O O2 0.934127 0.203251 0.236412
O O3 0.033741 0.273745 0.185723
O O4 0.994802 0.000000 0.124576
O O5 0.881284 0.212749 0.733805
O O6 0.980322 0.298650 0.652995
O O7 0.963633 0.000000 0.725491
O O8 0.500000 0.285570 0.500000
O O9 0.419363 0.274344 0.395853
O O10 0.458169 0.000000 0.455092
O O11 0.835617 0.727067 0.155193
O O12 0.735042 0.720484 0.255187
O O13 0.833379 0.746741 0.309670
O O14 0.794241 0.000000 0.232662
O O15 0.116486 0.000000 0.920494
O O16 0.141565 0.733982 0.002443
O O17 0.172772 0.500000 0.267281
O O18 0.185525 0.701121 0.138895
O O19 0.815948 0.000000 0.934818
O O20 0.750000 0.250000 0.000000
O O21 0.093559 0.500000 0.690735
#
# Coordination Sequence:
#
# PCOD9193359 Si02
#       8
#     8   8   8   8   8   8   8   8
#     4   8  15  30  49  67  94 130 164 200 249 305
#     4  10  20  34  53  78 103 130 168 212 252 295
#     4   9  18  34  56  81 109 138 162 191 242 304
#     4   9  17  31  48  67  95 133 171 205 251 304
#     4   8  14  28  48  68  91 124 166 207 249 301
#     4  11  22  36  51  69  99 140 176 209 256 311
#     4  11  20  32  49  72 101 131 172 219 260 303
#     4   9  16  26  46  77 103 124 160 206 243 282
#
# _framework density 20.988028
#
# number of rings (size 3 to 8) (size 9 to 14) (size 15 to 20)
#    0.000    2.625    1.250    2.250    0.000    2.250 
#    0.000    1.250    0.000    4.500    0.000    0.000 
#    0.000    0.000    0.000    0.000    0.000    0.000 
#
# Total GULP energy -178366.340308 kJ/mol
# GULP energy per Si atom -5573.948135 kJ/mol
# Density = 2.094026 g / cm^3
# Si number density = 20.988028 Si / 1000 Ang^3
#
#
#
# Elastic Constant Matrix: (Units=GPa)
#
#
# Indices 1 2 3 4 5 6 
#
# 1 163.4594 0.3761 42.4814 0.0000 39.6242 0.0000
# 2 0.3761 55.9622 -8.1964 0.0000 -1.5478 0.0000
# 3 42.4814 -8.1964 43.3011 0.0000 32.2259 0.0000
# 4 0.0000 0.0000 0.0000 9.3255 0.0000 8.0035
# 5 39.6242 -1.5478 32.2259 0.0000 38.5471 0.0000
# 6 0.0000 0.0000 0.0000 8.0035 0.0000 -64.3583
#
#
#
# Elastic Compliance Matrix: (Units=1/GPa)
#
#
# Indices 1 2 3 4 5 6 
#
# 1 0.008568 -0.000956 -0.005303 0.000000 -0.004412 0.000000
# 2 -0.000956 0.018979 0.008554 0.000000 -0.005407 0.000000
# 3 -0.005303 0.008554 0.067767 0.000000 -0.050859 0.000000
# 4 0.000000 0.000000 0.000000 0.096892 0.000000 0.012049
# 5 -0.004412 -0.005407 -0.050859 0.000000 0.072780 0.000000
# 6 0.000000 0.000000 0.000000 0.012049 0.000000 -0.014040
#
#
# Mechanical properties :
#
#
# Convention : Reuss Voigt Hill
#
# Bulk Modulus (GPa) = 10.00960 36.89387 23.45174
# Shear Modulus (GPa) = 17.87912 11.90698 14.89305
#
# Velocity S-wave (km/s) = 2.92185 2.38444 2.66672
# Velocity P-wave (km/s) = 4.02026 5.01970 4.54752
#
# Compressibility (1/GPa) = 0.09990405
#
# Stress axis : x y z
#
# Youngs Moduli (GPa) = 116.71845 52.68983 14.75652
#
# Poissons Ratio (x) = 0.05039 0.07825
# Poissons Ratio (y) = 0.11161 -0.12623
# Poissons Ratio (z) = 0.61892 -0.45073
#
# Static dielectric constant tensor:
#      x y z
#    x 1.818950 0.000000 0.049390 
#    y 0.000000 1.814800 0.000000 
#    z 0.049390 0.000000 1.743910 
# 
# From -- ./inp_files/287509.got.cif
#   From: 2010.05.17/outbox.cif.g08.bks.cpg/sg12_144_cif.got.tgz:287509.got - 2010.06.03 13:09:07.
