data_PCOD9193886
_publ_section_title
;
Structure prediction by ZEFSAII (Michael W. Deem and Ramdas Pophale) SiO2 
 PCOD9193886
Probable space group: C 2/M
;
_chemical_formula_sum "Si O2"
_cell_formula_units_Z 56
_cell_length_a 13.049554
_cell_length_b 11.585227
_cell_length_c 21.649900
_cell_angle_alpha 90.000000
_cell_angle_beta 118.317133
_cell_angle_gamma 90.000000
_cell_volume 2881.405301
_symmetry_space_group_name_H-M "C 2/M"
_symmetry_group_IT_number 12
_symmetry_cell_setting 'monoclinic'
loop_
_space_group_symop_operation_xyz
x,y,z
-x,y,-z
-x,-y,-z
x,-y,z
1/2+x,1/2+y,z
1/2-x,1/2+y,-z
1/2-x,1/2-y,-z
1/2+x,1/2-y,z
loop_
_atom_site_type_symbol
_atom_site_label
_atom_site_fract_x
_atom_site_fract_y
_atom_site_fract_z
Si Si1 0.242695 0.868852 0.298720
Si Si2 0.399793 0.368383 0.519634
Si Si3 0.941129 0.367862 0.257279
Si Si4 0.416095 0.131565 0.921046
Si Si5 0.985418 0.792473 0.831932
Si Si6 0.286275 0.370733 0.044425
Si Si7 0.329217 0.792736 0.611137
O O1 0.342031 0.833731 0.278242
O O2 0.231579 0.786653 0.354323
O O3 0.117266 0.863052 0.229504
O O4 0.268273 0.000000 0.325324
O O5 0.500000 0.331674 0.500000
O O6 0.425805 0.500000 0.545795
O O7 0.388475 0.286460 0.575473
O O8 0.274283 0.363240 0.450303
O O9 0.917508 0.500000 0.231155
O O10 0.948898 0.282066 0.201725
O O11 0.067112 0.361484 0.326339
O O12 0.426309 0.205105 0.863080
O O13 0.289706 0.130502 0.914973
O O14 0.453242 0.000000 0.918669
O O15 0.500000 0.175872 0.000000
O O16 0.079816 0.862148 0.898036
O O17 0.263646 0.500000 0.009012
O O18 0.250000 0.250000 0.000000
#
# Coordination Sequence:
#
# PCOD9193886 Si02
#       7
#     8   8   8   8   8   8   8
#     4  10  21  37  55  78 110 144 182 228 281 331
#     4  10  20  34  54  82 114 145 183 228 271 318
#     4  10  21  36  57  82 110 145 188 233 274 328
#     4  10  20  36  57  80 110 146 182 225 283 347
#     4  11  21  37  58  82 109 144 187 233 283 336
#     4  11  23  39  59  84 113 146 185 231 285 346
#     4  10  20  35  56  80 110 149 185 222 273 329
#
# _framework density 19.434961000000001
#
# number of rings (size 3 to 8) (size 9 to 14) (size 15 to 20)
#    0.000    1.714    1.429    3.429    0.000    0.571 
#    0.000    2.143    0.000   20.571    0.000    0.000 
#    0.000    0.000    0.000    0.000    0.000    0.000 
#
# Total GULP energy -156220.511345 kJ/mol
# GULP energy per Si atom -5579.303977 kJ/mol
# Density = 1.939073 g / cm^3
# Si number density = 19.434961 Si / 1000 Ang^3
#
#
#
# Elastic Constant Matrix: (Units=GPa)
#
#
# Indices 1 2 3 4 5 6 
#
# 1 88.8001 30.2467 -5.0176 0.0000 -19.5825 0.0000
# 2 30.2467 91.0175 24.4134 0.0000 -21.6026 0.0000
# 3 -5.0176 24.4134 37.1216 0.0000 -3.2836 0.0000
# 4 0.0000 0.0000 0.0000 -27.4681 0.0000 -8.2332
# 5 -19.5825 -21.6026 -3.2836 0.0000 35.5251 0.0000
# 6 0.0000 0.0000 0.0000 -8.2332 0.0000 9.9395
#
#
#
# Elastic Compliance Matrix: (Units=1/GPa)
#
#
# Indices 1 2 3 4 5 6 
#
# 1 0.014522 -0.005086 0.005790 0.000000 0.005447 0.000000
# 2 -0.005086 0.017350 -0.011506 0.000000 0.006683 0.000000
# 3 0.005790 -0.011506 0.035240 0.000000 -0.000548 0.000000
# 4 0.000000 0.000000 0.000000 -0.029165 0.000000 -0.024158
# 5 0.005447 0.006683 -0.000548 0.000000 0.035165 0.000000
# 6 0.000000 0.000000 0.000000 -0.024158 0.000000 0.080598
#
#
# Mechanical properties :
#
#
# Convention : Reuss Voigt Hill
#
# Bulk Modulus (GPa) = 21.97521 35.13604 28.55562
# Shear Modulus (GPa) = 26.24897 14.75242 20.50069
#
# Velocity S-wave (km/s) = 3.67905 2.75810 3.25135
# Velocity P-wave (km/s) = 5.42022 5.31610 5.36841
#
# Compressibility (1/GPa) = 0.04550583
#
# Stress axis : x y z
#
# Youngs Moduli (GPa) = 68.86101 57.63828 28.37699
#
# Poissons Ratio (x) = 0.29314 -0.16429
# Poissons Ratio (y) = 0.35022 0.32652
# Poissons Ratio (z) = -0.39867 0.66321
#
# Static dielectric constant tensor:
#      x y z
#    x 1.677210 0.000000 0.021050 
#    y 0.000000 -1.342840 0.000000 
#    z 0.021050 0.000000 1.660440 
# 
# From -- ./inp_files/304152.got.cif
#   From: 2010.05.17/outbox.cif.g08.bks.cpg/sg12_153_cif.got.tgz:304152.got - 2010.06.03 13:09:07.
