data_PCOD9193827
_publ_section_title
;
Structure prediction by ZEFSAII (Michael W. Deem and Ramdas Pophale) SiO2 
 PCOD9193827
Probable space group: C 2/M
;
_chemical_formula_sum "Si O2"
_cell_formula_units_Z 56
_cell_length_a 21.611923
_cell_length_b 7.721873
_cell_length_c 32.087742
_cell_angle_alpha 90.000000
_cell_angle_beta 28.388907
_cell_angle_gamma 90.000000
_cell_volume 2546.030664
_symmetry_space_group_name_H-M "C 2/M"
_symmetry_group_IT_number 12
_symmetry_cell_setting 'monoclinic'
loop_
_space_group_symop_operation_xyz
x,y,z
-x,y,-z
-x,-y,-z
x,-y,z
1/2+x,1/2+y,z
1/2-x,1/2+y,-z
1/2-x,1/2-y,-z
1/2+x,1/2-y,z
loop_
_atom_site_type_symbol
_atom_site_label
_atom_site_fract_x
_atom_site_fract_y
_atom_site_fract_z
Si Si1 0.425914 0.789918 0.427510
Si Si2 0.943504 0.301552 0.810666
Si Si3 0.588701 0.709057 0.886887
Si Si4 0.419642 0.203514 0.586185
Si Si5 0.630526 0.203488 0.766930
Si Si6 0.136865 0.200613 0.626420
Si Si7 0.694318 0.711679 0.910152
O O1 0.533892 0.729361 0.396345
O O2 0.284864 0.740595 0.530232
O O3 0.433747 0.717809 0.376393
O O4 0.428073 0.000000 0.421917
O O5 0.906981 0.500000 0.842240
O O6 0.817175 0.222083 0.863354
O O7 0.007393 0.223290 0.814337
O O8 0.057633 0.298616 0.708601
O O9 0.594686 0.500000 0.882227
O O10 0.619515 0.772091 0.822715
O O11 0.683045 0.767555 0.868571
O O12 0.442106 0.757408 0.987257
O O13 0.500000 0.279826 0.500000
O O14 0.266582 0.219856 0.671060
O O15 0.453110 0.000000 0.568059
O O16 0.636195 0.000000 0.754372
O O17 0.142303 0.000000 0.635737
O O18 0.700976 0.500000 0.905055
#
# Coordination Sequence:
#
# PCOD9193827 Si02
#       7
#     8   8   8   8   8   8   8
#     4   9  19  35  54  76 105 145 185 228 280 329
#     4  10  21  37  55  78 113 153 185 222 278 340
#     4   9  18  37  63  86 107 140 191 239 273 328
#     4  10  21  38  59  79 105 148 198 237 270 322
#     4  11  24  37  53  83 121 152 181 229 290 341
#     4  10  20  34  54  81 110 138 182 235 276 325
#     4   8  17  36  62  85 106 142 191 234 274 328
#
# _framework density 21.995023
#
# number of rings (size 3 to 8) (size 9 to 14) (size 15 to 20)
#    0.000    2.429    0.000    2.571    2.000    4.286 
#    0.000    2.143    0.000    0.000    0.000    0.000 
#    0.000    0.000    0.000    0.000    0.000    0.000 
#
# Total GULP energy -156361.158668 kJ/mol
# GULP energy per Si atom -5584.327095 kJ/mol
# Density = 2.194496 g / cm^3
# Si number density = 21.995023 Si / 1000 Ang^3
#
#
#
# Elastic Constant Matrix: (Units=GPa)
#
#
# Indices 1 2 3 4 5 6 
#
# 1 160.4589 -2.3165 45.5495 0.0326 -17.0183 0.0636
# 2 -2.3165 29.7437 -7.9138 0.0121 0.5288 0.0021
# 3 45.5495 -7.9138 47.3611 -0.0197 5.4093 -0.0043
# 4 0.0326 0.0121 -0.0197 29.3054 0.0221 1.6013
# 5 -17.0183 0.5288 5.4093 0.0221 29.2137 0.0188
# 6 0.0636 0.0021 -0.0043 1.6013 0.0188 8.7554
#
#
#
# Elastic Compliance Matrix: (Units=1/GPa)
#
#
# Indices 1 2 3 4 5 6 
#
# 1 0.010211 -0.002308 -0.011125 -0.000019 0.008050 -0.000093
# 2 -0.002308 0.035796 0.008611 -0.000005 -0.003587 0.000021
# 3 -0.011125 0.008611 0.034746 0.000036 -0.013071 0.000117
# 4 -0.000019 -0.000005 0.000036 0.034468 -0.000040 -0.006304
# 5 0.008050 -0.003587 -0.013071 -0.000040 0.041405 -0.000146
# 6 -0.000093 0.000021 0.000117 -0.006304 -0.000146 0.115370
#
#
# Mechanical properties :
#
#
# Convention : Reuss Voigt Hill
#
# Bulk Modulus (GPa) = 14.06335 34.24468 24.15402
# Shear Modulus (GPa) = 16.37505 26.93784 21.65644
#
# Velocity S-wave (km/s) = 2.73149 3.50340 3.14125
# Velocity P-wave (km/s) = 4.04423 5.65404 4.91549
#
# Compressibility (1/GPa) = 0.07110681
#
# Stress axis : x y z
#
# Youngs Moduli (GPa) = 97.93575 27.93642 28.78047
#
# Poissons Ratio (x) = 0.06448 0.32019
# Poissons Ratio (y) = 0.22603 -0.24782
# Poissons Ratio (z) = 1.08956 -0.24055
#
# Static dielectric constant tensor:
#      x y z
#    x 1.843200 0.000000 -0.018970 
#    y 0.000000 1.837540 0.000000 
#    z -0.018970 0.000000 1.755430 
# 
# From -- ./inp_files/380662.got.cif
#   From: 2010.05.17/outbox.cif.g08.bks.cpg/sg12_191_cif.got.tgz:380662.got - 2010.06.03 13:09:07.
