data_PCOD9193569
_publ_section_title
;
Structure prediction by ZEFSAII (Michael W. Deem and Ramdas Pophale) SiO2 
 PCOD9193569
Probable space group: C 2/M
;
_chemical_formula_sum "Si O2"
_cell_formula_units_Z 48
_cell_length_a 23.206719
_cell_length_b 8.095336
_cell_length_c 18.465484
_cell_angle_alpha 90.000000
_cell_angle_beta 50.893831
_cell_angle_gamma 90.000000
_cell_volume 2691.900514
_symmetry_space_group_name_H-M "C 2/M"
_symmetry_group_IT_number 12
_symmetry_cell_setting 'monoclinic'
loop_
_space_group_symop_operation_xyz
x,y,z
-x,y,-z
-x,-y,-z
x,-y,z
1/2+x,1/2+y,z
1/2-x,1/2+y,-z
1/2-x,1/2-y,-z
1/2+x,1/2-y,z
loop_
_atom_site_type_symbol
_atom_site_label
_atom_site_fract_x
_atom_site_fract_y
_atom_site_fract_z
Si Si1 0.381012 0.801717 0.103382
Si Si2 0.321261 0.811885 0.400197
Si Si3 0.009427 0.500000 0.370102
Si Si4 0.515350 0.799688 0.106125
Si Si5 0.268785 0.317029 0.296273
Si Si6 0.376820 0.000000 0.589240
Si Si7 0.483393 0.685903 0.291326
O O1 0.442673 0.757932 0.115572
O O2 0.303588 0.729037 0.191783
O O3 0.376319 0.000000 0.106224
O O4 0.414762 0.750991 0.999413
O O5 0.250000 0.750000 0.500000
O O6 0.299133 0.802857 0.333448
O O7 0.394102 0.706300 0.358152
O O8 0.338444 0.000000 0.406416
O O9 0.933807 0.500000 0.477775
O O10 0.011194 0.334708 0.320164
O O11 0.076073 0.500000 0.374979
O O12 0.511644 0.718443 0.187217
O O13 0.515219 0.000000 0.114716
O O14 0.297846 0.500000 0.293548
O O15 0.180328 0.344813 0.367676
O O16 0.502520 0.500000 0.299791
#
# Coordination Sequence:
#
# PCOD9193569 Si02
#       7
#     8   8   4   8   8   4   8
#     4   9  17  30  53  82 124 160 192 234 293 360
#     4  12  22  34  52  84 126 157 188 240 305 367
#     4  11  22  48  66  81 118 160 209 252 300 346
#     4   9  17  32  51  85 123 162 194 233 294 360
#     4  10  20  34  53  84 115 149 195 240 294 351
#     4   9  24  42  66  81 112 166 203 252 298 352
#     4  12  23  36  60  91 120 157 201 245 303 358
#
# _framework density 17.831268999999999
#
# number of rings (size 3 to 8) (size 9 to 14) (size 15 to 20)
#    0.500    1.167    3.333    4.000    0.000    0.667 
#    0.000    5.833    0.000    1.000    0.000    0.000 
#    0.000    0.000    0.000    0.000    0.000    0.000 
#
# Total GULP energy -133853.880091 kJ/mol
# GULP energy per Si atom -5577.245004 kJ/mol
# Density = 1.779068 g / cm^3
# Si number density = 17.831269 Si / 1000 Ang^3
#
#
#
# Elastic Constant Matrix: (Units=GPa)
#
#
# Indices 1 2 3 4 5 6 
#
# 1 43.0003 18.3759 -0.7923 0.0012 15.5587 -0.0010
# 2 18.3759 88.1230 19.2082 0.0023 14.4563 -0.0026
# 3 -0.7923 19.2082 82.4458 0.0017 14.0111 -0.0017
# 4 0.0012 0.0023 0.0017 25.2340 -0.0012 1.3388
# 5 15.5587 14.4563 14.0111 -0.0012 21.5075 0.0010
# 6 -0.0010 -0.0026 -0.0017 1.3388 0.0010 13.0501
#
#
#
# Elastic Compliance Matrix: (Units=1/GPa)
#
#
# Indices 1 2 3 4 5 6 
#
# 1 0.034512 -0.004198 0.005704 -0.000003 -0.025861 0.000005
# 2 -0.004198 0.013481 -0.002426 -0.000001 -0.004444 0.000003
# 3 0.005704 -0.002426 0.014813 -0.000002 -0.012146 0.000003
# 4 -0.000003 -0.000001 -0.000002 0.039846 0.000007 -0.004088
# 5 -0.025861 -0.004444 -0.012146 0.000007 0.076104 -0.000011
# 6 0.000005 0.000003 0.000003 -0.004088 -0.000011 0.077047
#
#
# Mechanical properties :
#
#
# Convention : Reuss Voigt Hill
#
# Bulk Modulus (GPa) = 16.40201 31.90585 24.15393
# Shear Modulus (GPa) = 17.98799 23.74347 20.86573
#
# Velocity S-wave (km/s) = 3.17959 3.65302 3.42450
# Velocity P-wave (km/s) = 4.76426 5.97702 5.40476
#
# Compressibility (1/GPa) = 0.06096815
#
# Stress axis : x y z
#
# Youngs Moduli (GPa) = 28.97566 74.17895 67.50661
#
# Poissons Ratio (x) = 0.31137 -0.38509
# Poissons Ratio (y) = 0.12163 0.16376
# Poissons Ratio (z) = -0.16529 0.17995
#
# Static dielectric constant tensor:
#      x y z
#    x 1.642040 0.000000 -0.000010 
#    y 0.000000 1.631620 0.000000 
#    z -0.000010 0.000000 1.647280 
# 
# From -- ./inp_files/287300.got.cif
#   From: 2010.05.17/outbox.cif.g08.bks.cpg/sg12_144_cif.got.tgz:287300.got - 2010.06.03 13:09:07.
