data_PCOD9193080
_publ_section_title
;
Structure prediction by ZEFSAII (Michael W. Deem and Ramdas Pophale) SiO2 
 PCOD9193080
Probable space group: C 2/M
;
_chemical_formula_sum "Si O2"
_cell_formula_units_Z 48
_cell_length_a 10.004992
_cell_length_b 25.372676
_cell_length_c 12.279622
_cell_angle_alpha 90.000000
_cell_angle_beta 128.708389
_cell_angle_gamma 90.000000
_cell_volume 2432.491039
_symmetry_space_group_name_H-M "C 2/M"
_symmetry_group_IT_number 12
_symmetry_cell_setting 'monoclinic'
loop_
_space_group_symop_operation_xyz
x,y,z
-x,y,-z
-x,-y,-z
x,-y,z
1/2+x,1/2+y,z
1/2-x,1/2+y,-z
1/2-x,1/2-y,-z
1/2+x,1/2-y,z
loop_
_atom_site_type_symbol
_atom_site_label
_atom_site_fract_x
_atom_site_fract_y
_atom_site_fract_z
Si Si1 0.127049 0.350253 0.304151
Si Si2 0.084971 0.281253 0.944421
Si Si3 0.643490 0.124158 0.660914
Si Si4 0.683389 0.359484 0.814353
Si Si5 0.828144 0.196680 0.595571
Si Si6 0.521375 0.437779 0.137757
O O1 0.225704 0.375664 0.252502
O O2 0.262775 0.344278 0.469939
O O3 0.055730 0.294966 0.216911
O O4 0.954878 0.371457 0.274264
O O5 0.250000 0.250000 0.000000
O O6 0.165931 0.334165 0.036688
O O7 0.000000 0.250396 0.000000
O O8 0.500000 0.111003 0.500000
O O9 0.731992 0.178258 0.658399
O O10 0.787704 0.080349 0.736449
O O11 0.531158 0.315844 0.713508
O O12 0.598857 0.405473 0.841511
O O13 0.750000 0.250000 0.500000
O O14 0.494761 0.500000 0.133915
O O15 0.500000 0.422360 0.000000
#
# Coordination Sequence:
#
# PCOD9193080 Si02
#       6
#     8   8   8   8   8   8
#     4  10  20  34  52  76 110 144 179 224 276 322
#     4  10  21  33  49  75 106 143 181 217 264 320
#     4   9  20  36  56  80 109 145 182 227 276 327
#     4  10  21  36  55  79 111 144 180 231 275 323
#     4  10  20  34  54  80 112 151 189 223 266 323
#     4  10  21  39  62  83 105 141 186 231 283 338
#
# _framework density 19.732858
#
# number of rings (size 3 to 8) (size 9 to 14) (size 15 to 20)
#    0.000    2.167    0.000    2.500    0.000   10.333 
#    0.000    0.833    0.000   19.500    0.000    0.000 
#    0.000    0.000    0.000    0.000    0.000    0.000 
#
# Total GULP energy -133636.734625 kJ/mol
# GULP energy per Si atom -5568.197276 kJ/mol
# Density = 1.968795 g / cm^3
# Si number density = 19.732858 Si / 1000 Ang^3
#
#
#
# Elastic Constant Matrix: (Units=GPa)
#
#
# Indices 1 2 3 4 5 6 
#
# 1 185.3575 42.5191 37.1994 0.0000 -21.5564 0.0000
# 2 42.5191 45.1524 12.7891 0.0000 -10.6405 0.0000
# 3 37.1994 12.7891 82.8021 0.0000 9.0273 0.0000
# 4 0.0000 0.0000 0.0000 18.8297 0.0000 2.3649
# 5 -21.5564 -10.6405 9.0273 0.0000 40.8461 0.0000
# 6 0.0000 0.0000 0.0000 2.3649 0.0000 10.5256
#
#
#
# Elastic Compliance Matrix: (Units=1/GPa)
#
#
# Indices 1 2 3 4 5 6 
#
# 1 0.007642 -0.005612 -0.002917 0.000000 0.003216 0.000000
# 2 -0.005612 0.029410 -0.002596 0.000000 0.005273 0.000000
# 3 -0.002917 -0.002596 0.014376 0.000000 -0.005393 0.000000
# 4 0.000000 0.000000 0.000000 0.054650 0.000000 -0.012279
# 5 0.003216 0.005273 -0.005393 0.000000 0.028745 0.000000
# 6 0.000000 0.000000 0.000000 -0.012279 0.000000 0.097766
#
#
# Mechanical properties :
#
#
# Convention : Reuss Voigt Hill
#
# Bulk Modulus (GPa) = 34.27248 55.36970 44.82109
# Shear Modulus (GPa) = 18.89901 28.76057 23.82979
#
# Velocity S-wave (km/s) = 3.09810 3.82186 3.47885
# Velocity P-wave (km/s) = 5.49578 6.89899 6.23697
#
# Compressibility (1/GPa) = 0.02917793
#
# Stress axis : x y z
#
# Youngs Moduli (GPa) = 130.86154 34.00202 69.55869
#
# Poissons Ratio (x) = 0.19082 0.20289
# Poissons Ratio (y) = 0.73440 0.18059
# Poissons Ratio (z) = 0.38170 0.08827
#
# Static dielectric constant tensor:
#      x y z
#    x 1.755090 0.000000 -0.045440 
#    y 0.000000 1.718310 0.000000 
#    z -0.045440 0.000000 1.723830 
# 
# From -- ./inp_files/123891.got.cif
#   From: 2010.05.17/outbox.cif.g08.bks.cpg/sg12_62_cif.got.tgz:123891.got - 2010.06.03 13:09:07.
