data_PCOD9193584
_publ_section_title
;
Structure prediction by ZEFSAII (Michael W. Deem and Ramdas Pophale) SiO2 
 PCOD9193584
Probable space group: C 2/M
;
_chemical_formula_sum "Si O2"
_cell_formula_units_Z 56
_cell_length_a 8.702379
_cell_length_b 26.252982
_cell_length_c 17.197808
_cell_angle_alpha 90.000000
_cell_angle_beta 120.398857
_cell_angle_gamma 90.000000
_cell_volume 3388.915965
_symmetry_space_group_name_H-M "C 2/M"
_symmetry_group_IT_number 12
_symmetry_cell_setting 'monoclinic'
loop_
_space_group_symop_operation_xyz
x,y,z
-x,y,-z
-x,-y,-z
x,-y,z
1/2+x,1/2+y,z
1/2-x,1/2+y,-z
1/2-x,1/2-y,-z
1/2+x,1/2-y,z
loop_
_atom_site_type_symbol
_atom_site_label
_atom_site_fract_x
_atom_site_fract_y
_atom_site_fract_z
Si Si1 0.667342 0.500000 0.600774
Si Si2 0.146766 0.904426 0.710885
Si Si3 0.834713 0.304897 0.400306
Si Si4 0.034101 0.195103 0.599694
Si Si5 0.465794 0.000000 0.399226
Si Si6 0.660508 0.940559 0.095177
Si Si7 0.470153 0.440559 0.904823
Si Si8 0.724996 0.404426 0.289115
O O1 0.500000 0.500000 0.500000
O O2 0.660994 0.450288 0.653612
O O3 0.847206 0.500000 0.597206
O O4 0.143806 0.850508 0.666730
O O5 0.297989 0.910683 0.815191
O O6 0.956894 0.909643 0.706894
O O7 0.872499 0.250000 0.372499
O O8 0.655845 0.301915 0.405845
O O9 0.810347 0.350508 0.333271
O O10 0.000000 0.315926 0.500000
O O11 0.000000 0.184074 0.500000
O O12 0.500000 0.000000 0.500000
O O13 0.353769 0.049712 0.346388
O O14 0.840442 0.939439 0.090442
O O15 0.624666 0.000000 0.106268
O O16 0.500000 0.922041 0.000000
O O17 0.412129 0.500000 0.893732
O O18 0.332392 0.410683 0.815191
O O19 0.500000 0.422041 0.000000
#
# Coordination Sequence:
#
# PCOD9193584 Si02
#       8
#     4   8   8   8   4   8   8   8
#     4  12  24  34  49  74 105 138 169 206 252 306
#     4  10  20  36  54  74 103 138 170 209 257 304
#     4  10  20  34  54  75 100 133 172 212 254 299
#     4  10  20  34  54  75 100 133 172 212 254 299
#     4  12  24  34  49  74 105 138 169 206 252 306
#     4   9  17  31  51  73 102 133 166 208 251 300
#     4   9  17  31  51  73 102 133 166 208 251 300
#     4  10  20  36  54  74 103 138 170 209 257 304
#
# _framework density 16.524457999999999
#
# number of rings (size 3 to 8) (size 9 to 14) (size 15 to 20)
#    0.000    2.000    1.429    3.857    0.000    5.714 
#    0.000    0.000    0.000    0.857    0.000    6.000 
#    0.000    0.000    0.000    0.000    0.000    0.000 
#
# Total GULP energy -156276.437449 kJ/mol
# GULP energy per Si atom -5581.301337 kJ/mol
# Density = 1.648685 g / cm^3
# Si number density = 16.524458 Si / 1000 Ang^3
#
#
#
# Elastic Constant Matrix: (Units=GPa)
#
#
# Indices 1 2 3 4 5 6 
#
# 1 32.9712 44.1246 44.8079 0.0000 3.4403 0.0000
# 2 44.1246 131.9218 107.2302 0.0000 3.3505 0.0000
# 3 44.8079 107.2302 176.3864 0.0000 4.1742 0.0000
# 4 0.0000 0.0000 0.0000 15.6092 0.0000 -0.2420
# 5 3.4403 3.3505 4.1742 0.0000 26.5188 0.0000
# 6 0.0000 0.0000 0.0000 -0.2420 0.0000 20.1675
#
#
#
# Elastic Compliance Matrix: (Units=1/GPa)
#
#
# Indices 1 2 3 4 5 6 
#
# 1 0.058352 -0.014705 -0.005770 0.000000 -0.004804 0.000000
# 2 -0.014705 0.018697 -0.007648 0.000000 0.000749 0.000000
# 3 -0.005770 -0.007648 0.011788 0.000000 -0.000141 0.000000
# 4 0.000000 0.000000 0.000000 0.064077 0.000000 0.000769
# 5 -0.004804 0.000749 -0.000141 0.000000 0.038260 0.000000
# 6 0.000000 0.000000 0.000000 0.000769 0.000000 0.049594
#
#
# Mechanical properties :
#
#
# Convention : Reuss Voigt Hill
#
# Bulk Modulus (GPa) = 30.68469 81.51165 56.09817
# Shear Modulus (GPa) = 16.24026 22.13355 19.18691
#
# Velocity S-wave (km/s) = 3.13837 3.66381 3.41122
# Velocity P-wave (km/s) = 5.63401 8.20567 7.03829
#
# Compressibility (1/GPa) = 0.03258954
#
# Stress axis : x y z
#
# Youngs Moduli (GPa) = 17.13742 53.48578 84.83225
#
# Poissons Ratio (x) = 0.78653 0.48946
# Poissons Ratio (y) = 0.25201 0.64882
# Poissons Ratio (z) = 0.09888 0.40907
#
# Static dielectric constant tensor:
#      x y z
#    x 1.564800 0.000000 -0.000820 
#    y 0.000000 1.537130 0.000000 
#    z -0.000820 0.000000 1.549280 
# 
# From -- ./inp_files/199954.got.cif
#   From: 2010.05.17/outbox.cif.g08.bks.cpg/sg12_100_cif.got.tgz:199954.got - 2010.06.03 13:09:07.
