data_PCOD9193371
_publ_section_title
;
Structure prediction by ZEFSAII (Michael W. Deem and Ramdas Pophale) SiO2 
 PCOD9193371
Probable space group: C 2/M
;
_chemical_formula_sum "Si O2"
_cell_formula_units_Z 56
_cell_length_a 16.313011
_cell_length_b 7.879185
_cell_length_c 18.298054
_cell_angle_alpha 90.000000
_cell_angle_beta 68.828641
_cell_angle_gamma 90.000000
_cell_volume 2193.164696
_symmetry_space_group_name_H-M "C 2/M"
_symmetry_group_IT_number 12
_symmetry_cell_setting 'monoclinic'
loop_
_space_group_symop_operation_xyz
x,y,z
-x,y,-z
-x,-y,-z
x,-y,z
1/2+x,1/2+y,z
1/2-x,1/2+y,-z
1/2-x,1/2-y,-z
1/2+x,1/2-y,z
loop_
_atom_site_type_symbol
_atom_site_label
_atom_site_fract_x
_atom_site_fract_y
_atom_site_fract_z
Si Si1 0.378874 0.794495 0.970794
Si Si2 0.496046 0.204025 0.304842
Si Si3 0.150078 0.295861 0.549739
Si Si4 0.338946 0.308616 0.829533
Si Si5 0.120539 0.706603 0.402245
Si Si6 0.722109 0.307453 0.737784
Si Si7 0.920401 0.299487 0.113358
O O1 0.325328 0.723998 0.919573
O O2 0.480039 0.738028 0.922707
O O3 0.372387 0.000000 0.968566
O O4 0.367254 0.738187 0.058562
O O5 0.399155 0.264796 0.361002
O O6 0.557734 0.283597 0.223151
O O7 0.551363 0.241911 0.361254
O O8 0.495181 0.000000 0.291941
O O9 0.143323 0.500000 0.555400
O O10 0.250000 0.250000 0.500000
O O11 0.102227 0.237585 0.490239
O O12 0.311399 0.500000 0.821453
O O13 0.285704 0.195490 0.789276
O O14 0.125943 0.500000 0.402499
O O15 0.215491 0.773315 0.343742
O O16 0.704264 0.500000 0.723530
O O17 0.632131 0.229340 0.795584
O O18 0.927948 0.500000 0.100938
#
# Coordination Sequence:
#
# PCOD9193371 Si02
#       7
#     8   8   8   8   8   8   8
#     4   9  19  37  57  77 106 142 176 214 264 318
#     4   9  18  35  57  76  98 136 179 216 260 310
#     4  10  20  34  53  78 107 136 170 213 259 309
#     4  11  22  35  54  80 108 138 176 222 264 310
#     4   8  16  33  55  75  97 132 176 213 249 301
#     4  10  20  35  56  80 107 139 175 218 266 314
#     4   9  19  36  57  79 105 139 177 217 262 313
#
# _framework density 25.533878999999999
#
# number of rings (size 3 to 8) (size 9 to 14) (size 15 to 20)
#    0.000    2.571    0.000    3.857    0.000    5.143 
#    0.000    7.857    0.000    4.286    0.000    0.000 
#    0.000    0.000    0.000    0.000    0.000    0.000 
#
# Total GULP energy -156457.076406 kJ/mol
# GULP energy per Si atom -5587.752729 kJ/mol
# Density = 2.547576 g / cm^3
# Si number density = 25.533879 Si / 1000 Ang^3
#
#
#
# Elastic Constant Matrix: (Units=GPa)
#
#
# Indices 1 2 3 4 5 6 
#
# 1 59.9556 -4.2432 2.0300 0.0000 -3.2421 0.0000
# 2 -4.2432 46.5077 1.4586 0.0000 4.7965 -0.0001
# 3 2.0300 1.4586 154.1947 0.0000 -2.1506 0.0000
# 4 0.0000 0.0000 0.0000 20.1019 0.0000 -4.6073
# 5 -3.2421 4.7965 -2.1506 0.0000 48.1721 0.0000
# 6 0.0000 -0.0001 0.0000 -4.6073 0.0000 15.0456
#
#
#
# Elastic Compliance Matrix: (Units=1/GPa)
#
#
# Indices 1 2 3 4 5 6 
#
# 1 0.016842 0.001442 -0.000222 0.000000 0.000980 0.000000
# 2 0.001442 0.021857 -0.000255 0.000000 -0.002091 0.000000
# 3 -0.000222 -0.000255 0.006495 0.000000 0.000300 0.000000
# 4 0.000000 0.000000 0.000000 0.053501 0.000000 0.016383
# 5 0.000980 -0.002091 0.000300 0.000000 0.021046 0.000000
# 6 0.000000 0.000000 0.000000 0.016383 0.000000 0.071481
#
#
# Mechanical properties :
#
#
# Convention : Reuss Voigt Hill
#
# Bulk Modulus (GPa) = 21.22006 28.79429 25.00717
# Shear Modulus (GPa) = 24.39031 34.09144 29.24087
#
# Velocity S-wave (km/s) = 3.09401 3.65793 3.38772
# Velocity P-wave (km/s) = 4.59265 5.39833 5.01171
#
# Compressibility (1/GPa) = 0.04712521
#
# Stress axis : x y z
#
# Youngs Moduli (GPa) = 59.37681 45.75184 153.96868
#
# Poissons Ratio (x) = -0.06600 0.03413
# Poissons Ratio (y) = -0.08565 0.03925
# Poissons Ratio (z) = 0.01316 0.01166
#
# Static dielectric constant tensor:
#      x y z
#    x 2.134990 0.000000 -0.032130 
#    y 0.000000 1.912960 0.000000 
#    z -0.032130 0.000000 2.023410 
# 
# From -- ./inp_files/313682.got.cif
#   From: 2010.05.17/outbox.cif.g08.bks.cpg/sg12_157_cif.got.tgz:313682.got - 2010.06.03 13:09:07.
