data_PCOD9193007
_publ_section_title
;
Structure prediction by ZEFSAII (Michael W. Deem and Ramdas Pophale) SiO2 
 PCOD9193007
Probable space group: C 2/M
;
_chemical_formula_sum "Si O2"
_cell_formula_units_Z 40
_cell_length_a 8.376124
_cell_length_b 12.324142
_cell_length_c 23.059731
_cell_angle_alpha 90.000000
_cell_angle_beta 64.353131
_cell_angle_gamma 90.000000
_cell_volume 2145.900259
_symmetry_space_group_name_H-M "C 2/M"
_symmetry_group_IT_number 12
_symmetry_cell_setting 'monoclinic'
loop_
_space_group_symop_operation_xyz
x,y,z
-x,y,-z
-x,-y,-z
x,-y,z
1/2+x,1/2+y,z
1/2-x,1/2+y,-z
1/2-x,1/2-y,-z
1/2+x,1/2-y,z
loop_
_atom_site_type_symbol
_atom_site_label
_atom_site_fract_x
_atom_site_fract_y
_atom_site_fract_z
Si Si1 0.304078 0.376579 0.272314
Si Si2 0.067031 0.878009 0.878239
Si Si3 0.682672 0.194191 0.951889
Si Si4 0.582072 0.789118 0.650573
Si Si5 0.031961 0.123969 0.426942
O O1 0.354937 0.500000 0.279153
O O2 0.345145 0.360032 0.198146
O O3 0.405077 0.289643 0.295828
O O4 0.096261 0.358317 0.317211
O O5 0.132346 0.786916 0.912995
O O6 0.854079 0.870815 0.904009
O O7 0.111680 0.000000 0.891826
O O8 0.500000 0.136435 0.000000
O O9 0.750000 0.250000 0.000000
O O10 0.760122 0.858751 0.618883
O O11 0.569411 0.710486 0.596764
O O12 0.000000 0.142995 0.500000
O O13 0.979604 0.000000 0.421857
#
# Coordination Sequence:
#
# PCOD9193007 Si02
#       5
#     8   8   8   8   8
#     4  10  20  34  53  76 101 132 169 207 251 301
#     4  10  20  35  54  75 102 134 166 206 253 297
#     4   9  19  34  52  75 101 129 166 204 243 297
#     4  10  20  34  53  75 103 134 168 210 254 296
#     4  10  20  34  52  75 103 135 171 209 251 300
#
# _framework density 18.640196
#
# number of rings (size 3 to 8) (size 9 to 14) (size 15 to 20)
#    0.000    2.200    0.000    3.000    0.000    4.000 
#    0.000    3.000    0.000   26.400    0.000    0.000 
#    0.000    0.000    0.000    0.000    0.000    0.000 
#
# Total GULP energy -111546.335822 kJ/mol
# GULP energy per Si atom -5577.316791 kJ/mol
# Density = 1.859777 g / cm^3
# Si number density = 18.640196 Si / 1000 Ang^3
#
#
#
# Elastic Constant Matrix: (Units=GPa)
#
#
# Indices 1 2 3 4 5 6 
#
# 1 33.5299 -0.9888 -7.1906 0.0000 3.5521 0.0000
# 2 -0.9888 66.2787 28.9154 0.0000 12.0239 0.0000
# 3 -7.1906 28.9154 68.9568 0.0000 6.3829 0.0000
# 4 0.0000 0.0000 0.0000 -105.1328 0.0000 -55.1641
# 5 3.5521 12.0239 6.3829 0.0000 21.9394 0.0000
# 6 0.0000 0.0000 0.0000 -55.1641 0.0000 -16.2935
#
#
#
# Elastic Compliance Matrix: (Units=1/GPa)
#
#
# Indices 1 2 3 4 5 6 
#
# 1 0.031303 -0.000112 0.003879 0.000000 -0.006135 0.000000
# 2 -0.000112 0.019976 -0.007581 0.000000 -0.008724 0.000000
# 3 0.003879 -0.007581 0.018250 0.000000 -0.001783 0.000000
# 4 0.000000 0.000000 0.000000 0.012250 0.000000 -0.041474
# 5 -0.006135 -0.008724 -0.001783 0.000000 0.051874 0.000000
# 6 0.000000 0.000000 0.000000 -0.041474 0.000000 0.079041
#
#
# Mechanical properties :
#
#
# Convention : Reuss Voigt Hill
#
# Bulk Modulus (GPa) = 16.15483 23.35974 19.75728
# Shear Modulus (GPa) = 20.75075 -10.02875 5.36100
#
# Velocity S-wave (km/s) = 3.34012 -2.32204 1.69773
# Velocity P-wave (km/s) = 4.85394 2.31732 3.80333
#
# Compressibility (1/GPa) = 0.06190101
#
# Stress axis : x y z
#
# Youngs Moduli (GPa) = 31.94622 50.06004 54.79403
#
# Poissons Ratio (x) = 0.00563 -0.21255
# Poissons Ratio (y) = 0.00359 0.41537
# Poissons Ratio (z) = -0.12392 0.37949
#
# Static dielectric constant tensor:
#      x y z
#    x 1.633780 0.000000 -0.020750 
#    y 0.000000 1.620020 0.000000 
#    z -0.020750 0.000000 1.630920 
# 
# From -- ./inp_files/254607.got.cif
#   From: 2010.05.17/outbox.cif.g08.bks.cpg/sg12_128_cif.got.tgz:254607.got - 2010.06.03 13:09:07.
