data_PCOD9193812
_publ_section_title
;
Structure prediction by ZEFSAII (Michael W. Deem and Ramdas Pophale) SiO2 
 PCOD9193812
Probable space group: C 2/M
;
_chemical_formula_sum "Si O2"
_cell_formula_units_Z 64
_cell_length_a 27.062075
_cell_length_b 23.450855
_cell_length_c 12.375859
_cell_angle_alpha 90.000000
_cell_angle_beta 152.432441
_cell_angle_gamma 90.000000
_cell_volume 3634.820978
_symmetry_space_group_name_H-M "C 2/M"
_symmetry_group_IT_number 12
_symmetry_cell_setting 'monoclinic'
loop_
_space_group_symop_operation_xyz
x,y,z
-x,y,-z
-x,-y,-z
x,-y,z
1/2+x,1/2+y,z
1/2-x,1/2+y,-z
1/2-x,1/2-y,-z
1/2+x,1/2-y,z
loop_
_atom_site_type_symbol
_atom_site_label
_atom_site_fract_x
_atom_site_fract_y
_atom_site_fract_z
Si Si1 0.040416 0.235082 0.904065
Si Si2 0.909691 0.063953 0.552927
Si Si3 0.629030 0.434583 0.753404
Si Si4 0.628814 0.369742 0.968591
Si Si5 0.759327 0.412742 0.598821
Si Si6 0.024406 0.634753 0.919435
Si Si7 0.688027 0.065622 0.541839
Si Si8 0.343556 0.292118 0.650225
O O1 0.100980 0.197131 0.931818
O O2 0.051370 0.303504 0.920594
O O3 0.914384 0.225152 0.683647
O O4 0.089013 0.209301 0.108980
O O5 0.845345 0.082440 0.320285
O O6 0.830276 0.061463 0.498753
O O7 0.014266 0.101451 0.775384
O O8 0.949321 0.000000 0.606695
O O9 0.500000 0.434842 0.500000
O O10 0.665251 0.500000 0.845398
O O11 0.657728 0.390874 0.903734
O O12 0.720810 0.397056 0.221928
O O13 0.780556 0.439219 0.523454
O O14 0.712235 0.351011 0.481313
O O15 0.871724 0.405232 0.877551
O O16 0.922851 0.601613 0.673296
O O17 0.000000 0.646945 0.000000
O O18 0.679406 0.000000 0.566977
O O19 0.250000 0.250000 0.500000
#
# Coordination Sequence:
#
# PCOD9193812 Si02
#       8
#     8   8   8   8   8   8   8   8
#     4  11  20  30  51  79 104 138 183 223 261 315
#     4  10  20  34  54  81 107 136 177 222 276 326
#     4   8  16  33  54  75 103 140 179 215 261 335
#     4  11  20  33  54  83 109 136 172 222 278 319
#     4  11  20  33  51  79 108 142 178 225 270 313
#     4  10  21  35  52  73 104 154 194 215 246 319
#     4  11  23  35  51  79 116 150 179 217 271 329
#     4  11  18  32  49  72 108 142 181 213 262 320
#
# _framework density 17.607468999999998
#
# number of rings (size 3 to 8) (size 9 to 14) (size 15 to 20)
#    0.000    1.625    5.000    3.000    0.000    3.250 
#    0.000    1.250    0.000    1.500    3.250    2.625 
#    0.000    0.000    0.000    0.000    0.000    0.000 
#
# Total GULP energy -178150.219945 kJ/mol
# GULP energy per Si atom -5567.194373 kJ/mol
# Density = 1.756739 g / cm^3
# Si number density = 17.607469 Si / 1000 Ang^3
#
#
#
# Elastic Constant Matrix: (Units=GPa)
#
#
# Indices 1 2 3 4 5 6 
#
# 1 27.2038 9.4135 23.1939 0.0000 -4.4447 0.0000
# 2 9.4135 85.5147 28.8104 0.0000 -1.4325 0.0000
# 3 23.1939 28.8104 82.9961 0.0000 4.4017 0.0000
# 4 0.0000 0.0000 0.0000 23.2986 0.0000 -6.3679
# 5 -4.4447 -1.4325 4.4017 0.0000 15.5039 0.0000
# 6 0.0000 0.0000 0.0000 -6.3679 0.0000 11.8278
#
#
#
# Elastic Compliance Matrix: (Units=1/GPa)
#
#
# Indices 1 2 3 4 5 6 
#
# 1 0.053728 -0.000188 -0.016007 0.000000 0.019930 0.000000
# 2 -0.000188 0.013345 -0.004713 0.000000 0.002517 0.000000
# 3 -0.016007 -0.004713 0.018706 0.000000 -0.010335 0.000000
# 4 0.000000 0.000000 0.000000 0.050326 0.000000 0.027095
# 5 0.019930 0.002517 -0.010335 0.000000 0.073380 0.000000
# 6 0.000000 0.000000 0.000000 0.027095 0.000000 0.099134
#
#
# Mechanical properties :
#
#
# Convention : Reuss Voigt Hill
#
# Bulk Modulus (GPa) = 22.74615 35.39446 29.07031
# Shear Modulus (GPa) = 13.69528 19.07918 16.38723
#
# Velocity S-wave (km/s) = 2.79195 3.29536 3.05404
# Velocity P-wave (km/s) = 4.83113 5.88428 5.38352
#
# Compressibility (1/GPa) = 0.04396349
#
# Stress axis : x y z
#
# Youngs Moduli (GPa) = 18.61225 74.93610 53.45825
#
# Poissons Ratio (x) = 0.01408 0.85568
# Poissons Ratio (y) = 0.00350 0.25197
# Poissons Ratio (z) = 0.29792 0.35320
#
# Static dielectric constant tensor:
#      x y z
#    x 1.658340 0.000000 0.015440 
#    y 0.000000 1.588810 0.000000 
#    z 0.015440 0.000000 1.627510 
# 
# From -- ./inp_files/184744.got.cif
#   From: 2010.05.17/outbox.cif.g08.bks.cpg/sg12_93_cif.got.tgz:184744.got - 2010.06.03 13:09:07.
