data_PCOD9193659
_publ_section_title
;
Structure prediction by ZEFSAII (Michael W. Deem and Ramdas Pophale) SiO2 
 PCOD9193659
Probable space group: C 2/M
;
_chemical_formula_sum "Si O2"
_cell_formula_units_Z 64
_cell_length_a 9.506420
_cell_length_b 18.506661
_cell_length_c 20.886860
_cell_angle_alpha 90.000000
_cell_angle_beta 56.779993
_cell_angle_gamma 90.000000
_cell_volume 3074.129073
_symmetry_space_group_name_H-M "C 2/M"
_symmetry_group_IT_number 12
_symmetry_cell_setting 'monoclinic'
loop_
_space_group_symop_operation_xyz
x,y,z
-x,y,-z
-x,-y,-z
x,-y,z
1/2+x,1/2+y,z
1/2-x,1/2+y,-z
1/2-x,1/2-y,-z
1/2+x,1/2-y,z
loop_
_atom_site_type_symbol
_atom_site_label
_atom_site_fract_x
_atom_site_fract_y
_atom_site_fract_z
Si Si1 0.363016 0.802664 0.781986
Si Si2 0.301125 0.301189 0.045334
Si Si3 0.551834 0.084748 0.056480
Si Si4 0.957559 0.662798 0.581849
Si Si5 0.119474 0.771222 0.625684
Si Si6 0.226246 0.918746 0.727390
Si Si7 0.881123 0.581463 0.226505
Si Si8 0.489942 0.579636 0.344176
O O1 0.274789 0.774437 0.867997
O O2 0.463954 0.745772 0.713153
O O3 0.229769 0.852339 0.776107
O O4 0.506938 0.859375 0.766905
O O5 0.208468 0.375863 0.050273
O O6 0.500000 0.308544 0.000000
O O7 0.250000 0.250000 0.000000
O O8 0.401810 0.092821 0.145152
O O9 0.588668 0.000000 0.039469
O O10 0.500000 0.114635 0.000000
O O11 0.798665 0.718750 0.615447
O O12 0.891261 0.598492 0.643020
O O13 0.000000 0.639279 0.500000
O O14 0.105873 0.706726 0.578714
O O15 0.086536 0.850093 0.603735
O O16 0.076787 0.915509 0.712694
O O17 0.229551 0.000000 0.753671
O O18 0.944580 0.500000 0.223698
O O19 0.689502 0.584697 0.295016
O O20 0.437828 0.500000 0.380859
#
# Coordination Sequence:
#
# PCOD9193659 Si02
#       8
#     8   8   8   8   8   8   8   8
#     4  10  21  36  56  78 105 141 181 229 275 325
#     4  11  25  40  56  80 111 147 187 236 293 344
#     4   9  19  36  55  76 104 139 179 221 273 339
#     4  10  20  34  54  81 112 145 178 219 269 321
#     4  10  20  34  54  78 105 141 183 222 265 319
#     4   9  19  35  55  82 111 141 180 222 269 326
#     4   9  17  31  52  75  99 131 170 216 267 315
#     4   9  18  32  51  76 104 134 174 222 266 313
#
# _framework density 20.818904
#
# number of rings (size 3 to 8) (size 9 to 14) (size 15 to 20)
#    0.000    2.375    0.000    1.875    0.000    8.000 
#    0.000    1.250    0.000    0.375    0.000    0.000 
#    0.000    0.000    0.000    0.000    0.000    0.000 
#
# Total GULP energy -178522.535194 kJ/mol
# GULP energy per Si atom -5578.829225 kJ/mol
# Density = 2.077152 g / cm^3
# Si number density = 20.818904 Si / 1000 Ang^3
#
#
#
# Elastic Constant Matrix: (Units=GPa)
#
#
# Indices 1 2 3 4 5 6 
#
# 1 40.8518 -5.1759 -9.1256 0.0000 -11.8734 0.0000
# 2 -5.1759 59.9632 -0.3661 0.0000 -2.2609 0.0000
# 3 -9.1256 -0.3661 64.8979 0.0000 6.4551 0.0000
# 4 0.0000 0.0000 0.0000 16.3208 0.0000 -0.2966
# 5 -11.8734 -2.2609 6.4551 0.0000 23.6002 0.0000
# 6 0.0000 0.0000 0.0000 -0.2966 0.0000 18.1394
#
#
#
# Elastic Compliance Matrix: (Units=1/GPa)
#
#
# Indices 1 2 3 4 5 6 
#
# 1 0.029701 0.003127 0.002753 0.000000 0.014489 0.000000
# 2 0.003127 0.017067 0.000223 0.000000 0.003147 0.000000
# 3 0.002753 0.000223 0.016095 0.000000 -0.002996 0.000000
# 4 0.000000 0.000000 0.000000 0.061290 0.000000 0.001002
# 5 0.014489 0.003147 -0.002996 0.000000 0.050783 0.000000
# 6 0.000000 0.000000 0.000000 0.001002 0.000000 0.055145
#
#
# Mechanical properties :
#
#
# Convention : Reuss Voigt Hill
#
# Bulk Modulus (GPa) = 13.32118 15.15308 14.23713
# Shear Modulus (GPa) = 20.58473 23.63745 22.11109
#
# Velocity S-wave (km/s) = 3.14785 3.37320 3.26247
# Velocity P-wave (km/s) = 4.42995 4.73979 4.58749
#
# Compressibility (1/GPa) = 0.07506843
#
# Stress axis : x y z
#
# Youngs Moduli (GPa) = 33.66870 58.59320 62.13043
#
# Poissons Ratio (x) = -0.18321 -0.17104
# Poissons Ratio (y) = -0.10528 -0.01385
# Poissons Ratio (z) = -0.09268 -0.01306
#
# Static dielectric constant tensor:
#      x y z
#    x 1.753780 0.000000 0.011150 
#    y 0.000000 1.782080 0.000000 
#    z 0.011150 0.000000 1.764340 
# 
# From -- ./inp_files/301719.got.cif
#   From: 2010.05.17/outbox.cif.g08.bks.cpg/sg12_151_cif.got.tgz:301719.got - 2010.06.03 13:09:07.
