data_PCOD9193882
_publ_section_title
;
Structure prediction by ZEFSAII (Michael W. Deem and Ramdas Pophale) SiO2 
 PCOD9193882
Probable space group: C 2/M
;
_chemical_formula_sum "Si O2"
_cell_formula_units_Z 48
_cell_length_a 25.680452
_cell_length_b 7.691613
_cell_length_c 12.765917
_cell_angle_alpha 90.000000
_cell_angle_beta 107.538597
_cell_angle_gamma 90.000000
_cell_volume 2404.358670
_symmetry_space_group_name_H-M "C 2/M"
_symmetry_group_IT_number 12
_symmetry_cell_setting 'monoclinic'
loop_
_space_group_symop_operation_xyz
x,y,z
-x,y,-z
-x,-y,-z
x,-y,z
1/2+x,1/2+y,z
1/2-x,1/2+y,-z
1/2-x,1/2-y,-z
1/2+x,1/2-y,z
loop_
_atom_site_type_symbol
_atom_site_label
_atom_site_fract_x
_atom_site_fract_y
_atom_site_fract_z
Si Si1 0.306855 0.789685 0.244185
Si Si2 0.808402 0.290628 0.484098
Si Si3 0.882173 0.291510 0.714113
Si Si4 0.813283 0.209537 0.878550
Si Si5 0.506911 0.204172 0.121308
Si Si6 0.111236 0.205291 0.886092
O O1 0.311190 0.726847 0.366497
O O2 0.249218 0.727902 0.160254
O O3 0.356904 0.736710 0.201862
O O4 0.305039 0.000000 0.245126
O O5 0.812821 0.500000 0.482159
O O6 0.750000 0.250000 0.500000
O O7 0.855085 0.223323 0.591050
O O8 0.886224 0.500000 0.703960
O O9 0.841457 0.255670 0.785850
O O10 0.941512 0.222214 0.784202
O O11 0.811756 0.000000 0.885641
O O12 0.850691 0.275883 0.996309
O O13 0.449290 0.219075 0.144117
O O14 0.519581 0.000000 0.114522
O O15 0.500000 0.280056 0.000000
O O16 0.105149 0.000000 0.898815
#
# Coordination Sequence:
#
# PCOD9193882 Si02
#       6
#     8   8   8   8   8   8
#     4  10  21  37  55  78 112 149 180 216 273 331
#     4  10  20  35  57  83 110 142 180 223 268 320
#     4  10  20  34  56  85 110 138 182 225 265 320
#     4  10  20  34  54  82 113 142 175 223 276 323
#     4  10  20  36  57  80 108 145 184 222 269 324
#     4  11  23  36  54  82 112 144 184 227 273 320
#
# _framework density 19.963742
#
# number of rings (size 3 to 8) (size 9 to 14) (size 15 to 20)
#    0.000    1.833    3.333    1.000    0.000    3.000 
#    0.000    0.833    0.000    5.000    0.000    0.000 
#    0.000    0.000    0.000    0.000    0.000    0.000 
#
# Total GULP energy -134046.438843 kJ/mol
# GULP energy per Si atom -5585.268285 kJ/mol
# Density = 1.991830 g / cm^3
# Si number density = 19.963742 Si / 1000 Ang^3
#
#
#
# Elastic Constant Matrix: (Units=GPa)
#
#
# Indices 1 2 3 4 5 6 
#
# 1 119.0009 -16.5817 41.2955 0.0000 22.7050 0.0000
# 2 -16.5817 31.6291 -1.6324 0.0000 9.5541 0.0000
# 3 41.2955 -1.6324 88.8059 0.0000 17.7861 0.0000
# 4 0.0000 0.0000 0.0000 5.9066 0.0000 -12.0098
# 5 22.7050 9.5541 17.7861 0.0000 33.7339 0.0000
# 6 0.0000 0.0000 0.0000 -12.0098 0.0000 17.7953
#
#
#
# Elastic Compliance Matrix: (Units=1/GPa)
#
#
# Indices 1 2 3 4 5 6 
#
# 1 0.012820 0.009288 -0.003953 0.000000 -0.009175 0.000000
# 2 0.009288 0.041987 0.000097 0.000000 -0.018194 0.000000
# 3 -0.003953 0.000097 0.014058 0.000000 -0.004779 0.000000
# 4 0.000000 0.000000 0.000000 -0.454834 0.000000 -0.306960
# 5 -0.009175 -0.018194 -0.004779 0.000000 0.043491 0.000000
# 6 0.000000 0.000000 0.000000 -0.306960 0.000000 -0.150968
#
#
# Mechanical properties :
#
#
# Convention : Reuss Voigt Hill
#
# Bulk Modulus (GPa) = 12.54273 31.73319 22.13796
# Shear Modulus (GPa) = -10.46605 25.91082 7.72238
#
# Velocity S-wave (km/s) = -2.29214 3.60654 1.96891
# Velocity P-wave (km/s) = 0.84192 5.76825 4.03509
#
# Compressibility (1/GPa) = 0.07972745
#
# Stress axis : x y z
#
# Youngs Moduli (GPa) = 78.00404 23.81716 71.13628
#
# Poissons Ratio (x) = -0.22122 0.28120
# Poissons Ratio (y) = -0.72452 -0.00687
# Poissons Ratio (z) = 0.30835 -0.00230
#
# Static dielectric constant tensor:
#      x y z
#    x 1.661960 0.000000 0.034850 
#    y 0.000000 1.738040 0.000000 
#    z 0.034850 0.000000 1.721190 
# 
# From -- ./inp_files/172042.got.cif
#   From: 2010.05.17/outbox.cif.g08.bks.cpg/sg12_87_cif.got.tgz:172042.got - 2010.06.03 13:09:07.
