data_PCOD9193208
_publ_section_title
;
Structure prediction by ZEFSAII (Michael W. Deem and Ramdas Pophale) SiO2 
 PCOD9193208
Probable space group: C 2/M
;
_chemical_formula_sum "Si O2"
_cell_formula_units_Z 52
_cell_length_a 19.597843
_cell_length_b 28.419594
_cell_length_c 5.199866
_cell_angle_alpha 90.000000
_cell_angle_beta 79.222329
_cell_angle_gamma 90.000000
_cell_volume 2845.044443
_symmetry_space_group_name_H-M "C 2/M"
_symmetry_group_IT_number 12
_symmetry_cell_setting 'monoclinic'
loop_
_space_group_symop_operation_xyz
x,y,z
-x,y,-z
-x,-y,-z
x,-y,z
1/2+x,1/2+y,z
1/2-x,1/2+y,-z
1/2-x,1/2-y,-z
1/2+x,1/2-y,z
loop_
_atom_site_type_symbol
_atom_site_label
_atom_site_fract_x
_atom_site_fract_y
_atom_site_fract_z
Si Si1 0.376023 0.637428 0.759623
Si Si2 0.725009 0.849223 0.095972
Si Si3 0.195137 0.709563 0.613791
Si Si4 0.324506 0.448674 0.495448
Si Si5 0.571515 0.274998 0.573042
Si Si6 0.500000 0.652390 0.000000
Si Si7 0.772411 0.550615 0.937402
O O1 0.306640 0.640882 0.980158
O O2 0.365554 0.598789 0.541504
O O3 0.388240 0.690524 0.651263
O O4 0.446133 0.624234 0.862451
O O5 0.703750 0.812155 0.890719
O O6 0.710200 0.829872 0.388743
O O7 0.688128 0.899938 0.094669
O O8 0.250000 0.750000 0.500000
O O9 0.120576 0.733962 0.635397
O O10 0.361681 0.500000 0.476761
O O11 0.283879 0.446523 0.255056
O O12 0.267692 0.450350 0.763589
O O13 0.500000 0.256940 0.500000
O O14 0.547832 0.312353 0.803045
O O15 0.808902 0.500000 0.880955
#
# Coordination Sequence:
#
# PCOD9193208 Si02
#       7
#     8   8   8   8   8   4   8
#     4  10  20  34  53  75 102 141 186 223 266 321
#     4  11  22  34  57  82 111 134 178 223 271 317
#     4  12  23  35  54  83 111 141 177 227 269 313
#     4   9  18  31  52  75 102 136 178 224 272 312
#     4  10  23  37  53  73 105 149 185 217 266 324
#     4  10  22  36  53  68  98 148 191 222 262 320
#     4   9  18  33  52  78 108 141 168 212 273 329
#
# _framework density 18.277393
#
# number of rings (size 3 to 8) (size 9 to 14) (size 15 to 20)
#    0.000    1.846    1.538    3.231    8.615    0.000 
#    0.000    0.385    0.000    4.154    0.000    0.000 
#    0.000    3.692    0.000    0.000    0.000    0.000 
#
# Total GULP energy -144923.622861 kJ/mol
# GULP energy per Si atom -5573.985495 kJ/mol
# Density = 1.823579 g / cm^3
# Si number density = 18.277393 Si / 1000 Ang^3
#
#
#
# Elastic Constant Matrix: (Units=GPa)
#
#
# Indices 1 2 3 4 5 6 
#
# 1 44.0469 15.7805 -4.5358 0.0000 2.5138 0.0000
# 2 15.7805 59.6502 -26.3028 0.0000 3.8517 0.0000
# 3 -4.5358 -26.3028 40.3147 0.0000 2.1075 0.0000
# 4 0.0000 0.0000 0.0000 33.8607 0.0000 13.8592
# 5 2.5138 3.8517 2.1075 0.0000 17.6628 0.0000
# 6 0.0000 0.0000 0.0000 13.8592 0.0000 12.6974
#
#
#
# Elastic Compliance Matrix: (Units=1/GPa)
#
#
# Indices 1 2 3 4 5 6 
#
# 1 0.025261 -0.007407 -0.001899 0.000000 -0.001753 0.000000
# 2 -0.007407 0.026602 0.016876 0.000000 -0.006761 0.000000
# 3 -0.001899 0.016876 0.036005 0.000000 -0.007706 0.000000
# 4 0.000000 0.000000 0.000000 0.053381 0.000000 -0.058265
# 5 -0.001753 -0.006761 -0.007706 0.000000 0.059260 0.000000
# 6 0.000000 0.000000 0.000000 -0.058265 0.000000 0.142353
#
#
# Mechanical properties :
#
#
# Convention : Reuss Voigt Hill
#
# Bulk Modulus (GPa) = 9.70784 12.65504 11.18144
# Shear Modulus (GPa) = 13.81000 23.44883 18.62941
#
# Velocity S-wave (km/s) = 2.75176 3.58570 3.19605
# Velocity P-wave (km/s) = 3.92673 4.90733 4.44416
#
# Compressibility (1/GPa) = 0.10300948
#
# Stress axis : x y z
#
# Youngs Moduli (GPa) = 39.58628 37.59105 27.77408
#
# Poissons Ratio (x) = 0.27843 0.05273
# Poissons Ratio (y) = 0.29321 -0.46872
# Poissons Ratio (z) = 0.07516 -0.63440
#
# Static dielectric constant tensor:
#      x y z
#    x 1.626710 0.000000 0.011470 
#    y 0.000000 1.702930 0.000000 
#    z 0.011470 0.000000 1.689260 
# 
# From -- ./inp_files/17965.got.cif
#   From: 2010.05.17/outbox.cif.g08.bks.cpg/sg12_9_cif.got.tgz:17965.got - 2010.06.03 13:09:07.
