data_PCOD9193681
_publ_section_title
;
Structure prediction by ZEFSAII (Michael W. Deem and Ramdas Pophale) SiO2 
 PCOD9193681
Probable space group: C 2/M
;
_chemical_formula_sum "Si O2"
_cell_formula_units_Z 56
_cell_length_a 19.240166
_cell_length_b 7.728333
_cell_length_c 29.986800
_cell_angle_alpha 90.000000
_cell_angle_beta 142.184756
_cell_angle_gamma 90.000000
_cell_volume 2733.809864
_symmetry_space_group_name_H-M "C 2/M"
_symmetry_group_IT_number 12
_symmetry_cell_setting 'monoclinic'
loop_
_space_group_symop_operation_xyz
x,y,z
-x,y,-z
-x,-y,-z
x,-y,z
1/2+x,1/2+y,z
1/2-x,1/2+y,-z
1/2-x,1/2-y,-z
1/2+x,1/2-y,z
loop_
_atom_site_type_symbol
_atom_site_label
_atom_site_fract_x
_atom_site_fract_y
_atom_site_fract_z
Si Si1 0.758148 0.707909 0.867281
Si Si2 0.052817 0.292069 0.702864
Si Si3 0.373817 0.701885 0.439055
Si Si4 0.296332 0.204513 0.303530
Si Si5 0.090730 0.290426 0.139096
Si Si6 0.333654 0.791720 0.002245
Si Si7 0.796185 0.708656 0.572299
O O1 0.767180 0.500000 0.872925
O O2 0.634232 0.750980 0.785595
O O3 0.847833 0.769441 0.875371
O O4 0.786844 0.773641 0.931005
O O5 0.048652 0.500000 0.696930
O O6 0.116603 0.228049 0.690379
O O7 0.925073 0.226107 0.642495
O O8 0.500000 0.779775 0.500000
O O9 0.388906 0.500000 0.458997
O O10 0.317767 0.712774 0.362111
O O11 0.290490 0.777093 0.434265
O O12 0.171436 0.234069 0.220344
O O13 0.314917 0.000000 0.318002
O O14 0.090644 0.500000 0.138658
O O15 0.961677 0.229106 0.075746
O O16 0.340215 0.000000 0.002330
O O17 0.250000 0.750000 0.000000
O O18 0.801633 0.500000 0.579787
O O19 0.750000 0.750000 0.500000
#
# Coordination Sequence:
#
# PCOD9193681 Si02
#       7
#     8   8   8   8   8   8   8
#     4   9  18  34  56  78  99 131 177 217 249 298
#     4   9  19  35  53  76 105 134 166 208 260 309
#     4  10  21  36  54  77 105 138 175 212 253 306
#     4  10  20  34  54  79 105 133 169 214 259 306
#     4   9  18  35  57  76 100 137 175 212 255 303
#     4  10  21  35  52  77 107 137 171 213 259 305
#     4  10  21  36  54  76 103 135 171 211 254 303
#
# _framework density 20.484233
#
# number of rings (size 3 to 8) (size 9 to 14) (size 15 to 20)
#    0.000    2.429    0.000    1.714    0.000    6.000 
#    0.000    4.286    0.000    4.286    0.000    0.000 
#    0.000    0.000    0.000    0.000    0.000    0.000 
#
# Total GULP energy -156339.902869 kJ/mol
# GULP energy per Si atom -5583.567960 kJ/mol
# Density = 2.043761 g / cm^3
# Si number density = 20.484233 Si / 1000 Ang^3
#
#
#
# Elastic Constant Matrix: (Units=GPa)
#
#
# Indices 1 2 3 4 5 6 
#
# 1 154.9149 -0.6390 125.8415 0.0000 16.4887 -0.0002
# 2 -0.6390 29.0450 -10.8830 0.0002 6.6928 -0.0005
# 3 125.8415 -10.8830 164.5892 0.0000 16.5571 0.0000
# 4 0.0000 0.0002 0.0000 19.2415 0.0000 1.8342
# 5 16.4887 6.6928 16.5571 0.0000 39.0708 0.0000
# 6 -0.0002 -0.0005 0.0000 1.8342 0.0000 8.5072
#
#
#
# Elastic Compliance Matrix: (Units=1/GPa)
#
#
# Indices 1 2 3 4 5 6 
#
# 1 0.017689 -0.004560 -0.013740 0.000000 -0.000862 0.000000
# 2 -0.004560 0.038623 0.006803 -0.000001 -0.007574 0.000002
# 3 -0.013740 0.006803 0.017302 0.000000 -0.002699 0.000000
# 4 0.000000 -0.000001 0.000000 0.053062 0.000000 -0.011440
# 5 -0.000862 -0.007574 -0.002699 0.000000 0.028399 -0.000001
# 6 0.000000 0.000002 0.000000 -0.011440 -0.000001 0.120014
#
#
# Mechanical properties :
#
#
# Convention : Reuss Voigt Hill
#
# Bulk Modulus (GPa) = 19.75522 64.13202 41.94362
# Shear Modulus (GPa) = 15.87519 28.97921 22.42720
#
# Velocity S-wave (km/s) = 2.78689 3.76534 3.31244
# Velocity P-wave (km/s) = 4.47446 7.09082 5.92876
#
# Compressibility (1/GPa) = 0.05061954
#
# Stress axis : x y z
#
# Youngs Moduli (GPa) = 56.53215 25.89115 57.79669
#
# Poissons Ratio (x) = 0.11808 0.79410
# Poissons Ratio (y) = 0.25781 -0.39317
# Poissons Ratio (z) = 0.77673 -0.17613
#
# Static dielectric constant tensor:
#      x y z
#    x 1.722650 0.000000 0.018970 
#    y 0.000000 1.760530 0.000000 
#    z 0.018970 0.000000 1.695660 
# 
# From -- ./inp_files/275172.got.cif
#   From: 2010.05.17/outbox.cif.g08.bks.cpg/sg12_138_cif.got.tgz:275172.got - 2010.06.03 13:09:07.
