data_PCOD9193336
_publ_section_title
;
Structure prediction by ZEFSAII (Michael W. Deem and Ramdas Pophale) SiO2 
 PCOD9193336
Probable space group: C 2/M
;
_chemical_formula_sum "Si O2"
_cell_formula_units_Z 56
_cell_length_a 21.489879
_cell_length_b 30.886197
_cell_length_c 9.188632
_cell_angle_alpha 90.000000
_cell_angle_beta 31.222850
_cell_angle_gamma 90.000000
_cell_volume 3161.458815
_symmetry_space_group_name_H-M "C 2/M"
_symmetry_group_IT_number 12
_symmetry_cell_setting 'monoclinic'
loop_
_space_group_symop_operation_xyz
x,y,z
-x,y,-z
-x,-y,-z
x,-y,z
1/2+x,1/2+y,z
1/2-x,1/2+y,-z
1/2-x,1/2-y,-z
1/2+x,1/2-y,z
loop_
_atom_site_type_symbol
_atom_site_label
_atom_site_fract_x
_atom_site_fract_y
_atom_site_fract_z
Si Si1 0.999998 0.947811 0.665248
Si Si2 0.745371 0.550608 0.683171
Si Si3 0.142162 0.716483 0.540658
Si Si4 0.641966 0.871983 0.052938
Si Si5 0.358037 0.871983 0.620794
Si Si6 0.245369 0.949392 0.335348
Si Si7 0.357836 0.783517 0.109309
O O1 0.117415 0.936963 0.521945
O O2 0.000000 0.930723 0.500000
O O3 0.999996 0.000000 0.654737
O O4 0.882582 0.936962 0.991609
O O5 0.770514 0.500000 0.667825
O O6 0.833215 0.584595 0.580886
O O7 0.743574 0.554518 0.512853
O O8 0.177465 0.671173 0.394772
O O9 0.249999 0.750000 0.287643
O O10 0.142833 0.711652 0.714335
O O11 0.999999 0.727207 0.786423
O O12 0.500001 0.868277 0.351055
O O13 0.694971 0.874244 0.110060
O O14 0.666789 0.915405 0.913741
O O15 0.677467 0.828827 0.895364
O O16 0.270514 0.000000 0.250119
#
# Coordination Sequence:
#
# PCOD9193336 Si02
#       7
#     8   8   8   8   8   8   8
#     4   9  17  31  51  73 101 137 175 219 269 315
#     4  10  20  34  53  77 106 142 183 224 267 319
#     4   9  18  35  58  81 107 140 178 223 276 332
#     4  10  21  36  54  77 107 143 180 221 271 324
#     4  10  21  36  54  77 107 143 180 221 271 324
#     4  10  20  34  53  77 106 142 183 224 267 319
#     4   9  18  35  58  81 107 140 178 223 276 332
#
# _framework density 17.713341
#
# number of rings (size 3 to 8) (size 9 to 14) (size 15 to 20)
#    0.000    2.429    0.000    2.143    0.000    6.286 
#    2.571    2.857    0.000    0.000    0.000    0.000 
#    0.000    0.000    0.000    0.000    0.000    0.000 
#
# Total GULP energy -155874.624932 kJ/mol
# GULP energy per Si atom -5566.950890 kJ/mol
# Density = 1.767302 g / cm^3
# Si number density = 17.713341 Si / 1000 Ang^3
#
#
#
# Elastic Constant Matrix: (Units=GPa)
#
#
# Indices 1 2 3 4 5 6 
#
# 1 76.3850 61.8999 23.3491 0.0000 4.9757 0.0000
# 2 61.8999 117.9500 51.3196 0.0000 9.5431 0.0000
# 3 23.3491 51.3196 58.3666 0.0000 11.2774 0.0000
# 4 0.0000 0.0000 0.0000 32.4285 0.0000 -5.9392
# 5 4.9757 9.5431 11.2774 0.0000 18.0755 0.0000
# 6 0.0000 0.0000 0.0000 -5.9392 0.0000 25.8432
#
#
#
# Elastic Compliance Matrix: (Units=1/GPa)
#
#
# Indices 1 2 3 4 5 6 
#
# 1 0.022981 -0.013059 0.002478 0.000000 -0.000977 0.000000
# 2 -0.013059 0.021154 -0.013545 0.000000 0.000877 0.000000
# 3 0.002478 -0.013545 0.030475 0.000000 -0.012545 0.000000
# 4 0.000000 0.000000 0.000000 0.032192 0.000000 0.007398
# 5 -0.000977 0.000877 -0.012545 0.000000 0.062956 0.000000
# 6 0.000000 0.000000 0.000000 0.007398 0.000000 0.040395
#
#
# Mechanical properties :
#
#
# Convention : Reuss Voigt Hill
#
# Bulk Modulus (GPa) = 37.94017 58.42656 48.18337
# Shear Modulus (GPa) = 18.71312 23.01164 20.86238
#
# Velocity S-wave (km/s) = 3.25382 3.60823 3.43560
# Velocity P-wave (km/s) = 5.96506 7.10037 6.55733
#
# Compressibility (1/GPa) = 0.02635729
#
# Stress axis : x y z
#
# Youngs Moduli (GPa) = 43.51504 47.27187 32.81329
#
# Poissons Ratio (x) = 0.61734 -0.08132
# Poissons Ratio (y) = 0.56828 0.44447
# Poissons Ratio (z) = -0.10784 0.64031
#
# Static dielectric constant tensor:
#      x y z
#    x 1.636200 0.000000 -0.027010 
#    y 0.000000 1.577700 0.000000 
#    z -0.027010 0.000000 1.666140 
# 
# From -- ./inp_files/91556.got.cif
#   From: 2010.05.17/outbox.cif.g08.bks.cpg/sg12_46_cif.got.tgz:91556.got - 2010.06.03 13:09:07.
