data_PCOD9193817
_publ_section_title
;
Structure prediction by ZEFSAII (Michael W. Deem and Ramdas Pophale) SiO2 
 PCOD9193817
Probable space group: C 2/M
;
_chemical_formula_sum "Si O2"
_cell_formula_units_Z 56
_cell_length_a 16.855950
_cell_length_b 7.347133
_cell_length_c 23.142429
_cell_angle_alpha 90.000000
_cell_angle_beta 131.589924
_cell_angle_gamma 90.000000
_cell_volume 2143.543121
_symmetry_space_group_name_H-M "C 2/M"
_symmetry_group_IT_number 12
_symmetry_cell_setting 'monoclinic'
loop_
_space_group_symop_operation_xyz
x,y,z
-x,y,-z
-x,-y,-z
x,-y,z
1/2+x,1/2+y,z
1/2-x,1/2+y,-z
1/2-x,1/2-y,-z
1/2+x,1/2-y,z
loop_
_atom_site_type_symbol
_atom_site_label
_atom_site_fract_x
_atom_site_fract_y
_atom_site_fract_z
Si Si1 0.374942 0.777784 0.666740
Si Si2 0.869341 0.283101 0.038629
Si Si3 0.111806 0.706705 0.761449
Si Si4 0.413310 0.221659 0.811838
Si Si5 0.569442 0.719800 0.616315
Si Si6 0.839932 0.292414 0.899744
Si Si7 0.346771 0.720581 0.470826
O O1 0.493631 0.714533 0.710084
O O2 0.358890 0.723761 0.726009
O O3 0.274079 0.715541 0.580509
O O4 0.375843 0.000000 0.663669
O O5 0.880871 0.500000 0.040461
O O6 0.882839 0.210316 0.979850
O O7 0.750000 0.250000 0.000000
O O8 0.962532 0.224261 0.126505
O O9 0.108378 0.500000 0.781711
O O10 0.212060 0.794977 0.840343
O O11 0.129781 0.709949 0.701207
O O12 0.369220 0.288145 0.851853
O O13 0.404461 0.000000 0.807148
O O14 0.572190 0.500000 0.620493
O O15 0.446003 0.782479 0.557290
O O16 0.618257 0.767802 0.577971
O O17 0.878766 0.500000 0.916455
O O18 0.346632 0.500000 0.474135
#
# Coordination Sequence:
#
# PCOD9193817 Si02
#       7
#     8   8   8   8   8   8   8
#     4   9  17  29  47  72 102 134 166 203 251 303
#     4  10  20  34  54  81 109 135 166 206 253 302
#     4  11  22  33  48  74 107 137 164 202 258 314
#     4   9  17  32  55  78  99 129 173 217 248 283
#     4   9  17  32  55  77  97 127 171 216 250 290
#     4  10  20  35  56  77  98 131 177 219 247 284
#     4   8  15  30  53  77  97 126 172 215 247 289
#
# _framework density 26.124972
#
# number of rings (size 3 to 8) (size 9 to 14) (size 15 to 20)
#    0.000    2.571    0.000    3.429    0.000    6.286 
#    0.000    2.143    0.000   11.143    0.000    0.000 
#    0.000    0.000    0.000    0.000    0.000    0.000 
#
# Total GULP energy -156581.334472 kJ/mol
# GULP energy per Si atom -5592.190517 kJ/mol
# Density = 2.606551 g / cm^3
# Si number density = 26.124972 Si / 1000 Ang^3
#
#
#
# Elastic Constant Matrix: (Units=GPa)
#
#
# Indices 1 2 3 4 5 6 
#
# 1 71.8768 -5.3318 3.6805 0.0000 16.6162 0.0000
# 2 -5.3318 98.3692 -4.3744 0.0000 3.9126 0.0000
# 3 3.6805 -4.3744 135.3127 0.0000 18.6926 0.0000
# 4 0.0000 0.0000 0.0000 -26.1594 0.0000 38.5603
# 5 16.6162 3.9126 18.6926 0.0000 51.0751 0.0000
# 6 0.0000 0.0000 0.0000 38.5603 0.0000 -31.1318
#
#
#
# Elastic Compliance Matrix: (Units=1/GPa)
#
#
# Indices 1 2 3 4 5 6 
#
# 1 0.015159 0.001040 0.000330 0.000000 -0.005132 0.000000
# 2 0.001040 0.010296 0.000485 0.000000 -0.001305 0.000000
# 3 0.000330 0.000485 0.007812 0.000000 -0.003004 0.000000
# 4 0.000000 0.000000 0.000000 0.046292 0.000000 0.057338
# 5 -0.005132 -0.001305 -0.003004 0.000000 0.022448 0.000000
# 6 0.000000 0.000000 0.000000 0.057338 0.000000 0.038898
#
#
# Mechanical properties :
#
#
# Convention : Reuss Voigt Hill
#
# Bulk Modulus (GPa) = 27.04302 32.61195 29.82749
# Shear Modulus (GPa) = 33.44029 19.52907 26.48468
#
# Velocity S-wave (km/s) = 3.58161 2.73706 3.18743
# Velocity P-wave (km/s) = 5.24192 4.74329 4.99883
#
# Compressibility (1/GPa) = 0.03697811
#
# Stress axis : x y z
#
# Youngs Moduli (GPa) = 65.96544 97.12862 128.00975
#
# Poissons Ratio (x) = -0.10106 -0.04228
# Poissons Ratio (y) = -0.06864 -0.06205
# Poissons Ratio (z) = -0.02179 -0.04708
#
# Static dielectric constant tensor:
#      x y z
#    x 2.106430 0.000000 0.004780 
#    y 0.000000 2.045480 0.000000 
#    z 0.004780 0.000000 1.971940 
# 
# From -- ./inp_files/342559.got.cif
#   From: 2010.05.17/outbox.cif.g08.bks.cpg/sg12_172_cif.got.tgz:342559.got - 2010.06.03 13:09:07.
