data_PCOD9193352
_publ_section_title
;
Structure prediction by ZEFSAII (Michael W. Deem and Ramdas Pophale) SiO2 
 PCOD9193352
Probable space group: C 2/M
;
_chemical_formula_sum "Si O2"
_cell_formula_units_Z 64
_cell_length_a 30.605778
_cell_length_b 7.712353
_cell_length_c 20.042876
_cell_angle_alpha 90.000000
_cell_angle_beta 143.016605
_cell_angle_gamma 90.000000
_cell_volume 2846.074803
_symmetry_space_group_name_H-M "C 2/M"
_symmetry_group_IT_number 12
_symmetry_cell_setting 'monoclinic'
loop_
_space_group_symop_operation_xyz
x,y,z
-x,y,-z
-x,-y,-z
x,-y,z
1/2+x,1/2+y,z
1/2-x,1/2+y,-z
1/2-x,1/2-y,-z
1/2+x,1/2-y,z
loop_
_atom_site_type_symbol
_atom_site_label
_atom_site_fract_x
_atom_site_fract_y
_atom_site_fract_z
Si Si1 0.248914 0.796836 0.820398
Si Si2 0.517746 0.212130 0.229044
Si Si3 0.853679 0.712789 0.064413
Si Si4 0.782552 0.706799 0.714843
Si Si5 0.368157 0.796690 0.521863
Si Si6 0.056768 0.712249 0.126560
Si Si7 0.634105 0.203543 0.777055
Si Si8 0.020350 0.792839 0.451233
O O1 0.261237 0.722360 0.762204
O O2 0.168570 0.784265 0.753005
O O3 0.266661 0.000000 0.837247
O O4 0.301053 0.724266 0.941770
O O5 0.436327 0.263852 0.149477
O O6 0.578764 0.275686 0.355777
O O7 0.533880 0.265428 0.172919
O O8 0.518541 0.000000 0.231840
O O9 0.851366 0.500000 0.063167
O O10 0.833774 0.773854 0.114529
O O11 0.790479 0.500000 0.730168
O O12 0.714333 0.734015 0.583139
O O13 0.861227 0.772326 0.788519
O O14 0.407663 0.765704 0.498920
O O15 0.364464 0.000000 0.528687
O O16 0.056300 0.500000 0.125506
O O17 0.000000 0.767002 0.000000
O O18 0.548462 0.234874 0.676190
O O19 0.647698 0.000000 0.789090
O O20 0.000000 0.724638 0.500000
O O21 0.023170 0.000000 0.458118
#
# Coordination Sequence:
#
# PCOD9193352 Si02
#       8
#     8   8   8   8   8   8   8   8
#     4  10  20  34  53  77 110 149 185 230 282 326
#     4   9  17  32  55  82 111 143 185 233 279 330
#     4   9  17  32  53  78 109 143 181 229 280 330
#     4  10  21  36  55  84 115 143 185 235 277 324
#     4  11  22  37  57  81 112 152 188 225 279 337
#     4   9  17  32  58  89 114 142 184 232 280 331
#     4  11  21  34  53  80 111 144 185 228 277 338
#     4  11  23  38  56  78 108 147 191 238 280 323
#
# _framework density 22.487110999999999
#
# number of rings (size 3 to 8) (size 9 to 14) (size 15 to 20)
#    0.000    2.000    1.250    3.000    0.000    8.000 
#    0.000    0.625    0.000    1.125    0.000    0.000 
#    0.000    0.000    0.000    0.000    0.000    0.000 
#
# Total GULP energy -178789.239236 kJ/mol
# GULP energy per Si atom -5587.163726 kJ/mol
# Density = 2.243593 g / cm^3
# Si number density = 22.487111 Si / 1000 Ang^3
#
#
#
# Elastic Constant Matrix: (Units=GPa)
#
#
# Indices 1 2 3 4 5 6 
#
# 1 113.8170 -2.6655 37.9122 0.0000 0.0812 0.0000
# 2 -2.6655 40.9555 -1.5029 0.0000 -7.0550 0.0000
# 3 37.9122 -1.5029 100.9449 0.0000 5.8474 0.0000
# 4 0.0000 0.0000 0.0000 18.0768 0.0000 6.3542
# 5 0.0812 -7.0550 5.8474 0.0000 42.0680 0.0000
# 6 0.0000 0.0000 0.0000 6.3542 0.0000 7.9155
#
#
#
# Elastic Compliance Matrix: (Units=1/GPa)
#
#
# Indices 1 2 3 4 5 6 
#
# 1 0.010069 0.000621 -0.003808 0.000000 0.000614 0.000000
# 2 0.000621 0.025183 -0.000104 0.000000 0.004237 0.000000
# 3 -0.003808 -0.000104 0.011428 0.000000 -0.001598 0.000000
# 4 0.000000 0.000000 0.000000 0.077066 0.000000 -0.061864
# 5 0.000614 0.004237 -0.001598 0.000000 0.024703 0.000000
# 6 0.000000 0.000000 0.000000 -0.061864 0.000000 0.175996
#
#
# Mechanical properties :
#
#
# Convention : Reuss Voigt Hill
#
# Bulk Modulus (GPa) = 24.93849 35.91166 30.42507
# Shear Modulus (GPa) = 14.51842 28.41029 21.46435
#
# Velocity S-wave (km/s) = 2.54369 3.55829 3.09288
# Velocity P-wave (km/s) = 4.44312 5.73468 5.12971
#
# Compressibility (1/GPa) = 0.04009866
#
# Stress axis : x y z
#
# Youngs Moduli (GPa) = 99.31956 39.70908 87.50787
#
# Poissons Ratio (x) = -0.02467 0.33321
# Poissons Ratio (y) = -0.06171 0.00908
# Poissons Ratio (z) = 0.37819 0.00412
#
# Static dielectric constant tensor:
#      x y z
#    x 1.791670 0.000000 -0.006510 
#    y 0.000000 1.841760 0.000000 
#    z -0.006510 0.000000 1.846790 
# 
# From -- ./inp_files/295870.got.cif
#   From: 2010.05.17/outbox.cif.g08.bks.cpg/sg12_148_cif.got.tgz:295870.got - 2010.06.03 13:09:07.
