data_PCOD9193083
_publ_section_title
;
Structure prediction by ZEFSAII (Michael W. Deem and Ramdas Pophale) SiO2 
 PCOD9193083
Probable space group: C 2/M
;
_chemical_formula_sum "Si O2"
_cell_formula_units_Z 64
_cell_length_a 24.459165
_cell_length_b 22.771044
_cell_length_c 11.246464
_cell_angle_alpha 90.000000
_cell_angle_beta 34.567350
_cell_angle_gamma 90.000000
_cell_volume 3553.942914
_symmetry_space_group_name_H-M "C 2/M"
_symmetry_group_IT_number 12
_symmetry_cell_setting 'monoclinic'
loop_
_space_group_symop_operation_xyz
x,y,z
-x,y,-z
-x,-y,-z
x,-y,z
1/2+x,1/2+y,z
1/2-x,1/2+y,-z
1/2-x,1/2-y,-z
1/2+x,1/2-y,z
loop_
_atom_site_type_symbol
_atom_site_label
_atom_site_fract_x
_atom_site_fract_y
_atom_site_fract_z
Si Si1 0.388853 0.605209 0.705296
Si Si2 0.270620 0.686645 0.603013
Si Si3 0.729721 0.931961 0.165921
Si Si4 0.592873 0.155486 0.514749
Si Si5 0.757443 0.935114 0.724849
Si Si6 0.821438 0.233511 0.765077
Si Si7 0.080508 0.433251 0.212073
Si Si8 0.405345 0.774535 0.246455
O O1 0.500000 0.588406 0.500000
O O2 0.330544 0.573410 0.704024
O O3 0.378606 0.675199 0.701737
O O4 0.331244 0.588162 0.928036
O O5 0.276856 0.617233 0.601409
O O6 0.264253 0.713494 0.747986
O O7 0.365550 0.714951 0.376282
O O8 0.179450 0.703767 0.687996
O O9 0.686342 0.886906 0.338698
O O10 0.651671 0.927611 0.197384
O O11 0.733789 0.000000 0.195494
O O12 0.614386 0.210595 0.388755
O O13 0.500884 0.115983 0.645586
O O14 0.580117 0.181195 0.669478
O O15 0.766544 0.000000 0.658729
O O16 0.651042 0.928111 0.972535
O O17 0.750000 0.250000 0.000000
O O18 0.039716 0.500000 0.287404
O O19 0.500000 0.767057 0.000000
#
# Coordination Sequence:
#
# PCOD9193083 Si02
#       8
#     8   8   8   8   8   8   8   8
#     4  10  20  35  51  78 115 150 186 220 271 337
#     4   9  20  39  59  78 109 146 187 229 273 339
#     4  10  20  34  52  76 115 155 183 221 277 343
#     4  11  20  33  56  82 112 142 185 230 276 335
#     4   9  18  35  57  80 108 147 188 224 271 333
#     4  10  20  38  54  84 115 142 175 227 288 333
#     4   9  18  32  52  81 117 151 178 214 278 351
#     4  10  21  39  58  81 108 149 191 229 281 330
#
# _framework density 18.008167
#
# number of rings (size 3 to 8) (size 9 to 14) (size 15 to 20)
#    0.000    2.250    1.250    2.625    0.000    3.000 
#    9.000    1.250    0.000    3.750    0.000    0.000 
#    0.000    0.000    0.000    0.000    0.000    0.000 
#
# Total GULP energy -178573.729389 kJ/mol
# GULP energy per Si atom -5580.429043 kJ/mol
# Density = 1.796718 g / cm^3
# Si number density = 18.008167 Si / 1000 Ang^3
#
#
#
# Elastic Constant Matrix: (Units=GPa)
#
#
# Indices 1 2 3 4 5 6 
#
# 1 36.5281 26.8790 42.9373 0.0000 9.0165 0.0000
# 2 26.8790 149.3078 65.2679 0.0000 6.6335 0.0000
# 3 42.9373 65.2679 136.4144 0.0000 5.0906 0.0000
# 4 0.0000 0.0000 0.0000 27.1658 0.0000 -1.5936
# 5 9.0165 6.6335 5.0906 0.0000 26.4395 0.0000
# 6 0.0000 0.0000 0.0000 -1.5936 0.0000 9.3588
#
#
#
# Elastic Compliance Matrix: (Units=1/GPa)
#
#
# Indices 1 2 3 4 5 6 
#
# 1 0.048325 -0.002120 -0.013700 0.000000 -0.013310 0.000000
# 2 -0.002120 0.008610 -0.003423 0.000000 -0.000778 0.000000
# 3 -0.013700 -0.003423 0.013169 0.000000 0.002995 0.000000
# 4 0.000000 0.000000 0.000000 0.037182 0.000000 0.006331
# 5 -0.013310 -0.000778 0.002995 0.000000 0.041980 0.000000
# 6 0.000000 0.000000 0.000000 0.006331 0.000000 0.107929
#
#
# Mechanical properties :
#
#
# Convention : Reuss Voigt Hill
#
# Bulk Modulus (GPa) = 31.62710 65.82427 48.72568
# Shear Modulus (GPa) = 16.32810 25.07055 20.69932
#
# Velocity S-wave (km/s) = 3.01442 3.73524 3.39402
# Velocity P-wave (km/s) = 5.45128 7.43199 6.51732
#
# Compressibility (1/GPa) = 0.03161846
#
# Stress axis : x y z
#
# Youngs Moduli (GPa) = 20.69331 116.14105 75.93701
#
# Poissons Ratio (x) = 0.24618 1.04031
# Poissons Ratio (y) = 0.04386 0.25996
# Poissons Ratio (z) = 0.28349 0.39759
#
# Static dielectric constant tensor:
#      x y z
#    x 1.609580 0.000000 0.010700 
#    y 0.000000 1.637220 0.000000 
#    z 0.010700 0.000000 1.622770 
# 
# From -- ./inp_files/178400.got.cif
#   From: 2010.05.17/outbox.cif.g08.bks.cpg/sg12_90_cif.got.tgz:178400.got - 2010.06.03 13:09:07.
