data_PCOD9193361
_publ_section_title
;
Structure prediction by ZEFSAII (Michael W. Deem and Ramdas Pophale) SiO2 
 PCOD9193361
Probable space group: C 2/M
;
_chemical_formula_sum "Si O2"
_cell_formula_units_Z 64
_cell_length_a 15.235980
_cell_length_b 7.365260
_cell_length_c 25.182687
_cell_angle_alpha 90.000000
_cell_angle_beta 107.345846
_cell_angle_gamma 90.000000
_cell_volume 2697.408580
_symmetry_space_group_name_H-M "C 2/M"
_symmetry_group_IT_number 12
_symmetry_cell_setting 'monoclinic'
loop_
_space_group_symop_operation_xyz
x,y,z
-x,y,-z
-x,-y,-z
x,-y,z
1/2+x,1/2+y,z
1/2-x,1/2+y,-z
1/2-x,1/2-y,-z
1/2+x,1/2-y,z
loop_
_atom_site_type_symbol
_atom_site_label
_atom_site_fract_x
_atom_site_fract_y
_atom_site_fract_z
Si Si1 0.484226 0.721361 0.691963
Si Si2 0.808792 0.282575 0.064069
Si Si3 0.201130 0.793227 0.145566
Si Si4 0.358463 0.292205 0.455167
Si Si5 0.654864 0.289925 0.250018
Si Si6 0.841913 0.220432 0.336533
Si Si7 0.505726 0.780064 0.062810
Si Si8 0.642973 0.721088 0.429879
O O1 0.482934 0.500000 0.693377
O O2 0.434403 0.786842 0.736362
O O3 0.587676 0.776532 0.696909
O O4 0.422009 0.774263 0.630182
O O5 0.811906 0.500000 0.069477
O O6 0.761528 0.210431 0.109029
O O7 0.912450 0.218493 0.074121
O O8 0.750000 0.250000 0.000000
O O9 0.192039 0.706717 0.202057
O O10 0.097736 0.794847 0.104703
O O11 0.235084 0.000000 0.159287
O O12 0.391192 0.500000 0.459224
O O13 0.377251 0.214381 0.400405
O O14 0.390214 0.216691 0.517660
O O15 0.246844 0.288289 0.439559
O O16 0.633064 0.500000 0.233862
O O17 0.739321 0.284200 0.306271
O O18 0.839659 0.000000 0.337867
O O19 0.510756 0.000000 0.066522
O O20 0.500000 0.730426 0.000000
O O21 0.646888 0.500000 0.431907
#
# Coordination Sequence:
#
# PCOD9193361 Si02
#       8
#     8   8   8   8   8   8   8   8
#     4   9  18  33  54  75 101 139 178 213 260 319
#     4  10  20  35  55  81 111 141 172 210 256 308
#     4  10  22  37  56  81 108 140 178 219 258 303
#     4   9  17  28  47  76 104 127 168 222 265 308
#     4  10  21  39  56  74 105 142 179 217 259 312
#     4  10  20  34  53  78 104 135 176 224 266 308
#     4  10  20  35  56  82 111 140 171 209 257 310
#     4   9  16  29  50  73  99 137 172 208 265 322
#
# _framework density 23.726476999999999
#
# number of rings (size 3 to 8) (size 9 to 14) (size 15 to 20)
#    0.000    2.375    2.500    0.000    0.000    2.750 
#    0.000    3.750    0.000    0.000    0.000    4.375 
#    0.000    0.000    0.000    0.000    0.000    0.000 
#
# Total GULP energy -178776.046505 kJ/mol
# GULP energy per Si atom -5586.751453 kJ/mol
# Density = 2.367247 g / cm^3
# Si number density = 23.726477 Si / 1000 Ang^3
#
#
#
# Elastic Constant Matrix: (Units=GPa)
#
#
# Indices 1 2 3 4 5 6 
#
# 1 100.5101 -3.6750 22.5923 0.0000 -43.3854 0.0000
# 2 -3.6750 92.1167 4.2655 0.0000 -7.5988 0.0000
# 3 22.5923 4.2655 115.1727 0.0000 -48.1831 0.0000
# 4 0.0000 0.0000 0.0000 5.5489 0.0000 1.7763
# 5 -43.3854 -7.5988 -48.1831 0.0000 50.2682 0.0000
# 6 0.0000 0.0000 0.0000 1.7763 0.0000 21.8139
#
#
#
# Elastic Compliance Matrix: (Units=1/GPa)
#
#
# Indices 1 2 3 4 5 6 
#
# 1 0.017703 0.002156 0.004968 0.000000 0.020367 0.000000
# 2 0.002156 0.011271 0.001087 0.000000 0.004607 0.000000
# 3 0.004968 0.001087 0.015911 0.000000 0.019703 0.000000
# 4 0.000000 0.000000 0.000000 0.185038 0.000000 -0.015068
# 5 0.020367 0.004607 0.019703 0.000000 0.057054 0.000000
# 6 0.000000 0.000000 0.000000 -0.015068 0.000000 0.047069
#
#
# Mechanical properties :
#
#
# Convention : Reuss Voigt Hill
#
# Bulk Modulus (GPa) = 16.31124 39.35169 27.83146
# Shear Modulus (GPa) = 14.79030 34.50066 24.64548
#
# Velocity S-wave (km/s) = 2.49944 3.81740 3.22643
# Velocity P-wave (km/s) = 3.90118 6.00430 5.06315
#
# Compressibility (1/GPa) = 0.06130742
#
# Stress axis : x y z
#
# Youngs Moduli (GPa) = 56.48814 88.71935 62.85123
#
# Poissons Ratio (x) = -0.19131 -0.31226
# Poissons Ratio (y) = -0.12181 -0.06830
# Poissons Ratio (z) = -0.28064 -0.09642
#
# Static dielectric constant tensor:
#      x y z
#    x 1.863410 0.000000 -0.049940 
#    y 0.000000 1.791880 0.000000 
#    z -0.049940 0.000000 1.912060 
# 
# From -- ./inp_files/338871.got.cif
#   From: 2010.05.17/outbox.cif.g08.bks.cpg/sg12_170_cif.got.tgz:338871.got - 2010.06.03 13:09:07.
