data_PCOD9193138
_publ_section_title
;
Structure prediction by ZEFSAII (Michael W. Deem and Ramdas Pophale) SiO2 
 PCOD9193138
Probable space group: C 2/M
;
_chemical_formula_sum "Si O2"
_cell_formula_units_Z 40
_cell_length_a 14.213651
_cell_length_b 8.315395
_cell_length_c 15.546824
_cell_angle_alpha 90.000000
_cell_angle_beta 92.036886
_cell_angle_gamma 90.000000
_cell_volume 1836.351098
_symmetry_space_group_name_H-M "C 2/M"
_symmetry_group_IT_number 12
_symmetry_cell_setting 'monoclinic'
loop_
_space_group_symop_operation_xyz
x,y,z
-x,y,-z
-x,-y,-z
x,-y,z
1/2+x,1/2+y,z
1/2-x,1/2+y,-z
1/2-x,1/2-y,-z
1/2+x,1/2-y,z
loop_
_atom_site_type_symbol
_atom_site_label
_atom_site_fract_x
_atom_site_fract_y
_atom_site_fract_z
Si Si1 0.094377 0.691224 0.608700
Si Si2 0.367904 0.189823 0.571350
Si Si3 0.712579 0.806027 0.907587
Si Si4 0.951130 0.304746 0.209475
Si Si5 0.661872 0.690168 0.245898
O O1 0.114505 0.500000 0.609109
O O2 0.145277 0.760558 0.525435
O O3 0.106436 0.748526 0.706612
O O4 0.981176 0.707966 0.590688
O O5 0.319661 0.256974 0.655183
O O6 0.349257 0.000000 0.568399
O O7 0.606568 0.759637 0.877200
O O8 0.776224 0.744206 0.830522
O O9 0.715767 0.000000 0.907481
O O10 0.750000 0.750000 0.000000
O O11 0.958226 0.500000 0.214052
O O12 0.054559 0.234448 0.219895
O O13 0.674202 0.500000 0.246390
#
# Coordination Sequence:
#
# PCOD9193138 Si02
#       5
#     8   8   8   8   8
#     4   7  11  23  47  74  99 131 175 210 234 282
#     4   8  13  25  47  74 102 138 175 204 238 295
#     4  10  23  40  57  76 102 134 171 216 266 312
#     4   9  18  36  58  77 100 139 180 208 243 307
#     4  10  20  34  52  79 110 136 164 212 267 304
#
# _framework density 21.782326999999999
#
# number of rings (size 3 to 8) (size 9 to 14) (size 15 to 20)
#    0.000    3.200    0.000    3.000    0.000    3.200 
#    0.000   13.000    0.000    0.000    0.000    0.000 
#    0.000    0.000    0.000    0.000    0.000    0.000 
#
# Total GULP energy -111524.244403 kJ/mol
# GULP energy per Si atom -5576.212220 kJ/mol
# Density = 2.173275 g / cm^3
# Si number density = 21.782327 Si / 1000 Ang^3
#
#
#
# Elastic Constant Matrix: (Units=GPa)
#
#
# Indices 1 2 3 4 5 6 
#
# 1 48.9218 -0.8911 35.7392 0.0000 0.6314 0.0000
# 2 -0.8911 10.9035 16.5776 0.0000 0.3031 0.0000
# 3 35.7392 16.5776 138.7038 0.0000 21.8988 0.0000
# 4 0.0000 0.0000 0.0000 32.8270 0.0000 -3.2926
# 5 0.6314 0.3031 21.8988 0.0000 38.3351 0.0000
# 6 0.0000 0.0000 0.0000 -3.2926 0.0000 12.0540
#
#
#
# Elastic Compliance Matrix: (Units=1/GPa)
#
#
# Indices 1 2 3 4 5 6 
#
# 1 0.028130 0.017628 -0.010178 0.000000 0.005211 0.000000
# 2 0.017628 0.125090 -0.021203 0.000000 0.010833 0.000000
# 3 -0.010178 -0.021203 0.013534 0.000000 -0.007396 0.000000
# 4 0.000000 0.000000 0.000000 0.031321 0.000000 0.008555
# 5 0.005211 0.010833 -0.007396 0.000000 0.030139 0.000000
# 6 0.000000 0.000000 0.000000 0.008555 0.000000 0.085297
#
#
# Mechanical properties :
#
#
# Convention : Reuss Voigt Hill
#
# Bulk Modulus (GPa) = 7.18137 33.48671 20.33404
# Shear Modulus (GPa) = 12.90548 26.45012 19.67780
#
# Velocity S-wave (km/s) = 2.43672 3.48845 3.00890
# Velocity P-wave (km/s) = 3.34975 5.62427 4.62889
#
# Compressibility (1/GPa) = 0.13924910
#
# Stress axis : x y z
#
# Youngs Moduli (GPa) = 35.54945 7.99423 73.88868
#
# Poissons Ratio (x) = -0.14092 0.75202
# Poissons Ratio (y) = -0.62668 1.56666
# Poissons Ratio (z) = 0.36181 0.16950
#
# Static dielectric constant tensor:
#      x y z
#    x 1.850700 0.000000 -0.001490 
#    y 0.000000 1.754530 0.000000 
#    z -0.001490 0.000000 1.833640 
# 
# From -- ./inp_files/211341.got.cif
#   From: 2010.05.17/outbox.cif.g08.bks.cpg/sg12_106_cif.got.tgz:211341.got - 2010.06.03 13:09:07.
