data_PCOD9193210
_publ_section_title
;
Structure prediction by ZEFSAII (Michael W. Deem and Ramdas Pophale) SiO2 
 PCOD9193210
Probable space group: C 2/M
;
_chemical_formula_sum "Si O2"
_cell_formula_units_Z 64
_cell_length_a 30.571471
_cell_length_b 8.841458
_cell_length_c 15.312818
_cell_angle_alpha 90.000000
_cell_angle_beta 101.124785
_cell_angle_gamma 90.000000
_cell_volume 4061.224495
_symmetry_space_group_name_H-M "C 2/M"
_symmetry_group_IT_number 12
_symmetry_cell_setting 'monoclinic'
loop_
_space_group_symop_operation_xyz
x,y,z
-x,y,-z
-x,-y,-z
x,-y,z
1/2+x,1/2+y,z
1/2-x,1/2+y,-z
1/2-x,1/2-y,-z
1/2+x,1/2-y,z
loop_
_atom_site_type_symbol
_atom_site_label
_atom_site_fract_x
_atom_site_fract_y
_atom_site_fract_z
Si Si1 0.195425 0.319712 0.568932
Si Si2 0.124024 0.820009 0.255331
Si Si3 0.790261 0.319766 0.631273
Si Si4 0.439909 0.819234 0.620656
Si Si5 0.066366 0.318839 0.087635
Si Si6 0.033845 0.681077 0.885519
Si Si7 0.464770 0.320486 0.298094
Si Si8 0.398320 0.319463 0.430149
O O1 0.195023 0.500000 0.580976
O O2 0.195473 0.290213 0.464205
O O3 0.241139 0.249363 0.622401
O O4 0.151534 0.245028 0.591845
O O5 0.173046 0.755963 0.293278
O O6 0.091618 0.748862 0.316336
O O7 0.104035 0.767354 0.155292
O O8 0.123619 0.000000 0.262834
O O9 0.789383 0.500000 0.643200
O O10 0.490190 0.765645 0.657285
O O11 0.422977 0.757613 0.521460
O O12 0.436905 0.000000 0.622093
O O13 0.073022 0.500000 0.097253
O O14 0.018138 0.285952 0.112843
O O15 0.061215 0.280326 0.983530
O O16 0.037018 0.500000 0.873683
O O17 0.047455 0.766959 0.803712
O O18 0.473695 0.500000 0.302343
O O19 0.426275 0.288637 0.353441
O O20 0.397146 0.500000 0.443693
#
# Coordination Sequence:
#
# PCOD9193210 Si02
#       8
#     8   8   8   8   8   8   8   8
#     4  10  20  34  53  76 101 133 172 212 253 301
#     4  12  22  32  51  78 106 137 170 209 256 307
#     4  10  20  34  53  75 103 135 167 209 258 304
#     4  12  23  35  50  71 101 139 180 216 250 297
#     4   9  18  33  52  75 102 133 169 210 257 306
#     4   9  18  33  53  74 100 134 171 212 255 302
#     4  11  23  36  51  74 103 137 176 216 256 299
#     4  11  23  37  52  72 103 139 175 215 256 299
#
# _framework density 15.758793000000001
#
# number of rings (size 3 to 8) (size 9 to 14) (size 15 to 20)
#    0.000    1.500    2.500    4.875    0.000    5.000 
#    0.000    1.250    0.000    0.000    0.000    0.875 
#    0.000    0.000    0.000    0.000    0.000    0.000 
#
# Total GULP energy -178771.384548 kJ/mol
# GULP energy per Si atom -5586.605767 kJ/mol
# Density = 1.572293 g / cm^3
# Si number density = 15.758793 Si / 1000 Ang^3
#
#
#
# Elastic Constant Matrix: (Units=GPa)
#
#
# Indices 1 2 3 4 5 6 
#
# 1 97.8646 60.0876 70.5363 0.0000 13.7360 0.0000
# 2 60.0876 86.2714 63.1311 0.0000 11.8315 0.0000
# 3 70.5363 63.1311 108.9472 0.0000 15.5242 0.0000
# 4 0.0000 0.0000 0.0000 27.1800 0.0000 1.6900
# 5 13.7360 11.8315 15.5242 0.0000 23.2577 0.0000
# 6 0.0000 0.0000 0.0000 1.6900 0.0000 24.2077
#
#
#
# Elastic Compliance Matrix: (Units=1/GPa)
#
#
# Indices 1 2 3 4 5 6 
#
# 1 0.022499 -0.008541 -0.009220 0.000000 -0.002789 0.000000
# 2 -0.008541 0.023523 -0.007863 0.000000 -0.001674 0.000000
# 3 -0.009220 -0.007863 0.020288 0.000000 -0.004097 0.000000
# 4 0.000000 0.000000 0.000000 0.036952 0.000000 -0.002580
# 5 -0.002789 -0.001674 -0.004097 0.000000 0.048230 0.000000
# 6 0.000000 0.000000 0.000000 -0.002580 0.000000 0.041489
#
#
# Mechanical properties :
#
#
# Convention : Reuss Voigt Hill
#
# Bulk Modulus (GPa) = 66.38797 75.62146 71.00472
# Shear Modulus (GPa) = 20.06014 21.55097 20.80556
#
# Velocity S-wave (km/s) = 3.57171 3.70205 3.63747
# Velocity P-wave (km/s) = 7.69601 8.14645 7.92443
#
# Compressibility (1/GPa) = 0.01506297
#
# Stress axis : x y z
#
# Youngs Moduli (GPa) = 44.44605 42.51088 49.29001
#
# Poissons Ratio (x) = 0.36309 0.45446
# Poissons Ratio (y) = 0.37962 0.38755
# Poissons Ratio (z) = 0.40980 0.33425
#
# Static dielectric constant tensor:
#      x y z
#    x 1.503930 0.000000 0.006830 
#    y 0.000000 1.522670 0.000000 
#    z 0.006830 0.000000 1.518770 
# 
# From -- ./inp_files/244044.got.cif
#   From: 2010.05.17/outbox.cif.g08.bks.cpg/sg12_123_cif.got.tgz:244044.got - 2010.06.03 13:09:07.
