data_PCOD9193162
_publ_section_title
;
Structure prediction by ZEFSAII (Michael W. Deem and Ramdas Pophale) SiO2 
 PCOD9193162
Probable space group: C 2/M
;
_chemical_formula_sum "Si O2"
_cell_formula_units_Z 40
_cell_length_a 20.858007
_cell_length_b 22.156213
_cell_length_c 4.941127
_cell_angle_alpha 90.000000
_cell_angle_beta 58.773869
_cell_angle_gamma 90.000000
_cell_volume 1952.654651
_symmetry_space_group_name_H-M "C 2/M"
_symmetry_group_IT_number 12
_symmetry_cell_setting 'monoclinic'
loop_
_space_group_symop_operation_xyz
x,y,z
-x,y,-z
-x,-y,-z
x,-y,z
1/2+x,1/2+y,z
1/2-x,1/2+y,-z
1/2-x,1/2-y,-z
1/2+x,1/2-y,z
loop_
_atom_site_type_symbol
_atom_site_label
_atom_site_fract_x
_atom_site_fract_y
_atom_site_fract_z
Si Si1 0.578572 0.414273 0.720989
Si Si2 0.243633 0.318007 0.887040
Si Si3 0.121912 0.786516 0.740996
Si Si4 0.914021 0.711514 0.681116
Si Si5 0.823080 0.934095 0.980355
O O1 0.575244 0.341982 0.729077
O O2 0.604013 0.434342 0.372155
O O3 0.500000 0.436964 0.000000
O O4 0.645067 0.429292 0.786828
O O5 0.292530 0.307799 0.507184
O O6 0.278719 0.374391 0.975339
O O7 0.250000 0.250000 0.000000
O O8 0.154713 0.329310 0.061407
O O9 0.104182 0.730288 0.586030
O O10 0.097476 0.769719 0.095939
O O11 0.000000 0.690929 0.500000
O O12 0.785020 0.000000 0.031113
#
# Coordination Sequence:
#
# PCOD9193162 Si02
#       5
#     8   8   8   8   8
#     4  11  21  35  55  78 108 145 182 216 254 309
#     4   9  20  37  58  79 107 143 182 220 265 323
#     4  10  20  34  52  80 113 144 177 217 267 320
#     4  11  20  32  53  82 112 139 176 228 276 315
#     4  11  24  38  53  76 107 144 181 219 265 316
#
# _framework density 20.484933000000002
#
# number of rings (size 3 to 8) (size 9 to 14) (size 15 to 20)
#    0.000    1.600    0.000    7.200    0.000    7.200 
#    0.000    0.000    0.000    0.600    0.000    0.000 
#    0.000   16.000    0.000    0.000    0.000    3.200 
#
# Total GULP energy -111492.741911 kJ/mol
# GULP energy per Si atom -5574.637096 kJ/mol
# Density = 2.043831 g / cm^3
# Si number density = 20.484933 Si / 1000 Ang^3
#
#
#
# Elastic Constant Matrix: (Units=GPa)
#
#
# Indices 1 2 3 4 5 6 
#
# 1 73.3085 14.2679 28.4014 0.0000 -25.9880 0.0000
# 2 14.2679 85.9046 3.1813 0.0000 -6.4551 0.0000
# 3 28.4014 3.1813 89.3411 0.0000 -17.1853 0.0000
# 4 0.0000 0.0000 0.0000 -102.6496 0.0000 20.2199
# 5 -25.9880 -6.4551 -17.1853 0.0000 55.7928 0.0000
# 6 0.0000 0.0000 0.0000 20.2199 0.0000 0.7452
#
#
#
# Elastic Compliance Matrix: (Units=1/GPa)
#
#
# Indices 1 2 3 4 5 6 
#
# 1 0.018235 -0.002350 -0.004392 0.000000 0.006869 0.000000
# 2 -0.002350 0.012048 0.000399 0.000000 0.000422 0.000000
# 3 -0.004392 0.000399 0.012958 0.000000 0.001992 0.000000
# 4 0.000000 0.000000 0.000000 -0.001535 0.000000 0.041661
# 5 0.006869 0.000422 0.001992 0.000000 0.021785 0.000000
# 6 0.000000 0.000000 0.000000 0.041661 0.000000 0.211501
#
#
# Mechanical properties :
#
#
# Convention : Reuss Voigt Hill
#
# Bulk Modulus (GPa) = 32.72654 37.80613 35.26633
# Shear Modulus (GPa) = 16.78626 4.29125 10.53876
#
# Velocity S-wave (km/s) = 2.86570 1.44892 2.27064
# Velocity P-wave (km/s) = 5.19232 4.61463 4.91198
#
# Compressibility (1/GPa) = 0.03055624
#
# Stress axis : x y z
#
# Youngs Moduli (GPa) = 54.83978 83.00091 77.17147
#
# Poissons Ratio (x) = 0.19504 0.33893
# Poissons Ratio (y) = 0.12886 -0.03081
# Poissons Ratio (z) = 0.24085 -0.03314
#
# Static dielectric constant tensor:
#      x y z
#    x 1.799590 0.000000 -0.028020 
#    y 0.000000 1.793840 0.000000 
#    z -0.028020 0.000000 1.761080 
# 
# From -- ./inp_files/25189.got.cif
#   From: 2010.05.17/outbox.cif.g08.bks.cpg/sg12_13_cif.got.tgz:25189.got - 2010.06.03 13:09:07.
