data_PCOD9193701
_publ_section_title
;
Structure prediction by ZEFSAII (Michael W. Deem and Ramdas Pophale) SiO2 
 PCOD9193701
Probable space group: C 2/M
;
_chemical_formula_sum "Si O2"
_cell_formula_units_Z 48
_cell_length_a 19.816687
_cell_length_b 8.834884
_cell_length_c 20.616728
_cell_angle_alpha 90.000000
_cell_angle_beta 130.524633
_cell_angle_gamma 90.000000
_cell_volume 2743.706292
_symmetry_space_group_name_H-M "C 2/M"
_symmetry_group_IT_number 12
_symmetry_cell_setting 'monoclinic'
loop_
_space_group_symop_operation_xyz
x,y,z
-x,y,-z
-x,-y,-z
x,-y,z
1/2+x,1/2+y,z
1/2-x,1/2+y,-z
1/2-x,1/2-y,-z
1/2+x,1/2-y,z
loop_
_atom_site_type_symbol
_atom_site_label
_atom_site_fract_x
_atom_site_fract_y
_atom_site_fract_z
Si Si1 0.698419 0.181356 0.281295
Si Si2 0.178483 0.818348 0.907143
Si Si3 0.673104 0.317746 0.754354
Si Si4 0.484752 0.180509 0.639259
Si Si5 0.797833 0.681271 0.466742
Si Si6 0.976361 0.181513 0.776896
O O1 0.749132 0.221721 0.246752
O O2 0.755491 0.245833 0.376757
O O3 0.600468 0.249893 0.226954
O O4 0.693617 0.000000 0.283375
O O5 0.192582 0.772034 0.840818
O O6 0.076585 0.776778 0.860072
O O7 0.184621 0.000000 0.913492
O O8 0.250000 0.750000 0.000000
O O9 0.661794 0.500000 0.746804
O O10 0.579514 0.243903 0.676234
O O11 0.402640 0.212881 0.540506
O O12 0.464499 0.255780 0.696410
O O13 0.489877 0.000000 0.651155
O O14 0.784959 0.500000 0.457655
O O15 0.750000 0.750000 0.500000
O O16 0.969605 0.000000 0.770857
#
# Coordination Sequence:
#
# PCOD9193701 Si02
#       6
#     8   8   8   8   8   8
#     4  11  22  36  55  80 110 147 187 226 272 321
#     4   9  19  37  60  84 106 136 177 220 270 329
#     4   9  21  39  56  78 112 146 179 223 276 328
#     4  10  20  34  54  79 106 143 190 229 266 318
#     4  11  22  34  52  79 111 146 188 234 270 314
#     4  10  20  35  56  80 110 144 180 223 272 324
#
# _framework density 17.494584
#
# number of rings (size 3 to 8) (size 9 to 14) (size 15 to 20)
#    0.000    2.000    1.667    3.000    0.000    7.333 
#    0.000    4.167    0.000    5.000    0.000    0.000 
#    0.000    0.000    0.000    0.000    0.000    0.000 
#
# Total GULP energy -133981.569950 kJ/mol
# GULP energy per Si atom -5582.565415 kJ/mol
# Density = 1.745477 g / cm^3
# Si number density = 17.494584 Si / 1000 Ang^3
#
#
#
# Elastic Constant Matrix: (Units=GPa)
#
#
# Indices 1 2 3 4 5 6 
#
# 1 167.5828 55.9880 81.3571 0.0000 18.1663 0.0000
# 2 55.9880 47.4616 44.9761 0.0000 9.9560 0.0000
# 3 81.3571 44.9761 135.3299 0.0000 19.8469 0.0000
# 4 0.0000 0.0000 0.0000 31.1026 0.0000 3.9413
# 5 18.1663 9.9560 19.8469 0.0000 18.3928 0.0000
# 6 0.0000 0.0000 0.0000 3.9413 0.0000 29.7766
#
#
#
# Elastic Compliance Matrix: (Units=1/GPa)
#
#
# Indices 1 2 3 4 5 6 
#
# 1 0.010846 -0.009416 -0.003050 0.000000 -0.002324 0.000000
# 2 -0.009416 0.039637 -0.006807 0.000000 -0.004810 0.000000
# 3 -0.003050 -0.006807 0.012477 0.000000 -0.006767 0.000000
# 4 0.000000 0.000000 0.000000 0.032700 0.000000 -0.004328
# 5 -0.002324 -0.004810 -0.006767 0.000000 0.066571 0.000000
# 6 0.000000 0.000000 0.000000 -0.004328 0.000000 0.034156
#
#
# Mechanical properties :
#
#
# Convention : Reuss Voigt Hill
#
# Bulk Modulus (GPa) = 40.95988 79.44629 60.20309
# Shear Modulus (GPa) = 20.57006 27.05791 23.81399
#
# Velocity S-wave (km/s) = 3.43271 3.93701 3.69347
# Velocity P-wave (km/s) = 6.25900 8.13494 7.25783
#
# Compressibility (1/GPa) = 0.02441413
#
# Stress axis : x y z
#
# Youngs Moduli (GPa) = 92.20232 25.22886 80.14438
#
# Poissons Ratio (x) = 0.23757 0.24443
# Poissons Ratio (y) = 0.86822 0.54553
# Poissons Ratio (z) = 0.28120 0.17173
#
# Static dielectric constant tensor:
#      x y z
#    x 1.596830 0.000000 0.015170 
#    y 0.000000 1.585050 0.000000 
#    z 0.015170 0.000000 1.572210 
# 
# From -- ./inp_files/281828.got.cif
#   From: 2010.05.17/outbox.cif.g08.bks.cpg/sg12_141_cif.got.tgz:281828.got - 2010.06.03 13:09:07.
