data_PCOD9193638
_publ_section_title
;
Structure prediction by ZEFSAII (Michael W. Deem and Ramdas Pophale) SiO2 
 PCOD9193638
Probable space group: C 2/M
;
_chemical_formula_sum "Si O2"
_cell_formula_units_Z 56
_cell_length_a 18.506647
_cell_length_b 9.225205
_cell_length_c 22.951287
_cell_angle_alpha 90.000000
_cell_angle_beta 126.549455
_cell_angle_gamma 90.000000
_cell_volume 3147.834561
_symmetry_space_group_name_H-M "C 2/M"
_symmetry_group_IT_number 12
_symmetry_cell_setting 'monoclinic'
loop_
_space_group_symop_operation_xyz
x,y,z
-x,y,-z
-x,-y,-z
x,-y,z
1/2+x,1/2+y,z
1/2-x,1/2+y,-z
1/2-x,1/2-y,-z
1/2+x,1/2-y,z
loop_
_atom_site_type_symbol
_atom_site_label
_atom_site_fract_x
_atom_site_fract_y
_atom_site_fract_z
Si Si1 0.294415 0.672202 0.778490
Si Si2 0.773402 0.673982 0.644985
Si Si3 0.872810 0.672663 0.215959
Si Si4 0.905433 0.329201 0.927067
Si Si5 0.236582 0.170160 0.932647
Si Si6 0.936407 0.325927 0.636606
Si Si7 0.418475 0.325776 0.503750
O O1 0.305043 0.500000 0.778172
O O2 0.288747 0.746650 0.713250
O O3 0.202013 0.700402 0.770060
O O4 0.373511 0.739710 0.855820
O O5 0.775132 0.500000 0.655186
O O6 0.851866 0.710456 0.636907
O O7 0.676652 0.712355 0.571404
O O8 0.872101 0.500000 0.203561
O O9 0.841534 0.757828 0.143728
O O10 0.970606 0.713851 0.286657
O O11 0.912110 0.500000 0.914944
O O12 0.827358 0.314270 0.937890
O O13 0.000000 0.282840 0.000000
O O14 0.219680 0.000000 0.933319
O O15 0.250000 0.250000 0.000000
O O16 0.937240 0.500000 0.628584
O O17 0.928869 0.249309 0.570936
O O18 0.500000 0.285022 0.500000
O O19 0.420654 0.500000 0.512369
#
# Coordination Sequence:
#
# PCOD9193638 Si02
#       7
#     8   8   8   8   8   8   8
#     4  10  20  34  54  78 103 134 172 215 259 302
#     4  10  21  36  53  76 107 139 171 210 257 308
#     4   9  19  36  54  74 102 135 174 215 254 303
#     4   9  19  36  56  76 101 137 176 211 253 307
#     4  10  20  34  54  78 104 136 172 212 258 306
#     4  10  21  36  55  78 104 137 174 213 256 302
#     4  10  21  36  55  79 106 137 172 212 258 306
#
# _framework density 17.790006000000002
#
# number of rings (size 3 to 8) (size 9 to 14) (size 15 to 20)
#    0.000    2.286    0.000    2.143    0.000    4.571 
#    0.000    5.714    0.000    0.000    0.000    0.000 
#    0.000    0.000    0.000    0.000    0.000    0.000 
#
# Total GULP energy -156345.983585 kJ/mol
# GULP energy per Si atom -5583.785128 kJ/mol
# Density = 1.774952 g / cm^3
# Si number density = 17.790006 Si / 1000 Ang^3
#
#
#
# Elastic Constant Matrix: (Units=GPa)
#
#
# Indices 1 2 3 4 5 6 
#
# 1 108.8148 60.9826 113.7104 0.0000 10.4666 0.0000
# 2 60.9826 59.2060 93.0688 0.0000 -8.7379 0.0000
# 3 113.7104 93.0688 220.3152 0.0000 -1.1425 0.0000
# 4 0.0000 0.0000 0.0000 41.9235 0.0000 -7.3334
# 5 10.4666 -8.7379 -1.1425 0.0000 37.7162 0.0000
# 6 0.0000 0.0000 0.0000 -7.3334 0.0000 20.8343
#
#
#
# Elastic Compliance Matrix: (Units=1/GPa)
#
#
# Indices 1 2 3 4 5 6 
#
# 1 0.029565 -0.025125 -0.004719 0.000000 -0.014168 0.000000
# 2 -0.025125 0.076651 -0.019287 0.000000 0.024146 0.000000
# 3 -0.004719 -0.019287 0.015108 0.000000 -0.002701 0.000000
# 4 0.000000 0.000000 0.000000 0.025418 0.000000 0.008947
# 5 -0.014168 0.024146 -0.002701 0.000000 0.035958 0.000000
# 6 0.000000 0.000000 0.000000 0.008947 0.000000 0.051147
#
#
# Mechanical properties :
#
#
# Convention : Reuss Voigt Hill
#
# Bulk Modulus (GPa) = 43.36173 102.65107 73.00640
# Shear Modulus (GPa) = 14.71470 28.13308 21.42389
#
# Velocity S-wave (km/s) = 2.87911 3.98099 3.47402
# Velocity P-wave (km/s) = 5.95647 8.88582 7.56430
#
# Compressibility (1/GPa) = 0.02306181
#
# Stress axis : x y z
#
# Youngs Moduli (GPa) = 33.82434 13.04608 66.18933
#
# Poissons Ratio (x) = 0.32778 0.31234
# Poissons Ratio (y) = 0.84983 1.27662
# Poissons Ratio (z) = 0.15961 0.25163
#
# Static dielectric constant tensor:
#      x y z
#    x 1.596410 0.000000 0.015370 
#    y 0.000000 1.591580 0.000000 
#    z 0.015370 0.000000 1.565110 
# 
# From -- ./inp_files/275090.got.cif
#   From: 2010.05.17/outbox.cif.g08.bks.cpg/sg12_138_cif.got.tgz:275090.got - 2010.06.03 13:09:07.
