data_PCOD9193452
_publ_section_title
;
Structure prediction by ZEFSAII (Michael W. Deem and Ramdas Pophale) SiO2 
 PCOD9193452
Probable space group: C 2/M
;
_chemical_formula_sum "Si O2"
_cell_formula_units_Z 64
_cell_length_a 20.837255
_cell_length_b 16.062987
_cell_length_c 11.868905
_cell_angle_alpha 90.000000
_cell_angle_beta 68.473604
_cell_angle_gamma 90.000000
_cell_volume 3695.528059
_symmetry_space_group_name_H-M "C 2/M"
_symmetry_group_IT_number 12
_symmetry_cell_setting 'monoclinic'
loop_
_space_group_symop_operation_xyz
x,y,z
-x,y,-z
-x,-y,-z
x,-y,z
1/2+x,1/2+y,z
1/2-x,1/2+y,-z
1/2-x,1/2-y,-z
1/2+x,1/2-y,z
loop_
_atom_site_type_symbol
_atom_site_label
_atom_site_fract_x
_atom_site_fract_y
_atom_site_fract_z
Si Si1 0.444072 0.399002 0.204852
Si Si2 0.429069 0.737614 0.394593
Si Si3 0.903860 0.900785 0.981302
Si Si4 0.916882 0.405245 0.810708
Si Si5 0.157826 0.599680 0.918363
Si Si6 0.080235 0.596781 0.736964
Si Si7 0.908329 0.741730 0.664305
Si Si8 0.207257 0.817109 0.099531
O O1 0.438726 0.500000 0.226589
O O2 0.414983 0.341524 0.323395
O O3 0.524959 0.377788 0.128808
O O4 0.408300 0.375580 0.109234
O O5 0.405693 0.825655 0.355015
O O6 0.512604 0.736251 0.354852
O O7 0.399254 0.736348 0.539725
O O8 0.836707 0.869318 0.961952
O O9 0.904255 0.000000 0.982074
O O10 0.894858 0.500000 0.808307
O O11 0.905321 0.354754 0.703874
O O12 0.997078 0.404860 0.794107
O O13 0.877124 0.367731 0.943791
O O14 0.157005 0.500000 0.926817
O O15 0.113951 0.619130 0.835377
O O16 0.235521 0.631720 0.868565
O O17 0.100934 0.500000 0.694515
O O18 0.849875 0.783310 0.777647
O O19 0.250000 0.750000 0.000000
#
# Coordination Sequence:
#
# PCOD9193452 Si02
#       8
#     8   8   8   8   8   8   8   8
#     4   9  18  35  60  86 107 137 183 233 279 320
#     4  10  20  36  59  77 114 142 181 230 271 318
#     4   9  19  36  57  82 110 139 180 230 277 322
#     4   9  17  33  54  79 110 139 177 231 272 315
#     4  10  20  34  53  79 109 143 179 222 275 328
#     4   9  19  34  56  83 108 140 183 226 274 320
#     4  10  21  36  50  84 109 144 183 218 269 336
#     4  12  22  34  53  81 115 142 178 218 277 333
#
# _framework density 17.318228999999999
#
# number of rings (size 3 to 8) (size 9 to 14) (size 15 to 20)
#    0.000    2.250    2.500    1.500    1.750    2.000 
#    2.250    5.625    0.000    0.000    0.000    0.000 
#    0.000    0.000    0.000    0.000    0.000    0.000 
#
# Total GULP energy -178175.054850 kJ/mol
# GULP energy per Si atom -5567.970464 kJ/mol
# Density = 1.727881 g / cm^3
# Si number density = 17.318229 Si / 1000 Ang^3
#
#
#
# Elastic Constant Matrix: (Units=GPa)
#
#
# Indices 1 2 3 4 5 6 
#
# 1 40.7007 19.2688 28.9908 0.0000 11.4550 0.0000
# 2 19.2688 43.0987 50.0320 0.0000 21.4827 0.0000
# 3 28.9908 50.0320 120.2312 0.0000 17.0764 0.0000
# 4 0.0000 0.0000 0.0000 19.4080 0.0000 8.6330
# 5 11.4550 21.4827 17.0764 0.0000 19.8735 0.0000
# 6 0.0000 0.0000 0.0000 8.6330 0.0000 24.9031
#
#
#
# Elastic Compliance Matrix: (Units=1/GPa)
#
#
# Indices 1 2 3 4 5 6 
#
# 1 0.032791 -0.003643 -0.004859 0.000000 -0.010788 0.000000
# 2 -0.003643 0.096255 -0.028129 0.000000 -0.077779 0.000000
# 3 -0.004859 -0.028129 0.018768 0.000000 0.017081 0.000000
# 4 0.000000 0.000000 0.000000 0.060919 0.000000 -0.021118
# 5 -0.010788 -0.077779 0.017081 0.000000 0.125937 0.000000
# 6 0.000000 0.000000 0.000000 -0.021118 0.000000 0.047477
#
#
# Mechanical properties :
#
#
# Convention : Reuss Voigt Hill
#
# Bulk Modulus (GPa) = 13.41330 44.51262 28.96296
# Shear Modulus (GPa) = 10.41103 19.88620 15.14862
#
# Velocity S-wave (km/s) = 2.45452 3.39231 2.96078
# Velocity P-wave (km/s) = 3.97428 6.41110 5.33372
#
# Compressibility (1/GPa) = 0.07455289
#
# Stress axis : x y z
#
# Youngs Moduli (GPa) = 30.49592 10.38906 53.28096
#
# Poissons Ratio (x) = 0.03785 0.25887
# Poissons Ratio (y) = 0.11109 1.49876
# Poissons Ratio (z) = 0.14817 0.29224
#
# Static dielectric constant tensor:
#      x y z
#    x 1.878870 0.000000 -0.079840 
#    y 0.000000 1.619300 0.000000 
#    z -0.079840 0.000000 1.603360 
# 
# From -- ./inp_files/167226.got.cif
#   From: 2010.05.17/outbox.cif.g08.bks.cpg/sg12_84_cif.got.tgz:167226.got - 2010.06.03 13:09:07.
