data_PCOD9193382
_publ_section_title
;
Structure prediction by ZEFSAII (Michael W. Deem and Ramdas Pophale) SiO2 
 PCOD9193382
Probable space group: C 2/M
;
_chemical_formula_sum "Si O2"
_cell_formula_units_Z 48
_cell_length_a 25.556037
_cell_length_b 7.426764
_cell_length_c 9.938943
_cell_angle_alpha 90.000000
_cell_angle_beta 99.917587
_cell_angle_gamma 90.000000
_cell_volume 1858.208642
_symmetry_space_group_name_H-M "C 2/M"
_symmetry_group_IT_number 12
_symmetry_cell_setting 'monoclinic'
loop_
_space_group_symop_operation_xyz
x,y,z
-x,y,-z
-x,-y,-z
x,-y,z
1/2+x,1/2+y,z
1/2-x,1/2+y,-z
1/2-x,1/2-y,-z
1/2+x,1/2-y,z
loop_
_atom_site_type_symbol
_atom_site_label
_atom_site_fract_x
_atom_site_fract_y
_atom_site_fract_z
Si Si1 0.381827 0.280054 0.604145
Si Si2 0.336615 0.292934 0.314574
Si Si3 0.001934 0.217274 0.344796
Si Si4 0.669515 0.706391 0.982304
Si Si5 0.552084 0.208322 0.948621
Si Si6 0.280308 0.281064 0.728965
O O1 0.381034 0.500000 0.602256
O O2 0.373833 0.217677 0.446876
O O3 0.439561 0.226906 0.681283
O O4 0.330951 0.221992 0.665493
O O5 0.354194 0.500000 0.302611
O O6 0.276413 0.289107 0.343300
O O7 0.332712 0.206797 0.165832
O O8 0.000000 0.275097 0.500000
O O9 0.959279 0.279009 0.216645
O O10 0.998472 0.000000 0.344826
O O11 0.686541 0.500000 0.972093
O O12 0.707553 0.782103 0.113433
O O13 0.608666 0.705847 0.006823
O O14 0.556506 0.000000 0.988417
O O15 0.500000 0.285306 0.000000
O O16 0.278610 0.500000 0.725696
#
# Coordination Sequence:
#
# PCOD9193382 Si02
#       6
#     8   8   8   8   8   8
#     4   9  18  33  53  78 107 139 178 221 264 321
#     4  10  20  35  55  79 107 138 176 222 270 322
#     4  10  20  37  62  86 110 147 192 233 276 329
#     4  10  21  37  57  79 105 142 185 226 270 325
#     4  11  24  39  56  83 117 149 184 230 283 335
#     4  10  20  34  53  78 107 140 179 221 268 322
#
# _framework density 25.831329
#
# number of rings (size 3 to 8) (size 9 to 14) (size 15 to 20)
#    0.000    2.000    0.000    3.500    0.000    7.000 
#    0.000    1.667    0.000    0.000    0.000    0.000 
#    0.000    0.000    0.000    0.000    0.000    0.000 
#
# Total GULP energy -134334.801637 kJ/mol
# GULP energy per Si atom -5597.283402 kJ/mol
# Density = 2.577254 g / cm^3
# Si number density = 25.831329 Si / 1000 Ang^3
#
#
#
# Elastic Constant Matrix: (Units=GPa)
#
#
# Indices 1 2 3 4 5 6 
#
# 1 106.2351 -7.8739 -4.0333 0.0000 13.2759 0.0000
# 2 -7.8739 94.0533 0.0498 0.0000 -2.6448 0.0000
# 3 -4.0333 0.0498 82.6400 0.0000 12.4167 0.0000
# 4 0.0000 0.0000 0.0000 2.3458 0.0000 0.3617
# 5 13.2759 -2.6448 12.4167 0.0000 52.1055 0.0000
# 6 0.0000 0.0000 0.0000 0.3617 0.0000 -2.3207
#
#
#
# Elastic Compliance Matrix: (Units=1/GPa)
#
#
# Indices 1 2 3 4 5 6 
#
# 1 0.009837 0.000748 0.000882 0.000000 -0.002679 0.000000
# 2 0.000748 0.010705 -0.000024 0.000000 0.000359 0.000000
# 3 0.000882 -0.000024 0.012630 0.000000 -0.003236 0.000000
# 4 0.000000 0.000000 0.000000 0.416293 0.000000 0.064874
# 5 -0.002679 0.000359 -0.003236 0.000000 0.020664 0.000000
# 6 0.000000 0.000000 0.000000 0.064874 0.000000 -0.420792
#
#
# Mechanical properties :
#
#
# Convention : Reuss Voigt Hill
#
# Bulk Modulus (GPa) = 27.48498 28.80154 28.14326
# Shear Modulus (GPa) = 85.83442 30.07850 57.95646
#
# Velocity S-wave (km/s) = 5.77070 3.41606 4.74186
# Velocity P-wave (km/s) = 7.42055 5.17043 6.39523
#
# Compressibility (1/GPa) = 0.03638350
#
# Stress axis : x y z
#
# Youngs Moduli (GPa) = 101.65994 93.41465 79.17718
#
# Poissons Ratio (x) = -0.06985 -0.06984
# Poissons Ratio (y) = -0.07601 0.00189
# Poissons Ratio (z) = -0.08967 0.00223
#
# Static dielectric constant tensor:
#      x y z
#    x 1.982970 0.000000 -0.080770 
#    y 0.000000 1.990150 0.000000 
#    z -0.080770 0.000000 2.048930 
# 
# From -- ./inp_files/108657.got.cif
#   From: 2010.05.17/outbox.cif.g08.bks.cpg/sg12_55_cif.got.tgz:108657.got - 2010.06.03 13:09:07.
