data_PCOD9193410
_publ_section_title
;
Structure prediction by ZEFSAII (Michael W. Deem and Ramdas Pophale) SiO2 
 PCOD9193410
Probable space group: C 2/M
;
_chemical_formula_sum "Si O2"
_cell_formula_units_Z 64
_cell_length_a 31.856717
_cell_length_b 11.482014
_cell_length_c 9.488201
_cell_angle_alpha 90.000000
_cell_angle_beta 83.146824
_cell_angle_gamma 90.000000
_cell_volume 3445.790555
_symmetry_space_group_name_H-M "C 2/M"
_symmetry_group_IT_number 12
_symmetry_cell_setting 'monoclinic'
loop_
_space_group_symop_operation_xyz
x,y,z
-x,y,-z
-x,-y,-z
x,-y,z
1/2+x,1/2+y,z
1/2-x,1/2+y,-z
1/2-x,1/2-y,-z
1/2+x,1/2-y,z
loop_
_atom_site_type_symbol
_atom_site_label
_atom_site_fract_x
_atom_site_fract_y
_atom_site_fract_z
Si Si1 0.004743 0.631393 0.329796
Si Si2 0.763955 0.364107 0.085186
Si Si3 0.864697 0.628192 0.029991
Si Si4 0.915462 0.212316 0.793411
Si Si5 0.543822 0.375208 0.962890
Si Si6 0.587084 0.218322 0.730443
Si Si7 0.869753 0.865721 0.528447
Si Si8 0.231937 0.136911 0.420428
O O1 0.014483 0.500000 0.279869
O O2 0.044030 0.712376 0.272234
O O3 0.000000 0.635124 0.500000
O O4 0.958327 0.664966 0.291224
O O5 0.752624 0.500000 0.043397
O O6 0.814683 0.358133 0.064097
O O7 0.746924 0.352469 0.251911
O O8 0.750000 0.250000 0.000000
O O9 0.874455 0.500000 0.971890
O O10 0.884649 0.639810 0.178185
O O11 0.884600 0.714108 0.907274
O O12 0.935051 0.120662 0.894009
O O13 0.890480 0.161178 0.671596
O O14 0.532118 0.500000 0.907348
O O15 0.500000 0.305500 0.000000
O O16 0.575443 0.322037 0.840367
O O17 0.611188 0.271970 0.588020
O O18 0.819025 0.855618 0.553529
O O19 0.880060 0.000000 0.484541
O O20 0.250000 0.250000 0.500000
O O21 0.242965 0.000000 0.460416
#
# Coordination Sequence:
#
# PCOD9193410 Si02
#       8
#     8   8   8   8   8   8   8   8
#     4  11  22  37  55  80 114 151 193 239 290 343
#     4  10  21  40  63  91 121 156 196 243 300 363
#     4  10  22  38  60  87 117 151 193 240 290 350
#     4  11  21  38  57  84 116 151 193 238 290 339
#     4  10  20  34  53  78 109 147 190 236 280 331
#     4  11  21  38  57  82 114 152 195 238 290 338
#     4  11  23  39  60  87 117 152 195 242 292 350
#     4  10  22  41  64  91 124 158 197 245 300 364
#
# _framework density 18.573387
#
# number of rings (size 3 to 8) (size 9 to 14) (size 15 to 20)
#    0.000    1.500    2.500    3.000    0.000    0.500 
#    0.000    7.500    0.000    0.000    0.000    0.000 
#    0.000    0.000    0.000    0.000    0.000    0.000 
#
# Total GULP energy -178182.539993 kJ/mol
# GULP energy per Si atom -5568.204375 kJ/mol
# Density = 1.853111 g / cm^3
# Si number density = 18.573387 Si / 1000 Ang^3
#
#
#
# Elastic Constant Matrix: (Units=GPa)
#
#
# Indices 1 2 3 4 5 6 
#
# 1 83.9713 38.0624 24.4657 0.0000 4.4664 0.0000
# 2 38.0624 104.6187 28.5497 0.0000 5.1830 0.0000
# 3 24.4657 28.5497 76.1406 0.0000 -0.7973 0.0000
# 4 0.0000 0.0000 0.0000 -13.2655 0.0000 26.4487
# 5 4.4664 5.1830 -0.7973 0.0000 34.4093 0.0000
# 6 0.0000 0.0000 0.0000 26.4487 0.0000 -18.9458
#
#
#
# Elastic Compliance Matrix: (Units=1/GPa)
#
#
# Indices 1 2 3 4 5 6 
#
# 1 0.014936 -0.004517 -0.003120 0.000000 -0.001331 0.000000
# 2 -0.004517 0.012114 -0.003105 0.000000 -0.001310 0.000000
# 3 -0.003120 -0.003105 0.015313 0.000000 0.001227 0.000000
# 4 0.000000 0.000000 0.000000 0.042270 0.000000 0.059010
# 5 -0.001331 -0.001310 0.001227 0.000000 0.029460 0.000000
# 6 0.000000 0.000000 0.000000 0.059010 0.000000 0.029597
#
#
# Mechanical properties :
#
#
# Convention : Reuss Voigt Hill
#
# Bulk Modulus (GPa) = 47.89073 49.65403 48.77238
# Shear Modulus (GPa) = 29.04747 12.01646 20.53197
#
# Velocity S-wave (km/s) = 3.95895 2.54632 3.32844
# Velocity P-wave (km/s) = 6.83654 5.95290 6.40996
#
# Compressibility (1/GPa) = 0.02088087
#
# Stress axis : x y z
#
# Youngs Moduli (GPa) = 66.95295 82.54939 65.30421
#
# Poissons Ratio (x) = 0.37285 0.20372
# Poissons Ratio (y) = 0.30241 0.20275
# Poissons Ratio (z) = 0.20886 0.25629
#
# Static dielectric constant tensor:
#      x y z
#    x 1.656710 0.000000 0.011190 
#    y 0.000000 1.711070 0.000000 
#    z 0.011190 0.000000 1.617990 
# 
# From -- ./inp_files/110468.got.cif
#   From: 2010.05.17/outbox.cif.g08.bks.cpg/sg12_56_cif.got.tgz:110468.got - 2010.06.03 13:09:07.
