data_PCOD9193405
_publ_section_title
;
Structure prediction by ZEFSAII (Michael W. Deem and Ramdas Pophale) SiO2 
 PCOD9193405
Probable space group: C 2/M
;
_chemical_formula_sum "Si O2"
_cell_formula_units_Z 56
_cell_length_a 22.742480
_cell_length_b 7.802859
_cell_length_c 14.921962
_cell_angle_alpha 90.000000
_cell_angle_beta 75.138828
_cell_angle_gamma 90.000000
_cell_volume 2559.421919
_symmetry_space_group_name_H-M "C 2/M"
_symmetry_group_IT_number 12
_symmetry_cell_setting 'monoclinic'
loop_
_space_group_symop_operation_xyz
x,y,z
-x,y,-z
-x,-y,-z
x,-y,z
1/2+x,1/2+y,z
1/2-x,1/2+y,-z
1/2-x,1/2-y,-z
1/2+x,1/2-y,z
loop_
_atom_site_type_symbol
_atom_site_label
_atom_site_fract_x
_atom_site_fract_y
_atom_site_fract_z
Si Si1 0.873934 0.797405 0.386831
Si Si2 0.604709 0.200351 0.102620
Si Si3 0.867199 0.293625 0.104004
Si Si4 0.773884 0.800506 0.291154
Si Si5 0.148262 0.197903 0.265363
Si Si6 0.569002 0.710440 0.454835
Si Si7 0.028526 0.294469 0.797563
O O1 0.816290 0.726646 0.354235
O O2 0.889027 0.729487 0.479158
O O3 0.933642 0.776841 0.301121
O O4 0.862923 0.000000 0.400083
O O5 0.650037 0.214720 0.168230
O O6 0.539549 0.272027 0.160643
O O7 0.593080 0.000000 0.088414
O O8 0.628953 0.270738 0.999201
O O9 0.857133 0.500000 0.109328
O O10 0.815093 0.213959 0.185922
O O11 0.930737 0.260167 0.130319
O O12 0.710451 0.711483 0.296134
O O13 0.761407 0.000000 0.313857
O O14 0.095325 0.269880 0.349865
O O15 0.135390 0.000000 0.252170
O O16 0.500000 0.762316 0.500000
O O17 0.570415 0.500000 0.453469
O O18 0.026669 0.500000 0.785664
#
# Coordination Sequence:
#
# PCOD9193405 Si02
#       7
#     8   8   8   8   8   8   8
#     4   9  18  34  56  79 105 140 177 214 258 307
#     4  10  20  34  53  78 109 142 174 215 265 309
#     4   9  18  34  56  79 105 140 178 213 255 314
#     4  10  21  37  55  77 106 137 174 222 267 304
#     4  11  23  37  55  77 103 139 180 218 257 310
#     4   9  18  34  56  81 107 135 169 209 256 312
#     4   9  17  31  53  82 111 137 170 213 262 314
#
# _framework density 21.879940999999999
#
# number of rings (size 3 to 8) (size 9 to 14) (size 15 to 20)
#    0.000    2.429    0.000    2.143    0.000    5.714 
#    0.000    1.429    0.000    8.143    0.000    0.000 
#    0.000    0.000    0.000    0.000    0.000    0.000 
#
# Total GULP energy -156359.932396 kJ/mol
# GULP energy per Si atom -5584.283300 kJ/mol
# Density = 2.183014 g / cm^3
# Si number density = 21.879941 Si / 1000 Ang^3
#
#
#
# Elastic Constant Matrix: (Units=GPa)
#
#
# Indices 1 2 3 4 5 6 
#
# 1 58.3289 -1.2787 1.7905 0.0000 0.7739 0.0000
# 2 -1.2787 30.3987 -0.5290 0.0000 1.2465 0.0000
# 3 1.7905 -0.5290 68.0148 0.0000 28.5202 0.0000
# 4 0.0000 0.0000 0.0000 12.1882 0.0000 -0.9732
# 5 0.7739 1.2465 28.5202 0.0000 22.6594 0.0000
# 6 0.0000 0.0000 0.0000 -0.9732 0.0000 9.8356
#
#
#
# Elastic Compliance Matrix: (Units=1/GPa)
#
#
# Indices 1 2 3 4 5 6 
#
# 1 0.017174 0.000721 -0.000389 0.000000 -0.000136 0.000000
# 2 0.000721 0.033150 0.002147 0.000000 -0.004550 0.000000
# 3 -0.000389 0.002147 0.031285 0.000000 -0.039482 0.000000
# 4 0.000000 0.000000 0.000000 0.082700 0.000000 0.008183
# 5 -0.000136 -0.004550 -0.039482 0.000000 0.094080 0.000000
# 6 0.000000 0.000000 0.000000 0.008183 0.000000 0.102482
#
#
# Mechanical properties :
#
#
# Convention : Reuss Voigt Hill
#
# Bulk Modulus (GPa) = 11.55177 17.41200 14.48188
# Shear Modulus (GPa) = 12.99480 19.38728 16.19104
#
# Velocity S-wave (km/s) = 2.43968 2.97993 2.72324
# Velocity P-wave (km/s) = 3.63691 4.45143 4.06463
#
# Compressibility (1/GPa) = 0.08656680
#
# Stress axis : x y z
#
# Youngs Moduli (GPa) = 58.22844 30.16552 31.96401
#
# Poissons Ratio (x) = -0.02176 0.01245
# Poissons Ratio (y) = -0.04199 -0.06863
# Poissons Ratio (z) = 0.02268 -0.06476
#
# Static dielectric constant tensor:
#      x y z
#    x 1.794420 0.000000 0.012190 
#    y 0.000000 1.801040 0.000000 
#    z 0.012190 0.000000 1.785160 
# 
# From -- ./inp_files/237396.got.cif
#   From: 2010.05.17/outbox.cif.g08.bks.cpg/sg12_119_cif.got.tgz:237396.got - 2010.06.03 13:09:07.
