data_PCOD9193502
_publ_section_title
;
Structure prediction by ZEFSAII (Michael W. Deem and Ramdas Pophale) SiO2 
 PCOD9193502
Probable space group: C 2/M
;
_chemical_formula_sum "Si O2"
_cell_formula_units_Z 56
_cell_length_a 30.220992
_cell_length_b 8.614272
_cell_length_c 22.422140
_cell_angle_alpha 90.000000
_cell_angle_beta 149.262028
_cell_angle_gamma 90.000000
_cell_volume 2983.465333
_symmetry_space_group_name_H-M "C 2/M"
_symmetry_group_IT_number 12
_symmetry_cell_setting 'monoclinic'
loop_
_space_group_symop_operation_xyz
x,y,z
-x,y,-z
-x,-y,-z
x,-y,z
1/2+x,1/2+y,z
1/2-x,1/2+y,-z
1/2-x,1/2-y,-z
1/2+x,1/2-y,z
loop_
_atom_site_type_symbol
_atom_site_label
_atom_site_fract_x
_atom_site_fract_y
_atom_site_fract_z
Si Si1 0.884680 0.812727 0.644630
Si Si2 0.415142 0.687660 0.130983
Si Si3 0.121097 0.813057 0.780128
Si Si4 0.465092 0.186964 0.525169
Si Si5 0.281507 0.185923 0.884445
Si Si6 0.727911 0.814256 0.379529
Si Si7 0.734947 0.185793 0.703085
O O1 0.819735 0.765157 0.516055
O O2 0.844857 0.743981 0.658980
O O3 0.983897 0.766961 0.750256
O O4 0.881313 0.000000 0.644198
O O5 0.410986 0.500000 0.122759
O O6 0.371282 0.738413 0.142488
O O7 0.365127 0.758225 0.017326
O O8 0.197956 0.757691 0.825980
O O9 0.029588 0.758707 0.647916
O O10 0.122531 0.000000 0.781601
O O11 0.500000 0.230231 0.500000
O O12 0.365823 0.237643 0.416206
O O13 0.468361 0.000000 0.533712
O O14 0.275343 0.250454 0.810707
O O15 0.279166 0.000000 0.879755
O O16 0.720302 0.744699 0.305127
O O17 0.726309 0.000000 0.374523
O O18 0.736228 0.000000 0.706343
#
# Coordination Sequence:
#
# PCOD9193502 Si02
#       7
#     8   8   8   8   8   8   8
#     4   9  19  37  60  86 115 145 181 225 278 334
#     4  10  21  38  58  80 110 149 190 230 275 328
#     4  10  21  36  56  82 112 149 188 230 280 329
#     4  10  20  34  53  80 112 145 183 226 272 323
#     4  11  23  37  54  80 113 150 192 233 274 325
#     4  10  20  36  61  89 116 143 178 227 279 333
#     4  11  22  37  57  81 114 152 187 226 278 333
#
# _framework density 18.770119999999999
#
# number of rings (size 3 to 8) (size 9 to 14) (size 15 to 20)
#    0.000    1.857    1.429    2.571    0.000    4.857 
#    0.000    0.714    0.000    4.286    0.000    0.000 
#    0.000    0.000    0.000    0.000    0.000    0.000 
#
# Total GULP energy -156431.361688 kJ/mol
# GULP energy per Si atom -5586.834346 kJ/mol
# Density = 1.872740 g / cm^3
# Si number density = 18.770120 Si / 1000 Ang^3
#
#
#
# Elastic Constant Matrix: (Units=GPa)
#
#
# Indices 1 2 3 4 5 6 
#
# 1 119.6579 28.9216 54.4224 0.0000 -31.8952 0.0000
# 2 28.9216 18.2752 19.0950 0.0000 -5.6611 0.0000
# 3 54.4224 19.0950 87.2618 0.0000 -21.2496 0.0000
# 4 0.0000 0.0000 0.0000 31.7612 0.0000 -1.1274
# 5 -31.8952 -5.6611 -21.2496 0.0000 24.4359 0.0000
# 6 0.0000 0.0000 0.0000 -1.1274 0.0000 17.1626
#
#
#
# Elastic Compliance Matrix: (Units=1/GPa)
#
#
# Indices 1 2 3 4 5 6 
#
# 1 0.020257 -0.023127 -0.003094 0.000000 0.018392 0.000000
# 2 -0.023127 0.097611 -0.011139 0.000000 -0.017260 0.000000
# 3 -0.003094 -0.011139 0.018034 0.000000 0.009063 0.000000
# 4 0.000000 0.000000 0.000000 0.031558 0.000000 0.002073
# 5 0.018392 -0.017260 0.009063 0.000000 0.068813 0.000000
# 6 0.000000 0.000000 0.000000 0.002073 0.000000 0.058402
#
#
# Mechanical properties :
#
#
# Convention : Reuss Voigt Hill
#
# Bulk Modulus (GPa) = 16.34487 47.78587 32.06537
# Shear Modulus (GPa) = 12.82742 22.85567 17.84155
#
# Velocity S-wave (km/s) = 2.61702 3.49329 3.08641
# Velocity P-wave (km/s) = 4.22594 6.46409 5.46091
#
# Compressibility (1/GPa) = 0.06118126
#
# Stress axis : x y z
#
# Youngs Moduli (GPa) = 49.36649 10.24471 55.45104
#
# Poissons Ratio (x) = 0.23693 0.17156
# Poissons Ratio (y) = 1.14172 0.61767
# Poissons Ratio (z) = 0.15273 0.11412
#
# Static dielectric constant tensor:
#      x y z
#    x 1.642780 0.000000 0.008990 
#    y 0.000000 1.628810 0.000000 
#    z 0.008990 0.000000 1.625940 
# 
# From -- ./inp_files/238897.got.cif
#   From: 2010.05.17/outbox.cif.g08.bks.cpg/sg12_120_cif.got.tgz:238897.got - 2010.06.03 13:09:07.
