data_PCOD9193692
_publ_section_title
;
Structure prediction by ZEFSAII (Michael W. Deem and Ramdas Pophale) SiO2 
 PCOD9193692
Probable space group: C 2/M
;
_chemical_formula_sum "Si O2"
_cell_formula_units_Z 56
_cell_length_a 17.668287
_cell_length_b 14.169707
_cell_length_c 16.967320
_cell_angle_alpha 90.000000
_cell_angle_beta 32.649333
_cell_angle_gamma 90.000000
_cell_volume 2291.694697
_symmetry_space_group_name_H-M "C 2/M"
_symmetry_group_IT_number 12
_symmetry_cell_setting 'monoclinic'
loop_
_space_group_symop_operation_xyz
x,y,z
-x,y,-z
-x,-y,-z
x,-y,z
1/2+x,1/2+y,z
1/2-x,1/2+y,-z
1/2-x,1/2-y,-z
1/2+x,1/2-y,z
loop_
_atom_site_type_symbol
_atom_site_label
_atom_site_fract_x
_atom_site_fract_y
_atom_site_fract_z
Si Si1 0.288542 0.300738 0.334981
Si Si2 0.934253 0.109402 0.969615
Si Si3 0.335126 0.102865 0.241924
Si Si4 0.062671 0.607573 0.629606
Si Si5 0.153895 0.687389 0.281490
Si Si6 0.651066 0.609331 0.247216
Si Si7 0.615819 0.890012 0.071102
O O1 0.446755 0.340671 0.187553
O O2 0.280737 0.188078 0.341322
O O3 0.205079 0.342680 0.480537
O O4 0.211381 0.324852 0.319299
O O5 0.908291 0.000000 0.968850
O O6 0.790825 0.168206 0.105927
O O7 0.000000 0.107098 0.000000
O O8 0.266245 0.106181 0.216817
O O9 0.502729 0.115043 0.099000
O O10 0.301624 0.000000 0.303875
O O11 0.094629 0.500000 0.620947
O O12 0.961244 0.612888 0.643045
O O13 0.966376 0.652834 0.782932
O O14 0.080950 0.790760 0.332034
O O15 0.593227 0.500000 0.295286
O O16 0.731960 0.633009 0.095150
O O17 0.630208 0.000000 0.079411
#
# Coordination Sequence:
#
# PCOD9193692 Si02
#       7
#     8   8   8   8   8   8   8
#     4  10  20  34  54  79 105 140 184 221 263 316
#     4   9  17  30  49  73 101 135 180 229 261 289
#     4   9  17  32  55  80 104 132 174 229 273 308
#     4  11  23  36  51  76 113 150 178 211 259 321
#     4  10  20  34  54  79 105 140 184 221 263 316
#     4   9  17  32  55  80 104 132 174 229 273 308
#     4   9  18  32  52  79 109 141 176 212 263 325
#
# _framework density 24.436064999999999
#
# number of rings (size 3 to 8) (size 9 to 14) (size 15 to 20)
#    0.000    2.429    0.000    2.571    0.000    7.429 
#    0.000    0.714    0.000    3.429    0.000    2.000 
#    0.000    0.000    0.000    0.000    0.000    2.286 
#
# Total GULP energy -156162.787401 kJ/mol
# GULP energy per Si atom -5577.242407 kJ/mol
# Density = 2.438045 g / cm^3
# Si number density = 24.436065 Si / 1000 Ang^3
#
#
#
# Elastic Constant Matrix: (Units=GPa)
#
#
# Indices 1 2 3 4 5 6 
#
# 1 35.3173 7.1165 16.0271 0.0002 2.3745 0.0000
# 2 7.1165 131.5223 28.4214 0.0005 8.2363 -0.0003
# 3 16.0271 28.4214 78.7204 0.0013 5.4875 -0.0007
# 4 0.0002 0.0005 0.0013 2.6039 -0.0003 -5.4584
# 5 2.3745 8.2363 5.4875 -0.0003 21.0579 0.0001
# 6 0.0000 -0.0003 -0.0007 -5.4584 0.0001 9.7283
#
#
#
# Elastic Compliance Matrix: (Units=1/GPa)
#
#
# Indices 1 2 3 4 5 6 
#
# 1 0.031279 -0.000249 -0.006151 0.000003 -0.001827 0.000001
# 2 -0.000249 0.008379 -0.002799 0.000002 -0.002520 0.000001
# 3 -0.006151 -0.002799 0.015116 0.000026 -0.002151 0.000016
# 4 0.000003 0.000002 0.000026 -2.180074 -0.000034 -1.223196
# 5 -0.001827 -0.002520 -0.002151 -0.000034 0.049240 -0.000020
# 6 0.000001 0.000001 0.000016 -1.223196 -0.000020 -0.583518
#
#
# Mechanical properties :
#
#
# Convention : Reuss Voigt Hill
#
# Bulk Modulus (GPa) = 27.49018 38.74333 33.11675
# Shear Modulus (GPa) = -1.90182 19.61103 8.85460
#
# Velocity S-wave (km/s) = -0.88316 2.83600 1.90564
# Velocity P-wave (km/s) = 3.19911 5.15880 4.29229
#
# Compressibility (1/GPa) = 0.03637663
#
# Stress axis : x y z
#
# Youngs Moduli (GPa) = 31.97030 119.34033 66.15510
#
# Poissons Ratio (x) = 0.02970 0.40692
# Poissons Ratio (y) = 0.00796 0.18517
# Poissons Ratio (z) = 0.19665 0.33403
#
# Static dielectric constant tensor:
#      x y z
#    x 1.971890 0.000000 0.022050 
#    y 0.000000 1.958570 0.000000 
#    z 0.022050 0.000000 1.966110 
# 
# From -- ./inp_files/284478.got.cif
#   From: 2010.05.17/outbox.cif.g08.bks.cpg/sg12_143_cif.got.tgz:284478.got - 2010.06.03 13:09:07.
