data_PCOD9193028
_publ_section_title
;
Structure prediction by ZEFSAII (Michael W. Deem and Ramdas Pophale) SiO2 
 PCOD9193028
Probable space group: C 2/M
;
_chemical_formula_sum "Si O2"
_cell_formula_units_Z 64
_cell_length_a 25.148230
_cell_length_b 9.329822
_cell_length_c 15.240985
_cell_angle_alpha 90.000000
_cell_angle_beta 88.538451
_cell_angle_gamma 90.000000
_cell_volume 3574.806214
_symmetry_space_group_name_H-M "C 2/M"
_symmetry_group_IT_number 12
_symmetry_cell_setting 'monoclinic'
loop_
_space_group_symop_operation_xyz
x,y,z
-x,y,-z
-x,-y,-z
x,-y,z
1/2+x,1/2+y,z
1/2-x,1/2+y,-z
1/2-x,1/2-y,-z
1/2+x,1/2-y,z
loop_
_atom_site_type_symbol
_atom_site_label
_atom_site_fract_x
_atom_site_fract_y
_atom_site_fract_z
Si Si1 0.691212 0.160766 0.589229
Si Si2 0.438605 0.163086 0.840099
Si Si3 0.436076 0.340332 0.006584
Si Si4 0.338452 0.328890 0.238715
Si Si5 0.753004 0.828173 0.094311
Si Si6 0.183194 0.839821 0.427253
Si Si7 0.561704 0.168908 0.820574
Si Si8 0.830715 0.335648 0.748895
O O1 0.688791 0.255754 0.676669
O O2 0.753336 0.146003 0.564111
O O3 0.664084 0.241346 0.508595
O O4 0.669801 0.000000 0.604677
O O5 0.420644 0.275401 0.914366
O O6 0.498845 0.195565 0.807390
O O7 0.392928 0.163972 0.770193
O O8 0.441009 0.000000 0.877395
O O9 0.414195 0.500000 0.025777
O O10 0.500000 0.352571 0.000000
O O11 0.426023 0.224603 0.081830
O O12 0.338794 0.500000 0.246549
O O13 0.305430 0.293426 0.150953
O O14 0.397572 0.263766 0.236000
O O15 0.704089 0.794803 0.163483
O O16 0.752241 0.000000 0.079163
O O17 0.750000 0.750000 0.000000
O O18 0.176378 0.765390 0.333748
O O19 0.160092 0.000000 0.430538
O O20 0.571721 0.000000 0.810642
O O21 0.814221 0.500000 0.728030
#
# Coordination Sequence:
#
# PCOD9193028 Si02
#       8
#     8   8   8   8   8   8   8   8
#     4  10  20  35  57  83 110 142 177 220 270 323
#     4   9  19  34  53  76 103 140 185 227 269 317
#     4   9  17  30  48  71  99 132 176 228 273 309
#     4  11  22  37  56  81 111 144 182 226 273 324
#     4  10  23  38  53  76 111 149 186 223 267 321
#     4  10  20  34  56  85 112 140 175 221 271 323
#     4  10  20  34  52  75 104 141 184 227 270 320
#     4  10  20  37  57  79 109 146 183 224 270 321
#
# _framework density 17.903068999999999
#
# number of rings (size 3 to 8) (size 9 to 14) (size 15 to 20)
#    0.000    2.125    1.250    1.875    1.750    5.000 
#    0.000    0.000    0.000    0.750    0.000    5.250 
#    0.000    0.000    0.000    0.000    0.000    0.000 
#
# Total GULP energy -178304.625027 kJ/mol
# GULP energy per Si atom -5572.019532 kJ/mol
# Density = 1.786232 g / cm^3
# Si number density = 17.903069 Si / 1000 Ang^3
#
#
#
# Elastic Constant Matrix: (Units=GPa)
#
#
# Indices 1 2 3 4 5 6 
#
# 1 62.8418 30.6728 15.8122 0.0000 4.1449 0.0000
# 2 30.6728 104.6605 56.3935 0.0000 9.8366 0.0000
# 3 15.8122 56.3935 93.0242 0.0000 10.8551 0.0000
# 4 0.0000 0.0000 0.0000 21.2628 0.0000 -7.4691
# 5 4.1449 9.8366 10.8551 0.0000 14.7656 0.0000
# 6 0.0000 0.0000 0.0000 -7.4691 0.0000 17.6942
#
#
#
# Elastic Compliance Matrix: (Units=1/GPa)
#
#
# Indices 1 2 3 4 5 6 
#
# 1 0.018618 -0.005485 0.000376 0.000000 -0.001849 0.000000
# 2 -0.005485 0.015966 -0.008406 0.000000 -0.002916 0.000000
# 3 0.000376 -0.008406 0.016562 0.000000 -0.006681 0.000000
# 4 0.000000 0.000000 0.000000 0.055218 0.000000 0.023309
# 5 -0.001849 -0.002916 -0.006681 0.000000 0.075098 0.000000
# 6 0.000000 0.000000 0.000000 0.023309 0.000000 0.066355
#
#
# Mechanical properties :
#
#
# Convention : Reuss Voigt Hill
#
# Bulk Modulus (GPa) = 41.46815 51.80925 46.63870
# Shear Modulus (GPa) = 17.67505 21.25440 19.46472
#
# Velocity S-wave (km/s) = 3.14548 3.44930 3.30089
# Velocity P-wave (km/s) = 6.03365 6.69815 6.37456
#
# Compressibility (1/GPa) = 0.02411489
#
# Stress axis : x y z
#
# Youngs Moduli (GPa) = 53.71272 62.63389 60.38100
#
# Poissons Ratio (x) = 0.34357 -0.02273
# Poissons Ratio (y) = 0.29463 0.50757
# Poissons Ratio (z) = -0.02022 0.52651
#
# Static dielectric constant tensor:
#      x y z
#    x 1.641080 0.000000 -0.027990 
#    y 0.000000 1.637340 0.000000 
#    z -0.027990 0.000000 1.604950 
# 
# From -- ./inp_files/238637.got.cif
#   From: 2010.05.17/outbox.cif.g08.bks.cpg/sg12_120_cif.got.tgz:238637.got - 2010.06.03 13:09:07.
