data_PCOD9193044
_publ_section_title
;
Structure prediction by ZEFSAII (Michael W. Deem and Ramdas Pophale) SiO2 
 PCOD9193044
Probable space group: C 2/M
;
_chemical_formula_sum "Si O2"
_cell_formula_units_Z 56
_cell_length_a 14.553076
_cell_length_b 24.772749
_cell_length_c 14.513925
_cell_angle_alpha 90.000000
_cell_angle_beta 31.124884
_cell_angle_gamma 90.000000
_cell_volume 2704.735148
_symmetry_space_group_name_H-M "C 2/M"
_symmetry_group_IT_number 12
_symmetry_cell_setting 'monoclinic'
loop_
_space_group_symop_operation_xyz
x,y,z
-x,y,-z
-x,-y,-z
x,-y,z
1/2+x,1/2+y,z
1/2-x,1/2+y,-z
1/2-x,1/2-y,-z
1/2+x,1/2-y,z
loop_
_atom_site_type_symbol
_atom_site_label
_atom_site_fract_x
_atom_site_fract_y
_atom_site_fract_z
Si Si1 0.387933 0.330674 0.235632
Si Si2 0.722957 0.831085 0.186354
Si Si3 0.649660 0.558896 0.623761
Si Si4 0.567309 0.366108 0.546838
Si Si5 0.266249 0.285329 0.842213
Si Si6 0.455419 0.058533 0.647910
Si Si7 0.878677 0.712892 0.245955
O O1 0.241255 0.334057 0.281142
O O2 0.395302 0.387338 0.280454
O O3 0.352905 0.272472 0.311109
O O4 0.579542 0.325391 0.023487
O O5 0.642461 0.773683 0.225515
O O6 0.641389 0.888421 0.231814
O O7 0.577252 0.500000 0.714090
O O8 0.591940 0.575884 0.571442
O O9 0.860365 0.555675 0.456002
O O10 0.500000 0.369535 0.500000
O O11 0.413014 0.331005 0.728024
O O12 0.753824 0.333434 0.394717
O O13 0.193134 0.284137 0.799173
O O14 0.091336 0.296061 0.054259
O O15 0.500000 0.063292 0.500000
O O16 0.361424 0.000000 0.738973
#
# Coordination Sequence:
#
# PCOD9193044 Si02
#       7
#     8   8   8   8   8   8   8
#     4   9  18  33  54  83 115 145 173 220 278 326
#     4   9  17  32  56  82 113 148 177 210 271 346
#     4  11  24  39  53  79 112 142 193 240 263 316
#     4  10  21  38  62  81 104 152 188 227 294 326
#     4   8  16  32  56  86 113 138 176 229 278 334
#     4  10  20  34  52  75 108 151 189 225 267 317
#     4   8  16  33  56  86 115 136 177 228 277 343
#
# _framework density 20.704429999999999
#
# number of rings (size 3 to 8) (size 9 to 14) (size 15 to 20)
#    0.000    2.714    1.429    1.714    2.000    2.000 
#    2.571    2.857    0.000    0.000    0.000    4.000 
#    0.000    0.000    0.000    0.000    0.000    0.000 
#
# Total GULP energy -156031.027401 kJ/mol
# GULP energy per Si atom -5572.536693 kJ/mol
# Density = 2.065731 g / cm^3
# Si number density = 20.704430 Si / 1000 Ang^3
#
#
#
# Elastic Constant Matrix: (Units=GPa)
#
#
# Indices 1 2 3 4 5 6 
#
# 1 60.0957 33.0116 10.8060 -0.0633 -4.7071 -0.0030
# 2 33.0116 98.0933 22.1232 -0.2591 -15.2521 -0.0399
# 3 10.8060 22.1232 38.9903 -0.2211 -10.7833 -0.0277
# 4 -0.0633 -0.2591 -0.2211 6.1105 0.0882 -11.8880
# 5 -4.7071 -15.2521 -10.7833 0.0882 13.5554 0.0028
# 6 -0.0030 -0.0399 -0.0277 -11.8880 0.0028 44.6114
#
#
#
# Elastic Compliance Matrix: (Units=1/GPa)
#
#
# Indices 1 2 3 4 5 6 
#
# 1 0.020612 -0.006742 -0.002573 -0.000294 -0.002473 -0.000084
# 2 -0.006742 0.015084 -0.003386 0.000612 0.011933 0.000173
# 3 -0.002573 -0.003386 0.034600 0.001630 0.022810 0.000451
# 4 -0.000294 0.000612 0.001630 0.340018 -0.000348 0.090609
# 5 -0.002473 0.011933 0.022810 -0.000348 0.104487 -0.000075
# 6 -0.000084 0.000173 0.000451 0.090609 -0.000075 0.046562
#
#
# Mechanical properties :
#
#
# Convention : Reuss Voigt Hill
#
# Bulk Modulus (GPa) = 22.27473 36.56233 29.41853
# Shear Modulus (GPa) = 8.30939 21.60470 14.95704
#
# Velocity S-wave (km/s) = 2.00550 3.23380 2.69068
# Velocity P-wave (km/s) = 4.01803 5.62502 4.88801
#
# Compressibility (1/GPa) = 0.04489392
#
# Stress axis : x y z
#
# Youngs Moduli (GPa) = 48.51522 66.29527 28.90181
#
# Poissons Ratio (x) = 0.44694 0.07436
# Poissons Ratio (y) = 0.32707 0.09787
# Poissons Ratio (z) = 0.12483 0.22450
#
# Static dielectric constant tensor:
#      x y z
#    x 1.798830 0.000000 0.041420 
#    y 0.000000 1.768260 0.000000 
#    z 0.041420 0.000000 1.751600 
# 
# From -- ./inp_files/218661.got.cif
#   From: 2010.05.17/outbox.cif.g08.bks.cpg/sg12_110_cif.got.tgz:218661.got - 2010.06.03 13:09:07.
