data_PCOD9193374
_publ_section_title
;
Structure prediction by ZEFSAII (Michael W. Deem and Ramdas Pophale) SiO2 
 PCOD9193374
Probable space group: C 2/M
;
_chemical_formula_sum "Si O2"
_cell_formula_units_Z 56
_cell_length_a 18.728359
_cell_length_b 8.779548
_cell_length_c 19.174298
_cell_angle_alpha 90.000000
_cell_angle_beta 75.753939
_cell_angle_gamma 90.000000
_cell_volume 3055.808914
_symmetry_space_group_name_H-M "C 2/M"
_symmetry_group_IT_number 12
_symmetry_cell_setting 'monoclinic'
loop_
_space_group_symop_operation_xyz
x,y,z
-x,y,-z
-x,-y,-z
x,-y,z
1/2+x,1/2+y,z
1/2-x,1/2+y,-z
1/2-x,1/2-y,-z
1/2+x,1/2-y,z
loop_
_atom_site_type_symbol
_atom_site_label
_atom_site_fract_x
_atom_site_fract_y
_atom_site_fract_z
Si Si1 0.976506 0.817759 0.428513
Si Si2 0.306873 0.319354 0.431826
Si Si3 0.082172 0.684318 0.004054
Si Si4 0.515276 0.181949 0.275971
Si Si5 0.130621 0.817168 0.140391
Si Si6 0.296153 0.185423 0.138460
Si Si7 0.652819 0.183601 0.720983
O O1 0.889887 0.787900 0.438375
O O2 0.000000 0.769128 0.500000
O O3 0.018212 0.735934 0.355305
O O4 0.988477 0.000000 0.419695
O O5 0.296925 0.500000 0.430503
O O6 0.250000 0.250000 0.500000
O O7 0.303149 0.249858 0.355277
O O8 0.083951 0.500000 0.008545
O O9 0.142068 0.732932 0.931987
O O10 0.102876 0.752210 0.073635
O O11 0.000000 0.727923 0.000000
O O12 0.577005 0.258743 0.213939
O O13 0.433409 0.225423 0.267765
O O14 0.521590 0.000000 0.270022
O O15 0.214573 0.766749 0.135317
O O16 0.129351 0.000000 0.138759
O O17 0.317036 0.235364 0.211504
O O18 0.296977 0.000000 0.139130
O O19 0.656875 0.000000 0.717034
#
# Coordination Sequence:
#
# PCOD9193374 Si02
#       7
#     8   8   8   8   8   8   8
#     4   9  19  36  56  77 104 140 179 219 265 315
#     4  10  20  34  53  78 107 138 174 217 263 312
#     4  10  20  37  60  81 104 138 179 218 257 307
#     4  10  20  35  56  79 104 138 179 221 263 310
#     4  11  22  35  53  79 111 141 171 213 263 314
#     4   9  19  35  55  79 106 138 174 213 261 313
#     4   9  18  36  58  76  99 136 180 219 258 309
#
# _framework density 18.325754
#
# number of rings (size 3 to 8) (size 9 to 14) (size 15 to 20)
#    0.000    2.286    0.000    2.571    0.000    5.143 
#    0.000    8.571    0.000    0.000    0.000    0.000 
#    0.000    0.000    0.000    0.000    0.000    0.000 
#
# Total GULP energy -156333.432563 kJ/mol
# GULP energy per Si atom -5583.336877 kJ/mol
# Density = 1.828404 g / cm^3
# Si number density = 18.325754 Si / 1000 Ang^3
#
#
#
# Elastic Constant Matrix: (Units=GPa)
#
#
# Indices 1 2 3 4 5 6 
#
# 1 125.6133 40.3138 112.3402 0.0000 1.6903 0.0000
# 2 40.3138 22.0543 50.1866 0.0000 -2.7820 0.0000
# 3 112.3402 50.1866 205.6106 0.0000 -1.3846 0.0000
# 4 0.0000 0.0000 0.0000 37.6616 0.0000 0.1287
# 5 1.6903 -2.7820 -1.3846 0.0000 40.5372 0.0000
# 6 0.0000 0.0000 0.0000 0.1287 0.0000 19.6076
#
#
#
# Elastic Compliance Matrix: (Units=1/GPa)
#
#
# Indices 1 2 3 4 5 6 
#
# 1 0.021516 -0.029055 -0.004685 0.000000 -0.003051 0.000000
# 2 -0.029055 0.142786 -0.018907 0.000000 0.010365 0.000000
# 3 -0.004685 -0.018907 0.012033 0.000000 -0.000691 0.000000
# 4 0.000000 0.000000 0.000000 0.026553 0.000000 -0.000174
# 5 -0.003051 0.010365 -0.000691 0.000000 0.025484 0.000000
# 6 0.000000 0.000000 0.000000 -0.000174 0.000000 0.051002
#
#
# Mechanical properties :
#
#
# Convention : Reuss Voigt Hill
#
# Bulk Modulus (GPa) = 14.07624 84.32882 49.20253
# Shear Modulus (GPa) = 12.24445 29.59045 20.91745
#
# Velocity S-wave (km/s) = 2.58767 4.02268 3.38216
# Velocity P-wave (km/s) = 4.07748 8.22754 6.49301
#
# Compressibility (1/GPa) = 0.07104172
#
# Stress axis : x y z
#
# Youngs Moduli (GPa) = 46.47610 7.00350 83.10184
#
# Poissons Ratio (x) = 0.20349 0.38930
# Poissons Ratio (y) = 1.35037 1.57122
# Poissons Ratio (z) = 0.21772 0.13242
#
# Static dielectric constant tensor:
#      x y z
#    x 1.619280 0.000000 0.003630 
#    y 0.000000 1.619070 0.000000 
#    z 0.003630 0.000000 1.599360 
# 
# From -- ./inp_files/275343.got.cif
#   From: 2010.05.17/outbox.cif.g08.bks.cpg/sg12_138_cif.got.tgz:275343.got - 2010.06.03 13:09:07.
