data_PCOD9193800
_publ_section_title
;
Structure prediction by ZEFSAII (Michael W. Deem and Ramdas Pophale) SiO2 
 PCOD9193800
Probable space group: C 2/M
;
_chemical_formula_sum "Si O2"
_cell_formula_units_Z 64
_cell_length_a 30.607388
_cell_length_b 9.054937
_cell_length_c 24.386543
_cell_angle_alpha 90.000000
_cell_angle_beta 28.855399
_cell_angle_gamma 90.000000
_cell_volume 3261.744434
_symmetry_space_group_name_H-M "C 2/M"
_symmetry_group_IT_number 12
_symmetry_cell_setting 'monoclinic'
loop_
_space_group_symop_operation_xyz
x,y,z
-x,y,-z
-x,-y,-z
x,-y,z
1/2+x,1/2+y,z
1/2-x,1/2+y,-z
1/2-x,1/2-y,-z
1/2+x,1/2-y,z
loop_
_atom_site_type_symbol
_atom_site_label
_atom_site_fract_x
_atom_site_fract_y
_atom_site_fract_z
Si Si1 0.264060 0.667882 0.541179
Si Si2 0.078428 0.822945 0.135462
Si Si3 0.389103 0.680055 0.502720
Si Si4 0.763483 0.321802 0.246758
Si Si5 0.587925 0.679284 0.251827
Si Si6 0.445595 0.167345 0.211342
Si Si7 0.572172 0.335143 0.872801
Si Si8 0.726855 0.821230 0.892307
O O1 0.293346 0.500000 0.497601
O O2 0.250000 0.750000 0.500000
O O3 0.331990 0.730385 0.512041
O O4 0.162400 0.664618 0.676219
O O5 0.095692 0.777192 0.179370
O O6 0.981141 0.761851 0.223078
O O7 0.080887 0.000000 0.129468
O O8 0.149812 0.753166 0.014345
O O9 0.389187 0.500000 0.501012
O O10 0.332651 0.719203 0.619326
O O11 0.492637 0.729777 0.382594
O O12 0.772618 0.500000 0.240822
O O13 0.841103 0.245987 0.197407
O O14 0.773828 0.281788 0.171416
O O15 0.585671 0.500000 0.254722
O O16 0.676195 0.723192 0.188695
O O17 0.475966 0.244425 0.122387
O O18 0.478400 0.000000 0.180616
O O19 0.596342 0.500000 0.826226
O O20 0.500000 0.346797 0.000000
O O21 0.718225 0.000000 0.905532
#
# Coordination Sequence:
#
# PCOD9193800 Si02
#       8
#     8   8   8   8   8   8   8   8
#     4  10  20  34  54  80 113 149 186 226 277 335
#     4  11  22  37  58  84 117 155 192 240 296 346
#     4   9  17  34  56  81 115 149 186 234 287 341
#     4  10  20  36  58  83 115 151 190 239 291 342
#     4   9  19  35  58  86 115 149 192 242 293 343
#     4  11  22  37  57  83 114 149 189 232 279 337
#     4  11  23  37  55  81 114 151 191 233 283 344
#     4  10  21  37  59  87 114 149 195 242 292 345
#
# _framework density 19.621403000000001
#
# number of rings (size 3 to 8) (size 9 to 14) (size 15 to 20)
#    0.000    1.875    1.250    3.000    0.000    6.000 
#    0.000    3.125    0.000    2.250    0.000    1.750 
#    0.000    0.000    0.000    0.000    0.000    0.000 
#
# Total GULP energy -178578.049136 kJ/mol
# GULP energy per Si atom -5580.564036 kJ/mol
# Density = 1.957674 g / cm^3
# Si number density = 19.621403 Si / 1000 Ang^3
#
#
#
# Elastic Constant Matrix: (Units=GPa)
#
#
# Indices 1 2 3 4 5 6 
#
# 1 91.2750 21.5079 24.3920 -0.0032 -0.5809 0.0058
# 2 21.5079 36.2844 18.0731 0.0065 7.7606 -0.0013
# 3 24.3920 18.0731 85.0880 0.0047 0.0544 -0.0023
# 4 -0.0032 0.0065 0.0047 13.4484 -0.0066 -1.7373
# 5 -0.5809 7.7606 0.0544 -0.0066 37.1284 0.0030
# 6 0.0058 -0.0013 -0.0023 -1.7373 0.0030 23.0937
#
#
#
# Elastic Compliance Matrix: (Units=1/GPa)
#
#
# Indices 1 2 3 4 5 6 
#
# 1 0.013246 -0.007069 -0.002297 0.000008 0.001688 -0.000004
# 2 -0.007069 0.036210 -0.005660 -0.000021 -0.007671 0.000003
# 3 -0.002297 -0.005660 0.013612 -0.000002 0.001127 0.000001
# 4 0.000008 -0.000021 -0.000002 0.075088 0.000017 0.005649
# 5 0.001688 -0.007671 0.001127 0.000017 0.028562 -0.000003
# 6 -0.000004 0.000003 0.000001 0.005649 -0.000003 0.043727
#
#
# Mechanical properties :
#
#
# Convention : Reuss Voigt Hill
#
# Bulk Modulus (GPa) = 30.28696 37.84370 34.06533
# Shear Modulus (GPa) = 19.88057 24.64572 22.26314
#
# Velocity S-wave (km/s) = 3.18655 3.54794 3.37209
# Velocity P-wave (km/s) = 5.38590 6.00938 5.70616
#
# Compressibility (1/GPa) = 0.03301751
#
# Stress axis : x y z
#
# Youngs Moduli (GPa) = 75.49377 27.61673 73.46216
#
# Poissons Ratio (x) = 0.19522 0.16873
# Poissons Ratio (y) = 0.53365 0.41579
# Poissons Ratio (z) = 0.17340 0.15631
#
# Static dielectric constant tensor:
#      x y z
#    x 1.678340 0.000000 0.004810 
#    y 0.000000 1.695620 0.000000 
#    z 0.004810 0.000000 1.735680 
# 
# From -- ./inp_files/249735.got.cif
#   From: 2010.05.17/outbox.cif.g08.bks.cpg/sg12_125_cif.got.tgz:249735.got - 2010.06.03 13:09:07.
