data_PCOD9193588
_publ_section_title
;
Structure prediction by ZEFSAII (Michael W. Deem and Ramdas Pophale) SiO2 
 PCOD9193588
Probable space group: C 2/M
;
_chemical_formula_sum "Si O2"
_cell_formula_units_Z 64
_cell_length_a 13.272432
_cell_length_b 11.353653
_cell_length_c 21.393183
_cell_angle_alpha 90.000000
_cell_angle_beta 80.668230
_cell_angle_gamma 90.000000
_cell_volume 3181.088048
_symmetry_space_group_name_H-M "C 2/M"
_symmetry_group_IT_number 12
_symmetry_cell_setting 'monoclinic'
loop_
_space_group_symop_operation_xyz
x,y,z
-x,y,-z
-x,-y,-z
x,-y,z
1/2+x,1/2+y,z
1/2-x,1/2+y,-z
1/2-x,1/2-y,-z
1/2+x,1/2-y,z
loop_
_atom_site_type_symbol
_atom_site_label
_atom_site_fract_x
_atom_site_fract_y
_atom_site_fract_z
Si Si1 0.695700 0.858262 0.242260
Si Si2 0.896861 0.722698 0.537299
Si Si3 0.302853 0.862056 0.417743
Si Si4 0.989615 0.364929 0.652080
Si Si5 0.590722 0.692491 0.029221
Si Si6 0.948942 0.633652 0.855697
Si Si7 0.704918 0.124400 0.931524
Si Si8 0.670354 0.865404 0.787220
O O1 0.598782 0.820122 0.294141
O O2 0.652688 0.853206 0.175706
O O3 0.778492 0.754491 0.243916
O O4 0.720284 0.000000 0.252001
O O5 0.807181 0.802094 0.575047
O O6 0.843845 0.656726 0.484593
O O7 0.940989 0.641637 0.587618
O O8 0.000000 0.784822 0.500000
O O9 0.395997 0.812954 0.365493
O O10 0.292662 0.000000 0.406875
O O11 0.004191 0.500000 0.669096
O O12 0.546797 0.776695 0.087930
O O13 0.679697 0.623371 0.054994
O O14 0.500000 0.632166 0.000000
O O15 0.648030 0.771407 0.971897
O O16 0.951711 0.500000 0.879138
O O17 0.047815 0.646855 0.801304
O O18 0.701223 0.133720 0.857448
O O19 0.655232 0.000000 0.954050
O O20 0.695263 0.000000 0.760623
#
# Coordination Sequence:
#
# PCOD9193588 Si02
#       8
#     8   8   8   8   8   8   8   8
#     4  10  21  38  56  77 104 138 182 226 263 306
#     4   9  17  30  50  78 108 137 168 208 258 306
#     4   9  17  30  51  78 106 138 174 211 253 303
#     4   9  18  33  53  73  99 137 178 216 252 302
#     4  11  20  33  53  76 103 130 170 213 263 320
#     4  10  20  34  54  76 102 135 174 215 261 319
#     4  10  21  34  51  76 104 133 167 212 266 324
#     4  10  20  37  57  78 104 137 175 218 271 322
#
# _framework density 20.118901999999999
#
# number of rings (size 3 to 8) (size 9 to 14) (size 15 to 20)
#    0.000    2.250    2.500    0.750    0.000    3.500 
#    0.000    3.125    0.000    3.750    0.000    0.000 
#    0.000    0.000    0.000    0.000    0.000    0.000 
#
# Total GULP energy -178188.286786 kJ/mol
# GULP energy per Si atom -5568.383962 kJ/mol
# Density = 2.007311 g / cm^3
# Si number density = 20.118902 Si / 1000 Ang^3
#
#
#
# Elastic Constant Matrix: (Units=GPa)
#
#
# Indices 1 2 3 4 5 6 
#
# 1 95.4848 39.1515 9.5230 0.0000 -4.3470 0.0000
# 2 39.1515 95.0672 16.7298 0.0000 -18.1611 0.0000
# 3 9.5230 16.7298 45.8649 0.0000 -6.4547 0.0000
# 4 0.0000 0.0000 0.0000 32.4129 0.0000 -15.4081
# 5 -4.3470 -18.1611 -6.4547 0.0000 35.8982 0.0000
# 6 0.0000 0.0000 0.0000 -15.4081 0.0000 22.7364
#
#
#
# Elastic Compliance Matrix: (Units=1/GPa)
#
#
# Indices 1 2 3 4 5 6 
#
# 1 0.012682 -0.005319 -0.000878 0.000000 -0.001313 0.000000
# 2 -0.005319 0.014452 -0.003313 0.000000 0.006072 0.000000
# 3 -0.000878 -0.003313 0.023539 0.000000 0.002450 0.000000
# 4 0.000000 0.000000 0.000000 0.045514 0.000000 0.030844
# 5 -0.001313 0.006072 0.002450 0.000000 0.031210 0.000000
# 6 0.000000 0.000000 0.000000 0.030844 0.000000 0.064885
#
#
# Mechanical properties :
#
#
# Convention : Reuss Voigt Hill
#
# Bulk Modulus (GPa) = 31.59212 40.80282 36.19747
# Shear Modulus (GPa) = 22.53753 29.61033 26.07393
#
# Velocity S-wave (km/s) = 3.35060 3.84052 3.60389
# Velocity P-wave (km/s) = 5.54125 6.32385 5.94544
#
# Compressibility (1/GPa) = 0.03165346
#
# Stress axis : x y z
#
# Youngs Moduli (GPa) = 78.85442 69.19306 42.48343
#
# Poissons Ratio (x) = 0.36804 0.03729
# Poissons Ratio (y) = 0.41943 0.14074
# Poissons Ratio (z) = 0.06921 0.22922
#
# Static dielectric constant tensor:
#      x y z
#    x 1.747860 0.000000 -0.008550 
#    y 0.000000 1.754340 0.000000 
#    z -0.008550 0.000000 1.747410 
# 
# From -- ./inp_files/335218.got.cif
#   From: 2010.05.17/outbox.cif.g08.bks.cpg/sg12_168_cif.got.tgz:335218.got - 2010.06.03 13:09:07.
