data_PCOD9193202
_publ_section_title
;
Structure prediction by ZEFSAII (Michael W. Deem and Ramdas Pophale) SiO2 
 PCOD9193202
Probable space group: C 2/M
;
_chemical_formula_sum "Si O2"
_cell_formula_units_Z 40
_cell_length_a 18.488872
_cell_length_b 7.504034
_cell_length_c 26.437827
_cell_angle_alpha 90.000000
_cell_angle_beta 30.146345
_cell_angle_gamma 90.000000
_cell_volume 1842.114588
_symmetry_space_group_name_H-M "C 2/M"
_symmetry_group_IT_number 12
_symmetry_cell_setting 'monoclinic'
loop_
_space_group_symop_operation_xyz
x,y,z
-x,y,-z
-x,-y,-z
x,-y,z
1/2+x,1/2+y,z
1/2-x,1/2+y,-z
1/2-x,1/2-y,-z
1/2+x,1/2-y,z
loop_
_atom_site_type_symbol
_atom_site_label
_atom_site_fract_x
_atom_site_fract_y
_atom_site_fract_z
Si Si1 0.334638 0.715339 0.200722
Si Si2 0.336871 0.286632 0.998603
Si Si3 0.831368 0.718405 0.799820
Si Si4 0.660732 0.213534 0.604537
Si Si5 0.661432 0.288891 0.407335
O O1 0.338249 0.500000 0.197051
O O2 0.252256 0.775354 0.200051
O O3 0.248011 0.766438 0.303163
O O4 0.499281 0.780630 0.102873
O O5 0.345952 0.500000 0.998288
O O6 0.251283 0.222088 0.099709
O O7 0.250000 0.250000 0.000000
O O8 0.831521 0.500000 0.799620
O O9 0.996852 0.779302 0.700024
O O10 0.750000 0.250000 0.500000
O O11 0.747022 0.284349 0.600989
O O12 0.649605 0.000000 0.616864
O O13 0.500000 0.214440 0.500000
O O14 0.645806 0.500000 0.426573
#
# Coordination Sequence:
#
# PCOD9193202 Si02
#       5
#     8   8   8   8   8
#     4  10  20  34  55  80 102 132 176 219 255 297
#     4  10  20  35  55  78 105 136 171 212 258 309
#     4   9  18  34  54  75 102 136 172 211 256 303
#     4  10  20  34  53  75 101 136 173 210 255 304
#     4  10  21  36  53  76 108 142 171 206 260 315
#
# _framework density 21.714175999999998
#
# number of rings (size 3 to 8) (size 9 to 14) (size 15 to 20)
#    0.000    2.200    0.000    3.000    0.000    6.000 
#    0.000    2.000    0.000    2.400    0.000    0.000 
#    0.000    0.000    0.000    0.000    0.000    0.000 
#
# Total GULP energy -111814.248973 kJ/mol
# GULP energy per Si atom -5590.712449 kJ/mol
# Density = 2.166475 g / cm^3
# Si number density = 21.714176 Si / 1000 Ang^3
#
#
#
# Elastic Constant Matrix: (Units=GPa)
#
#
# Indices 1 2 3 4 5 6 
#
# 1 252.6187 -6.7855 144.7997 0.0002 -14.0192 -0.0016
# 2 -6.7855 53.7689 -11.8455 0.0003 -11.8041 -0.0031
# 3 144.7997 -11.8455 237.4281 0.0001 -19.2342 -0.0004
# 4 0.0002 0.0003 0.0001 13.8249 0.0000 7.2710
# 5 -14.0192 -11.8041 -19.2342 0.0000 48.2934 0.0006
# 6 -0.0016 -0.0031 -0.0004 7.2710 0.0006 12.1201
#
#
#
# Elastic Compliance Matrix: (Units=1/GPa)
#
#
# Indices 1 2 3 4 5 6 
#
# 1 0.006090 0.000023 -0.003688 -0.000001 0.000305 0.000001
# 2 0.000023 0.020124 0.001435 -0.000004 0.005497 0.000007
# 3 -0.003688 0.001435 0.006690 0.000000 0.001945 0.000000
# 4 -0.000001 -0.000004 0.000000 0.105675 0.000000 -0.063395
# 5 0.000305 0.005497 0.001945 0.000000 0.022913 0.000001
# 6 0.000001 0.000007 0.000000 -0.063395 0.000001 0.120539
#
#
# Mechanical properties :
#
#
# Convention : Reuss Voigt Hill
#
# Bulk Modulus (GPa) = 35.15644 88.46148 61.80896
# Shear Modulus (GPa) = 16.89343 42.69083 29.79213
#
# Velocity S-wave (km/s) = 2.79227 4.43881 3.70809
# Velocity P-wave (km/s) = 5.15960 8.19135 6.84542
#
# Compressibility (1/GPa) = 0.02844429
#
# Stress axis : x y z
#
# Youngs Moduli (GPa) = 164.19734 49.69186 149.46763
#
# Poissons Ratio (x) = -0.00114 0.55130
# Poissons Ratio (y) = -0.00375 -0.21455
# Poissons Ratio (z) = 0.60563 -0.07133
#
# Static dielectric constant tensor:
#      x y z
#    x 1.749140 0.000000 -0.028220 
#    y 0.000000 1.836920 0.000000 
#    z -0.028220 0.000000 1.738000 
# 
# From -- ./inp_files/71206.got.cif
#   From: 2010.05.17/outbox.cif.g08.bks.cpg/sg12_36_cif.got.tgz:71206.got - 2010.06.03 13:09:07.
