data_PCOD9193447
_publ_section_title
;
Structure prediction by ZEFSAII (Michael W. Deem and Ramdas Pophale) SiO2 
 PCOD9193447
Probable space group: C 2/M
;
_chemical_formula_sum "Si O2"
_cell_formula_units_Z 48
_cell_length_a 13.638570
_cell_length_b 7.487218
_cell_length_c 27.094246
_cell_angle_alpha 90.000000
_cell_angle_beta 139.504384
_cell_angle_gamma 90.000000
_cell_volume 1796.684787
_symmetry_space_group_name_H-M "C 2/M"
_symmetry_group_IT_number 12
_symmetry_cell_setting 'monoclinic'
loop_
_space_group_symop_operation_xyz
x,y,z
-x,y,-z
-x,-y,-z
x,-y,z
1/2+x,1/2+y,z
1/2-x,1/2+y,-z
1/2-x,1/2-y,-z
1/2+x,1/2-y,z
loop_
_atom_site_type_symbol
_atom_site_label
_atom_site_fract_x
_atom_site_fract_y
_atom_site_fract_z
Si Si1 0.333972 0.210116 0.693005
Si Si2 0.000759 0.700551 0.554224
Si Si3 0.587291 0.214889 0.980933
Si Si4 0.997451 0.287935 0.656041
Si Si5 0.374519 0.285196 0.141139
Si Si6 0.296327 0.785826 0.822704
O O1 0.177279 0.309974 0.635186
O O2 0.413533 0.276674 0.672958
O O3 0.454619 0.226204 0.783573
O O4 0.299784 0.000000 0.675473
O O5 0.936538 0.500000 0.523699
O O6 0.940344 0.786422 0.581735
O O7 0.000000 0.788291 0.500000
O O8 0.757968 0.283590 0.054740
O O9 0.597467 0.000000 0.979938
O O10 0.500000 0.244286 0.000000
O O11 0.467872 0.284853 0.894562
O O12 0.972233 0.500000 0.643965
O O13 0.175168 0.260886 0.734918
O O14 0.375554 0.500000 0.139653
O O15 0.290031 0.231798 0.159870
O O16 0.308055 0.000000 0.827134
#
# Coordination Sequence:
#
# PCOD9193447 Si02
#       6
#     8   8   8   8   8   8
#     4  10  20  34  53  79 109 135 163 208 261 304
#     4  10  22  40  59  77  99 132 172 208 249 310
#     4   7  10  18  36  65  98 130 169 212 243 277
#     4   9  19  35  53  76 107 137 165 206 259 305
#     4   8  13  24  44  69  99 137 175 206 242 293
#     4   8  13  23  43  71 100 133 173 210 245 291
#
# _framework density 26.715872000000001
#
# number of rings (size 3 to 8) (size 9 to 14) (size 15 to 20)
#    0.000    3.333    0.000    2.500    0.000    2.333 
#    0.000    0.833    0.000    6.000    0.000    0.000 
#    0.000    0.000    0.000    0.000    0.000    0.000 
#
# Total GULP energy -134042.951713 kJ/mol
# GULP energy per Si atom -5585.122988 kJ/mol
# Density = 2.665507 g / cm^3
# Si number density = 26.715872 Si / 1000 Ang^3
#
#
#
# Elastic Constant Matrix: (Units=GPa)
#
#
# Indices 1 2 3 4 5 6 
#
# 1 63.8712 -1.9322 28.5614 0.0000 -11.9001 0.0001
# 2 -1.9322 85.1723 4.9648 -0.0009 -2.3862 0.0014
# 3 28.5614 4.9648 124.1309 0.0000 -36.6989 -0.0001
# 4 0.0000 -0.0009 0.0000 408.9754 0.0001 -623.2374
# 5 -11.9001 -2.3862 -36.6989 0.0001 65.5851 -0.0002
# 6 0.0001 0.0014 -0.0001 -623.2374 -0.0002 1000.3025
#
#
#
# Elastic Compliance Matrix: (Units=1/GPa)
#
#
# Indices 1 2 3 4 5 6 
#
# 1 0.017554 0.000647 -0.003734 0.000000 0.001119 0.000000
# 2 0.000647 0.011794 -0.000550 0.000000 0.000239 0.000000
# 3 -0.003734 -0.000550 0.010462 0.000000 0.005156 0.000000
# 4 0.000000 0.000000 0.000000 0.048384 0.000000 0.030146
# 5 0.001119 0.000239 0.005156 0.000000 0.018344 0.000000
# 6 0.000000 0.000000 0.000000 0.030146 0.000000 0.019782
#
#
# Mechanical properties :
#
#
# Convention : Reuss Voigt Hill
#
# Bulk Modulus (GPa) = 30.73463 37.37359 34.05411
# Shear Modulus (GPa) = 34.61636 311.07795 172.84715
#
# Velocity S-wave (km/s) = 3.60352 10.80241 8.05225
# Velocity P-wave (km/s) = 5.37057 13.02341 9.96123
#
# Compressibility (1/GPa) = 0.03253659
#
# Stress axis : x y z
#
# Youngs Moduli (GPa) = 56.96581 84.78638 95.58699
#
# Poissons Ratio (x) = -0.05488 0.35693
# Poissons Ratio (y) = -0.03687 0.05258
# Poissons Ratio (z) = 0.21272 0.04664
#
# Static dielectric constant tensor:
#      x y z
#    x 2.203850 0.000000 -0.042320 
#    y 0.000000 2.000850 0.000000 
#    z -0.042320 0.000000 2.086930 
# 
# From -- ./inp_files/375161.got.cif
#   From: 2010.05.17/outbox.cif.g08.bks.cpg/sg12_188_cif.got.tgz:375161.got - 2010.06.03 13:09:07.
