data_PCOD9193958
_publ_section_title
;
Structure prediction by ZEFSAII (Michael W. Deem and Ramdas Pophale) SiO2 
 PCOD9193958
Probable space group: C 2/M
;
_chemical_formula_sum "Si O2"
_cell_formula_units_Z 40
_cell_length_a 16.233414
_cell_length_b 14.244724
_cell_length_c 18.947791
_cell_angle_alpha 90.000000
_cell_angle_beta 158.244319
_cell_angle_gamma 90.000000
_cell_volume 1623.999690
_symmetry_space_group_name_H-M "C 2/M"
_symmetry_group_IT_number 12
_symmetry_cell_setting 'monoclinic'
loop_
_space_group_symop_operation_xyz
x,y,z
-x,y,-z
-x,-y,-z
x,-y,z
1/2+x,1/2+y,z
1/2-x,1/2+y,-z
1/2-x,1/2-y,-z
1/2+x,1/2-y,z
loop_
_atom_site_type_symbol
_atom_site_label
_atom_site_fract_x
_atom_site_fract_y
_atom_site_fract_z
Si Si1 0.385865 0.887916 0.235191
Si Si2 0.678684 0.112602 0.975721
Si Si3 0.233682 0.205530 0.644035
Si Si4 0.874319 0.112315 0.589075
Si Si5 0.755666 0.894792 0.726733
O O1 0.649538 0.874468 0.454813
O O2 0.252002 0.859152 0.198154
O O3 0.357708 0.000000 0.212226
O O4 0.326224 0.852854 0.109647
O O5 0.900485 0.140233 0.193216
O O6 0.683016 0.000000 0.975105
O O7 0.448796 0.141123 0.830336
O O8 0.164042 0.173834 0.510545
O O9 0.328809 0.309218 0.736453
O O10 0.000000 0.194981 0.500000
O O11 0.884013 0.000000 0.579500
O O12 0.500000 0.906656 0.500000
O O13 0.857205 0.000000 0.800744
#
# Coordination Sequence:
#
# PCOD9193958 Si02
#       5
#     8   8   8   8   8
#     4   8  15  32  59  86 110 143 192 244 293 345
#     4   9  18  34  58  87 117 149 187 236 293 350
#     4  10  20  34  54  83 120 154 191 234 285 351
#     4   9  18  34  58  87 117 149 187 236 293 350
#     4   9  18  35  60  85 112 152 196 240 294 347
#
# _framework density 24.630547
#
# number of rings (size 3 to 8) (size 9 to 14) (size 15 to 20)
#    0.000    3.000    0.000    1.800    0.000    2.400 
#    0.000   20.000    0.000   16.800    0.000   30.800 
#    0.000    0.000    0.000    0.000    0.000    0.000 
#
# Total GULP energy -111815.798367 kJ/mol
# GULP energy per Si atom -5590.789918 kJ/mol
# Density = 2.457449 g / cm^3
# Si number density = 24.630547 Si / 1000 Ang^3
#
#
#
# Elastic Constant Matrix: (Units=GPa)
#
#
# Indices 1 2 3 4 5 6 
#
# 1 119.5839 57.2032 64.4245 -0.0098 1.6334 0.0065
# 2 57.2032 131.3908 41.3492 -0.1851 -9.2578 -0.0479
# 3 64.4245 41.3492 205.5443 0.0026 22.1651 -0.0108
# 4 -0.0098 -0.1851 0.0026 -35.3575 -0.0464 -12.1794
# 5 1.6334 -9.2578 22.1651 -0.0464 33.4143 -0.0012
# 6 0.0065 -0.0479 -0.0108 -12.1794 -0.0012 31.8198
#
#
#
# Elastic Compliance Matrix: (Units=1/GPa)
#
#
# Indices 1 2 3 4 5 6 
#
# 1 0.011979 -0.004289 -0.002909 0.000020 0.000156 -0.000002
# 2 -0.004289 0.010082 -0.001085 -0.000055 0.003723 -0.000005
# 3 -0.002909 -0.001085 0.006475 0.000011 -0.004454 0.000005
# 4 0.000020 -0.000055 0.000011 -0.024988 -0.000058 -0.009564
# 5 0.000156 0.003723 -0.004454 -0.000058 0.033906 -0.000017
# 6 -0.000002 -0.000005 0.000005 -0.009564 -0.000017 0.027766
#
#
# Mechanical properties :
#
#
# Convention : Reuss Voigt Hill
#
# Bulk Modulus (GPa) = 83.53814 86.94141 85.23978
# Shear Modulus (GPa) = 58.29153 25.54478 41.91815
#
# Velocity S-wave (km/s) = 4.87009 3.22392 4.12986
# Velocity P-wave (km/s) = 8.10023 7.01663 7.57782
#
# Compressibility (1/GPa) = 0.01197058
#
# Stress axis : x y z
#
# Youngs Moduli (GPa) = 83.48149 99.18774 154.43073
#
# Poissons Ratio (x) = 0.42540 0.44917
# Poissons Ratio (y) = 0.35804 0.16761
# Poissons Ratio (z) = 0.24281 0.10765
#
# Static dielectric constant tensor:
#      x y z
#    x 1.966960 0.000000 -0.024240 
#    y 0.000000 1.979440 -0.000030 
#    z -0.024240 -0.000030 1.963610 
# 
# From -- ./inp_files/316830.got.cif
#   From: 2010.05.17/outbox.cif.g08.bks.cpg/sg12_159_cif.got.tgz:316830.got - 2010.06.03 13:09:07.
