data_PCOD9193531
_publ_section_title
;
Structure prediction by ZEFSAII (Michael W. Deem and Ramdas Pophale) SiO2 
 PCOD9193531
Probable space group: C 2/M
;
_chemical_formula_sum "Si O2"
_cell_formula_units_Z 48
_cell_length_a 19.461100
_cell_length_b 8.900191
_cell_length_c 22.413641
_cell_angle_alpha 90.000000
_cell_angle_beta 136.100079
_cell_angle_gamma 90.000000
_cell_volume 2691.928266
_symmetry_space_group_name_H-M "C 2/M"
_symmetry_group_IT_number 12
_symmetry_cell_setting 'monoclinic'
loop_
_space_group_symop_operation_xyz
x,y,z
-x,y,-z
-x,-y,-z
x,-y,z
1/2+x,1/2+y,z
1/2-x,1/2+y,-z
1/2-x,1/2-y,-z
1/2+x,1/2-y,z
loop_
_atom_site_type_symbol
_atom_site_label
_atom_site_fract_x
_atom_site_fract_y
_atom_site_fract_z
Si Si1 0.287399 0.821748 0.724996
Si Si2 0.597947 0.679943 0.523846
Si Si3 0.461235 0.678873 0.761392
Si Si4 0.542683 0.178398 0.367504
Si Si5 0.821923 0.680054 0.093891
Si Si6 0.307224 0.177866 0.221269
O O1 0.194451 0.787037 0.623452
O O2 0.382073 0.734101 0.760013
O O3 0.254977 0.771535 0.770494
O O4 0.305170 0.000000 0.733784
O O5 0.500000 0.724766 0.500000
O O6 0.592482 0.500000 0.510977
O O7 0.597672 0.760924 0.460096
O O8 0.468717 0.500000 0.764777
O O9 0.428877 0.739989 0.675995
O O10 0.568391 0.750691 0.841664
O O11 0.424856 0.207446 0.303172
O O12 0.556032 0.000000 0.368734
O O13 0.828056 0.500000 0.091573
O O14 0.784947 0.711934 0.138232
O O15 0.750000 0.750000 0.000000
O O16 0.291614 0.000000 0.221658
#
# Coordination Sequence:
#
# PCOD9193531 Si02
#       6
#     8   8   8   8   8   8
#     4  11  22  36  56  82 116 152 190 237 285 335
#     4  10  20  34  53  81 113 150 197 241 281 333
#     4  11  23  39  59  82 115 152 188 234 288 338
#     4  10  20  35  56  81 111 150 196 240 282 334
#     4  10  21  40  65  92 117 145 184 228 277 340
#     4   9  19  35  56  83 114 147 185 228 278 336
#
# _framework density 17.831084000000001
#
# number of rings (size 3 to 8) (size 9 to 14) (size 15 to 20)
#    0.000    1.833    1.667    4.000    0.000    5.667 
#    0.000    0.833    0.000    5.000    0.000    0.000 
#    0.000    0.000    0.000    0.000    0.000    0.000 
#
# Total GULP energy -134081.434860 kJ/mol
# GULP energy per Si atom -5586.726453 kJ/mol
# Density = 1.779050 g / cm^3
# Si number density = 17.831084 Si / 1000 Ang^3
#
#
#
# Elastic Constant Matrix: (Units=GPa)
#
#
# Indices 1 2 3 4 5 6 
#
# 1 100.8071 70.3488 49.2180 0.0000 -10.8788 0.0000
# 2 70.3488 91.9559 61.7479 0.0000 -10.9519 0.0000
# 3 49.2180 61.7479 107.5546 0.0000 -18.7715 0.0000
# 4 0.0000 0.0000 0.0000 30.9686 0.0000 -4.2708
# 5 -10.8788 -10.9519 -18.7715 0.0000 17.5587 0.0000
# 6 0.0000 0.0000 0.0000 -4.2708 0.0000 32.0329
#
#
#
# Elastic Compliance Matrix: (Units=1/GPa)
#
#
# Indices 1 2 3 4 5 6 
#
# 1 0.021458 -0.015974 -0.000082 0.000000 0.003243 0.000000
# 2 -0.015974 0.029590 -0.010061 0.000000 -0.002197 0.000000
# 3 -0.000082 -0.010061 0.017220 0.000000 0.012083 0.000000
# 4 0.000000 0.000000 0.000000 0.032896 0.000000 0.004386
# 5 0.003243 -0.002197 0.012083 0.000000 0.070508 0.000000
# 6 0.000000 0.000000 0.000000 0.004386 0.000000 0.031803
#
#
# Mechanical properties :
#
#
# Convention : Reuss Voigt Hill
#
# Bulk Modulus (GPa) = 62.37406 73.66079 68.01742
# Shear Modulus (GPa) = 19.15305 24.04558 21.59932
#
# Velocity S-wave (km/s) = 3.28096 3.67620 3.48419
# Velocity P-wave (km/s) = 7.02918 7.70839 7.37661
#
# Compressibility (1/GPa) = 0.01603231
#
# Stress axis : x y z
#
# Youngs Moduli (GPa) = 46.60289 33.79515 58.07042
#
# Poissons Ratio (x) = 0.53986 0.00478
# Poissons Ratio (y) = 0.74445 0.58426
# Poissons Ratio (z) = 0.00384 0.34002
#
# Static dielectric constant tensor:
#      x y z
#    x 1.594190 0.000000 -0.001280 
#    y 0.000000 1.589500 0.000000 
#    z -0.001280 0.000000 1.587430 
# 
# From -- ./inp_files/249343.got.cif
#   From: 2010.05.17/outbox.cif.g08.bks.cpg/sg12_125_cif.got.tgz:249343.got - 2010.06.03 13:09:07.
