data_PCOD9193145
_publ_section_title
;
Structure prediction by ZEFSAII (Michael W. Deem and Ramdas Pophale) SiO2 
 PCOD9193145
Probable space group: C 2/M
;
_chemical_formula_sum "Si O2"
_cell_formula_units_Z 50
_cell_length_a 8.840830
_cell_length_b 13.162370
_cell_length_c 28.005377
_cell_angle_alpha 90.000000
_cell_angle_beta 118.264883
_cell_angle_gamma 90.000000
_cell_volume 2870.317687
_symmetry_space_group_name_H-M "C 2/M"
_symmetry_group_IT_number 12
_symmetry_cell_setting 'monoclinic'
loop_
_space_group_symop_operation_xyz
x,y,z
-x,y,-z
-x,-y,-z
x,-y,z
1/2+x,1/2+y,z
1/2-x,1/2+y,-z
1/2-x,1/2-y,-z
1/2+x,1/2-y,z
loop_
_atom_site_type_symbol
_atom_site_label
_atom_site_fract_x
_atom_site_fract_y
_atom_site_fract_z
Si Si1 0.907813 0.380056 0.435069
Si Si2 0.715602 0.880678 0.312668
Si Si3 0.561383 0.252618 0.373596
Si Si4 0.622611 0.321359 0.951480
Si Si5 0.500000 0.500000 0.000000
Si Si6 0.261515 0.217517 0.873689
Si Si7 0.044839 0.381777 0.182980
O O1 0.890622 0.500000 0.421010
O O2 0.724135 0.324107 0.408834
O O3 0.000000 0.371610 0.500000
O O4 0.016139 0.320143 0.411279
O O5 0.606091 0.819448 0.335548
O O6 0.625449 0.874846 0.247686
O O7 0.898939 0.824462 0.338684
O O8 0.733366 0.000000 0.327910
O O9 0.440350 0.267792 0.915598
O O10 0.695984 0.344805 0.909731
O O11 0.750000 0.250000 0.000000
O O12 0.588512 0.414316 0.979810
O O13 0.312249 0.153632 0.834338
O O14 0.118513 0.305699 0.844092
O O15 0.995519 0.500000 0.166442
#
# Coordination Sequence:
#
# PCOD9193145 Si02
#       7
#     8   8   8   8   2   8   8
#     4  10  20  34  52  79 111 144 185 226 269 323
#     4  10  20  36  56  80 108 138 185 223 268 325
#     4  10  20  34  56  78 108 147 180 224 278 314
#     4  11  22  40  57  85 110 140 180 219 256 323
#     4  12  24  36  66  78 112 148 174 216 276 298
#     4  10  22  39  57  80 115 135 179 221 262 319
#     4  10  22  38  58  82 108 144 176 223 273 318
#
# _framework density 17.419675000000002
#
# number of rings (size 3 to 8) (size 9 to 14) (size 15 to 20)
#    0.000    1.760    1.600    2.400    2.240    0.000 
#    0.000    0.800    0.000   17.280    0.000    0.000 
#    0.000    0.000    0.000    0.000    0.000    0.000 
#
# Total GULP energy -139210.099371 kJ/mol
# GULP energy per Si atom -5568.403975 kJ/mol
# Density = 1.738003 g / cm^3
# Si number density = 17.419675 Si / 1000 Ang^3
#
#
#
# Elastic Constant Matrix: (Units=GPa)
#
#
# Indices 1 2 3 4 5 6 
#
# 1 110.8122 51.2380 43.4955 0.0000 -14.7159 0.0000
# 2 51.2380 138.2595 56.7883 0.0000 -11.4555 0.0000
# 3 43.4955 56.7883 82.1341 0.0000 -10.2785 0.0000
# 4 0.0000 0.0000 0.0000 27.4150 0.0000 -14.8177
# 5 -14.7159 -11.4555 -10.2785 0.0000 21.2809 0.0000
# 6 0.0000 0.0000 0.0000 -14.8177 0.0000 19.7218
#
#
#
# Elastic Compliance Matrix: (Units=1/GPa)
#
#
# Indices 1 2 3 4 5 6 
#
# 1 0.012541 -0.002449 -0.004287 0.000000 0.005283 0.000000
# 2 -0.002449 0.010677 -0.005937 0.000000 0.001187 0.000000
# 3 -0.004287 -0.005937 0.018923 0.000000 0.002979 0.000000
# 4 0.000000 0.000000 0.000000 0.061418 0.000000 0.046146
# 5 0.005283 0.001187 0.002979 0.000000 0.052722 0.000000
# 6 0.000000 0.000000 0.000000 0.046146 0.000000 0.085376
#
#
# Mechanical properties :
#
#
# Convention : Reuss Voigt Hill
#
# Bulk Modulus (GPa) = 59.53910 70.47214 65.00562
# Shear Modulus (GPa) = 18.34182 25.66247 22.00214
#
# Velocity S-wave (km/s) = 3.24842 3.84238 3.55782
# Velocity P-wave (km/s) = 6.95148 7.76070 7.36721
#
# Compressibility (1/GPa) = 0.01679569
#
# Stress axis : x y z
#
# Youngs Moduli (GPa) = 79.73867 93.65755 52.84570
#
# Poissons Ratio (x) = 0.22938 0.22654
# Poissons Ratio (y) = 0.19529 0.31374
# Poissons Ratio (z) = 0.34182 0.55603
#
# Static dielectric constant tensor:
#      x y z
#    x 1.583620 0.000000 -0.011620 
#    y 0.000000 1.592450 0.000000 
#    z -0.011620 0.000000 1.575220 
# 
# From -- ./inp_files/332713.got.cif
#   From: 2010.05.17/outbox.cif.g08.bks.cpg/sg12_167_cif.got.tgz:332713.got - 2010.06.03 13:09:07.
