data_PCOD9193075
_publ_section_title
;
Structure prediction by ZEFSAII (Michael W. Deem and Ramdas Pophale) SiO2 
 PCOD9193075
Probable space group: C 2/M
;
_chemical_formula_sum "Si O2"
_cell_formula_units_Z 56
_cell_length_a 22.007939
_cell_length_b 14.167277
_cell_length_c 9.017473
_cell_angle_alpha 90.000000
_cell_angle_beta 114.137082
_cell_angle_gamma 90.000000
_cell_volume 2565.763725
_symmetry_space_group_name_H-M "C 2/M"
_symmetry_group_IT_number 12
_symmetry_cell_setting 'monoclinic'
loop_
_space_group_symop_operation_xyz
x,y,z
-x,y,-z
-x,-y,-z
x,-y,z
1/2+x,1/2+y,z
1/2-x,1/2+y,-z
1/2-x,1/2-y,-z
1/2+x,1/2-y,z
loop_
_atom_site_type_symbol
_atom_site_label
_atom_site_fract_x
_atom_site_fract_y
_atom_site_fract_z
Si Si1 0.361179 0.891705 0.909097
Si Si2 0.880931 0.107067 0.946733
Si Si3 0.631659 0.748285 0.627506
Si Si4 0.959431 0.741740 0.185634
Si Si5 0.783048 0.895300 0.129048
Si Si6 0.174797 0.762348 0.362861
Si Si7 0.944336 0.604312 0.574462
O O1 0.296108 0.890385 0.950277
O O2 0.343512 0.835633 0.740427
O O3 0.378915 0.000000 0.899536
O O4 0.416219 0.836064 0.055557
O O5 0.843373 0.160612 0.777729
O O6 0.898739 0.000000 0.928367
O O7 0.944748 0.166036 0.071623
O O8 0.825498 0.106283 0.022081
O O9 0.572309 0.732286 0.685266
O O10 0.694302 0.699804 0.765580
O O11 0.633089 0.704775 0.465532
O O12 0.622556 0.857822 0.572714
O O13 0.026822 0.684441 0.286424
O O14 0.798332 0.000000 0.214181
O O15 0.250000 0.750000 0.500000
O O16 0.937529 0.500000 0.630925
O O17 0.000000 0.598964 0.500000
#
# Coordination Sequence:
#
# PCOD9193075 Si02
#       7
#     8   8   8   8   8   8   8
#     4  10  20  34  52  76 108 144 184 224 271 325
#     4   9  20  36  54  76 106 143 184 224 270 321
#     4  10  20  34  55  80 113 142 179 221 279 322
#     4   9  19  35  61  79 104 142 186 233 266 316
#     4   9  18  34  55  78 104 141 187 229 267 319
#     4  11  22  33  51  78 115 148 174 220 275 336
#     4   9  18  35  57  84 111 139 180 229 271 315
#
# _framework density 21.825859999999999
#
# number of rings (size 3 to 8) (size 9 to 14) (size 15 to 20)
#    0.000    2.429    1.429    0.429    2.000    4.000 
#    0.000    3.571    0.000    9.429    0.000    0.000 
#    0.000    0.000    0.000    0.000    0.000    0.000 
#
# Total GULP energy -155871.913370 kJ/mol
# GULP energy per Si atom -5566.854049 kJ/mol
# Density = 2.177618 g / cm^3
# Si number density = 21.825860 Si / 1000 Ang^3
#
#
#
# Elastic Constant Matrix: (Units=GPa)
#
#
# Indices 1 2 3 4 5 6 
#
# 1 36.0366 21.5304 29.1574 0.0000 -5.4966 0.0000
# 2 21.5304 167.6315 65.7848 0.0000 16.8981 0.0000
# 3 29.1574 65.7848 107.5188 0.0000 2.6358 0.0000
# 4 0.0000 0.0000 0.0000 17.7798 0.0000 3.3148
# 5 -5.4966 16.8981 2.6358 0.0000 30.0982 0.0000
# 6 0.0000 0.0000 0.0000 3.3148 0.0000 18.4182
#
#
#
# Elastic Compliance Matrix: (Units=1/GPa)
#
#
# Indices 1 2 3 4 5 6 
#
# 1 0.037804 -0.002166 -0.009145 0.000000 0.008921 0.000000
# 2 -0.002166 0.008485 -0.004487 0.000000 -0.004766 0.000000
# 3 -0.009145 -0.004487 0.014537 0.000000 -0.000424 0.000000
# 4 0.000000 0.000000 0.000000 0.058196 0.000000 -0.010474
# 5 0.008921 -0.004766 -0.000424 0.000000 0.037567 0.000000
# 6 0.000000 0.000000 0.000000 -0.010474 0.000000 0.056179
#
#
# Mechanical properties :
#
#
# Convention : Reuss Voigt Hill
#
# Bulk Modulus (GPa) = 34.21312 60.45914 47.33613
# Shear Modulus (GPa) = 19.67669 26.24019 22.95844
#
# Velocity S-wave (km/s) = 3.00581 3.47111 3.24681
# Velocity P-wave (km/s) = 5.26840 6.62010 5.98255
#
# Compressibility (1/GPa) = 0.02922855
#
# Stress axis : x y z
#
# Youngs Moduli (GPa) = 26.45247 117.85319 68.79105
#
# Poissons Ratio (x) = 0.25524 0.62912
# Poissons Ratio (y) = 0.05729 0.30870
# Poissons Ratio (z) = 0.24192 0.52886
#
# Static dielectric constant tensor:
#      x y z
#    x 1.880570 0.000000 -0.024700 
#    y 0.000000 1.798450 0.000000 
#    z -0.024700 0.000000 1.806030 
# 
# From -- ./inp_files/96957.got.cif
#   From: 2010.05.17/outbox.cif.g08.bks.cpg/sg12_49_cif.got.tgz:96957.got - 2010.06.03 13:09:07.
