data_PCOD9193267
_publ_section_title
;
Structure prediction by ZEFSAII (Michael W. Deem and Ramdas Pophale) SiO2 
 PCOD9193267
Probable space group: C 2/M
;
_chemical_formula_sum "Si O2"
_cell_formula_units_Z 56
_cell_length_a 29.752620
_cell_length_b 9.151713
_cell_length_c 21.232580
_cell_angle_alpha 90.000000
_cell_angle_beta 151.496917
_cell_angle_gamma 90.000000
_cell_volume 2758.902262
_symmetry_space_group_name_H-M "C 2/M"
_symmetry_group_IT_number 12
_symmetry_cell_setting 'monoclinic'
loop_
_space_group_symop_operation_xyz
x,y,z
-x,y,-z
-x,-y,-z
x,-y,z
1/2+x,1/2+y,z
1/2-x,1/2+y,-z
1/2-x,1/2-y,-z
1/2+x,1/2-y,z
loop_
_atom_site_type_symbol
_atom_site_label
_atom_site_fract_x
_atom_site_fract_y
_atom_site_fract_z
Si Si1 0.878488 0.665169 0.108975
Si Si2 0.529309 0.175186 0.137661
Si Si3 0.931260 0.825106 0.683631
Si Si4 0.290583 0.164302 0.140970
Si Si5 0.467527 0.662052 0.389399
Si Si6 0.352300 0.824330 0.844041
Si Si7 0.845034 0.178152 0.450246
O O1 0.904915 0.500000 0.123858
O O2 0.829311 0.660356 0.116645
O O3 0.968675 0.768608 0.220117
O O4 0.799698 0.732848 0.966920
O O5 0.571435 0.252104 0.250991
O O6 0.593508 0.200531 0.155272
O O7 0.527044 0.000000 0.144798
O O8 0.423687 0.226498 0.987035
O O9 0.853409 0.783035 0.534781
O O10 0.930836 0.000000 0.688595
O O11 0.378127 0.235159 0.282965
O O12 0.268082 0.000000 0.132597
O O13 0.500000 0.643610 0.500000
O O14 0.441712 0.500000 0.331321
O O15 0.556321 0.722337 0.460000
O O16 0.246198 0.769002 0.700896
O O17 0.345976 0.000000 0.844964
O O18 0.843033 0.000000 0.445044
#
# Coordination Sequence:
#
# PCOD9193267 Si02
#       7
#     8   8   8   8   8   8   8
#     4  10  20  34  54  76 102 139 180 220 265 326
#     4   9  18  34  58  83 107 139 185 233 272 326
#     4  11  21  33  53  81 114 145 177 225 283 333
#     4  10  20  34  53  76 104 137 176 226 278 320
#     4  10  20  34  53  77 106 146 192 230 268 325
#     4   8  16  34  57  79 106 145 187 227 273 323
#     4   9  18  33  53  77 108 144 183 228 274 325
#
# _framework density 20.297927999999999
#
# number of rings (size 3 to 8) (size 9 to 14) (size 15 to 20)
#    0.000    2.429    1.429    2.143    0.000    3.143 
#    0.000    4.286    0.000    4.286    0.000    0.000 
#    0.000    0.000    0.000    0.000    0.000    0.000 
#
# Total GULP energy -156077.842135 kJ/mol
# GULP energy per Si atom -5574.208648 kJ/mol
# Density = 2.025173 g / cm^3
# Si number density = 20.297928 Si / 1000 Ang^3
#
#
#
# Elastic Constant Matrix: (Units=GPa)
#
#
# Indices 1 2 3 4 5 6 
#
# 1 31.7621 -2.5681 -14.4038 0.0000 -11.5692 0.0000
# 2 -2.5681 39.0798 9.9181 0.0000 -14.9373 0.0000
# 3 -14.4038 9.9181 73.1909 0.0000 -6.6828 0.0000
# 4 0.0000 0.0000 0.0000 30.8309 0.0000 -4.6570
# 5 -11.5692 -14.9373 -6.6828 0.0000 18.3084 0.0000
# 6 0.0000 0.0000 0.0000 -4.6570 0.0000 22.9103
#
#
#
# Elastic Compliance Matrix: (Units=1/GPa)
#
#
# Indices 1 2 3 4 5 6 
#
# 1 0.066055 0.026886 0.015693 0.000000 0.069405 0.000000
# 2 0.026886 0.048522 0.004016 0.000000 0.058043 0.000000
# 3 0.015693 0.004016 0.018012 0.000000 0.019767 0.000000
# 4 0.000000 0.000000 0.000000 0.033462 0.000000 0.006802
# 5 0.069405 0.058043 0.019767 0.000000 0.153048 0.000000
# 6 0.000000 0.000000 0.000000 0.006802 0.000000 0.045031
#
#
# Mechanical properties :
#
#
# Convention : Reuss Voigt Hill
#
# Bulk Modulus (GPa) = 4.42911 14.43613 9.43262
# Shear Modulus (GPa) = 14.44251 24.48234 19.46243
#
# Velocity S-wave (km/s) = 2.67034 3.47673 3.09987
# Velocity P-wave (km/s) = 3.41971 4.82125 4.17965
#
# Compressibility (1/GPa) = 0.22577883
#
# Stress axis : x y z
#
# Youngs Moduli (GPa) = 15.13887 20.60928 55.51848
#
# Poissons Ratio (x) = -0.55410 -0.87126
# Poissons Ratio (y) = -0.40703 -0.22294
# Poissons Ratio (z) = -0.23758 -0.08276
#
# Static dielectric constant tensor:
#      x y z
#    x 1.761510 0.000000 -0.022290 
#    y 0.000000 1.712640 0.000000 
#    z -0.022290 0.000000 1.778380 
# 
# From -- ./inp_files/319724.got.cif
#   From: 2010.05.17/outbox.cif.g08.bks.cpg/sg12_160_cif.got.tgz:319724.got - 2010.06.03 13:09:07.
