data_PCOD9193043
_publ_section_title
;
Structure prediction by ZEFSAII (Michael W. Deem and Ramdas Pophale) SiO2 
 PCOD9193043
Probable space group: C 2/M
;
_chemical_formula_sum "Si O2"
_cell_formula_units_Z 48
_cell_length_a 18.990388
_cell_length_b 12.483500
_cell_length_c 19.223176
_cell_angle_alpha 90.000000
_cell_angle_beta 31.016126
_cell_angle_gamma 90.000000
_cell_volume 2348.216022
_symmetry_space_group_name_H-M "C 2/M"
_symmetry_group_IT_number 12
_symmetry_cell_setting 'monoclinic'
loop_
_space_group_symop_operation_xyz
x,y,z
-x,y,-z
-x,-y,-z
x,-y,z
1/2+x,1/2+y,z
1/2-x,1/2+y,-z
1/2-x,1/2-y,-z
1/2+x,1/2-y,z
loop_
_atom_site_type_symbol
_atom_site_label
_atom_site_fract_x
_atom_site_fract_y
_atom_site_fract_z
Si Si1 0.802187 0.244597 0.766513
Si Si2 0.669961 0.245609 0.739488
Si Si3 0.112910 0.698781 0.644730
Si Si4 0.890540 0.876785 0.983073
Si Si5 0.571381 0.121506 0.535242
Si Si6 0.122952 0.125394 0.160060
O O1 0.730513 0.198122 0.758894
O O2 0.803319 0.165745 0.832345
O O3 0.950354 0.293557 0.622186
O O4 0.712514 0.344188 0.869443
O O5 0.640346 0.165172 0.700558
O O6 0.526577 0.305546 0.873557
O O7 0.785793 0.329912 0.614174
O O8 0.250000 0.750000 0.500000
O O9 0.070248 0.618713 0.620631
O O10 0.006518 0.796644 0.735260
O O11 0.817059 0.862879 0.969207
O O12 0.931125 0.000000 0.953293
O O13 0.551481 0.000000 0.527665
O O14 0.088844 0.000000 0.196763
#
# Coordination Sequence:
#
# PCOD9193043 Si02
#       6
#     8   8   8   8   8   8
#     4  11  21  33  53  80 108 133 168 219 263 303
#     4  10  20  34  52  75 108 140 168 210 262 309
#     4   8  17  33  52  73  98 132 174 210 245 297
#     4  10  20  34  54  78 104 137 175 213 257 312
#     4  10  20  34  53  76 105 139 170 206 257 313
#     4   9  19  36  55  74 101 141 181 212 253 310
#
# _framework density 20.441050000000001
#
# number of rings (size 3 to 8) (size 9 to 14) (size 15 to 20)
#    0.000    2.333    0.000    2.500    0.000    8.000 
#    0.000    0.833    0.000   15.000    0.000    0.000 
#    0.000    0.000    0.000    0.000    0.000    0.000 
#
# Total GULP energy -133700.882518 kJ/mol
# GULP energy per Si atom -5570.870105 kJ/mol
# Density = 2.039452 g / cm^3
# Si number density = 20.441050 Si / 1000 Ang^3
#
#
#
# Elastic Constant Matrix: (Units=GPa)
#
#
# Indices 1 2 3 4 5 6 
#
# 1 166.9962 5.4681 2.5326 0.0000 19.1136 0.0000
# 2 5.4681 30.1516 -8.5868 0.0001 -0.3023 0.0000
# 3 2.5326 -8.5868 54.6139 0.0001 2.0498 0.0000
# 4 0.0000 0.0001 0.0001 9.2284 -0.0001 2.8971
# 5 19.1136 -0.3023 2.0498 -0.0001 23.2353 0.0000
# 6 0.0000 0.0000 0.0000 2.8971 0.0000 1.7623
#
#
#
# Elastic Compliance Matrix: (Units=1/GPa)
#
#
# Indices 1 2 3 4 5 6 
#
# 1 0.006663 -0.001353 -0.000316 0.000000 -0.005471 0.000000
# 2 -0.001353 0.034995 0.005524 -0.000001 0.001081 0.000002
# 3 -0.000316 0.005524 0.019245 -0.000001 -0.001366 0.000002
# 4 0.000000 -0.000001 -0.000001 0.223930 0.000001 -0.368131
# 5 -0.005471 0.001081 -0.001366 0.000001 0.047673 -0.000002
# 6 0.000000 0.000002 0.000002 -0.368131 -0.000002 1.172642
#
#
# Mechanical properties :
#
#
# Convention : Reuss Voigt Hill
#
# Bulk Modulus (GPa) = 14.57457 27.84329 21.20893
# Shear Modulus (GPa) = 3.28880 23.66838 13.47859
#
# Velocity S-wave (km/s) = 1.26981 3.40646 2.57064
# Velocity P-wave (km/s) = 3.04884 5.39656 4.38282
#
# Compressibility (1/GPa) = 0.06861267
#
# Stress axis : x y z
#
# Youngs Moduli (GPa) = 150.07192 28.57527 51.96193
#
# Poissons Ratio (x) = 0.03867 0.01644
# Poissons Ratio (y) = 0.20311 -0.28706
# Poissons Ratio (z) = 0.04749 -0.15786
#
# Static dielectric constant tensor:
#      x y z
#    x 1.845200 0.000000 0.018890 
#    y 0.000000 1.675740 0.000000 
#    z 0.018890 0.000000 1.704540 
# 
# From -- ./inp_files/321166.got.cif
#   From: 2010.05.17/outbox.cif.g08.bks.cpg/sg12_161_cif.got.tgz:321166.got - 2010.06.03 13:09:07.
