data_PCOD9193243
_publ_section_title
;
Structure prediction by ZEFSAII (Michael W. Deem and Ramdas Pophale) SiO2 
 PCOD9193243
Probable space group: C 2/M
;
_chemical_formula_sum "Si O2"
_cell_formula_units_Z 56
_cell_length_a 22.298717
_cell_length_b 9.206731
_cell_length_c 15.167314
_cell_angle_alpha 90.000000
_cell_angle_beta 80.917190
_cell_angle_gamma 90.000000
_cell_volume 3074.780044
_symmetry_space_group_name_H-M "C 2/M"
_symmetry_group_IT_number 12
_symmetry_cell_setting 'monoclinic'
loop_
_space_group_symop_operation_xyz
x,y,z
-x,y,-z
-x,-y,-z
x,-y,z
1/2+x,1/2+y,z
1/2-x,1/2+y,-z
1/2-x,1/2-y,-z
1/2+x,1/2-y,z
loop_
_atom_site_type_symbol
_atom_site_label
_atom_site_fract_x
_atom_site_fract_y
_atom_site_fract_z
Si Si1 0.442805 0.824924 0.947680
Si Si2 0.043952 0.836137 0.573708
Si Si3 0.250101 0.671476 0.359727
Si Si4 0.685468 0.668544 0.029821
Si Si5 0.837264 0.329980 0.457646
Si Si6 0.176075 0.835881 0.242994
Si Si7 0.543577 0.327026 0.242941
O O1 0.377096 0.750062 0.986582
O O2 0.460141 0.763106 0.846519
O O3 0.434691 0.000000 0.946856
O O4 0.500000 0.793665 0.000000
O O5 0.094364 0.716951 0.546777
O O6 0.000000 0.835570 0.500000
O O7 0.008935 0.808275 0.673326
O O8 0.070673 0.000000 0.572330
O O9 0.256756 0.500000 0.355548
O O10 0.200349 0.711549 0.446164
O O11 0.310679 0.746030 0.380029
O O12 0.225044 0.732660 0.274816
O O13 0.687050 0.500000 0.997548
O O14 0.679956 0.663224 0.136977
O O15 0.750000 0.750000 0.000000
O O16 0.829290 0.500000 0.446499
O O17 0.106929 0.789291 0.277010
O O18 0.185209 0.000000 0.274497
O O19 0.547453 0.500000 0.219992
#
# Coordination Sequence:
#
# PCOD9193243 Si02
#       7
#     8   8   8   8   8   8   8
#     4  10  21  38  60  85 114 152 192 233 286 343
#     4  10  20  35  55  79 109 144 181 222 269 323
#     4  10  20  34  53  76 102 138 182 221 266 322
#     4  10  21  38  60  86 115 146 185 234 283 338
#     4  10  21  35  51  74 106 141 178 224 270 315
#     4   9  18  34  56  80 106 138 175 218 270 323
#     4   9  19  35  56  82 110 143 183 224 270 326
#
# _framework density 18.212683999999999
#
# number of rings (size 3 to 8) (size 9 to 14) (size 15 to 20)
#    0.000    2.286    0.000    3.429    0.000    7.714 
#    2.571    0.000    0.000    0.000    0.000    0.000 
#    0.000    0.000    0.000    0.000    0.000    0.000 
#
# Total GULP energy -156077.891006 kJ/mol
# GULP energy per Si atom -5574.210393 kJ/mol
# Density = 1.817123 g / cm^3
# Si number density = 18.212684 Si / 1000 Ang^3
#
#
#
# Elastic Constant Matrix: (Units=GPa)
#
#
# Indices 1 2 3 4 5 6 
#
# 1 81.9993 42.3503 20.9604 0.0000 13.3097 0.0000
# 2 42.3503 60.1346 24.7536 0.0000 10.2618 0.0000
# 3 20.9604 24.7536 36.0214 0.0000 11.9514 0.0000
# 4 0.0000 0.0000 0.0000 28.2829 0.0000 1.1728
# 5 13.3097 10.2618 11.9514 0.0000 27.2504 0.0000
# 6 0.0000 0.0000 0.0000 1.1728 0.0000 29.3408
#
#
#
# Elastic Compliance Matrix: (Units=1/GPa)
#
#
# Indices 1 2 3 4 5 6 
#
# 1 0.019762 -0.012603 -0.001417 0.000000 -0.004285 0.000000
# 2 -0.012603 0.031324 -0.014419 0.000000 0.000684 0.000000
# 3 -0.001417 -0.014419 0.042672 0.000000 -0.012593 0.000000
# 4 0.000000 0.000000 0.000000 0.035416 0.000000 -0.001416
# 5 -0.004285 0.000684 -0.012593 0.000000 0.044055 0.000000
# 6 0.000000 0.000000 0.000000 -0.001416 0.000000 0.034139
#
#
# Mechanical properties :
#
#
# Convention : Reuss Voigt Hill
#
# Bulk Modulus (GPa) = 27.11425 39.36489 33.23957
# Shear Modulus (GPa) = 18.08060 22.98088 20.53074
#
# Velocity S-wave (km/s) = 3.15421 3.55605 3.36114
# Velocity P-wave (km/s) = 5.30898 6.20657 5.77524
#
# Compressibility (1/GPa) = 0.03688098
#
# Stress axis : x y z
#
# Youngs Moduli (GPa) = 50.60196 31.92454 23.43430
#
# Poissons Ratio (x) = 0.40235 0.03320
# Poissons Ratio (y) = 0.63775 0.33789
# Poissons Ratio (z) = 0.07170 0.46031
#
# Static dielectric constant tensor:
#      x y z
#    x 1.667210 0.000000 -0.022880 
#    y 0.000000 1.633340 0.000000 
#    z -0.022880 0.000000 1.618170 
# 
# From -- ./inp_files/231058.got.cif
#   From: 2010.05.17/outbox.cif.g08.bks.cpg/sg12_116_cif.got.tgz:231058.got - 2010.06.03 13:09:07.
