data_PCOD9193102
_publ_section_title
;
Structure prediction by ZEFSAII (Michael W. Deem and Ramdas Pophale) SiO2 
 PCOD9193102
Probable space group: C 2/M
;
_chemical_formula_sum "Si O2"
_cell_formula_units_Z 56
_cell_length_a 22.748434
_cell_length_b 8.715046
_cell_length_c 17.140056
_cell_angle_alpha 90.000000
_cell_angle_beta 126.522335
_cell_angle_gamma 90.000000
_cell_volume 2730.780697
_symmetry_space_group_name_H-M "C 2/M"
_symmetry_group_IT_number 12
_symmetry_cell_setting 'monoclinic'
loop_
_space_group_symop_operation_xyz
x,y,z
-x,y,-z
-x,-y,-z
x,-y,z
1/2+x,1/2+y,z
1/2-x,1/2+y,-z
1/2-x,1/2-y,-z
1/2+x,1/2-y,z
loop_
_atom_site_type_symbol
_atom_site_label
_atom_site_fract_x
_atom_site_fract_y
_atom_site_fract_z
Si Si1 0.579683 0.821113 0.278555
Si Si2 0.798352 0.321038 0.968369
Si Si3 0.155792 0.174250 0.484465
Si Si4 0.798248 0.326996 0.233184
Si Si5 0.036326 0.312838 0.944729
Si Si6 0.782427 0.829652 0.665288
Si Si7 0.924812 0.824111 0.413423
O O1 0.599283 0.730955 0.373747
O O2 0.514683 0.768895 0.169576
O O3 0.654019 0.794807 0.288157
O O4 0.568623 0.000000 0.287928
O O5 0.807557 0.500000 0.992529
O O6 0.746660 0.290014 0.854041
O O7 0.750000 0.250000 0.000000
O O8 0.880095 0.261729 0.009075
O O9 0.222798 0.290087 0.552342
O O10 0.119254 0.168312 0.540673
O O11 0.180166 0.000000 0.487379
O O12 0.797137 0.500000 0.199725
O O13 0.758241 0.329358 0.284823
O O14 0.879787 0.269098 0.314361
O O15 0.037042 0.500000 0.948634
O O16 0.000000 0.263349 0.000000
O O17 0.813981 0.000000 0.679759
O O18 0.000000 0.750029 0.500000
O O19 0.937533 0.000000 0.396314
#
# Coordination Sequence:
#
# PCOD9193102 Si02
#       7
#     8   8   8   8   8   8   8
#     4  11  21  34  55  81 110 144 185 234 287 340
#     4  11  23  41  64  89 120 156 198 247 296 351
#     4  10  20  34  52  77 111 147 183 224 277 341
#     4  10  21  37  58  84 113 148 190 235 287 346
#     4   9  20  39  62  87 114 150 198 247 294 346
#     4  10  20  35  55  81 113 147 186 230 280 343
#     4   9  19  36  57  81 109 144 186 230 279 338
#
# _framework density 20.506957
#
# number of rings (size 3 to 8) (size 9 to 14) (size 15 to 20)
#    0.000    2.000    0.000    3.429    0.000    4.857 
#    0.000    5.714    0.000    5.143    0.000    0.000 
#    0.000    0.000    0.000    0.000    0.000    0.000 
#
# Total GULP energy -156062.957653 kJ/mol
# GULP energy per Si atom -5573.677059 kJ/mol
# Density = 2.046028 g / cm^3
# Si number density = 20.506957 Si / 1000 Ang^3
#
#
#
# Elastic Constant Matrix: (Units=GPa)
#
#
# Indices 1 2 3 4 5 6 
#
# 1 68.2110 12.0436 32.2636 0.0000 10.2963 0.0000
# 2 12.0436 42.7281 11.8608 0.0000 -4.0159 0.0000
# 3 32.2636 11.8608 116.7469 0.0000 15.5925 0.0000
# 4 0.0000 0.0000 0.0000 17.6644 0.0000 0.6444
# 5 10.2963 -4.0159 15.5925 0.0000 37.1402 0.0000
# 6 0.0000 0.0000 0.0000 0.6444 0.0000 19.8365
#
#
#
# Elastic Compliance Matrix: (Units=1/GPa)
#
#
# Indices 1 2 3 4 5 6 
#
# 1 0.017874 -0.004277 -0.004006 0.000000 -0.003736 0.000000
# 2 -0.004277 0.025637 -0.002067 0.000000 0.004826 0.000000
# 3 -0.004006 -0.002067 0.010344 0.000000 -0.003456 0.000000
# 4 0.000000 0.000000 0.000000 0.056678 0.000000 -0.001841
# 5 -0.003736 0.004826 -0.003456 0.000000 0.029933 0.000000
# 6 0.000000 0.000000 0.000000 -0.001841 0.000000 0.050472
#
#
# Mechanical properties :
#
#
# Convention : Reuss Voigt Hill
#
# Bulk Modulus (GPa) = 30.16182 37.78022 33.97102
# Shear Modulus (GPa) = 22.45263 26.36275 24.40769
#
# Velocity S-wave (km/s) = 3.31248 3.58935 3.45369
# Velocity P-wave (km/s) = 5.41942 5.97001 5.70136
#
# Compressibility (1/GPa) = 0.03315450
#
# Stress axis : x y z
#
# Youngs Moduli (GPa) = 55.94582 39.00653 96.67250
#
# Poissons Ratio (x) = 0.16684 0.38729
# Poissons Ratio (y) = 0.23929 0.19982
# Poissons Ratio (z) = 0.22413 0.08063
#
# Static dielectric constant tensor:
#      x y z
#    x 1.791800 0.000000 -0.008810 
#    y 0.000000 1.729070 0.000000 
#    z -0.008810 0.000000 1.732920 
# 
# From -- ./inp_files/288386.got.cif
#   From: 2010.05.17/outbox.cif.g08.bks.cpg/sg12_145_cif.got.tgz:288386.got - 2010.06.03 13:09:07.
