data_PCOD9193311
_publ_section_title
;
Structure prediction by ZEFSAII (Michael W. Deem and Ramdas Pophale) SiO2 
 PCOD9193311
Probable space group: C 2/M
;
_chemical_formula_sum "Si O2"
_cell_formula_units_Z 56
_cell_length_a 28.176169
_cell_length_b 7.589688
_cell_length_c 16.791497
_cell_angle_alpha 90.000000
_cell_angle_beta 140.407468
_cell_angle_gamma 90.000000
_cell_volume 2288.522848
_symmetry_space_group_name_H-M "C 2/M"
_symmetry_group_IT_number 12
_symmetry_cell_setting 'monoclinic'
loop_
_space_group_symop_operation_xyz
x,y,z
-x,y,-z
-x,-y,-z
x,-y,z
1/2+x,1/2+y,z
1/2-x,1/2+y,-z
1/2-x,1/2-y,-z
1/2+x,1/2-y,z
loop_
_atom_site_type_symbol
_atom_site_label
_atom_site_fract_x
_atom_site_fract_y
_atom_site_fract_z
Si Si1 0.194166 0.794081 0.100000
Si Si2 0.632775 0.706792 0.512055
Si Si3 0.056339 0.705137 0.008824
Si Si4 0.072350 0.786118 0.265319
Si Si5 0.363391 0.298115 0.312071
Si Si6 0.283739 0.290978 0.631079
Si Si7 0.661785 0.289099 0.890241
O O1 0.138335 0.780444 0.101685
O O2 0.148034 0.729457 0.962585
O O3 0.212570 0.000000 0.112854
O O4 0.273099 0.698599 0.204525
O O5 0.614123 0.500000 0.491338
O O6 0.594888 0.778389 0.382644
O O7 0.611749 0.783248 0.571396
O O8 0.721807 0.718889 0.611052
O O9 0.065729 0.500000 0.038177
O O10 0.007981 0.728858 0.866449
O O11 0.000000 0.788590 0.000000
O O12 0.132305 0.725001 0.275735
O O13 0.076310 0.000000 0.272188
O O14 0.390795 0.500000 0.345069
O O15 0.375413 0.218880 0.239230
O O16 0.285717 0.500000 0.646216
O O17 0.250000 0.250000 0.500000
O O18 0.649689 0.500000 0.872387
O O19 0.750000 0.250000 0.000000
#
# Coordination Sequence:
#
# PCOD9193311 Si02
#       7
#     8   8   8   8   8   8   8
#     4  10  20  34  53  77 105 136 171 210 253 300
#     4   9  18  31  50  76 104 133 163 202 252 300
#     4  11  25  40  53  71  95 132 177 216 254 300
#     4   9  19  35  51  70  97 131 169 208 250 295
#     4   9  17  31  53  81 111 136 163 203 250 303
#     4   9  17  29  46  69  96 128 165 203 246 294
#     4   8  15  29  50  76 104 134 165 201 249 300
#
# _framework density 24.469932
#
# number of rings (size 3 to 8) (size 9 to 14) (size 15 to 20)
#    0.000    2.714    0.000    2.143    2.000    5.143 
#    0.000    0.000    0.000    0.857    0.000    6.000 
#    0.000    0.000    0.000    0.000    0.000    0.000 
#
# Total GULP energy -156135.342982 kJ/mol
# GULP energy per Si atom -5576.262249 kJ/mol
# Density = 2.441424 g / cm^3
# Si number density = 24.469932 Si / 1000 Ang^3
#
#
#
# Elastic Constant Matrix: (Units=GPa)
#
#
# Indices 1 2 3 4 5 6 
#
# 1 51.3191 -7.7472 8.3419 0.0000 -26.1963 0.0000
# 2 -7.7472 67.2994 -0.8184 0.0000 -7.9962 0.0000
# 3 8.3419 -0.8184 72.6223 0.0000 -22.0407 0.0000
# 4 0.0000 0.0000 0.0000 15.7486 0.0000 -0.3036
# 5 -26.1963 -7.9962 -22.0407 0.0000 49.8366 0.0000
# 6 0.0000 0.0000 0.0000 -0.3036 0.0000 0.0212
#
#
#
# Elastic Compliance Matrix: (Units=1/GPa)
#
#
# Indices 1 2 3 4 5 6 
#
# 1 0.028469 0.005274 0.001834 0.000000 0.016622 0.000020
# 2 0.005274 0.016194 0.001394 0.000001 0.005987 0.000034
# 3 0.001834 0.001394 0.016096 0.000000 0.008306 0.000006
# 4 0.000000 0.000001 0.000000 0.087784 0.000000 1.259898
# 5 0.016622 0.005987 0.008306 0.000000 0.033437 0.000020
# 6 0.000020 0.000034 0.000006 1.259898 0.000020 65.359979
#
#
# Mechanical properties :
#
#
# Convention : Reuss Voigt Hill
#
# Bulk Modulus (GPa) = 12.85953 21.19929 17.02941
# Shear Modulus (GPa) = 0.07628 25.88557 12.98092
#
# Velocity S-wave (km/s) = 0.17675 3.25599 2.30572
# Velocity P-wave (km/s) = 2.30397 4.77677 3.75005
#
# Compressibility (1/GPa) = 0.07776334
#
# Stress axis : x y z
#
# Youngs Moduli (GPa) = 35.12611 61.74957 62.12797
#
# Poissons Ratio (x) = -0.32569 -0.11394
# Poissons Ratio (y) = -0.18527 -0.08659
# Poissons Ratio (z) = -0.06442 -0.08606
#
# Static dielectric constant tensor:
#      x y z
#    x 1.987840 0.000000 -0.078790 
#    y 0.000000 1.951770 0.000000 
#    z -0.078790 0.000000 2.009310 
# 
# From -- ./inp_files/295191.got.cif
#   From: 2010.05.17/outbox.cif.g08.bks.cpg/sg12_148_cif.got.tgz:295191.got - 2010.06.03 13:09:07.
