data_PCOD9193672
_publ_section_title
;
Structure prediction by ZEFSAII (Michael W. Deem and Ramdas Pophale) SiO2 
 PCOD9193672
Probable space group: C 2/M
;
_chemical_formula_sum "Si O2"
_cell_formula_units_Z 64
_cell_length_a 9.458348
_cell_length_b 28.268552
_cell_length_c 18.117908
_cell_angle_alpha 90.000000
_cell_angle_beta 129.600276
_cell_angle_gamma 90.000000
_cell_volume 3732.546946
_symmetry_space_group_name_H-M "C 2/M"
_symmetry_group_IT_number 12
_symmetry_cell_setting 'monoclinic'
loop_
_space_group_symop_operation_xyz
x,y,z
-x,y,-z
-x,-y,-z
x,-y,z
1/2+x,1/2+y,z
1/2-x,1/2+y,-z
1/2-x,1/2-y,-z
1/2+x,1/2-y,z
loop_
_atom_site_type_symbol
_atom_site_label
_atom_site_fract_x
_atom_site_fract_y
_atom_site_fract_z
Si Si1 0.603325 0.700311 0.730087
Si Si2 0.483620 0.791618 0.119407
Si Si3 0.588335 0.316818 0.946462
Si Si4 0.362653 0.637000 0.753626
Si Si5 0.957187 0.051518 0.398528
Si Si6 0.028141 0.691870 0.712540
Si Si7 0.173469 0.854230 0.609899
Si Si8 0.296525 0.056132 0.400765
O O1 0.806235 0.699850 0.834791
O O2 0.470700 0.663271 0.724375
O O3 0.518209 0.752185 0.699099
O O4 0.638213 0.685231 0.658554
O O5 0.462866 0.734465 0.106724
O O6 0.460794 0.811285 0.194924
O O7 0.309731 0.814835 0.021221
O O8 0.504604 0.359523 0.870043
O O9 0.500000 0.316958 0.000000
O O10 0.201155 0.670514 0.729186
O O11 0.275243 0.589166 0.690440
O O12 0.818343 0.095206 0.346288
O O13 0.000000 0.048139 0.500000
O O14 0.143457 0.061157 0.414761
O O15 0.886716 0.000000 0.350959
O O16 0.855366 0.661321 0.629137
O O17 0.000000 0.856099 0.500000
O O18 0.500000 0.068756 0.500000
O O19 0.302774 0.000000 0.383111
#
# Coordination Sequence:
#
# PCOD9193672 Si02
#       8
#     8   8   8   8   8   8   8   8
#     4  11  20  37  52  78 116 155 194 236 274 336
#     4  10  20  34  54  78 114 155 195 239 275 328
#     4  11  20  33  56  86 116 153 200 239 286 336
#     4  12  22  34  58  88 115 153 190 242 299 336
#     4   9  18  36  60  82 102 133 180 237 289 334
#     4  11  21  36  52  77 119 152 196 237 273 341
#     4  10  22  36  52  76 107 151 192 231 285 343
#     4  10  23  42  63  89 114 144 193 248 298 349
#
# _framework density 17.146467999999999
#
# number of rings (size 3 to 8) (size 9 to 14) (size 15 to 20)
#    0.000    1.500    5.000    0.750    5.250    0.500 
#    0.000    1.250    0.000    0.375    0.000    2.625 
#    0.000    0.000    0.000    0.000    0.000    0.000 
#
# Total GULP energy -178201.643721 kJ/mol
# GULP energy per Si atom -5568.801366 kJ/mol
# Density = 1.710744 g / cm^3
# Si number density = 17.146468 Si / 1000 Ang^3
#
#
#
# Elastic Constant Matrix: (Units=GPa)
#
#
# Indices 1 2 3 4 5 6 
#
# 1 56.1833 15.0823 17.6754 0.0000 14.4325 0.0000
# 2 15.0823 78.3828 47.2065 0.0000 20.4071 0.0000
# 3 17.6754 47.2065 79.1344 0.0000 14.1922 0.0000
# 4 0.0000 0.0000 0.0000 20.2981 0.0000 -2.7033
# 5 14.4325 20.4071 14.1922 0.0000 30.4891 0.0000
# 6 0.0000 0.0000 0.0000 -2.7033 0.0000 10.2073
#
#
#
# Elastic Compliance Matrix: (Units=1/GPa)
#
#
# Indices 1 2 3 4 5 6 
#
# 1 0.020967 0.000128 -0.003234 0.000000 -0.008505 0.000000
# 2 0.000128 0.022164 -0.011542 0.000000 -0.009523 0.000000
# 3 -0.003234 -0.011542 0.020277 0.000000 -0.000182 0.000000
# 4 0.000000 0.000000 0.000000 0.051067 0.000000 0.013525
# 5 -0.008505 -0.009523 -0.000182 0.000000 0.043283 0.000000
# 6 0.000000 0.000000 0.000000 0.013525 0.000000 0.101551
#
#
# Mechanical properties :
#
#
# Convention : Reuss Voigt Hill
#
# Bulk Modulus (GPa) = 29.31640 41.51431 35.41535
# Shear Modulus (GPa) = 16.66797 21.11466 18.89131
#
# Velocity S-wave (km/s) = 3.12122 3.51298 3.32288
# Velocity P-wave (km/s) = 5.48855 6.38113 5.95160
#
# Compressibility (1/GPa) = 0.03411061
#
# Stress axis : x y z
#
# Youngs Moduli (GPa) = 47.69443 45.11823 49.31657
#
# Poissons Ratio (x) = -0.00575 0.15948
# Poissons Ratio (y) = -0.00608 0.56923
# Poissons Ratio (z) = 0.15424 0.52077
#
# Static dielectric constant tensor:
#      x y z
#    x 1.619710 0.000000 0.017550 
#    y 0.000000 1.608270 0.000000 
#    z 0.017550 0.000000 1.636740 
# 
# From -- ./inp_files/302665.got.cif
#   From: 2010.05.17/outbox.cif.g08.bks.cpg/sg12_152_cif.got.tgz:302665.got - 2010.06.03 13:09:07.
