data_PCOD9193260
_publ_section_title
;
Structure prediction by ZEFSAII (Michael W. Deem and Ramdas Pophale) SiO2 
 PCOD9193260
Probable space group: C 2/M
;
_chemical_formula_sum "Si O2"
_cell_formula_units_Z 56
_cell_length_a 8.626591
_cell_length_b 20.945067
_cell_length_c 19.377912
_cell_angle_alpha 90.000000
_cell_angle_beta 51.033654
_cell_angle_gamma 90.000000
_cell_volume 2722.306260
_symmetry_space_group_name_H-M "C 2/M"
_symmetry_group_IT_number 12
_symmetry_cell_setting 'monoclinic'
loop_
_space_group_symop_operation_xyz
x,y,z
-x,y,-z
-x,-y,-z
x,-y,z
1/2+x,1/2+y,z
1/2-x,1/2+y,-z
1/2-x,1/2-y,-z
1/2+x,1/2-y,z
loop_
_atom_site_type_symbol
_atom_site_label
_atom_site_fract_x
_atom_site_fract_y
_atom_site_fract_z
Si Si1 0.346601 0.072040 0.794033
Si Si2 0.941401 0.336983 0.445623
Si Si3 0.716597 0.163201 0.651385
Si Si4 0.579109 0.262065 0.800750
Si Si5 0.210629 0.185077 0.905848
Si Si6 0.630788 0.612152 0.723224
Si Si7 0.420575 0.425984 0.413758
O O1 0.541563 0.111775 0.716347
O O2 0.257592 0.110547 0.883595
O O3 0.184132 0.073526 0.777355
O O4 0.401493 0.000000 0.794095
O O5 0.500000 0.198879 0.500000
O O6 0.833406 0.306808 0.409595
O O7 0.795386 0.395963 0.507029
O O8 0.153202 0.361322 0.359709
O O9 0.700262 0.216893 0.714800
O O10 0.917817 0.122201 0.599098
O O11 0.397027 0.222645 0.884261
O O12 0.706980 0.289127 0.827923
O O13 0.507386 0.325114 0.779649
O O14 0.000000 0.195712 0.000000
O O15 0.551217 0.577904 0.677400
O O16 0.436366 0.500000 0.431056
#
# Coordination Sequence:
#
# PCOD9193260 Si02
#       7
#     8   8   8   8   8   8   8
#     4   9  18  33  53  76 105 141 176 211 255 309
#     4   9  20  35  48  70 100 136 178 216 259 299
#     4  10  20  34  53  76 103 139 178 219 262 306
#     4  10  20  37  57  77 105 136 175 214 256 316
#     4  10  20  34  56  83 108 135 167 211 263 314
#     4   9  19  35  53  73  99 140 182 217 257 306
#     4  11  21  32  50  77 106 136 177 225 267 303
#
# _framework density 20.570792999999998
#
# number of rings (size 3 to 8) (size 9 to 14) (size 15 to 20)
#    0.000    2.286    0.000    3.429    0.000    6.286 
#    0.000    7.857    0.000    0.000    0.000    0.000 
#    0.000   20.571    0.000    0.000    0.000    0.000 
#
# Total GULP energy -156166.771657 kJ/mol
# GULP energy per Si atom -5577.384702 kJ/mol
# Density = 2.052397 g / cm^3
# Si number density = 20.570793 Si / 1000 Ang^3
#
#
#
# Elastic Constant Matrix: (Units=GPa)
#
#
# Indices 1 2 3 4 5 6 
#
# 1 64.3090 15.4297 8.0526 0.0000 1.3319 0.0000
# 2 15.4297 99.0309 25.5900 0.0000 0.3535 0.0000
# 3 8.0526 25.5900 56.4581 0.0000 -9.4957 0.0000
# 4 0.0000 0.0000 0.0000 12.8010 0.0000 0.6665
# 5 1.3319 0.3535 -9.4957 0.0000 24.5394 0.0000
# 6 0.0000 0.0000 0.0000 0.6665 0.0000 15.9976
#
#
#
# Elastic Compliance Matrix: (Units=1/GPa)
#
#
# Indices 1 2 3 4 5 6 
#
# 1 0.016290 -0.002116 -0.001613 0.000000 -0.001478 0.000000
# 2 -0.002116 0.011837 -0.005426 0.000000 -0.002155 0.000000
# 3 -0.001613 -0.005426 0.021852 0.000000 0.008621 0.000000
# 4 0.000000 0.000000 0.000000 0.078288 0.000000 -0.003262
# 5 -0.001478 -0.002155 0.008621 0.000000 0.044198 0.000000
# 6 0.000000 0.000000 0.000000 -0.003262 0.000000 0.062645
#
#
# Mechanical properties :
#
#
# Convention : Reuss Voigt Hill
#
# Bulk Modulus (GPa) = 31.57637 35.32697 33.45167
# Shear Modulus (GPa) = 18.94098 22.04931 20.49514
#
# Velocity S-wave (km/s) = 3.03771 3.27750 3.15988
# Velocity P-wave (km/s) = 5.26185 5.61545 5.44152
#
# Compressibility (1/GPa) = 0.03166925
#
# Stress axis : x y z
#
# Youngs Moduli (GPa) = 61.38660 84.47825 45.76298
#
# Poissons Ratio (x) = 0.17876 0.07381
# Poissons Ratio (y) = 0.12990 0.24831
# Poissons Ratio (z) = 0.09901 0.45838
#
# Static dielectric constant tensor:
#      x y z
#    x 1.776570 0.000000 0.042050 
#    y 0.000000 1.739820 0.000000 
#    z 0.042050 0.000000 1.733760 
# 
# From -- ./inp_files/301625.got.cif
#   From: 2010.05.17/outbox.cif.g08.bks.cpg/sg12_151_cif.got.tgz:301625.got - 2010.06.03 13:09:07.
