data_PCOD9193597
_publ_section_title
;
Structure prediction by ZEFSAII (Michael W. Deem and Ramdas Pophale) SiO2 
 PCOD9193597
Probable space group: C 2/M
;
_chemical_formula_sum "Si O2"
_cell_formula_units_Z 44
_cell_length_a 9.740723
_cell_length_b 8.144292
_cell_length_c 30.439417
_cell_angle_alpha 90.000000
_cell_angle_beta 51.068603
_cell_angle_gamma 90.000000
_cell_volume 1878.468982
_symmetry_space_group_name_H-M "C 2/M"
_symmetry_group_IT_number 12
_symmetry_cell_setting 'monoclinic'
loop_
_space_group_symop_operation_xyz
x,y,z
-x,y,-z
-x,-y,-z
x,-y,z
1/2+x,1/2+y,z
1/2-x,1/2+y,-z
1/2-x,1/2-y,-z
1/2+x,1/2-y,z
loop_
_atom_site_type_symbol
_atom_site_label
_atom_site_fract_x
_atom_site_fract_y
_atom_site_fract_z
Si Si1 0.000000 0.713221 0.500000
Si Si2 0.808404 0.304975 0.874513
Si Si3 0.244445 0.799347 0.698925
Si Si4 0.907548 0.681222 0.415651
Si Si5 0.568814 0.197518 0.058981
Si Si6 0.633843 0.195238 0.234186
O O1 0.044923 0.668662 0.542112
O O2 0.207210 0.761181 0.449402
O O3 0.839045 0.500000 0.866122
O O4 0.604971 0.272509 0.927393
O O5 0.923763 0.241646 0.891770
O O6 0.836924 0.232270 0.820219
O O7 0.424576 0.734259 0.640581
O O8 0.248082 0.745000 0.749215
O O9 0.068710 0.730458 0.712695
O O10 0.237508 0.000000 0.697650
O O11 0.905961 0.500000 0.396564
O O12 0.556081 0.000000 0.060418
O O13 0.750000 0.250000 0.000000
O O14 0.661162 0.000000 0.226281
#
# Coordination Sequence:
#
# PCOD9193597 Si02
#       6
#     4   8   8   8   8   8
#     4  10  20  34  54  76 104 142 180 218 270 324
#     4  10  22  39  58  82 113 145 182 228 273 323
#     4  10  21  36  56  82 111 142 181 227 273 325
#     4  10  20  35  53  77 107 139 178 223 269 320
#     4  11  23  38  58  84 113 147 186 226 272 325
#     4  10  21  38  58  82 111 144 182 225 274 326
#
# _framework density 23.42333
#
# number of rings (size 3 to 8) (size 9 to 14) (size 15 to 20)
#    0.000    1.818    0.000    3.818    0.000    5.091 
#    0.000    4.545    0.000    0.000    0.000    0.000 
#    0.000    0.000    0.000    0.000    0.000    0.000 
#
# Total GULP energy -122496.930648 kJ/mol
# GULP energy per Si atom -5568.042302 kJ/mol
# Density = 2.337002 g / cm^3
# Si number density = 23.423330 Si / 1000 Ang^3
#
#
#
# Elastic Constant Matrix: (Units=GPa)
#
#
# Indices 1 2 3 4 5 6 
#
# 1 128.0523 3.3609 -13.9133 0.0000 -3.7239 0.0000
# 2 3.3609 -28.5274 -0.6181 0.0000 17.8467 0.0000
# 3 -13.9133 -0.6181 64.8003 0.0000 -4.2662 0.0000
# 4 0.0000 0.0000 0.0000 22.2958 0.0000 -5.9478
# 5 -3.7239 17.8467 -4.2662 0.0000 40.1519 0.0000
# 6 0.0000 0.0000 0.0000 -5.9478 0.0000 9.6108
#
#
#
# Elastic Compliance Matrix: (Units=1/GPa)
#
#
# Indices 1 2 3 4 5 6 
#
# 1 0.007981 0.001159 0.001752 0.000000 0.000411 0.000000
# 2 0.001159 -0.027240 0.000799 0.000000 0.012300 0.000000
# 3 0.001752 0.000799 0.015914 0.000000 0.001498 0.000000
# 4 0.000000 0.000000 0.000000 0.053720 0.000000 0.033246
# 5 0.000411 0.012300 0.001498 0.000000 0.019636 0.000000
# 6 0.000000 0.000000 0.000000 0.033246 0.000000 0.124624
#
#
# Mechanical properties :
#
#
# Convention : Reuss Voigt Hill
#
# Bulk Modulus (GPa) = 245.34194 15.77601 130.55897
# Shear Modulus (GPa) = 26.51473 26.11141 26.31307
#
# Velocity S-wave (km/s) = 3.36814 3.34243 3.35531
# Velocity P-wave (km/s) = 10.95882 4.65248 8.41847
#
# Compressibility (1/GPa) = 0.00407594
#
# Stress axis : x y z
#
# Youngs Moduli (GPa) = 125.29496 -36.71093 62.83616
#
# Poissons Ratio (x) = 0.04256 -0.11007
# Poissons Ratio (y) = -0.14527 -0.05020
# Poissons Ratio (z) = -0.21949 0.02933
#
# Static dielectric constant tensor:
#      x y z
#    x 1.839900 0.000000 -0.002910 
#    y 0.000000 1.821050 0.000000 
#    z -0.002910 0.000000 1.978910 
# 
# From -- ./inp_files/371787.got.cif
#   From: 2010.05.17/outbox.cif.g08.bks.cpg/sg12_186_cif.got.tgz:371787.got - 2010.06.03 13:09:07.
