data_PCOD9193464
_publ_section_title
;
Structure prediction by ZEFSAII (Michael W. Deem and Ramdas Pophale) SiO2 
 PCOD9193464
Probable space group: C 2/M
;
_chemical_formula_sum "Si O2"
_cell_formula_units_Z 64
_cell_length_a 19.562195
_cell_length_b 7.947316
_cell_length_c 19.294103
_cell_angle_alpha 90.000000
_cell_angle_beta 84.216883
_cell_angle_gamma 90.000000
_cell_volume 2984.328646
_symmetry_space_group_name_H-M "C 2/M"
_symmetry_group_IT_number 12
_symmetry_cell_setting 'monoclinic'
loop_
_space_group_symop_operation_xyz
x,y,z
-x,y,-z
-x,-y,-z
x,-y,z
1/2+x,1/2+y,z
1/2-x,1/2+y,-z
1/2-x,1/2-y,-z
1/2+x,1/2-y,z
loop_
_atom_site_type_symbol
_atom_site_label
_atom_site_fract_x
_atom_site_fract_y
_atom_site_fract_z
Si Si1 0.635887 0.310574 0.655744
Si Si2 0.538581 0.810885 0.777898
Si Si3 0.747686 0.299877 0.259596
Si Si4 0.993782 0.797929 0.919895
Si Si5 0.790647 0.703442 0.104765
Si Si6 0.153073 0.798781 0.041319
Si Si7 0.409555 0.295600 0.709494
Si Si8 0.487511 0.705539 0.422939
O O1 0.652565 0.500000 0.632725
O O2 0.585681 0.309393 0.727724
O O3 0.705415 0.230773 0.677861
O O4 0.585089 0.234447 0.602553
O O5 0.543077 0.784967 0.859158
O O6 0.460760 0.775623 0.762264
O O7 0.559623 0.000000 0.757754
O O8 0.741977 0.500000 0.251052
O O9 0.785219 0.237427 0.184982
O O10 0.669243 0.237389 0.275855
O O11 0.915727 0.739379 0.915015
O O12 0.999454 0.000000 0.910342
O O13 0.000000 0.760868 0.000000
O O14 0.793308 0.500000 0.105052
O O15 0.719780 0.763052 0.074973
O O16 0.844843 0.760177 0.040933
O O17 0.153319 0.000000 0.047005
O O18 0.410179 0.500000 0.714774
O O19 0.449120 0.249177 0.634076
O O20 0.500000 0.760764 0.500000
O O21 0.484299 0.500000 0.422491
#
# Coordination Sequence:
#
# PCOD9193464 Si02
#       8
#     8   8   8   8   8   8   8   8
#     4  10  21  36  56  81 111 146 183 224 273 329
#     4  11  22  36  55  78 107 141 183 233 277 327
#     4  10  20  34  53  79 111 144 180 224 274 324
#     4  10  21  35  51  71  98 134 178 225 275 328
#     4   9  18  31  48  67  94 131 168 213 264 317
#     4   9  18  33  49  68  93 126 172 218 264 320
#     4   9  18  35  59  83 110 146 183 220 267 325
#     4   8  15  32  59  86 109 142 187 225 260 314
#
# _framework density 21.445360999999998
#
# number of rings (size 3 to 8) (size 9 to 14) (size 15 to 20)
#    0.000    2.500    0.000    3.000    1.750    3.750 
#    0.000    3.125    0.000    9.375    0.000    0.000 
#    0.000    0.000    0.000    0.000    0.000    0.000 
#
# Total GULP energy -178479.889258 kJ/mol
# GULP energy per Si atom -5577.496539 kJ/mol
# Density = 2.139655 g / cm^3
# Si number density = 21.445361 Si / 1000 Ang^3
#
#
#
# Elastic Constant Matrix: (Units=GPa)
#
#
# Indices 1 2 3 4 5 6 
#
# 1 66.7750 -3.7854 10.7102 0.0000 12.4994 0.0000
# 2 -3.7854 15.2043 9.3493 0.0000 1.1791 0.0000
# 3 10.7102 9.3493 85.9609 0.0000 7.1821 0.0000
# 4 0.0000 0.0000 0.0000 14.9174 0.0000 4.7126
# 5 12.4994 1.1791 7.1821 0.0000 24.3903 0.0000
# 6 0.0000 0.0000 0.0000 4.7126 0.0000 14.3708
#
#
#
# Elastic Compliance Matrix: (Units=1/GPa)
#
#
# Indices 1 2 3 4 5 6 
#
# 1 0.017267 0.006264 -0.002120 0.000000 -0.008527 0.000000
# 2 0.006264 0.072790 -0.008340 0.000000 -0.004273 0.000000
# 3 -0.002120 -0.008340 0.013000 0.000000 -0.002338 0.000000
# 4 0.000000 0.000000 0.000000 0.074783 0.000000 -0.024524
# 5 -0.008527 -0.004273 -0.002338 0.000000 0.046265 0.000000
# 6 0.000000 0.000000 0.000000 -0.024524 0.000000 0.077628
#
#
# Mechanical properties :
#
#
# Convention : Reuss Voigt Hill
#
# Bulk Modulus (GPa) = 10.56364 22.27649 16.42007
# Shear Modulus (GPa) = 14.63353 20.84675 17.74014
#
# Velocity S-wave (km/s) = 2.61504 3.12121 2.87927
# Velocity P-wave (km/s) = 3.74893 4.83729 4.32746
#
# Compressibility (1/GPa) = 0.09466430
#
# Stress axis : x y z
#
# Youngs Moduli (GPa) = 57.91381 13.73808 76.92411
#
# Poissons Ratio (x) = -0.08605 0.16309
# Poissons Ratio (y) = -0.36277 0.64157
# Poissons Ratio (z) = 0.12279 0.11458
#
# Static dielectric constant tensor:
#      x y z
#    x 1.828300 0.000000 0.029920 
#    y 0.000000 1.768750 0.000000 
#    z 0.029920 0.000000 1.783380 
# 
# From -- ./inp_files/281220.got.cif
#   From: 2010.05.17/outbox.cif.g08.bks.cpg/sg12_141_cif.got.tgz:281220.got - 2010.06.03 13:09:07.
