data_PCOD9193722
_publ_section_title
;
Structure prediction by ZEFSAII (Michael W. Deem and Ramdas Pophale) SiO2 
 PCOD9193722
Probable space group: C 2/M
;
_chemical_formula_sum "Si O2"
_cell_formula_units_Z 64
_cell_length_a 31.684793
_cell_length_b 7.822561
_cell_length_c 23.401172
_cell_angle_alpha 90.000000
_cell_angle_beta 30.421078
_cell_angle_gamma 90.000000
_cell_volume 2936.899874
_symmetry_space_group_name_H-M "C 2/M"
_symmetry_group_IT_number 12
_symmetry_cell_setting 'monoclinic'
loop_
_space_group_symop_operation_xyz
x,y,z
-x,y,-z
-x,-y,-z
x,-y,z
1/2+x,1/2+y,z
1/2-x,1/2+y,-z
1/2-x,1/2-y,-z
1/2+x,1/2-y,z
loop_
_atom_site_type_symbol
_atom_site_label
_atom_site_fract_x
_atom_site_fract_y
_atom_site_fract_z
Si Si1 0.589509 0.689380 0.057884
Si Si2 0.935351 0.699224 0.307554
Si Si3 0.718620 0.707198 0.358705
Si Si4 0.574290 0.792663 0.369773
Si Si5 0.465727 0.302681 0.098507
Si Si6 0.181777 0.694476 0.654020
Si Si7 0.259142 0.802108 0.188790
Si Si8 0.038381 0.294808 0.597301
O O1 0.588517 0.500000 0.084072
O O2 0.682443 0.733423 0.930029
O O3 0.526078 0.794422 0.171421
O O4 0.541694 0.689842 0.053427
O O5 0.912977 0.500000 0.339541
O O6 0.946855 0.777323 0.356580
O O7 0.862553 0.773486 0.350648
O O8 0.726030 0.500000 0.351913
O O9 0.747948 0.774865 0.387021
O O10 0.766228 0.769888 0.245805
O O11 0.622416 0.755466 0.464638
O O12 0.500000 0.746411 0.500000
O O13 0.663052 0.718807 0.283407
O O14 0.540984 0.736485 0.346363
O O15 0.581714 0.000000 0.362194
O O16 0.436397 0.500000 0.124199
O O17 0.394182 0.195648 0.211969
O O18 0.500000 0.231015 0.000000
O O19 0.206661 0.500000 0.611111
O O20 0.281598 0.000000 0.167538
O O21 0.030352 0.500000 0.611488
#
# Coordination Sequence:
#
# PCOD9193722 Si02
#       8
#     8   8   8   8   8   8   8   8
#     4  10  20  34  54  79 108 143 181 221 267 316
#     4   9  19  37  57  77 107 145 185 222 260 313
#     4  10  21  34  51  80 114 144 178 220 267 318
#     4  10  20  37  59  82 108 137 174 221 275 326
#     4   9  17  29  46  71 102 137 178 222 264 307
#     4   9  18  32  49  72 105 144 179 214 258 309
#     4  11  22  35  55  83 113 142 176 220 270 322
#     4  10  21  37  58  81 105 140 181 223 271 321
#
# _framework density 21.791685000000001
#
# number of rings (size 3 to 8) (size 9 to 14) (size 15 to 20)
#    0.000    2.250    1.250    1.500    0.000    3.500 
#    0.000    0.625    0.000    0.000    0.000    0.000 
#    0.000    0.000    0.000    0.000    0.000    0.000 
#
# Total GULP energy -178394.250595 kJ/mol
# GULP energy per Si atom -5574.820331 kJ/mol
# Density = 2.174209 g / cm^3
# Si number density = 21.791685 Si / 1000 Ang^3
#
#
#
# Elastic Constant Matrix: (Units=GPa)
#
#
# Indices 1 2 3 4 5 6 
#
# 1 109.7134 2.9583 11.1464 -0.0069 3.2520 -0.0008
# 2 2.9583 28.6540 -10.9805 -0.0379 0.2179 0.0152
# 3 11.1464 -10.9805 48.4105 -0.0167 -7.6358 0.0122
# 4 -0.0069 -0.0379 -0.0167 19.5974 0.0127 -1.8834
# 5 3.2520 0.2179 -7.6358 0.0127 27.3274 -0.0029
# 6 -0.0008 0.0152 0.0122 -1.8834 -0.0029 12.0248
#
#
#
# Elastic Compliance Matrix: (Units=1/GPa)
#
#
# Indices 1 2 3 4 5 6 
#
# 1 0.009532 -0.002112 -0.002981 -0.000001 -0.001951 0.000006
# 2 -0.002112 0.038818 0.009710 0.000077 0.002655 -0.000046
# 3 -0.002981 0.009710 0.024677 0.000031 0.007173 -0.000031
# 4 -0.000001 0.000077 0.000031 0.051807 -0.000015 0.008114
# 5 -0.001951 0.002655 0.007173 -0.000015 0.038808 -0.000004
# 6 0.000006 -0.000046 -0.000031 0.008114 -0.000004 0.084432
#
#
# Mechanical properties :
#
#
# Convention : Reuss Voigt Hill
#
# Bulk Modulus (GPa) = 12.15654 21.44736 16.80195
# Shear Modulus (GPa) = 18.77848 24.03351 21.40600
#
# Velocity S-wave (km/s) = 2.93870 3.32456 3.13757
# Velocity P-wave (km/s) = 4.13585 4.95987 4.56648
#
# Compressibility (1/GPa) = 0.08226023
#
# Stress axis : x y z
#
# Youngs Moduli (GPa) = 104.90623 25.76120 40.52373
#
# Poissons Ratio (x) = 0.05440 0.12082
# Poissons Ratio (y) = 0.22155 -0.39348
# Poissons Ratio (z) = 0.31278 -0.25014
#
# Static dielectric constant tensor:
#      x y z
#    x 1.853080 0.000000 0.007490 
#    y 0.000000 1.844430 0.000020 
#    z 0.007490 0.000020 1.809790 
# 
# From -- ./inp_files/353342.got.cif
#   From: 2010.05.17/outbox.cif.g08.bks.cpg/sg12_177_cif.got.tgz:353342.got - 2010.06.03 13:09:07.
