data_PCOD9193957
_publ_section_title
;
Structure prediction by ZEFSAII (Michael W. Deem and Ramdas Pophale) SiO2 
 PCOD9193957
Probable space group: C 2/M
;
_chemical_formula_sum "Si O2"
_cell_formula_units_Z 58
_cell_length_a 22.526304
_cell_length_b 9.246509
_cell_length_c 24.754377
_cell_angle_alpha 90.000000
_cell_angle_beta 36.152027
_cell_angle_gamma 90.000000
_cell_volume 3041.725900
_symmetry_space_group_name_H-M "C 2/M"
_symmetry_group_IT_number 12
_symmetry_cell_setting 'monoclinic'
loop_
_space_group_symop_operation_xyz
x,y,z
-x,y,-z
-x,-y,-z
x,-y,z
1/2+x,1/2+y,z
1/2-x,1/2+y,-z
1/2-x,1/2-y,-z
1/2+x,1/2-y,z
loop_
_atom_site_type_symbol
_atom_site_label
_atom_site_fract_x
_atom_site_fract_y
_atom_site_fract_z
Si Si1 0.645647 0.667105 0.568878
Si Si2 0.000000 0.500000 0.500000
Si Si3 0.236352 0.174169 0.212315
Si Si4 0.886553 0.827705 0.176369
Si Si5 0.150004 0.339724 0.076166
Si Si6 0.417681 0.834690 0.998167
Si Si7 0.031954 0.837397 0.765238
Si Si8 0.974286 0.338574 0.631166
O O1 0.659549 0.500000 0.541023
O O2 0.750000 0.750000 0.500000
O O3 0.598017 0.663675 0.663638
O O4 0.568526 0.751437 0.586427
O O5 0.011413 0.375814 0.443027
O O6 0.290257 0.241586 0.225472
O O7 0.128840 0.250152 0.283466
O O8 0.226012 0.000000 0.222791
O O9 0.318837 0.207467 0.104747
O O10 0.907204 0.800750 0.224799
O O11 0.984502 0.767433 0.072431
O O12 0.874544 0.000000 0.177116
O O13 0.170620 0.500000 0.080353
O O14 0.110976 0.340249 0.043504
O O15 0.061991 0.266157 0.174273
O O16 0.250000 0.250000 0.000000
O O17 0.443999 0.000000 0.993691
O O18 0.991983 0.000000 0.803944
O O19 0.967944 0.500000 0.661599
#
# Coordination Sequence:
#
# PCOD9193957 Si02
#       8
#     8   2   8   8   8   8   8   8
#     4  11  24  44  69 100 131 166 212 269 331 391
#     4   8  24  48  70  88 130 168 198 274 338 396
#     4  11  22  37  60  92 126 167 212 261 317 376
#     4  10  20  36  57  88 126 170 219 256 307 370
#     4  10  20  34  54  83 119 164 212 253 310 374
#     4   9  20  36  53  79 124 171 207 258 308 363
#     4   9  21  40  60  85 124 166 205 259 317 377
#     4  10  23  45  68  93 123 161 209 258 326 389
#
# _framework density 19.068121999999999
#
# number of rings (size 3 to 8) (size 9 to 14) (size 15 to 20)
#    0.414    1.655    0.000    2.483    1.931    6.069 
#    2.483    2.759    0.000    0.000    0.000    0.000 
#    0.000    0.000    0.000    0.000    0.000    0.000 
#
# Total GULP energy -161472.079050 kJ/mol
# GULP energy per Si atom -5568.002726 kJ/mol
# Density = 1.902472 g / cm^3
# Si number density = 19.068122 Si / 1000 Ang^3
#
#
#
# Elastic Constant Matrix: (Units=GPa)
#
#
# Indices 1 2 3 4 5 6 
#
# 1 64.0269 46.3642 47.6255 -0.0001 -18.9888 0.0001
# 2 46.3642 132.4679 61.4489 0.0000 -32.6861 0.0001
# 3 47.6255 61.4489 80.7284 0.0000 -18.3586 0.0000
# 4 -0.0001 0.0000 0.0000 35.5670 0.0000 -3.8806
# 5 -18.9888 -32.6861 -18.3586 0.0000 40.3657 0.0000
# 6 0.0001 0.0001 0.0000 -3.8806 0.0000 29.3551
#
#
#
# Elastic Compliance Matrix: (Units=1/GPa)
#
#
# Indices 1 2 3 4 5 6 
#
# 1 0.029732 -0.002305 -0.014532 0.000000 0.005510 0.000000
# 2 -0.002305 0.013333 -0.007339 0.000000 0.006374 0.000000
# 3 -0.014532 -0.007339 0.026368 0.000000 -0.000787 0.000000
# 4 0.000000 0.000000 0.000000 0.028527 0.000000 0.003771
# 5 0.005510 0.006374 -0.000787 0.000000 0.032169 0.000000
# 6 0.000000 0.000000 0.000000 0.003771 0.000000 0.034564
#
#
# Mechanical properties :
#
#
# Convention : Reuss Voigt Hill
#
# Bulk Modulus (GPa) = 47.44060 65.34452 56.39256
# Shear Modulus (GPa) = 22.71962 29.17652 25.94807
#
# Velocity S-wave (km/s) = 3.45555 3.91592 3.69292
# Velocity P-wave (km/s) = 6.39177 7.40198 6.91534
#
# Compressibility (1/GPa) = 0.02107899
#
# Stress axis : x y z
#
# Youngs Moduli (GPa) = 33.63426 75.00023 37.92459
#
# Poissons Ratio (x) = 0.17290 0.55113
# Poissons Ratio (y) = 0.07754 0.27835
# Poissons Ratio (z) = 0.48878 0.55046
#
# Static dielectric constant tensor:
#      x y z
#    x 1.648850 0.000000 0.014930 
#    y 0.000000 1.679910 0.000000 
#    z 0.014930 0.000000 1.638680 
# 
# From -- ./inp_files/367533.got.cif
#   From: 2010.05.17/outbox.cif.g08.bks.cpg/sg12_184_cif.got.tgz:367533.got - 2010.06.03 13:09:07.
