data_PCOD9193074
_publ_section_title
;
Structure prediction by ZEFSAII (Michael W. Deem and Ramdas Pophale) SiO2 
 PCOD9193074
Probable space group: C 2/M
;
_chemical_formula_sum "Si O2"
_cell_formula_units_Z 48
_cell_length_a 8.453827
_cell_length_b 22.663527
_cell_length_c 11.941503
_cell_angle_alpha 90.000000
_cell_angle_beta 116.117026
_cell_angle_gamma 90.000000
_cell_volume 2054.311378
_symmetry_space_group_name_H-M "C 2/M"
_symmetry_group_IT_number 12
_symmetry_cell_setting 'monoclinic'
loop_
_space_group_symop_operation_xyz
x,y,z
-x,y,-z
-x,-y,-z
x,-y,z
1/2+x,1/2+y,z
1/2-x,1/2+y,-z
1/2-x,1/2-y,-z
1/2+x,1/2-y,z
loop_
_atom_site_type_symbol
_atom_site_label
_atom_site_fract_x
_atom_site_fract_y
_atom_site_fract_z
Si Si1 0.807824 0.434378 0.957666
Si Si2 0.626131 0.564458 0.658704
Si Si3 0.023567 0.310498 0.744814
Si Si4 0.171713 0.174981 0.991054
Si Si5 0.978825 0.434373 0.626956
Si Si6 0.627895 0.689041 0.711453
O O1 0.834780 0.500000 0.009594
O O2 0.725745 0.437178 0.808954
O O3 0.692325 0.395780 0.003571
O O4 0.000000 0.405876 0.000000
O O5 0.533169 0.500000 0.624361
O O6 0.534313 0.629023 0.637033
O O7 0.776780 0.566263 0.610021
O O8 0.062613 0.374733 0.703815
O O9 0.046550 0.253937 0.670950
O O10 0.823010 0.310965 0.721971
O O11 0.156190 0.302416 0.891159
O O12 0.150353 0.183102 0.852329
O O13 0.000000 0.197137 0.000000
O O14 0.047287 0.500000 0.682526
O O15 0.000000 0.431076 0.500000
#
# Coordination Sequence:
#
# PCOD9193074 Si02
#       6
#     8   8   8   8   8   8
#     4   9  16  28  47  71 102 140 181 222 268 326
#     4   8  15  29  49  71  96 131 172 213 259 313
#     4  11  21  35  54  78 111 147 184 226 275 329
#     4  11  21  32  49  76 111 148 185 224 271 327
#     4   9  18  34  57  83 107 136 181 233 278 321
#     4  10  20  34  52  76 108 144 180 222 271 330
#
# _framework density 23.365494999999999
#
# number of rings (size 3 to 8) (size 9 to 14) (size 15 to 20)
#    0.000    2.333    0.000    5.000    0.000    2.333 
#    0.000    3.333    0.000    3.000    0.000    5.833 
#    0.000   80.667    0.000    0.000    0.000    0.000 
#
# Total GULP energy -133838.665256 kJ/mol
# GULP energy per Si atom -5576.611052 kJ/mol
# Density = 2.331231 g / cm^3
# Si number density = 23.365495 Si / 1000 Ang^3
#
#
#
# Elastic Constant Matrix: (Units=GPa)
#
#
# Indices 1 2 3 4 5 6 
#
# 1 51.7167 39.9818 9.1969 0.0000 -16.6086 0.0000
# 2 39.9818 225.3476 36.8267 0.0000 -15.0981 0.0000
# 3 9.1969 36.8267 80.1608 0.0000 -9.6870 0.0000
# 4 0.0000 0.0000 0.0000 5.2417 0.0000 -12.2043
# 5 -16.6086 -15.0981 -9.6870 0.0000 27.3972 0.0000
# 6 0.0000 0.0000 0.0000 -12.2043 0.0000 16.8650
#
#
#
# Elastic Compliance Matrix: (Units=1/GPa)
#
#
# Indices 1 2 3 4 5 6 
#
# 1 0.026845 -0.003875 0.000427 0.000000 0.014289 0.000000
# 2 -0.003875 0.005459 -0.002072 0.000000 -0.000074 0.000000
# 3 0.000427 -0.002072 0.013864 0.000000 0.004019 0.000000
# 4 0.000000 0.000000 0.000000 -0.278562 0.000000 -0.201579
# 5 0.014289 -0.000074 0.004019 0.000000 0.046543 0.000000
# 6 0.000000 0.000000 0.000000 -0.201579 0.000000 -0.086577
#
#
# Mechanical properties :
#
#
# Convention : Reuss Voigt Hill
#
# Bulk Modulus (GPa) = 28.46819 58.80397 43.63608
# Shear Modulus (GPa) = -20.02573 27.98209 3.97818
#
# Velocity S-wave (km/s) = -2.93074 3.46436 1.30625
# Velocity P-wave (km/s) = 0.87062 6.42060 4.58160
#
# Compressibility (1/GPa) = 0.03512693
#
# Stress axis : x y z
#
# Youngs Moduli (GPa) = 37.25069 183.18832 72.13166
#
# Poissons Ratio (x) = 0.70993 -0.03082
# Poissons Ratio (y) = 0.14436 0.14947
# Poissons Ratio (z) = -0.01591 0.37959
#
# Static dielectric constant tensor:
#      x y z
#    x 1.890000 0.000000 0.027780 
#    y 0.000000 2.051540 0.000000 
#    z 0.027780 0.000000 1.862920 
# 
# From -- ./inp_files/122577.got.cif
#   From: 2010.05.17/outbox.cif.g08.bks.cpg/sg12_62_cif.got.tgz:122577.got - 2010.06.03 13:09:07.
