data_PCOD9193177
_publ_section_title
;
Structure prediction by ZEFSAII (Michael W. Deem and Ramdas Pophale) SiO2 
 PCOD9193177
Probable space group: C 2/M
;
_chemical_formula_sum "Si O2"
_cell_formula_units_Z 56
_cell_length_a 15.061791
_cell_length_b 25.987275
_cell_length_c 12.050438
_cell_angle_alpha 90.000000
_cell_angle_beta 36.909484
_cell_angle_gamma 90.000000
_cell_volume 2832.639021
_symmetry_space_group_name_H-M "C 2/M"
_symmetry_group_IT_number 12
_symmetry_cell_setting 'monoclinic'
loop_
_space_group_symop_operation_xyz
x,y,z
-x,y,-z
-x,-y,-z
x,-y,z
1/2+x,1/2+y,z
1/2-x,1/2+y,-z
1/2-x,1/2-y,-z
1/2+x,1/2-y,z
loop_
_atom_site_type_symbol
_atom_site_label
_atom_site_fract_x
_atom_site_fract_y
_atom_site_fract_z
Si Si1 0.145238 0.597135 0.311508
Si Si2 0.108780 0.059019 0.097175
Si Si3 0.103547 0.143737 0.793837
Si Si4 0.862191 0.679423 0.209674
Si Si5 0.555860 0.823068 0.216019
Si Si6 0.815896 0.142516 0.807703
Si Si7 0.919671 0.212598 0.398611
O O1 0.243035 0.624560 0.308364
O O2 0.080685 0.641809 0.296940
O O3 0.000000 0.568603 0.500000
O O4 0.256927 0.564355 0.124748
O O5 0.158120 0.087812 0.160402
O O6 0.979118 0.094171 0.175823
O O7 0.068057 0.000000 0.153205
O O8 0.111957 0.185709 0.688508
O O9 0.000000 0.161751 0.000000
O O10 0.774774 0.641008 0.215699
O O11 0.733119 0.716992 0.381028
O O12 0.937728 0.655978 0.243709
O O13 0.000000 0.701476 0.000000
O O14 0.499557 0.766734 0.303119
O O15 0.712215 0.824524 0.995500
O O16 0.968522 0.173515 0.652205
#
# Coordination Sequence:
#
# PCOD9193177 Si02
#       7
#     8   8   8   8   8   8   8
#     4  10  20  34  52  81 117 146 180 229 280 332
#     4   9  19  38  61  82 106 140 183 231 285 344
#     4   9  20  35  55  83 114 146 183 231 280 332
#     4  10  21  36  54  77 110 154 195 230 270 320
#     4  10  21  34  51  78 114 152 188 226 270 329
#     4   9  20  36  55  80 109 141 185 238 284 329
#     4  11  20  34  55  82 113 153 194 229 272 323
#
# _framework density 19.769551
#
# number of rings (size 3 to 8) (size 9 to 14) (size 15 to 20)
#    0.000    2.286    0.000    3.000    0.000    6.857 
#    0.000    2.857    0.000   17.571    0.000    0.000 
#    0.000    0.000    0.000    0.000    0.000    0.000 
#
# Total GULP energy -156277.312407 kJ/mol
# GULP energy per Si atom -5581.332586 kJ/mol
# Density = 1.972455 g / cm^3
# Si number density = 19.769551 Si / 1000 Ang^3
#
#
#
# Elastic Constant Matrix: (Units=GPa)
#
#
# Indices 1 2 3 4 5 6 
#
# 1 117.3695 39.4162 32.4921 0.0000 1.1655 0.0000
# 2 39.4162 92.6702 26.1483 0.0000 7.6438 0.0000
# 3 32.4921 26.1483 98.9610 0.0000 -16.0634 0.0000
# 4 0.0000 0.0000 0.0000 0.9204 0.0000 -7.7474
# 5 1.1655 7.6438 -16.0634 0.0000 31.0180 0.0000
# 6 0.0000 0.0000 0.0000 -7.7474 0.0000 0.1633
#
#
#
# Elastic Compliance Matrix: (Units=1/GPa)
#
#
# Indices 1 2 3 4 5 6 
#
# 1 0.010478 -0.003649 -0.002614 0.000000 -0.000848 0.000000
# 2 -0.003649 0.013649 -0.003201 0.000000 -0.004884 0.000000
# 3 -0.002614 -0.003201 0.013050 0.000000 0.007645 0.000000
# 4 0.000000 0.000000 0.000000 -0.002727 0.000000 -0.129399
# 5 -0.000848 -0.004884 0.007645 0.000000 0.037434 0.000000
# 6 0.000000 0.000000 0.000000 -0.129399 0.000000 -0.015373
#
#
# Mechanical properties :
#
#
# Convention : Reuss Voigt Hill
#
# Bulk Modulus (GPa) = 54.79769 56.12379 55.46074
# Shear Modulus (GPa) = 61.33337 20.48326 40.90832
#
# Velocity S-wave (km/s) = 5.57598 3.22234 4.55385
# Velocity P-wave (km/s) = 8.32068 6.50348 7.46757
#
# Compressibility (1/GPa) = 0.01824894
#
# Stress axis : x y z
#
# Youngs Moduli (GPa) = 95.44234 73.26427 76.62860
#
# Poissons Ratio (x) = 0.26735 0.20027
# Poissons Ratio (y) = 0.34828 0.24530
# Poissons Ratio (z) = 0.24944 0.23453
#
# Static dielectric constant tensor:
#      x y z
#    x 1.719690 0.000000 0.007140 
#    y 0.000000 1.633220 0.000000 
#    z 0.007140 0.000000 1.765090 
# 
# From -- ./inp_files/149447.got.cif
#   From: 2010.05.17/outbox.cif.g08.bks.cpg/sg12_75_cif.got.tgz:149447.got - 2010.06.03 13:09:07.
