data_PCOD9193126
_publ_section_title
;
Structure prediction by ZEFSAII (Michael W. Deem and Ramdas Pophale) SiO2 
 PCOD9193126
Probable space group: C 2/M
;
_chemical_formula_sum "Si O2"
_cell_formula_units_Z 56
_cell_length_a 19.783187
_cell_length_b 9.025977
_cell_length_c 28.620222
_cell_angle_alpha 90.000000
_cell_angle_beta 37.995902
_cell_angle_gamma 90.000000
_cell_volume 3146.050537
_symmetry_space_group_name_H-M "C 2/M"
_symmetry_group_IT_number 12
_symmetry_cell_setting 'monoclinic'
loop_
_space_group_symop_operation_xyz
x,y,z
-x,y,-z
-x,-y,-z
x,-y,z
1/2+x,1/2+y,z
1/2-x,1/2+y,-z
1/2-x,1/2-y,-z
1/2+x,1/2-y,z
loop_
_atom_site_type_symbol
_atom_site_label
_atom_site_fract_x
_atom_site_fract_y
_atom_site_fract_z
Si Si1 0.364425 0.675355 0.952342
Si Si2 0.516058 0.178598 0.634592
Si Si3 0.570986 0.320778 0.506685
Si Si4 0.617797 0.831178 0.959899
Si Si5 0.320045 0.173751 0.810267
Si Si6 0.510009 0.824989 0.196826
Si Si7 0.824658 0.680070 0.368832
O O1 0.354793 0.500000 0.954515
O O2 0.456969 0.734954 0.866665
O O3 0.250000 0.750000 0.000000
O O4 0.385930 0.726882 0.993123
O O5 0.525347 0.253964 0.579546
O O6 0.402439 0.212697 0.723323
O O7 0.614284 0.226356 0.616483
O O8 0.522440 0.000000 0.626546
O O9 0.500000 0.276940 0.500000
O O10 0.568544 0.500000 0.510765
O O11 0.698739 0.273679 0.433379
O O12 0.712880 0.772375 0.874026
O O13 0.643578 0.000000 0.960412
O O14 0.500000 0.829502 0.000000
O O15 0.392346 0.189513 0.818186
O O16 0.290956 0.000000 0.821969
O O17 0.400575 0.774910 0.283724
O O18 0.500538 0.000000 0.190799
O O19 0.827747 0.500000 0.367397
#
# Coordination Sequence:
#
# PCOD9193126 Si02
#       7
#     8   8   8   8   8   8   8
#     4  12  23  36  58  85 114 147 187 232 278 328
#     4   9  18  34  57  81 103 137 183 225 271 318
#     4  10  20  34  52  78 112 146 179 216 268 328
#     4  11  24  40  57  81 112 148 189 231 279 334
#     4   9  18  34  57  81 107 142 182 228 279 328
#     4   9  17  33  57  82 107 141 185 231 277 323
#     4   8  16  33  56  79 106 141 181 223 268 319
#
# _framework density 17.800097000000001
#
# number of rings (size 3 to 8) (size 9 to 14) (size 15 to 20)
#    0.000    2.286    1.429    3.857    0.000    2.000 
#    2.571    2.857    0.000    0.000    0.000    0.000 
#    0.000    0.000    0.000    0.000    0.000    0.000 
#
# Total GULP energy -156242.971412 kJ/mol
# GULP energy per Si atom -5580.106122 kJ/mol
# Density = 1.775958 g / cm^3
# Si number density = 17.800097 Si / 1000 Ang^3
#
#
#
# Elastic Constant Matrix: (Units=GPa)
#
#
# Indices 1 2 3 4 5 6 
#
# 1 88.5149 38.9144 73.0732 0.0000 6.8977 -0.0002
# 2 38.9144 66.0536 55.2845 0.0000 -0.0344 -0.0004
# 3 73.0732 55.2845 140.9764 0.0000 5.6904 0.0000
# 4 0.0000 0.0000 0.0000 30.3495 0.0000 7.2318
# 5 6.8977 -0.0344 5.6904 0.0000 21.0164 0.0000
# 6 -0.0002 -0.0004 0.0000 7.2318 0.0000 19.3045
#
#
#
# Elastic Compliance Matrix: (Units=1/GPa)
#
#
# Indices 1 2 3 4 5 6 
#
# 1 0.021142 -0.005121 -0.008766 0.000000 -0.004574 0.000000
# 2 -0.005121 0.023903 -0.006863 0.000000 0.003578 0.000000
# 3 -0.008766 -0.006863 0.014370 0.000000 -0.001025 0.000000
# 4 0.000000 0.000000 0.000000 0.036179 0.000000 -0.013553
# 5 -0.004574 0.003578 -0.001025 0.000000 0.049366 0.000000
# 6 0.000000 0.000000 0.000000 -0.013553 0.000000 0.056879
#
#
# Mechanical properties :
#
#
# Convention : Reuss Voigt Hill
#
# Bulk Modulus (GPa) = 55.82314 70.00989 62.91651
# Shear Modulus (GPa) = 20.05531 22.68560 21.37045
#
# Velocity S-wave (km/s) = 3.36027 3.57384 3.46870
# Velocity P-wave (km/s) = 6.81795 7.51308 7.17394
#
# Compressibility (1/GPa) = 0.01791372
#
# Stress axis : x y z
#
# Youngs Moduli (GPa) = 47.29934 41.83640 69.59005
#
# Poissons Ratio (x) = 0.21425 0.61001
# Poissons Ratio (y) = 0.24223 0.47763
# Poissons Ratio (z) = 0.41461 0.28714
#
# Static dielectric constant tensor:
#      x y z
#    x 1.589680 0.000000 -0.010060 
#    y 0.000000 1.595650 0.000000 
#    z -0.010060 0.000000 1.613180 
# 
# From -- ./inp_files/362878.got.cif
#   From: 2010.05.17/outbox.cif.g08.bks.cpg/sg12_182_cif.got.tgz:362878.got - 2010.06.03 13:09:07.
