data_PCOD9193479
_publ_section_title
;
Structure prediction by ZEFSAII (Michael W. Deem and Ramdas Pophale) SiO2 
 PCOD9193479
Probable space group: C 2/M
;
_chemical_formula_sum "Si O2"
_cell_formula_units_Z 64
_cell_length_a 31.416936
_cell_length_b 13.981234
_cell_length_c 9.615963
_cell_angle_alpha 90.000000
_cell_angle_beta 123.523957
_cell_angle_gamma 90.000000
_cell_volume 3521.181880
_symmetry_space_group_name_H-M "C 2/M"
_symmetry_group_IT_number 12
_symmetry_cell_setting 'monoclinic'
loop_
_space_group_symop_operation_xyz
x,y,z
-x,y,-z
-x,-y,-z
x,-y,z
1/2+x,1/2+y,z
1/2-x,1/2+y,-z
1/2-x,1/2-y,-z
1/2+x,1/2-y,z
loop_
_atom_site_type_symbol
_atom_site_label
_atom_site_fract_x
_atom_site_fract_y
_atom_site_fract_z
Si Si1 0.135816 0.741625 0.261791
Si Si2 0.727034 0.386762 0.941484
Si Si3 0.663135 0.115171 0.777002
Si Si4 0.549622 0.115274 0.675550
Si Si5 0.734474 0.111002 0.417449
Si Si6 0.190391 0.890900 0.184828
Si Si7 0.183489 0.222076 0.615466
Si Si8 0.550994 0.107345 0.002985
O O1 0.180608 0.661739 0.339700
O O2 0.148690 0.817907 0.166099
O O3 0.140286 0.791845 0.420424
O O4 0.085325 0.685323 0.138771
O O5 0.723282 0.500000 0.913763
O O6 0.688403 0.335920 0.767500
O O7 0.787506 0.361602 0.036432
O O8 0.712047 0.364929 0.073311
O O9 0.606919 0.144902 0.730151
O O10 0.675265 0.170398 0.656023
O O11 0.663717 0.000000 0.759187
O O12 0.500000 0.151158 0.500000
O O13 0.549857 0.000000 0.658784
O O14 0.542775 0.133803 0.826955
O O15 0.765471 0.110324 0.618115
O O16 0.766622 0.180513 0.373764
O O17 0.731455 0.000000 0.363480
O O18 0.171405 0.000000 0.142861
O O19 0.574756 0.000000 0.045645
O O20 0.500000 0.101397 0.000000
#
# Coordination Sequence:
#
# PCOD9193479 Si02
#       8
#     8   8   8   8   8   8   8   8
#     4  11  22  35  55  83 111 151 194 227 280 337
#     4  10  20  34  53  79 112 150 190 227 270 326
#     4  10  21  33  53  81 113 152 188 225 277 333
#     4   9  20  38  57  78 108 147 190 231 279 329
#     4  10  20  35  52  77 115 152 188 228 271 326
#     4   9  19  36  54  78 115 153 187 229 275 325
#     4  11  22  33  52  81 113 147 188 231 268 323
#     4  10  23  40  58  82 113 147 187 237 283 329
#
# _framework density 18.175716000000001
#
# number of rings (size 3 to 8) (size 9 to 14) (size 15 to 20)
#    0.000    2.000    0.000    4.125    5.250    2.500 
#    0.000    0.000    0.000    0.375    0.000    0.000 
#    0.000    4.500    0.000    0.000    0.000    0.000 
#
# Total GULP energy -178399.294716 kJ/mol
# GULP energy per Si atom -5574.977960 kJ/mol
# Density = 1.813435 g / cm^3
# Si number density = 18.175716 Si / 1000 Ang^3
#
#
#
# Elastic Constant Matrix: (Units=GPa)
#
#
# Indices 1 2 3 4 5 6 
#
# 1 83.6270 44.8802 53.3506 0.0000 -5.8730 0.0000
# 2 44.8802 75.8270 34.3856 0.0000 0.4497 0.0000
# 3 53.3506 34.3856 99.0725 0.0000 -6.4450 0.0000
# 4 0.0000 0.0000 0.0000 29.0176 0.0000 -1.0349
# 5 -5.8730 0.4497 -6.4450 0.0000 25.0521 0.0000
# 6 0.0000 0.0000 0.0000 -1.0349 0.0000 21.7639
#
#
#
# Elastic Compliance Matrix: (Units=1/GPa)
#
#
# Indices 1 2 3 4 5 6 
#
# 1 0.022980 -0.009620 -0.008822 0.000000 0.003290 0.000000
# 2 -0.009620 0.019751 -0.001876 0.000000 -0.003092 0.000000
# 3 -0.008822 -0.001876 0.015624 0.000000 0.001985 0.000000
# 4 0.000000 0.000000 0.000000 0.034520 0.000000 0.001642
# 5 0.003290 -0.003092 0.001985 0.000000 0.041254 0.000000
# 6 0.000000 0.000000 0.000000 0.001642 0.000000 0.046026
#
#
# Mechanical properties :
#
#
# Convention : Reuss Voigt Hill
#
# Bulk Modulus (GPa) = 56.43446 58.19546 57.31496
# Shear Modulus (GPa) = 22.05588 23.56070 22.80829
#
# Velocity S-wave (km/s) = 3.48728 3.60429 3.54627
# Velocity P-wave (km/s) = 6.87980 7.02915 6.95488
#
# Compressibility (1/GPa) = 0.01771967
#
# Stress axis : x y z
#
# Youngs Moduli (GPa) = 43.51672 50.63074 64.00341
#
# Poissons Ratio (x) = 0.48708 0.56461
# Poissons Ratio (y) = 0.41864 0.12005
# Poissons Ratio (z) = 0.38389 0.09497
#
# Static dielectric constant tensor:
#      x y z
#    x 1.625830 0.000000 -0.016860 
#    y 0.000000 1.658570 0.000000 
#    z -0.016860 0.000000 1.651220 
# 
# From -- ./inp_files/111680.got.cif
#   From: 2010.05.17/outbox.cif.g08.bks.cpg/sg12_56_cif.got.tgz:111680.got - 2010.06.03 13:09:07.
