data_PCOD9193275
_publ_section_title
;
Structure prediction by ZEFSAII (Michael W. Deem and Ramdas Pophale) SiO2 
 PCOD9193275
Probable space group: C 2/M
;
_chemical_formula_sum "Si O2"
_cell_formula_units_Z 56
_cell_length_a 8.772391
_cell_length_b 19.268479
_cell_length_c 22.598258
_cell_angle_alpha 90.000000
_cell_angle_beta 125.611301
_cell_angle_gamma 90.000000
_cell_volume 3105.441879
_symmetry_space_group_name_H-M "C 2/M"
_symmetry_group_IT_number 12
_symmetry_cell_setting 'monoclinic'
loop_
_space_group_symop_operation_xyz
x,y,z
-x,y,-z
-x,-y,-z
x,-y,z
1/2+x,1/2+y,z
1/2-x,1/2+y,-z
1/2-x,1/2-y,-z
1/2+x,1/2-y,z
loop_
_atom_site_type_symbol
_atom_site_label
_atom_site_fract_x
_atom_site_fract_y
_atom_site_fract_z
Si Si1 0.318930 0.827143 0.923791
Si Si2 0.875002 0.581369 0.628720
Si Si3 0.245063 0.581223 0.784731
Si Si4 0.318501 0.827142 0.500000
Si Si5 0.511158 0.418631 0.628720
Si Si6 0.952441 0.827143 0.923791
Si Si7 0.609131 0.418777 0.784731
O O1 0.371824 0.750000 0.914549
O O2 0.257109 0.873442 0.854400
O O3 0.143310 0.823937 0.928873
O O4 0.500000 0.854729 0.000000
O O5 0.899705 0.500000 0.617200
O O6 0.866562 0.630155 0.570121
O O7 0.681882 0.586949 0.621255
O O8 0.048229 0.600319 0.710450
O O9 0.236558 0.500000 0.799180
O O10 0.306091 0.626558 0.854400
O O11 0.409596 0.589104 0.773064
O O12 0.500000 0.823012 0.500000
O O13 0.250000 0.750000 0.500000
O O14 0.156201 0.869845 0.429879
O O15 0.451896 0.500000 0.617200
O O16 0.583120 0.399681 0.710450
O O17 0.000000 0.854729 0.000000
O O18 0.660982 0.500000 0.799180
#
# Coordination Sequence:
#
# PCOD9193275 Si02
#       7
#     8   8   8   8   8   8   8
#     4  10  20  34  53  76 105 141 179 221 268 322
#     4  10  21  38  60  85 113 145 182 224 270 324
#     4   9  19  36  56  79 107 141 182 224 268 319
#     4  12  25  40  59  83 113 147 183 226 273 322
#     4  10  21  38  60  85 113 145 182 224 270 324
#     4  10  20  34  53  76 105 141 179 221 268 322
#     4   9  19  36  56  79 107 141 182 224 268 319
#
# _framework density 18.032859999999999
#
# number of rings (size 3 to 8) (size 9 to 14) (size 15 to 20)
#    0.000    2.000    0.000    4.286    0.000    7.429 
#    0.000    2.857    0.000    0.000    0.000    0.000 
#    0.000    0.000    0.000    0.000    0.000    0.000 
#
# Total GULP energy -156389.698163 kJ/mol
# GULP energy per Si atom -5585.346363 kJ/mol
# Density = 1.799182 g / cm^3
# Si number density = 18.032860 Si / 1000 Ang^3
#
#
#
# Elastic Constant Matrix: (Units=GPa)
#
#
# Indices 1 2 3 4 5 6 
#
# 1 83.7990 60.5208 82.6636 0.0000 -3.0959 0.0000
# 2 60.5208 92.3111 107.5394 0.0000 -2.4398 0.0000
# 3 82.6636 107.5394 181.9158 0.0000 -1.9953 0.0000
# 4 0.0000 0.0000 0.0000 72.2803 0.0000 -2.3317
# 5 -3.0959 -2.4398 -1.9953 0.0000 30.3419 0.0000
# 6 0.0000 0.0000 0.0000 -2.3317 0.0000 27.3449
#
#
#
# Elastic Compliance Matrix: (Units=1/GPa)
#
#
# Indices 1 2 3 4 5 6 
#
# 1 0.024145 -0.009732 -0.005204 0.000000 0.001339 0.000000
# 2 -0.009732 0.038782 -0.018494 0.000000 0.000909 0.000000
# 3 -0.005204 -0.018494 0.018785 0.000000 -0.000783 0.000000
# 4 0.000000 0.000000 0.000000 0.013873 0.000000 0.001183
# 5 0.001339 0.000909 -0.000783 0.000000 0.033116 0.000000
# 6 0.000000 0.000000 0.000000 0.001183 0.000000 0.036671
#
#
# Mechanical properties :
#
#
# Convention : Reuss Voigt Hill
#
# Bulk Modulus (GPa) = 67.32523 95.49706 81.41115
# Shear Modulus (GPa) = 21.08083 33.14688 27.11385
#
# Velocity S-wave (km/s) = 3.42281 4.29200 3.88181
# Velocity P-wave (km/s) = 7.28262 8.81101 8.08302
#
# Compressibility (1/GPa) = 0.01485327
#
# Stress axis : x y z
#
# Youngs Moduli (GPa) = 41.41708 25.78504 53.23263
#
# Poissons Ratio (x) = 0.25095 0.27700
# Poissons Ratio (y) = 0.40309 0.98447
# Poissons Ratio (z) = 0.21551 0.47686
#
# Static dielectric constant tensor:
#      x y z
#    x 1.605760 0.000000 0.000370 
#    y 0.000000 1.595930 0.000000 
#    z 0.000370 0.000000 1.598690 
# 
# From -- ./inp_files/333408.got.cif
#   From: 2010.05.17/outbox.cif.g08.bks.cpg/sg12_167_cif.got.tgz:333408.got - 2010.06.03 13:09:07.
