data_PCOD9193041
_publ_section_title
;
Structure prediction by ZEFSAII (Michael W. Deem and Ramdas Pophale) SiO2 
 PCOD9193041
Probable space group: C 2/M
;
_chemical_formula_sum "Si O2"
_cell_formula_units_Z 48
_cell_length_a 21.005456
_cell_length_b 7.956020
_cell_length_c 28.041180
_cell_angle_alpha 90.000000
_cell_angle_beta 147.044447
_cell_angle_gamma 90.000000
_cell_volume 2549.258082
_symmetry_space_group_name_H-M "C 2/M"
_symmetry_group_IT_number 12
_symmetry_cell_setting 'monoclinic'
loop_
_space_group_symop_operation_xyz
x,y,z
-x,y,-z
-x,-y,-z
x,-y,z
1/2+x,1/2+y,z
1/2-x,1/2+y,-z
1/2-x,1/2-y,-z
1/2+x,1/2-y,z
loop_
_atom_site_type_symbol
_atom_site_label
_atom_site_fract_x
_atom_site_fract_y
_atom_site_fract_z
Si Si1 0.757589 0.203303 0.237856
Si Si2 0.382128 0.199370 0.571713
Si Si3 0.979658 0.299235 0.434035
Si Si4 0.501319 0.205437 0.056166
Si Si5 0.739516 0.202707 0.048127
Si Si6 0.898213 0.202215 0.232118
O O1 0.847269 0.267554 0.333698
O O2 0.623482 0.259394 0.156504
O O3 0.811605 0.255865 0.220640
O O4 0.759374 0.000000 0.240156
O O5 0.250000 0.250000 0.500000
O O6 0.436684 0.268777 0.556074
O O7 0.472465 0.246415 0.670524
O O8 0.384329 0.000000 0.568877
O O9 0.998776 0.500000 0.448017
O O10 0.000000 0.230963 0.500000
O O11 0.500533 0.000000 0.056133
O O12 0.500000 0.255699 0.000000
O O13 0.384199 0.263362 0.008494
O O14 0.844699 0.263241 0.148593
O O15 0.738871 0.000000 0.050809
O O16 0.750000 0.250000 0.000000
O O17 0.896464 0.000000 0.230260
#
# Coordination Sequence:
#
# PCOD9193041 Si02
#       6
#     8   8   8   8   8   8
#     4   9  16  29  54  81  99 125 171 217 249 288
#     4  10  20  35  56  78 101 133 172 213 253 303
#     4   9  19  36  54  73 103 137 163 200 258 311
#     4   9  15  29  54  78  99 129 171 212 247 291
#     4  10  20  34  52  75 107 140 169 208 257 304
#     4   9  17  32  54  76 100 135 174 211 253 301
#
# _framework density 18.829007000000001
#
# number of rings (size 3 to 8) (size 9 to 14) (size 15 to 20)
#    0.000    2.667    1.667    0.500    0.000    1.667 
#    3.000    0.833    0.000    1.000    0.000    0.000 
#    0.000    0.000    0.000    0.000    0.000    0.000 
#
# Total GULP energy -133808.077269 kJ/mol
# GULP energy per Si atom -5575.336553 kJ/mol
# Density = 1.878615 g / cm^3
# Si number density = 18.829007 Si / 1000 Ang^3
#
#
#
# Elastic Constant Matrix: (Units=GPa)
#
#
# Indices 1 2 3 4 5 6 
#
# 1 129.2022 9.2896 115.4919 0.0000 -3.3144 0.0002
# 2 9.2896 12.5278 12.0002 0.0001 -1.5874 0.0007
# 3 115.4919 12.0002 199.8459 0.0000 -3.5931 0.0000
# 4 0.0000 0.0001 0.0000 21.1490 0.0000 -3.6455
# 5 -3.3144 -1.5874 -3.5931 0.0000 37.6439 0.0000
# 6 0.0002 0.0007 0.0000 -3.6455 0.0000 14.1612
#
#
#
# Elastic Compliance Matrix: (Units=1/GPa)
#
#
# Indices 1 2 3 4 5 6 
#
# 1 0.016138 -0.003170 -0.009129 0.000000 0.000416 0.000000
# 2 -0.003170 0.085677 -0.003258 -0.000001 0.003023 -0.000005
# 3 -0.009129 -0.003258 0.010476 0.000000 0.000059 0.000000
# 4 0.000000 -0.000001 0.000000 0.049479 0.000000 0.012737
# 5 0.000416 0.003023 0.000059 0.000000 0.026734 0.000000
# 6 0.000000 -0.000005 0.000000 0.012737 0.000000 0.073894
#
#
# Mechanical properties :
#
#
# Convention : Reuss Voigt Hill
#
# Bulk Modulus (GPa) = 12.31870 68.34882 40.33376
# Shear Modulus (GPa) = 15.59711 28.24377 21.92044
#
# Velocity S-wave (km/s) = 2.88124 3.87720 3.41572
# Velocity P-wave (km/s) = 4.19825 7.51147 6.08471
#
# Compressibility (1/GPa) = 0.08117741
#
# Stress axis : x y z
#
# Youngs Moduli (GPa) = 61.96452 11.67175 95.45622
#
# Poissons Ratio (x) = 0.03700 0.87138
# Poissons Ratio (y) = 0.19642 0.31103
# Poissons Ratio (z) = 0.56565 0.03803
#
# Static dielectric constant tensor:
#      x y z
#    x 1.611620 0.000000 -0.045610 
#    y 0.000000 1.689330 0.000000 
#    z -0.045610 0.000000 1.599110 
# 
# From -- ./inp_files/230354.got.cif
#   From: 2010.05.17/outbox.cif.g08.bks.cpg/sg12_116_cif.got.tgz:230354.got - 2010.06.03 13:09:07.
