data_PCOD9193833
_publ_section_title
;
Structure prediction by ZEFSAII (Michael W. Deem and Ramdas Pophale) SiO2 
 PCOD9193833
Probable space group: C 2/M
;
_chemical_formula_sum "Si O2"
_cell_formula_units_Z 48
_cell_length_a 24.104435
_cell_length_b 13.471384
_cell_length_c 18.403030
_cell_angle_alpha 90.000000
_cell_angle_beta 153.429897
_cell_angle_gamma 90.000000
_cell_volume 2672.945352
_symmetry_space_group_name_H-M "C 2/M"
_symmetry_group_IT_number 12
_symmetry_cell_setting 'monoclinic'
loop_
_space_group_symop_operation_xyz
x,y,z
-x,y,-z
-x,-y,-z
x,-y,z
1/2+x,1/2+y,z
1/2-x,1/2+y,-z
1/2-x,1/2-y,-z
1/2+x,1/2-y,z
loop_
_atom_site_type_symbol
_atom_site_label
_atom_site_fract_x
_atom_site_fract_y
_atom_site_fract_z
Si Si1 0.592288 0.733402 0.666971
Si Si2 0.006273 0.764812 0.920743
Si Si3 0.332847 0.884659 0.985996
Si Si4 0.234460 0.891530 0.207029
Si Si5 0.499606 0.115521 0.320602
Si Si6 0.724814 0.387945 0.370662
O O1 0.500000 0.685051 0.500000
O O2 0.671709 0.812121 0.713763
O O3 0.522442 0.800181 0.645113
O O4 0.694436 0.659867 0.819877
O O5 0.876006 0.802040 0.735158
O O6 0.076291 0.677864 0.960206
O O7 0.000000 0.740996 0.000000
O O8 0.097091 0.859961 0.022703
O O9 0.390905 0.876393 0.134249
O O10 0.332222 0.000000 0.964527
O O11 0.234930 0.891446 0.294593
O O12 0.267466 0.000000 0.218474
O O13 0.633854 0.131040 0.440085
O O14 0.501345 0.000000 0.350124
O O15 0.687942 0.500000 0.351458
#
# Coordination Sequence:
#
# PCOD9193833 Si02
#       6
#     8   8   8   8   8   8
#     4  11  20  33  56  79 102 134 174 214 253 305
#     4   9  18  32  52  75 100 136 176 213 250 296
#     4  10  23  39  52  71 102 142 180 215 255 294
#     4   9  16  27  47  80 111 130 157 203 258 311
#     4  10  20  34  54  81 111 135 159 203 265 322
#     4   9  16  28  50  79 109 133 157 198 257 317
#
# _framework density 17.957718
#
# number of rings (size 3 to 8) (size 9 to 14) (size 15 to 20)
#    0.000    2.333    1.667    1.500    0.000    4.000 
#    0.000    0.000    0.000    1.000    0.000    0.000 
#    0.000    0.000    0.000    0.000    0.000    0.000 
#
# Total GULP energy -133704.643883 kJ/mol
# GULP energy per Si atom -5571.026828 kJ/mol
# Density = 1.791685 g / cm^3
# Si number density = 17.957718 Si / 1000 Ang^3
#
#
#
# Elastic Constant Matrix: (Units=GPa)
#
#
# Indices 1 2 3 4 5 6 
#
# 1 24.0323 10.4488 9.2005 0.0000 2.8633 0.0000
# 2 10.4488 73.1399 41.9586 0.0000 -3.3095 0.0000
# 3 9.2005 41.9586 128.7608 0.0000 -1.5464 0.0000
# 4 0.0000 0.0000 0.0000 24.2754 0.0000 -0.0771
# 5 2.8633 -3.3095 -1.5464 0.0000 19.9831 0.0000
# 6 0.0000 0.0000 0.0000 -0.0771 0.0000 13.3505
#
#
#
# Elastic Compliance Matrix: (Units=1/GPa)
#
#
# Indices 1 2 3 4 5 6 
#
# 1 0.045696 -0.006087 -0.001374 0.000000 -0.007662 0.000000
# 2 -0.006087 0.017739 -0.005305 0.000000 0.003400 0.000000
# 3 -0.001374 -0.005305 0.009594 0.000000 0.000061 0.000000
# 4 0.000000 0.000000 0.000000 0.041195 0.000000 0.000238
# 5 -0.007662 0.003400 0.000061 0.000000 0.051708 0.000000
# 6 0.000000 0.000000 0.000000 0.000238 0.000000 0.074905
#
#
# Mechanical properties :
#
#
# Convention : Reuss Voigt Hill
#
# Bulk Modulus (GPa) = 21.05338 38.79429 29.92383
# Shear Modulus (GPa) = 17.71794 22.47679 20.09736
#
# Velocity S-wave (km/s) = 3.14450 3.54171 3.34900
# Velocity P-wave (km/s) = 4.99331 6.19475 5.62619
#
# Compressibility (1/GPa) = 0.04749832
#
# Stress axis : x y z
#
# Youngs Moduli (GPa) = 21.88379 56.37286 104.23328
#
# Poissons Ratio (x) = 0.34313 0.14319
# Poissons Ratio (y) = 0.13320 0.55293
# Poissons Ratio (z) = 0.03006 0.29905
#
# Static dielectric constant tensor:
#      x y z
#    x 1.604000 0.000000 0.002110 
#    y 0.000000 1.594900 0.000000 
#    z 0.002110 0.000000 1.671890 
# 
# From -- ./inp_files/153718.got.cif
#   From: 2010.05.17/outbox.cif.g08.bks.cpg/sg12_77_cif.got.tgz:153718.got - 2010.06.03 13:09:07.
