data_PCOD9193484
_publ_section_title
;
Structure prediction by ZEFSAII (Michael W. Deem and Ramdas Pophale) SiO2 
 PCOD9193484
Probable space group: C 2/M
;
_chemical_formula_sum "Si O2"
_cell_formula_units_Z 64
_cell_length_a 14.677107
_cell_length_b 15.961080
_cell_length_c 16.918469
_cell_angle_alpha 90.000000
_cell_angle_beta 120.524075
_cell_angle_gamma 90.000000
_cell_volume 3414.103159
_symmetry_space_group_name_H-M "C 2/M"
_symmetry_group_IT_number 12
_symmetry_cell_setting 'monoclinic'
loop_
_space_group_symop_operation_xyz
x,y,z
-x,y,-z
-x,-y,-z
x,-y,z
1/2+x,1/2+y,z
1/2-x,1/2+y,-z
1/2-x,1/2-y,-z
1/2+x,1/2-y,z
loop_
_atom_site_type_symbol
_atom_site_label
_atom_site_fract_x
_atom_site_fract_y
_atom_site_fract_z
Si Si1 0.500833 0.598526 0.407558
Si Si2 0.739766 0.742331 0.903502
Si Si3 0.218820 0.902042 0.779666
Si Si4 0.621243 0.907221 0.792902
Si Si5 0.262605 0.595845 0.713177
Si Si6 0.579658 0.830509 0.227433
Si Si7 0.677231 0.710617 0.400393
Si Si8 0.568517 0.691405 0.101923
O O1 0.500000 0.618648 0.500000
O O2 0.529076 0.500000 0.411137
O O3 0.383294 0.609381 0.320995
O O4 0.584205 0.655716 0.398384
O O5 0.697914 0.656774 0.846633
O O6 0.678423 0.825223 0.850442
O O7 0.854881 0.751165 0.916457
O O8 0.750000 0.750000 0.000000
O O9 0.323871 0.872125 0.778885
O O10 0.228592 0.000000 0.804589
O O11 0.652977 0.901478 0.714305
O O12 0.503341 0.896060 0.773527
O O13 0.660872 0.000000 0.834977
O O14 0.285884 0.500000 0.703416
O O15 0.260550 0.652252 0.634660
O O16 0.356619 0.630020 0.812941
O O17 0.627630 0.782130 0.323352
O O18 0.524523 0.758473 0.147167
O O19 0.750000 0.750000 0.500000
O O20 0.500000 0.650971 0.000000
#
# Coordination Sequence:
#
# PCOD9193484 Si02
#       8
#     8   8   8   8   8   8   8   8
#     4  10  21  37  58  84 114 147 188 241 292 338
#     4  10  20  34  53  79 114 150 189 236 278 333
#     4  10  21  38  59  84 115 151 191 237 289 340
#     4  10  20  36  58  80 110 152 189 229 283 337
#     4   9  20  38  56  79 112 146 186 234 282 337
#     4  10  20  35  56  83 114 147 188 234 277 333
#     4  11  22  36  58  83 110 149 188 228 283 342
#     4   9  18  32  52  80 110 146 187 229 281 331
#
# _framework density 18.745771999999999
#
# number of rings (size 3 to 8) (size 9 to 14) (size 15 to 20)
#    0.000    2.125    0.000    3.750    0.000    2.750 
#    0.000    1.875    0.000    5.625    0.000    0.000 
#    0.000    0.000    0.000    0.000    0.000    0.000 
#
# Total GULP energy -178205.224440 kJ/mol
# GULP energy per Si atom -5568.913264 kJ/mol
# Density = 1.870311 g / cm^3
# Si number density = 18.745772 Si / 1000 Ang^3
#
#
#
# Elastic Constant Matrix: (Units=GPa)
#
#
# Indices 1 2 3 4 5 6 
#
# 1 93.5257 50.2178 33.6950 0.0000 -12.1414 0.0000
# 2 50.2178 114.3536 58.9624 0.0000 -20.6257 0.0000
# 3 33.6950 58.9624 122.6484 0.0000 -24.2620 0.0000
# 4 0.0000 0.0000 0.0000 6.6240 0.0000 -1.3855
# 5 -12.1414 -20.6257 -24.2620 0.0000 21.0733 0.0000
# 6 0.0000 0.0000 0.0000 -1.3855 0.0000 33.1556
#
#
#
# Elastic Compliance Matrix: (Units=1/GPa)
#
#
# Indices 1 2 3 4 5 6 
#
# 1 0.014170 -0.005419 -0.000935 0.000000 0.001784 0.000000
# 2 -0.005419 0.014407 -0.004229 0.000000 0.006110 0.000000
# 3 -0.000935 -0.004229 0.012325 0.000000 0.009512 0.000000
# 4 0.000000 0.000000 0.000000 0.152296 0.000000 0.006364
# 5 0.001784 0.006110 0.009512 0.000000 0.065413 0.000000
# 6 0.000000 0.000000 0.000000 0.006364 0.000000 0.030427
#
#
# Mechanical properties :
#
#
# Convention : Reuss Voigt Hill
#
# Bulk Modulus (GPa) = 50.66606 68.47532 59.57069
# Shear Modulus (GPa) = 15.78370 24.68076 20.23223
#
# Velocity S-wave (km/s) = 2.90485 3.63244 3.28883
# Velocity P-wave (km/s) = 6.19173 7.36210 6.80213
#
# Compressibility (1/GPa) = 0.01973708
#
# Stress axis : x y z
#
# Youngs Moduli (GPa) = 70.56981 69.41095 81.13724
#
# Poissons Ratio (x) = 0.37614 0.07586
# Poissons Ratio (y) = 0.38242 0.34309
# Poissons Ratio (z) = 0.06598 0.29351
#
# Static dielectric constant tensor:
#      x y z
#    x 1.688880 0.000000 0.016900 
#    y 0.000000 2.456330 0.000000 
#    z 0.016900 0.000000 1.656400 
# 
# From -- ./inp_files/270302.got.cif
#   From: 2010.05.17/outbox.cif.g08.bks.cpg/sg12_136_cif.got.tgz:270302.got - 2010.06.03 13:09:07.
