data_PCOD9193085
_publ_section_title
;
Structure prediction by ZEFSAII (Michael W. Deem and Ramdas Pophale) SiO2 
 PCOD9193085
Probable space group: C 2/M
;
_chemical_formula_sum "Si O2"
_cell_formula_units_Z 64
_cell_length_a 23.248089
_cell_length_b 13.165746
_cell_length_c 16.749292
_cell_angle_alpha 90.000000
_cell_angle_beta 36.683300
_cell_angle_gamma 90.000000
_cell_volume 3062.585150
_symmetry_space_group_name_H-M "C 2/M"
_symmetry_group_IT_number 12
_symmetry_cell_setting 'monoclinic'
loop_
_space_group_symop_operation_xyz
x,y,z
-x,y,-z
-x,-y,-z
x,-y,z
1/2+x,1/2+y,z
1/2-x,1/2+y,-z
1/2-x,1/2-y,-z
1/2+x,1/2-y,z
loop_
_atom_site_type_symbol
_atom_site_label
_atom_site_fract_x
_atom_site_fract_y
_atom_site_fract_z
Si Si1 0.847366 0.884032 0.825756
Si Si2 0.295373 0.889391 0.433388
Si Si3 0.384726 0.113221 0.512374
Si Si4 0.612938 0.314836 0.718273
Si Si5 0.816842 0.173216 0.190891
Si Si6 0.761762 0.881374 0.749645
Si Si7 0.458006 0.329131 0.459253
Si Si8 0.902534 0.879990 0.926717
O O1 0.801262 0.846753 0.793936
O O2 0.835650 0.841258 0.928002
O O3 0.963373 0.879264 0.684787
O O4 0.813980 0.000000 0.866223
O O5 0.345330 0.884806 0.465406
O O6 0.341091 0.797484 0.334340
O O7 0.182898 0.872602 0.578402
O O8 0.311493 0.000000 0.379729
O O9 0.291974 0.135886 0.670889
O O10 0.454139 0.208756 0.446584
O O11 0.422970 0.000000 0.485752
O O12 0.624915 0.357346 0.794509
O O13 0.503083 0.320354 0.816007
O O14 0.815310 0.295839 0.185663
O O15 0.855245 0.131008 0.065693
O O16 0.849151 0.869461 0.588102
O O17 0.734203 0.000000 0.782925
O O18 0.500000 0.348511 0.500000
O O19 0.922023 0.000000 0.892193
#
# Coordination Sequence:
#
# PCOD9193085 Si02
#       8
#     8   8   8   8   8   8   8   8
#     4   9  18  32  52  78 102 127 165 210 254 299
#     4   9  18  33  52  73  99 129 160 202 253 299
#     4   9  17  30  47  68  98 133 166 201 245 297
#     4  10  20  34  52  77 103 128 167 207 247 303
#     4  10  21  34  50  72  99 135 172 207 246 291
#     4   9  18  34  54  75 101 132 166 207 254 300
#     4   9  16  28  49  76 103 128 158 204 256 299
#     4  11  22  35  53  75 101 134 170 209 249 290
#
# _framework density 20.897379000000001
#
# number of rings (size 3 to 8) (size 9 to 14) (size 15 to 20)
#    0.000    2.500    0.000    2.250    0.000    5.750 
#    0.000    0.625    0.000    2.250    0.000    0.000 
#    0.000    0.000    0.000    0.000    0.000    0.000 
#
# Total GULP energy -178460.130310 kJ/mol
# GULP energy per Si atom -5576.879072 kJ/mol
# Density = 2.084982 g / cm^3
# Si number density = 20.897379 Si / 1000 Ang^3
#
#
#
# Elastic Constant Matrix: (Units=GPa)
#
#
# Indices 1 2 3 4 5 6 
#
# 1 48.2633 -7.2833 29.2065 0.0000 22.5076 0.0000
# 2 -7.2833 80.8194 5.3438 0.0000 4.5205 0.0000
# 3 29.2065 5.3438 47.2608 0.0000 27.6202 0.0000
# 4 0.0000 0.0000 0.0000 13.5626 0.0000 4.9711
# 5 22.5076 4.5205 27.6202 0.0000 27.9230 0.0000
# 6 0.0000 0.0000 0.0000 4.9711 0.0000 22.3230
#
#
#
# Elastic Compliance Matrix: (Units=1/GPa)
#
#
# Indices 1 2 3 4 5 6 
#
# 1 0.038274 0.005370 -0.013562 0.000000 -0.018306 0.000000
# 2 0.005370 0.013246 -0.002449 0.000000 -0.004050 0.000000
# 3 -0.013562 -0.002449 0.054979 0.000000 -0.043055 0.000000
# 4 0.000000 0.000000 0.000000 0.080285 0.000000 -0.017879
# 5 -0.018306 -0.004050 -0.043055 0.000000 0.093812 0.000000
# 6 0.000000 0.000000 0.000000 -0.017879 0.000000 0.048778
#
#
# Mechanical properties :
#
#
# Convention : Reuss Voigt Hill
#
# Bulk Modulus (GPa) = 11.73481 25.65306 18.69394
# Shear Modulus (GPa) = 13.19049 22.70017 17.94533
#
# Velocity S-wave (km/s) = 2.51510 3.29943 2.93360
# Velocity P-wave (km/s) = 3.74993 5.17855 4.52103
#
# Compressibility (1/GPa) = 0.08521653
#
# Stress axis : x y z
#
# Youngs Moduli (GPa) = 26.12770 75.49646 18.18869
#
# Poissons Ratio (x) = -0.40539 0.24667
# Poissons Ratio (y) = -0.14030 0.04455
# Poissons Ratio (z) = 0.35433 0.18490
#
# Static dielectric constant tensor:
#      x y z
#    x 1.777870 0.000000 0.037970 
#    y 0.000000 1.770190 0.000000 
#    z 0.037970 0.000000 1.749280 
# 
# From -- ./inp_files/240673.got.cif
#   From: 2010.05.17/outbox.cif.g08.bks.cpg/sg12_121_cif.got.tgz:240673.got - 2010.06.03 13:09:07.
