data_PCOD9193732
_publ_section_title
;
Structure prediction by ZEFSAII (Michael W. Deem and Ramdas Pophale) SiO2 
 PCOD9193732
Probable space group: C 2/M
;
_chemical_formula_sum "Si O2"
_cell_formula_units_Z 56
_cell_length_a 30.052702
_cell_length_b 9.240412
_cell_length_c 21.295006
_cell_angle_alpha 90.000000
_cell_angle_beta 27.639112
_cell_angle_gamma 90.000000
_cell_volume 2743.328546
_symmetry_space_group_name_H-M "C 2/M"
_symmetry_group_IT_number 12
_symmetry_cell_setting 'monoclinic'
loop_
_space_group_symop_operation_xyz
x,y,z
-x,y,-z
-x,-y,-z
x,-y,z
1/2+x,1/2+y,z
1/2-x,1/2+y,-z
1/2-x,1/2-y,-z
1/2+x,1/2-y,z
loop_
_atom_site_type_symbol
_atom_site_label
_atom_site_fract_x
_atom_site_fract_y
_atom_site_fract_z
Si Si1 0.742092 0.327133 0.789399
Si Si2 0.377105 0.839302 0.299578
Si Si3 0.652416 0.337192 0.548836
Si Si4 0.691737 0.170327 0.980624
Si Si5 0.605824 0.658339 0.842258
Si Si6 0.102836 0.170803 0.207379
Si Si7 0.914394 0.673887 0.488327
O O1 0.738777 0.500000 0.806351
O O2 0.702578 0.241680 0.898616
O O3 0.675062 0.299583 0.812662
O O4 0.850102 0.291192 0.630239
O O5 0.403293 0.734985 0.323902
O O6 0.261731 0.846608 0.435732
O O7 0.404992 0.772558 0.198979
O O8 0.414256 0.000000 0.264277
O O9 0.620796 0.500000 0.573624
O O10 0.643024 0.235021 0.500383
O O11 0.797648 0.184227 0.879150
O O12 0.667637 0.000000 0.007074
O O13 0.621015 0.252602 0.117314
O O14 0.640213 0.500000 0.774769
O O15 0.500000 0.641383 0.000000
O O16 0.017245 0.249495 0.352057
O O17 0.083885 0.000000 0.223442
O O18 0.923336 0.500000 0.473779
#
# Coordination Sequence:
#
# PCOD9193732 Si02
#       7
#     8   8   8   8   8   8   8
#     4  10  22  39  60  87 121 160 199 248 306 360
#     4  10  20  34  54  79 109 147 192 241 289 340
#     4  10  20  34  55  80 110 150 190 236 292 346
#     4  10  22  41  65  90 119 158 200 244 296 359
#     4  10  21  38  58  80 112 155 199 241 292 353
#     4  10  22  41  64  90 121 156 197 245 299 360
#     4  11  22  37  60  90 123 157 200 250 301 357
#
# _framework density 20.413157000000002
#
# number of rings (size 3 to 8) (size 9 to 14) (size 15 to 20)
#    0.000    1.857    1.429    2.143    0.000    6.571 
#    0.000    7.143    0.000    0.000    0.000    0.000 
#    0.000    0.000    0.000    0.000    0.000    0.000 
#
# Total GULP energy -156297.193781 kJ/mol
# GULP energy per Si atom -5582.042635 kJ/mol
# Density = 2.036670 g / cm^3
# Si number density = 20.413157 Si / 1000 Ang^3
#
#
#
# Elastic Constant Matrix: (Units=GPa)
#
#
# Indices 1 2 3 4 5 6 
#
# 1 20.4788 0.9780 10.8174 0.0027 7.9731 -0.0008
# 2 0.9780 84.3327 35.6429 0.0069 19.3510 -0.0022
# 3 10.8174 35.6429 69.6378 0.0095 5.4589 -0.0027
# 4 0.0027 0.0069 0.0095 31.1163 -0.0012 5.9471
# 5 7.9731 19.3510 5.4589 -0.0012 32.9556 -0.0001
# 6 -0.0008 -0.0022 -0.0027 5.9471 -0.0001 30.0769
#
#
#
# Elastic Compliance Matrix: (Units=1/GPa)
#
#
# Indices 1 2 3 4 5 6 
#
# 1 0.062206 0.008830 -0.012762 -0.000005 -0.018121 0.000002
# 2 0.008830 0.018596 -0.009996 -0.000003 -0.011400 0.000001
# 3 -0.012762 -0.009996 0.021030 -0.000003 0.005474 0.000001
# 4 -0.000005 -0.000003 -0.000003 0.033400 0.000004 -0.006604
# 5 -0.018121 -0.011400 0.005474 0.000004 0.040515 -0.000002
# 6 0.000002 0.000001 0.000001 -0.006604 -0.000002 0.034554
#
#
# Mechanical properties :
#
#
# Convention : Reuss Voigt Hill
#
# Bulk Modulus (GPa) = 13.51794 29.92509 21.72152
# Shear Modulus (GPa) = 19.02487 27.29717 23.16102
#
# Velocity S-wave (km/s) = 3.05616 3.66079 3.37206
# Velocity P-wave (km/s) = 4.36922 5.70614 5.08184
#
# Compressibility (1/GPa) = 0.07397577
#
# Stress axis : x y z
#
# Youngs Moduli (GPa) = 16.07574 53.77499 47.55181
#
# Poissons Ratio (x) = -0.47486 0.60686
# Poissons Ratio (y) = -0.14196 0.47533
# Poissons Ratio (z) = 0.20516 0.53754
#
# Static dielectric constant tensor:
#      x y z
#    x 1.706370 0.000000 -0.054880 
#    y 0.000000 1.733640 0.000000 
#    z -0.054880 0.000000 1.707810 
# 
# From -- ./inp_files/329560.got.cif
#   From: 2010.05.17/outbox.cif.g08.bks.cpg/sg12_165_cif.got.tgz:329560.got - 2010.06.03 13:09:07.
