data_PCOD9193092
_publ_section_title
;
Structure prediction by ZEFSAII (Michael W. Deem and Ramdas Pophale) SiO2 
 PCOD9193092
Probable space group: C 2/M
;
_chemical_formula_sum "Si O2"
_cell_formula_units_Z 56
_cell_length_a 20.457768
_cell_length_b 8.003080
_cell_length_c 21.821300
_cell_angle_alpha 90.000000
_cell_angle_beta 125.916137
_cell_angle_gamma 90.000000
_cell_volume 2893.442148
_symmetry_space_group_name_H-M "C 2/M"
_symmetry_group_IT_number 12
_symmetry_cell_setting 'monoclinic'
loop_
_space_group_symop_operation_xyz
x,y,z
-x,y,-z
-x,-y,-z
x,-y,z
1/2+x,1/2+y,z
1/2-x,1/2+y,-z
1/2-x,1/2-y,-z
1/2+x,1/2-y,z
loop_
_atom_site_type_symbol
_atom_site_label
_atom_site_fract_x
_atom_site_fract_y
_atom_site_fract_z
Si Si1 0.490443 0.799786 0.201257
Si Si2 0.253270 0.797865 0.629576
Si Si3 0.158091 0.198597 0.952083
Si Si4 0.426138 0.199943 0.501857
Si Si5 0.090821 0.799144 0.042726
Si Si6 0.598660 0.204347 0.373225
Si Si7 0.864522 0.298797 0.802473
O O1 0.399734 0.753917 0.134882
O O2 0.530043 0.742740 0.286806
O O3 0.550521 0.738643 0.180254
O O4 0.495838 0.000000 0.204822
O O5 0.162648 0.733881 0.573978
O O6 0.314694 0.744694 0.608463
O O7 0.295762 0.745511 0.716662
O O8 0.251273 0.000000 0.627190
O O9 0.153467 0.000000 0.951381
O O10 0.250000 0.250000 0.000000
O O11 0.124609 0.268385 0.997813
O O12 0.500000 0.264276 0.500000
O O13 0.420955 0.264329 0.569216
O O14 0.437178 0.000000 0.512083
O O15 0.141216 0.757671 0.131047
O O16 0.087461 0.000000 0.036803
O O17 0.000000 0.734282 0.000000
O O18 0.600015 0.000000 0.375156
O O19 0.865244 0.500000 0.802374
#
# Coordination Sequence:
#
# PCOD9193092 Si02
#       7
#     8   8   8   8   8   8   8
#     4   9  17  33  56  78 103 138 178 218 262 310
#     4   9  18  34  55  78 104 135 174 217 257 301
#     4  11  23  38  54  76 108 142 177 218 261 311
#     4  10  20  34  52  77 108 140 172 209 258 314
#     4  10  20  35  55  79 107 137 172 219 267 307
#     4   8  16  33  56  78 102 135 175 215 256 308
#     4   9  18  32  54  82 106 134 174 220 264 310
#
# _framework density 19.354109999999999
#
# number of rings (size 3 to 8) (size 9 to 14) (size 15 to 20)
#    0.000    2.571    1.429    2.571    0.000    2.286 
#    2.571    2.857    0.000    0.000    0.000    0.000 
#    0.000    0.000    0.000    0.000    0.000    0.000 
#
# Total GULP energy -156133.108281 kJ/mol
# GULP energy per Si atom -5576.182439 kJ/mol
# Density = 1.931006 g / cm^3
# Si number density = 19.354110 Si / 1000 Ang^3
#
#
#
# Elastic Constant Matrix: (Units=GPa)
#
#
# Indices 1 2 3 4 5 6 
#
# 1 135.2305 5.3515 81.1826 0.0000 11.4541 0.0000
# 2 5.3515 10.4773 -1.1151 0.0000 -1.4013 0.0000
# 3 81.1826 -1.1151 130.9177 0.0000 10.5892 0.0000
# 4 0.0000 0.0000 0.0000 26.2066 0.0000 7.0750
# 5 11.4541 -1.4013 10.5892 0.0000 28.4457 0.0000
# 6 0.0000 0.0000 0.0000 7.0750 0.0000 11.3398
#
#
#
# Elastic Compliance Matrix: (Units=1/GPa)
#
#
# Indices 1 2 3 4 5 6 
#
# 1 0.012463 -0.007516 -0.007585 0.000000 -0.002565 0.000000
# 2 -0.007516 0.100636 0.005023 0.000000 0.006114 0.000000
# 3 -0.007585 0.005023 0.012494 0.000000 -0.001349 0.000000
# 4 0.000000 0.000000 0.000000 0.045887 0.000000 -0.028629
# 5 -0.002565 0.006114 -0.001349 0.000000 0.036991 0.000000
# 6 0.000000 0.000000 0.000000 -0.028629 0.000000 0.106047
#
#
# Mechanical properties :
#
#
# Convention : Reuss Voigt Hill
#
# Bulk Modulus (GPa) = 9.48432 49.71817 29.60125
# Shear Modulus (GPa) = 13.52018 25.94553 19.73285
#
# Velocity S-wave (km/s) = 2.64591 3.66535 3.19653
# Velocity P-wave (km/s) = 3.77432 6.60738 5.38066
#
# Compressibility (1/GPa) = 0.10543723
#
# Stress axis : x y z
#
# Youngs Moduli (GPa) = 80.23840 9.93684 80.04036
#
# Poissons Ratio (x) = 0.07469 0.60709
# Poissons Ratio (y) = 0.60308 -0.40207
# Poissons Ratio (z) = 0.60859 -0.04992
#
# Static dielectric constant tensor:
#      x y z
#    x 1.665950 0.000000 -0.021080 
#    y 0.000000 1.692880 0.000000 
#    z -0.021080 0.000000 1.674870 
# 
# From -- ./inp_files/320255.got.cif
#   From: 2010.05.17/outbox.cif.g08.bks.cpg/sg12_161_cif.got.tgz:320255.got - 2010.06.03 13:09:07.
