data_PCOD9193305
_publ_section_title
;
Structure prediction by ZEFSAII (Michael W. Deem and Ramdas Pophale) SiO2 
 PCOD9193305
Probable space group: C 2/M
;
_chemical_formula_sum "Si O2"
_cell_formula_units_Z 48
_cell_length_a 29.128610
_cell_length_b 9.115501
_cell_length_c 18.118831
_cell_angle_alpha 90.000000
_cell_angle_beta 28.666944
_cell_angle_gamma 90.000000
_cell_volume 2307.894294
_symmetry_space_group_name_H-M "C 2/M"
_symmetry_group_IT_number 12
_symmetry_cell_setting 'monoclinic'
loop_
_space_group_symop_operation_xyz
x,y,z
-x,y,-z
-x,-y,-z
x,-y,z
1/2+x,1/2+y,z
1/2-x,1/2+y,-z
1/2-x,1/2-y,-z
1/2+x,1/2-y,z
loop_
_atom_site_type_symbol
_atom_site_label
_atom_site_fract_x
_atom_site_fract_y
_atom_site_fract_z
Si Si1 0.238051 0.323104 0.437690
Si Si2 0.441932 0.674551 0.388981
Si Si3 0.083728 0.337306 0.086565
Si Si4 0.287476 0.335436 0.875807
Si Si5 0.369090 0.830825 0.629682
Si Si6 0.156175 0.832564 0.854316
O O1 0.227937 0.500000 0.456074
O O2 0.250000 0.250000 0.500000
O O3 0.145611 0.248960 0.531472
O O4 0.324510 0.293359 0.257994
O O5 0.433545 0.500000 0.402015
O O6 0.533495 0.728496 0.214554
O O7 0.434973 0.739769 0.480963
O O8 0.039472 0.500000 0.151655
O O9 0.192620 0.350675 0.959777
O O10 0.088961 0.271699 0.997130
O O11 0.322827 0.500000 0.843855
O O12 0.359188 0.243066 0.723591
O O13 0.250000 0.250000 0.000000
O O14 0.262381 0.830619 0.742568
O O15 0.398832 0.000000 0.592388
O O16 0.121333 0.000000 0.908269
#
# Coordination Sequence:
#
# PCOD9193305 Si02
#       6
#     8   8   8   8   8   8
#     4  10  20  35  55  79 107 137 172 213 257 306
#     4  11  21  34  54  78 105 137 173 213 257 306
#     4  10  20  34  53  77 104 135 172 213 256 304
#     4  10  20  34  54  79 106 137 173 213 259 309
#     4   9  17  32  53  75 102 135 172 212 254 306
#     4   8  16  31  51  74 100 133 169 206 251 304
#
# _framework density 20.798179000000001
#
# number of rings (size 3 to 8) (size 9 to 14) (size 15 to 20)
#    0.000    2.333    0.000    4.500    0.000    6.667 
#    0.000    1.667    0.000   10.000    0.000    0.000 
#    0.000    0.000    0.000    0.000    0.000    0.000 
#
# Total GULP energy -133982.985544 kJ/mol
# GULP energy per Si atom -5582.624398 kJ/mol
# Density = 2.075084 g / cm^3
# Si number density = 20.798179 Si / 1000 Ang^3
#
#
#
# Elastic Constant Matrix: (Units=GPa)
#
#
# Indices 1 2 3 4 5 6 
#
# 1 70.1720 46.3764 37.0857 0.0002 38.3039 -0.0002
# 2 46.3764 179.9557 71.9749 0.0016 41.4713 -0.0014
# 3 37.0857 71.9749 90.1370 0.0014 39.7507 -0.0010
# 4 0.0002 0.0016 0.0014 36.4764 -0.0005 12.4334
# 5 38.3039 41.4713 39.7507 -0.0005 40.6196 0.0002
# 6 -0.0002 -0.0014 -0.0010 12.4334 0.0002 22.3825
#
#
#
# Elastic Compliance Matrix: (Units=1/GPa)
#
#
# Indices 1 2 3 4 5 6 
#
# 1 0.029787 -0.001891 0.001390 -0.000001 -0.027519 0.000001
# 2 -0.001891 0.008567 -0.005263 0.000000 -0.001813 0.000000
# 3 0.001390 -0.005263 0.022753 -0.000001 -0.018203 0.000002
# 4 -0.000001 0.000000 -0.000001 0.033819 0.000003 -0.018786
# 5 -0.027519 -0.001813 -0.018203 0.000003 0.070234 -0.000003
# 6 0.000001 0.000000 0.000002 -0.018786 -0.000003 0.055113
#
#
# Mechanical properties :
#
#
# Convention : Reuss Voigt Hill
#
# Bulk Modulus (GPa) = 20.16981 72.34874 46.25928
# Shear Modulus (GPa) = 20.13477 32.21755 26.17616
#
# Velocity S-wave (km/s) = 3.11481 3.94007 3.55149
# Velocity P-wave (km/s) = 4.75973 7.45389 6.25362
#
# Compressibility (1/GPa) = 0.04957904
#
# Stress axis : x y z
#
# Youngs Moduli (GPa) = 33.57183 116.72489 43.95057
#
# Poissons Ratio (x) = 0.22068 -0.06110
# Poissons Ratio (y) = 0.06347 0.23133
# Poissons Ratio (z) = -0.04667 0.61438
#
# Static dielectric constant tensor:
#      x y z
#    x 1.768240 0.000000 -0.022320 
#    y 0.000000 1.720710 0.000000 
#    z -0.022320 0.000000 1.750850 
# 
# From -- ./inp_files/273713.got.cif
#   From: 2010.05.17/outbox.cif.g08.bks.cpg/sg12_137_cif.got.tgz:273713.got - 2010.06.03 13:09:07.
