data_PCOD9193415
_publ_section_title
;
Structure prediction by ZEFSAII (Michael W. Deem and Ramdas Pophale) SiO2 
 PCOD9193415
Probable space group: C 2/M
;
_chemical_formula_sum "Si O2"
_cell_formula_units_Z 56
_cell_length_a 30.190182
_cell_length_b 8.524149
_cell_length_c 22.452704
_cell_angle_alpha 90.000000
_cell_angle_beta 30.786149
_cell_angle_gamma 90.000000
_cell_volume 2957.437427
_symmetry_space_group_name_H-M "C 2/M"
_symmetry_group_IT_number 12
_symmetry_cell_setting 'monoclinic'
loop_
_space_group_symop_operation_xyz
x,y,z
-x,y,-z
-x,-y,-z
x,-y,z
1/2+x,1/2+y,z
1/2-x,1/2+y,-z
1/2-x,1/2-y,-z
1/2+x,1/2-y,z
loop_
_atom_site_type_symbol
_atom_site_label
_atom_site_fract_x
_atom_site_fract_y
_atom_site_fract_z
Si Si1 0.164971 0.187814 0.367109
Si Si2 0.628838 0.189366 0.282435
Si Si3 0.967666 0.312321 0.386182
Si Si4 0.514348 0.312555 0.204484
Si Si5 0.637331 0.190855 0.856752
Si Si6 0.787008 0.189544 0.019734
Si Si7 0.978941 0.689290 0.119889
O O1 0.119344 0.243070 0.359152
O O2 0.114484 0.253215 0.482145
O O3 0.264530 0.244935 0.250132
O O4 0.164882 0.000000 0.369615
O O5 0.552824 0.238875 0.325251
O O6 0.627153 0.000000 0.288024
O O7 0.720694 0.239621 0.148007
O O8 0.967970 0.500000 0.384138
O O9 0.973710 0.248820 0.312485
O O10 0.514959 0.500000 0.205045
O O11 0.614566 0.256024 0.085908
O O12 0.468250 0.255192 0.197923
O O13 0.593811 0.236082 0.844132
O O14 0.637820 0.000000 0.857631
O O15 0.571059 0.241644 0.985080
O O16 0.786652 0.000000 0.018971
O O17 0.750000 0.250000 0.000000
O O18 0.979482 0.500000 0.121812
#
# Coordination Sequence:
#
# PCOD9193415 Si02
#       7
#     8   8   8   8   8   8   8
#     4  11  22  36  56  82 110 140 181 231 277 315
#     4  10  21  37  55  78 108 145 186 223 265 324
#     4  11  23  39  56  74 106 152 193 223 263 325
#     4  11  22  35  54  84 116 142 178 228 278 319
#     4   8  17  35  59  86 111 139 178 224 268 324
#     4  10  20  34  53  78 110 143 176 219 266 316
#     4   9  17  35  62  85 109 143 180 215 268 335
#
# _framework density 18.935312
#
# number of rings (size 3 to 8) (size 9 to 14) (size 15 to 20)
#    0.000    2.000    1.429    3.429    0.000    4.000 
#    0.000    4.286    0.000    0.000    0.000    0.000 
#    0.000    0.000    0.000    0.000    0.000    0.000 
#
# Total GULP energy -156394.813339 kJ/mol
# GULP energy per Si atom -5585.529048 kJ/mol
# Density = 1.889221 g / cm^3
# Si number density = 18.935312 Si / 1000 Ang^3
#
#
#
# Elastic Constant Matrix: (Units=GPa)
#
#
# Indices 1 2 3 4 5 6 
#
# 1 113.8320 20.0453 50.9408 -0.0014 32.5384 0.0003
# 2 20.0453 20.4432 18.0098 0.0004 7.1790 0.0028
# 3 50.9408 18.0098 91.3069 -0.0038 23.6722 0.0016
# 4 -0.0014 0.0004 -0.0038 25.7425 0.0007 7.0978
# 5 32.5384 7.1790 23.6722 0.0007 27.3381 0.0003
# 6 0.0003 0.0028 0.0016 7.0978 0.0003 24.1201
#
#
#
# Elastic Compliance Matrix: (Units=1/GPa)
#
#
# Indices 1 2 3 4 5 6 
#
# 1 0.015576 -0.007236 -0.003802 0.000001 -0.013346 0.000001
# 2 -0.007236 0.063625 -0.008271 -0.000001 -0.000934 -0.000007
# 3 -0.003802 -0.008271 0.016722 0.000003 -0.007782 -0.000001
# 4 0.000001 -0.000001 0.000003 0.042276 -0.000004 -0.012441
# 5 -0.013346 -0.000934 -0.007782 -0.000004 0.059447 0.000001
# 6 0.000001 -0.000007 -0.000001 -0.012441 0.000001 0.045120
#
#
# Mechanical properties :
#
#
# Convention : Reuss Voigt Hill
#
# Bulk Modulus (GPa) = 17.45037 44.84155 31.14596
# Shear Modulus (GPa) = 16.63966 24.54590 20.59278
#
# Velocity S-wave (km/s) = 2.96761 3.60433 3.30135
# Velocity P-wave (km/s) = 4.58018 6.40737 5.56922
#
# Compressibility (1/GPa) = 0.05730537
#
# Stress axis : x y z
#
# Youngs Moduli (GPa) = 64.20334 15.71700 59.79969
#
# Poissons Ratio (x) = 0.11373 0.22739
# Poissons Ratio (y) = 0.46457 0.49458
# Poissons Ratio (z) = 0.24413 0.12999
#
# Static dielectric constant tensor:
#      x y z
#    x 1.639650 0.000000 -0.019700 
#    y 0.000000 1.647170 0.000000 
#    z -0.019700 0.000000 1.655050 
# 
# From -- ./inp_files/248909.got.cif
#   From: 2010.05.17/outbox.cif.g08.bks.cpg/sg12_125_cif.got.tgz:248909.got - 2010.06.03 13:09:07.
