data_PCOD9193858
_publ_section_title
;
Structure prediction by ZEFSAII (Michael W. Deem and Ramdas Pophale) SiO2 
 PCOD9193858
Probable space group: C 2/M
;
_chemical_formula_sum "Si O2"
_cell_formula_units_Z 56
_cell_length_a 21.146414
_cell_length_b 7.673527
_cell_length_c 18.214808
_cell_angle_alpha 90.000000
_cell_angle_beta 115.658999
_cell_angle_gamma 90.000000
_cell_volume 2664.205380
_symmetry_space_group_name_H-M "C 2/M"
_symmetry_group_IT_number 12
_symmetry_cell_setting 'monoclinic'
loop_
_space_group_symop_operation_xyz
x,y,z
-x,y,-z
-x,-y,-z
x,-y,z
1/2+x,1/2+y,z
1/2-x,1/2+y,-z
1/2-x,1/2-y,-z
1/2+x,1/2-y,z
loop_
_atom_site_type_symbol
_atom_site_label
_atom_site_fract_x
_atom_site_fract_y
_atom_site_fract_z
Si Si1 0.825317 0.707832 0.502007
Si Si2 0.092802 0.704609 0.758144
Si Si3 0.169735 0.290452 0.941091
Si Si4 0.066232 0.286192 0.320626
Si Si5 0.919368 0.286876 0.964453
Si Si6 0.687579 0.703453 0.672543
Si Si7 0.845411 0.713061 0.777292
O O1 0.830726 0.500000 0.500342
O O2 0.750000 0.750000 0.500000
O O3 0.886680 0.771601 0.586845
O O4 0.829658 0.776789 0.421694
O O5 0.084177 0.500000 0.769834
O O6 0.141655 0.775971 0.848412
O O7 0.131233 0.719181 0.699741
O O8 0.013833 0.776455 0.717288
O O9 0.165327 0.500000 0.938021
O O10 0.250000 0.250000 0.000000
O O11 0.119295 0.227884 0.981224
O O12 0.066337 0.500000 0.322076
O O13 0.105337 0.233524 0.265500
O O14 0.919474 0.500000 0.965162
O O15 0.876921 0.232243 0.870895
O O16 0.000000 0.231093 0.000000
O O17 0.689936 0.500000 0.691683
O O18 0.765932 0.774978 0.725595
O O19 0.844399 0.500000 0.775708
#
# Coordination Sequence:
#
# PCOD9193858 Si02
#       7
#     8   8   8   8   8   8   8
#     4  11  21  37  60  86 114 144 185 230 279 333
#     4  10  21  37  56  80 111 148 191 233 278 328
#     4  10  20  34  54  81 112 148 185 227 277 331
#     4   9  18  34  56  80 109 146 186 232 277 326
#     4   9  16  27  48  79 107 133 177 233 274 310
#     4  11  22  37  57  82 113 145 185 231 281 337
#     4   9  16  29  51  77 104 139 182 225 271 323
#
# _framework density 21.019400000000001
#
# number of rings (size 3 to 8) (size 9 to 14) (size 15 to 20)
#    0.000    2.143    1.429    2.571    0.000    5.714 
#    0.000    4.286    0.000    0.429    0.000    0.000 
#    0.000    0.000    0.000    0.000    0.000    0.000 
#
# Total GULP energy -156440.356679 kJ/mol
# GULP energy per Si atom -5587.155596 kJ/mol
# Density = 2.097156 g / cm^3
# Si number density = 21.019400 Si / 1000 Ang^3
#
#
#
# Elastic Constant Matrix: (Units=GPa)
#
#
# Indices 1 2 3 4 5 6 
#
# 1 157.7591 0.9577 64.9820 0.0000 5.5589 0.0000
# 2 0.9577 33.9519 1.2770 0.0000 8.0978 0.0000
# 3 64.9820 1.2770 144.3437 0.0000 -1.0907 0.0000
# 4 0.0000 0.0000 0.0000 14.5980 0.0000 3.2294
# 5 5.5589 8.0978 -1.0907 0.0000 32.6582 0.0000
# 6 0.0000 0.0000 0.0000 3.2294 0.0000 15.6173
#
#
#
# Elastic Compliance Matrix: (Units=1/GPa)
#
#
# Indices 1 2 3 4 5 6 
#
# 1 0.007853 0.000275 -0.003549 0.000000 -0.001523 0.000000
# 2 0.000275 0.031331 -0.000460 0.000000 -0.007831 0.000000
# 3 -0.003549 -0.000460 0.008537 0.000000 0.001003 0.000000
# 4 0.000000 0.000000 0.000000 0.071786 0.000000 -0.014844
# 5 -0.001523 -0.007831 0.001003 0.000000 0.032855 0.000000
# 6 0.000000 0.000000 0.000000 -0.014844 0.000000 0.067101
#
#
# Mechanical properties :
#
#
# Convention : Reuss Voigt Hill
#
# Bulk Modulus (GPa) = 24.84315 52.27645 38.55980
# Shear Modulus (GPa) = 20.80309 30.49723 25.65016
#
# Velocity S-wave (km/s) = 3.14938 3.81321 3.49708
# Velocity P-wave (km/s) = 5.00695 6.65673 5.88989
#
# Compressibility (1/GPa) = 0.04025254
#
# Stress axis : x y z
#
# Youngs Moduli (GPa) = 127.34459 31.91756 117.13227
#
# Poissons Ratio (x) = -0.00879 0.41572
# Poissons Ratio (y) = -0.03506 0.05392
# Poissons Ratio (z) = 0.45197 0.01469
#
# Static dielectric constant tensor:
#      x y z
#    x 1.701810 0.000000 0.021930 
#    y 0.000000 1.818410 0.000000 
#    z 0.021930 0.000000 1.723050 
# 
# From -- ./inp_files/281760.got.cif
#   From: 2010.05.17/outbox.cif.g08.bks.cpg/sg12_141_cif.got.tgz:281760.got - 2010.06.03 13:09:07.
