data_PCOD9193096
_publ_section_title
;
Structure prediction by ZEFSAII (Michael W. Deem and Ramdas Pophale) SiO2 
 PCOD9193096
Probable space group: C 2/M
;
_chemical_formula_sum "Si O2"
_cell_formula_units_Z 64
_cell_length_a 14.579305
_cell_length_b 7.437374
_cell_length_c 35.818347
_cell_angle_alpha 90.000000
_cell_angle_beta 49.153446
_cell_angle_gamma 90.000000
_cell_volume 2937.989118
_symmetry_space_group_name_H-M "C 2/M"
_symmetry_group_IT_number 12
_symmetry_cell_setting 'monoclinic'
loop_
_space_group_symop_operation_xyz
x,y,z
-x,y,-z
-x,-y,-z
x,-y,z
1/2+x,1/2+y,z
1/2-x,1/2+y,-z
1/2-x,1/2-y,-z
1/2+x,1/2-y,z
loop_
_atom_site_type_symbol
_atom_site_label
_atom_site_fract_x
_atom_site_fract_y
_atom_site_fract_z
Si Si1 0.101347 0.292930 0.357728
Si Si2 0.675329 0.780249 0.181710
Si Si3 0.874621 0.717627 0.885419
Si Si4 0.174442 0.785886 0.557142
Si Si5 0.054458 0.790426 0.905192
Si Si6 0.657885 0.285432 0.990117
Si Si7 0.265821 0.709467 0.378676
Si Si8 0.545364 0.218758 0.291629
O O1 0.141653 0.500000 0.343008
O O2 0.182523 0.209110 0.368593
O O3 0.103427 0.216735 0.315234
O O4 0.961275 0.290004 0.407576
O O5 0.604325 0.729117 0.162853
O O6 0.813660 0.716853 0.139448
O O7 0.614943 0.720557 0.236184
O O8 0.676900 0.000000 0.182594
O O9 0.875910 0.500000 0.887198
O O10 0.738560 0.777575 0.933884
O O11 0.971063 0.781946 0.890235
O O12 0.250000 0.750000 0.500000
O O13 0.238068 0.716343 0.578148
O O14 0.160332 0.000000 0.564998
O O15 0.073831 0.000000 0.909553
O O16 0.971412 0.713992 0.961040
O O17 0.643000 0.500000 0.989680
O O18 0.750000 0.250000 0.000000
O O19 0.229824 0.500000 0.391487
O O20 0.405691 0.722485 0.329218
O O21 0.544966 0.000000 0.292389
#
# Coordination Sequence:
#
# PCOD9193096 Si02
#       8
#     8   8   8   8   8   8   8   8
#     4   9  18  34  54  73  96 130 168 201 238 282
#     4   9  18  31  47  69  95 122 154 195 242 289
#     4   9  17  30  46  65  92 122 152 189 237 289
#     4  10  20  34  52  77 109 137 163 198 237 277
#     4   9  17  30  47  67  91 119 155 195 235 284
#     4   8  14  25  43  64  86 116 151 188 230 280
#     4   9  19  35  54  75  99 130 166 202 239 279
#     4   9  18  33  51  70  94 124 160 202 243 284
#
# _framework density 21.783605999999999
#
# number of rings (size 3 to 8) (size 9 to 14) (size 15 to 20)
#    0.000    3.000    0.000    0.375    0.000    3.000 
#    0.000    8.125    0.000    0.000    0.000    8.750 
#    0.000    0.000    0.000    0.000    0.000    0.000 
#
# Total GULP energy -178494.033067 kJ/mol
# GULP energy per Si atom -5577.938533 kJ/mol
# Density = 2.173403 g / cm^3
# Si number density = 21.783606 Si / 1000 Ang^3
#
#
#
# Elastic Constant Matrix: (Units=GPa)
#
#
# Indices 1 2 3 4 5 6 
#
# 1 109.5204 -6.1080 46.5801 0.0000 34.6418 0.0006
# 2 -6.1080 69.9776 -9.1404 0.0030 5.3809 0.0024
# 3 46.5801 -9.1404 153.7014 0.0000 35.5134 0.0009
# 4 0.0000 0.0030 0.0000 7.1766 0.0008 -5.5204
# 5 34.6418 5.3809 35.5134 0.0008 20.6285 0.0007
# 6 0.0006 0.0024 0.0009 -5.5204 0.0007 2.5533
#
#
#
# Elastic Compliance Matrix: (Units=1/GPa)
#
#
# Indices 1 2 3 4 5 6 
#
# 1 0.022394 0.006120 0.004376 -0.000005 -0.046736 -0.000010
# 2 0.006120 0.017077 0.004259 0.000022 -0.022064 0.000035
# 3 0.004376 0.004259 0.012268 -0.000001 -0.029579 -0.000003
# 4 -0.000005 0.000022 -0.000001 -0.210145 0.000028 -0.454339
# 5 -0.046736 -0.022064 -0.029579 0.000028 0.183639 0.000052
# 6 -0.000010 0.000035 -0.000003 -0.454339 0.000052 -0.590647
#
#
# Mechanical properties :
#
#
# Convention : Reuss Voigt Hill
#
# Bulk Modulus (GPa) = 12.30795 43.98475 28.14635
# Shear Modulus (GPa) = -8.80526 26.19621 8.69548
#
# Velocity S-wave (km/s) = -2.01269 3.47156 2.00010
# Velocity P-wave (km/s) = 0.51101 6.02532 4.27584
#
# Compressibility (1/GPa) = 0.08124830
#
# Stress axis : x y z
#
# Youngs Moduli (GPa) = 44.65542 58.55706 81.51543
#
# Poissons Ratio (x) = -0.35837 -0.35671
# Poissons Ratio (y) = -0.27329 -0.34716
# Poissons Ratio (z) = -0.19541 -0.24938
#
# Static dielectric constant tensor:
#      x y z
#    x 1.794950 0.000000 0.034990 
#    y 0.000000 1.882660 0.000000 
#    z 0.034990 0.000000 1.777390 
# 
# From -- ./inp_files/375516.got.cif
#   From: 2010.05.17/outbox.cif.g08.bks.cpg/sg12_188_cif.got.tgz:375516.got - 2010.06.03 13:09:07.
