data_PCOD9193570
_publ_section_title
;
Structure prediction by ZEFSAII (Michael W. Deem and Ramdas Pophale) SiO2 
 PCOD9193570
Probable space group: C 2/M
;
_chemical_formula_sum "Si O2"
_cell_formula_units_Z 42
_cell_length_a 15.650825
_cell_length_b 17.212180
_cell_length_c 14.297156
_cell_angle_alpha 90.000000
_cell_angle_beta 36.274989
_cell_angle_gamma 90.000000
_cell_volume 2278.746135
_symmetry_space_group_name_H-M "C 2/M"
_symmetry_group_IT_number 12
_symmetry_cell_setting 'monoclinic'
loop_
_space_group_symop_operation_xyz
x,y,z
-x,y,-z
-x,-y,-z
x,-y,z
1/2+x,1/2+y,z
1/2-x,1/2+y,-z
1/2-x,1/2-y,-z
1/2+x,1/2-y,z
loop_
_atom_site_type_symbol
_atom_site_label
_atom_site_fract_x
_atom_site_fract_y
_atom_site_fract_z
Si Si1 0.521206 0.379547 0.804478
Si Si2 0.649355 0.860560 0.254746
Si Si3 0.840041 0.589537 0.545869
Si Si4 0.500000 0.500000 0.000000
Si Si5 0.112603 0.265886 0.983444
Si Si6 0.236667 0.415350 0.975054
O O1 0.689700 0.386080 0.632864
O O2 0.500934 0.432216 0.915877
O O3 0.469838 0.292534 0.873471
O O4 0.410368 0.408514 0.823830
O O5 0.681440 0.906335 0.322444
O O6 0.475879 0.855722 0.404306
O O7 0.744690 0.782635 0.173379
O O8 0.695679 0.905487 0.120718
O O9 0.875299 0.500000 0.491114
O O10 0.163719 0.344618 0.986061
O O11 0.000000 0.279636 0.000000
O O12 0.191544 0.500000 0.981186
#
# Coordination Sequence:
#
# PCOD9193570 Si02
#       6
#     8   8   8   2   8   8
#     4  11  19  32  55  86 112 143 171 217 282 335
#     4  10  20  34  53  84 116 137 171 219 276 334
#     4  11  19  30  55  88 118 143 164 209 281 357
#     4  12  16  28  60  86 116 144 164 216 276 352
#     4  11  22  39  56  74 110 149 191 229 274 312
#     4  11  22  37  57  80 107 145 192 233 264 318
#
# _framework density 18.431187999999999
#
# number of rings (size 3 to 8) (size 9 to 14) (size 15 to 20)
#    0.000    1.143    4.762    5.714    0.000    0.381 
#    0.000    3.810    0.000    0.000    0.000    2.667 
#    0.000    0.000    0.000    0.000    0.000    0.000 
#
# Total GULP energy -116926.826178 kJ/mol
# GULP energy per Si atom -5567.944104 kJ/mol
# Density = 1.838924 g / cm^3
# Si number density = 18.431188 Si / 1000 Ang^3
#
#
#
# Elastic Constant Matrix: (Units=GPa)
#
#
# Indices 1 2 3 4 5 6 
#
# 1 64.0627 60.2007 41.0510 0.0001 -31.0778 -0.0001
# 2 60.2007 131.4698 31.6865 0.0000 -26.6694 -0.0002
# 3 41.0510 31.6865 80.6564 0.0002 -34.5352 -0.0005
# 4 0.0001 0.0000 0.0002 4.1956 -0.0001 4.2537
# 5 -31.0778 -26.6694 -34.5352 -0.0001 25.7785 0.0002
# 6 -0.0001 -0.0002 -0.0005 4.2537 0.0002 15.2691
#
#
#
# Elastic Compliance Matrix: (Units=1/GPa)
#
#
# Indices 1 2 3 4 5 6 
#
# 1 0.052590 -0.014231 -0.000780 0.000001 0.047634 0.000000
# 2 -0.014231 0.013522 0.001348 0.000000 -0.001362 0.000000
# 3 -0.000780 0.001348 0.029224 -0.000002 0.039605 0.000001
# 4 0.000001 0.000000 -0.000002 0.332165 0.000000 -0.092535
# 5 0.047634 -0.001362 0.039605 0.000000 0.147868 0.000000
# 6 0.000000 0.000000 0.000001 -0.092535 0.000000 0.091270
#
#
# Mechanical properties :
#
#
# Convention : Reuss Voigt Hill
#
# Bulk Modulus (GPa) = 14.70375 60.22948 37.46662
# Shear Modulus (GPa) = 6.97706 18.59868 12.78787
#
# Velocity S-wave (km/s) = 1.94774 3.18006 2.63690
# Velocity P-wave (km/s) = 3.61292 6.79946 5.44453
#
# Compressibility (1/GPa) = 0.06800984
#
# Stress axis : x y z
#
# Youngs Moduli (GPa) = 19.01493 73.95627 34.21903
#
# Poissons Ratio (x) = 1.05244 0.02669
# Poissons Ratio (y) = 0.27059 -0.04612
# Poissons Ratio (z) = 0.01483 -0.09968
#
# Static dielectric constant tensor:
#      x y z
#    x 1.647620 0.000000 -0.049310 
#    y 0.000000 1.627490 0.000000 
#    z -0.049310 0.000000 1.708100 
# 
# From -- ./inp_files/215772.got.cif
#   From: 2010.05.17/outbox.cif.g08.bks.cpg/sg12_108_cif.got.tgz:215772.got - 2010.06.03 13:09:07.
