data_PCOD9193241
_publ_section_title
;
Structure prediction by ZEFSAII (Michael W. Deem and Ramdas Pophale) SiO2 
 PCOD9193241
Probable space group: C 2/M
;
_chemical_formula_sum "Si O2"
_cell_formula_units_Z 56
_cell_length_a 19.453980
_cell_length_b 8.635092
_cell_length_c 33.245465
_cell_angle_alpha 90.000000
_cell_angle_beta 30.854180
_cell_angle_gamma 90.000000
_cell_volume 2864.193418
_symmetry_space_group_name_H-M "C 2/M"
_symmetry_group_IT_number 12
_symmetry_cell_setting 'monoclinic'
loop_
_space_group_symop_operation_xyz
x,y,z
-x,y,-z
-x,-y,-z
x,-y,z
1/2+x,1/2+y,z
1/2-x,1/2+y,-z
1/2-x,1/2-y,-z
1/2+x,1/2-y,z
loop_
_atom_site_type_symbol
_atom_site_label
_atom_site_fract_x
_atom_site_fract_y
_atom_site_fract_z
Si Si1 0.108083 0.316794 0.321336
Si Si2 0.845735 0.815513 0.075257
Si Si3 0.594881 0.684404 0.243862
Si Si4 0.902586 0.311660 0.584073
Si Si5 0.089501 0.812786 0.738167
Si Si6 0.170466 0.683628 0.002155
Si Si7 0.098996 0.317446 0.818541
O O1 0.088176 0.500000 0.329181
O O2 0.051074 0.241240 0.309763
O O3 0.059701 0.260223 0.389600
O O4 0.266860 0.279312 0.241831
O O5 0.743417 0.744404 0.158608
O O6 0.845175 0.000000 0.080090
O O7 0.795025 0.766700 0.056617
O O8 0.000000 0.760014 0.000000
O O9 0.597979 0.500000 0.242365
O O10 0.496315 0.735093 0.257377
O O11 0.908844 0.500000 0.581311
O O12 0.746975 0.272802 0.654339
O O13 0.000000 0.255384 0.500000
O O14 0.044076 0.733462 0.802410
O O15 0.079141 0.000000 0.747854
O O16 0.194246 0.500000 0.986351
O O17 0.014343 0.709713 0.091401
O O18 0.250000 0.750000 0.000000
O O19 0.131604 0.500000 0.801743
#
# Coordination Sequence:
#
# PCOD9193241 Si02
#       7
#     8   8   8   8   8   8   8
#     4  10  20  34  55  80 105 137 176 214 256 311
#     4  11  24  39  55  76 104 140 182 228 274 319
#     4  11  22  36  54  77 109 143 177 220 266 316
#     4   8  15  32  58  83 106 136 175 214 254 308
#     4   9  19  34  54  80 107 140 178 216 262 313
#     4  11  23  36  52  75 103 137 178 224 272 319
#     4  10  20  34  53  76 102 135 176 220 265 315
#
# _framework density 19.551750999999999
#
# number of rings (size 3 to 8) (size 9 to 14) (size 15 to 20)
#    0.000    2.000    0.000    4.714    0.000    9.143 
#    0.000    0.714    0.000   10.714    0.000    0.000 
#    0.000    0.000    0.000    0.000    0.000    0.000 
#
# Total GULP energy -156398.000362 kJ/mol
# GULP energy per Si atom -5585.642870 kJ/mol
# Density = 1.950725 g / cm^3
# Si number density = 19.551751 Si / 1000 Ang^3
#
#
#
# Elastic Constant Matrix: (Units=GPa)
#
#
# Indices 1 2 3 4 5 6 
#
# 1 95.7228 3.4101 26.4970 0.0018 27.1747 0.0215
# 2 3.4101 18.3980 16.1685 0.0002 6.3133 0.0083
# 3 26.4970 16.1685 88.8650 -0.0013 26.4389 0.0002
# 4 0.0018 0.0002 -0.0013 16.3374 0.0000 8.2528
# 5 27.1747 6.3133 26.4389 0.0000 29.2142 0.0023
# 6 0.0215 0.0083 0.0002 8.2528 0.0023 29.3128
#
#
#
# Elastic Compliance Matrix: (Units=1/GPa)
#
#
# Indices 1 2 3 4 5 6 
#
# 1 0.014308 0.002581 -0.000835 0.000004 -0.013111 -0.000011
# 2 0.002581 0.065610 -0.010639 0.000010 -0.006951 -0.000022
# 3 -0.000835 -0.010639 0.017137 -0.000001 -0.012433 0.000005
# 4 0.000004 0.000010 -0.000001 0.071358 -0.000004 -0.020090
# 5 -0.013111 -0.006951 -0.012433 -0.000004 0.059180 0.000008
# 6 -0.000011 -0.000022 0.000005 -0.020090 0.000008 0.039771
#
#
# Mechanical properties :
#
#
# Convention : Reuss Voigt Hill
#
# Bulk Modulus (GPa) = 12.61517 32.79298 22.70408
# Shear Modulus (GPa) = 16.04758 25.43355 20.74056
#
# Velocity S-wave (km/s) = 2.86802 3.61062 3.26053
# Velocity P-wave (km/s) = 4.17536 5.84730 5.08058
#
# Compressibility (1/GPa) = 0.07926964
#
# Stress axis : x y z
#
# Youngs Moduli (GPa) = 69.88979 15.24148 58.35429
#
# Poissons Ratio (x) = -0.03934 0.04873
# Poissons Ratio (y) = -0.18039 0.62082
# Poissons Ratio (z) = 0.05836 0.16215
#
# Static dielectric constant tensor:
#      x y z
#    x 1.731170 0.000000 0.004070 
#    y 0.000000 1.657420 0.000000 
#    z 0.004070 0.000000 1.681360 
# 
# From -- ./inp_files/275048.got.cif
#   From: 2010.05.17/outbox.cif.g08.bks.cpg/sg12_138_cif.got.tgz:275048.got - 2010.06.03 13:09:07.
