data_PCOD9193054
_publ_section_title
;
Structure prediction by ZEFSAII (Michael W. Deem and Ramdas Pophale) SiO2 
 PCOD9193054
Probable space group: C 2/M
;
_chemical_formula_sum "Si O2"
_cell_formula_units_Z 52
_cell_length_a 11.292264
_cell_length_b 13.308463
_cell_length_c 21.251179
_cell_angle_alpha 90.000000
_cell_angle_beta 66.115939
_cell_angle_gamma 90.000000
_cell_volume 2920.198137
_symmetry_space_group_name_H-M "C 2/M"
_symmetry_group_IT_number 12
_symmetry_cell_setting 'monoclinic'
loop_
_space_group_symop_operation_xyz
x,y,z
-x,y,-z
-x,-y,-z
x,-y,z
1/2+x,1/2+y,z
1/2-x,1/2+y,-z
1/2-x,1/2-y,-z
1/2+x,1/2-y,z
loop_
_atom_site_type_symbol
_atom_site_label
_atom_site_fract_x
_atom_site_fract_y
_atom_site_fract_z
Si Si1 0.137371 0.883646 0.156669
Si Si2 0.870779 0.882719 0.145045
Si Si3 0.697297 0.385961 0.378268
Si Si4 0.029501 0.614128 0.611796
Si Si5 0.345470 0.234931 0.039733
Si Si6 0.500000 0.251960 0.500000
Si Si7 0.829834 0.746079 0.733955
O O1 0.272488 0.850206 0.096388
O O2 0.111869 0.808922 0.220292
O O3 0.021400 0.872363 0.131374
O O4 0.140342 0.000000 0.176025
O O5 0.843797 0.835689 0.082656
O O6 0.787647 0.818685 0.212631
O O7 0.836501 0.000000 0.155077
O O8 0.648673 0.500000 0.379745
O O9 0.836639 0.390186 0.380088
O O10 0.605247 0.322917 0.444348
O O11 0.708690 0.327249 0.310261
O O12 0.987137 0.500000 0.606225
O O13 0.049484 0.679322 0.544699
O O14 0.927579 0.670696 0.678327
O O15 0.500000 0.212001 0.000000
O O16 0.250000 0.250000 0.000000
#
# Coordination Sequence:
#
# PCOD9193054 Si02
#       7
#     8   8   8   8   8   4   8
#     4  10  21  37  58  83 113 147 186 230 277 333
#     4  10  21  37  59  83 111 149 188 226 276 338
#     4  10  20  34  53  77 108 142 179 225 280 331
#     4  10  20  34  53  77 107 141 181 229 277 325
#     4  11  22  39  61  86 116 149 187 232 280 331
#     4  10  20  34  52  76 104 144 184 224 270 332
#     4  10  20  35  56  80 109 142 183 228 277 330
#
# _framework density 17.807010999999999
#
# number of rings (size 3 to 8) (size 9 to 14) (size 15 to 20)
#    0.000    1.846    1.538    2.769    0.000    1.231 
#    0.000    0.000    0.000   14.769    0.000    0.000 
#    0.000    0.000    0.000    0.000    0.000    0.000 
#
# Total GULP energy -144968.814518 kJ/mol
# GULP energy per Si atom -5575.723635 kJ/mol
# Density = 1.776648 g / cm^3
# Si number density = 17.807011 Si / 1000 Ang^3
#
#
#
# Elastic Constant Matrix: (Units=GPa)
#
#
# Indices 1 2 3 4 5 6 
#
# 1 87.4210 50.9731 44.3432 0.0000 7.9784 0.0000
# 2 50.9731 151.0084 54.3798 0.0000 5.1454 0.0000
# 3 44.3432 54.3798 98.2888 0.0000 10.0282 0.0000
# 4 0.0000 0.0000 0.0000 22.3269 0.0000 2.9562
# 5 7.9784 5.1454 10.0282 0.0000 16.1343 0.0000
# 6 0.0000 0.0000 0.0000 2.9562 0.0000 29.8097
#
#
#
# Elastic Compliance Matrix: (Units=1/GPa)
#
#
# Indices 1 2 3 4 5 6 
#
# 1 0.016446 -0.003609 -0.005030 0.000000 -0.003856 0.000000
# 2 -0.003609 0.009062 -0.003495 0.000000 0.001066 0.000000
# 3 -0.005030 -0.003495 0.014958 0.000000 -0.005695 0.000000
# 4 0.000000 0.000000 0.000000 0.045385 0.000000 -0.004501
# 5 -0.003856 0.001066 -0.005695 0.000000 0.067086 0.000000
# 6 0.000000 0.000000 0.000000 -0.004501 0.000000 0.033992
#
#
# Mechanical properties :
#
#
# Convention : Reuss Voigt Hill
#
# Bulk Modulus (GPa) = 61.72793 70.67892 66.20343
# Shear Modulus (GPa) = 23.08440 26.12232 24.60336
#
# Velocity S-wave (km/s) = 3.60441 3.83426 3.72111
# Velocity P-wave (km/s) = 7.21544 7.70583 7.46466
#
# Compressibility (1/GPa) = 0.01620012
#
# Stress axis : x y z
#
# Youngs Moduli (GPa) = 60.80411 110.34593 66.85471
#
# Poissons Ratio (x) = 0.39822 0.33626
# Poissons Ratio (y) = 0.21943 0.23363
# Poissons Ratio (z) = 0.30583 0.38562
#
# Static dielectric constant tensor:
#      x y z
#    x 1.590760 0.000000 0.004050 
#    y 0.000000 1.606030 0.000000 
#    z 0.004050 0.000000 1.604910 
# 
# From -- ./inp_files/304660.got.cif
#   From: 2010.05.17/outbox.cif.g08.bks.cpg/sg12_153_cif.got.tgz:304660.got - 2010.06.03 13:09:07.
