data_PCOD9193716
_publ_section_title
;
Structure prediction by ZEFSAII (Michael W. Deem and Ramdas Pophale) SiO2 
 PCOD9193716
Probable space group: C 2/M
;
_chemical_formula_sum "Si O2"
_cell_formula_units_Z 48
_cell_length_a 20.556936
_cell_length_b 8.695502
_cell_length_c 21.795406
_cell_angle_alpha 90.000000
_cell_angle_beta 44.873567
_cell_angle_gamma 90.000000
_cell_volume 2748.796222
_symmetry_space_group_name_H-M "C 2/M"
_symmetry_group_IT_number 12
_symmetry_cell_setting 'monoclinic'
loop_
_space_group_symop_operation_xyz
x,y,z
-x,y,-z
-x,-y,-z
x,-y,z
1/2+x,1/2+y,z
1/2-x,1/2+y,-z
1/2-x,1/2-y,-z
1/2+x,1/2-y,z
loop_
_atom_site_type_symbol
_atom_site_label
_atom_site_fract_x
_atom_site_fract_y
_atom_site_fract_z
Si Si1 0.145093 0.815592 0.731343
Si Si2 0.650742 0.685150 0.400820
Si Si3 0.647680 0.315259 0.070797
Si Si4 0.497532 0.816910 0.738051
Si Si5 0.996729 0.814620 0.602651
Si Si6 0.999133 0.186787 0.070160
O O1 0.249804 0.761050 0.663030
O O2 0.087811 0.745025 0.713191
O O3 0.089609 0.767890 0.830113
O O4 0.140343 0.000000 0.730015
O O5 0.660537 0.500000 0.394292
O O6 0.592008 0.727231 0.379485
O O7 0.586341 0.725936 0.501970
O O8 0.649635 0.500000 0.072155
O O9 0.589615 0.252884 0.167209
O O10 0.588639 0.268890 0.050014
O O11 0.750000 0.250000 0.000000
O O12 0.497144 0.762888 0.668234
O O13 0.494753 0.000000 0.743798
O O14 0.996330 0.000000 0.609963
O O15 0.998608 0.000000 0.068172
O O16 0.000000 0.244424 0.000000
#
# Coordination Sequence:
#
# PCOD9193716 Si02
#       6
#     8   8   8   8   8   8
#     4  10  20  34  54  79 108 141 176 220 269 317
#     4   9  19  36  57  79 106 140 174 216 271 327
#     4  10  20  35  55  79 108 140 174 217 268 319
#     4  11  22  36  55  78 106 142 183 224 265 312
#     4   9  19  37  57  78 107 140 175 218 270 323
#     4   8  16  32  52  74 101 133 170 212 257 304
#
# _framework density 17.46219
#
# number of rings (size 3 to 8) (size 9 to 14) (size 15 to 20)
#    0.000    2.500    0.000    4.500    0.000    3.333 
#    0.000    3.333    0.000   17.000    0.000    0.000 
#    0.000    0.000    0.000    0.000    0.000    0.000 
#
# Total GULP energy -133910.003020 kJ/mol
# GULP energy per Si atom -5579.583459 kJ/mol
# Density = 1.742245 g / cm^3
# Si number density = 17.462190 Si / 1000 Ang^3
#
#
#
# Elastic Constant Matrix: (Units=GPa)
#
#
# Indices 1 2 3 4 5 6 
#
# 1 152.6211 62.8203 136.6560 0.0000 0.1204 0.0000
# 2 62.8203 66.7438 60.7497 -0.0002 -0.9660 0.0003
# 3 136.6560 60.7497 142.4975 0.0000 -1.5101 0.0000
# 4 0.0000 -0.0002 0.0000 27.7460 0.0000 -7.3816
# 5 0.1204 -0.9660 -1.5101 0.0000 43.4558 0.0000
# 6 0.0000 0.0003 0.0000 -7.3816 0.0000 27.1393
#
#
#
# Elastic Compliance Matrix: (Units=1/GPa)
#
#
# Indices 1 2 3 4 5 6 
#
# 1 0.047622 -0.005332 -0.043416 0.000000 -0.001759 0.000000
# 2 -0.005332 0.025081 -0.005576 0.000000 0.000379 0.000000
# 3 -0.043416 -0.005576 0.051049 0.000000 0.001770 0.000000
# 4 0.000000 0.000000 0.000000 0.038853 0.000000 0.010568
# 5 -0.001759 0.000379 0.001770 0.000000 0.023087 0.000000
# 6 0.000000 0.000000 0.000000 0.010568 0.000000 0.039721
#
#
# Mechanical properties :
#
#
# Convention : Reuss Voigt Hill
#
# Bulk Modulus (GPa) = 66.19451 98.03493 82.11472
# Shear Modulus (GPa) = 14.74513 26.44399 20.59456
#
# Velocity S-wave (km/s) = 2.90901 3.89570 3.43794
# Velocity P-wave (km/s) = 7.01946 8.74634 7.93004
#
# Compressibility (1/GPa) = 0.01510699
#
# Stress axis : x y z
#
# Youngs Moduli (GPa) = 20.99855 39.87055 19.58889
#
# Poissons Ratio (x) = 0.21258 0.85047
# Poissons Ratio (y) = 0.11196 0.10922
# Poissons Ratio (z) = 0.91167 0.22230
#
# Static dielectric constant tensor:
#      x y z
#    x 1.573850 0.000000 0.007230 
#    y 0.000000 1.586170 0.000000 
#    z 0.007230 0.000000 1.574080 
# 
# From -- ./inp_files/249379.got.cif
#   From: 2010.05.17/outbox.cif.g08.bks.cpg/sg12_125_cif.got.tgz:249379.got - 2010.06.03 13:09:07.
