data_PCOD9193888
_publ_section_title
;
Structure prediction by ZEFSAII (Michael W. Deem and Ramdas Pophale) SiO2 
 PCOD9193888
Probable space group: C 2/M
;
_chemical_formula_sum "Si O2"
_cell_formula_units_Z 64
_cell_length_a 33.116464
_cell_length_b 7.620048
_cell_length_c 25.288389
_cell_angle_alpha 90.000000
_cell_angle_beta 26.981876
_cell_angle_gamma 90.000000
_cell_volume 2895.341999
_symmetry_space_group_name_H-M "C 2/M"
_symmetry_group_IT_number 12
_symmetry_cell_setting 'monoclinic'
loop_
_space_group_symop_operation_xyz
x,y,z
-x,y,-z
-x,-y,-z
x,-y,z
1/2+x,1/2+y,z
1/2-x,1/2+y,-z
1/2-x,1/2-y,-z
1/2+x,1/2-y,z
loop_
_atom_site_type_symbol
_atom_site_label
_atom_site_fract_x
_atom_site_fract_y
_atom_site_fract_z
Si Si1 0.121697 0.794121 0.502612
Si Si2 0.422581 0.712401 0.751643
Si Si3 0.932136 0.712948 0.033336
Si Si4 0.382299 0.284540 0.913942
Si Si5 0.965365 0.795868 0.191195
Si Si6 0.785131 0.705893 0.821972
Si Si7 0.268246 0.291055 0.417548
Si Si8 0.767303 0.794644 0.724042
O O1 0.192567 0.781311 0.467323
O O2 0.166983 0.718097 0.396716
O O3 0.024412 0.722698 0.630331
O O4 0.105471 0.000000 0.511477
O O5 0.422214 0.500000 0.753852
O O6 0.376124 0.771667 0.860388
O O7 0.367713 0.767623 0.764475
O O8 0.930678 0.500000 0.031571
O O9 0.832875 0.778538 0.160611
O O10 0.000000 0.763663 0.000000
O O11 0.970129 0.781651 0.934045
O O12 0.381189 0.500000 0.916578
O O13 0.477059 0.224464 0.827267
O O14 0.301898 0.223745 0.045318
O O15 0.868493 0.721032 0.290412
O O16 0.948916 0.000000 0.223060
O O17 0.770431 0.500000 0.830790
O O18 0.798350 0.783076 0.748365
O O19 0.266454 0.500000 0.411286
O O20 0.250000 0.250000 0.500000
O O21 0.757894 0.000000 0.721405
#
# Coordination Sequence:
#
# PCOD9193888 Si02
#       8
#     8   8   8   8   8   8   8   8
#     4  10  22  41  63  85 116 158 201 246 294 348
#     4  10  21  39  62  84 111 151 196 244 298 355
#     4  10  20  34  54  82 114 147 187 237 286 336
#     4   9  18  35  58  84 115 147 186 238 292 349
#     4  10  20  36  57  83 114 150 191 232 285 345
#     4  11  22  37  59  86 117 152 191 244 300 350
#     4  11  23  38  60  88 121 159 198 243 291 346
#     4  10  21  38  59  84 117 156 197 240 292 356
#
# _framework density 22.104469000000002
#
# number of rings (size 3 to 8) (size 9 to 14) (size 15 to 20)
#    0.000    1.875    1.250    2.625    0.000    5.750 
#    0.000    3.750    0.000    0.000    0.000    0.000 
#    0.000    0.000    0.000    0.000    0.000    0.000 
#
# Total GULP energy -178805.911764 kJ/mol
# GULP energy per Si atom -5587.684743 kJ/mol
# Density = 2.205416 g / cm^3
# Si number density = 22.104469 Si / 1000 Ang^3
#
#
#
# Elastic Constant Matrix: (Units=GPa)
#
#
# Indices 1 2 3 4 5 6 
#
# 1 122.2803 -23.3755 37.1207 -0.0099 -2.4675 -0.0071
# 2 -23.3755 41.1945 -4.6811 0.0152 -1.7573 -0.0034
# 3 37.1207 -4.6811 110.8741 -0.0135 1.1373 -0.0153
# 4 -0.0099 0.0152 -0.0135 11.2404 0.0067 4.8688
# 5 -2.4675 -1.7573 1.1373 0.0067 38.7397 0.0006
# 6 -0.0071 -0.0034 -0.0153 4.8688 0.0006 8.7251
#
#
#
# Elastic Compliance Matrix: (Units=1/GPa)
#
#
# Indices 1 2 3 4 5 6 
#
# 1 0.010216 0.005476 -0.003199 -0.000006 0.000993 0.000008
# 2 0.005476 0.027372 -0.000694 -0.000053 0.001611 0.000043
# 3 -0.003199 -0.000694 0.010067 0.000005 -0.000531 0.000012
# 4 -0.000006 -0.000053 0.000005 0.117324 -0.000022 -0.065469
# 5 0.000993 0.001611 -0.000531 -0.000022 0.025965 0.000011
# 6 0.000008 0.000043 0.000012 -0.065469 0.000011 0.151145
#
#
# Mechanical properties :
#
#
# Convention : Reuss Voigt Hill
#
# Bulk Modulus (GPa) = 19.67761 32.49746 26.08754
# Shear Modulus (GPa) = 14.05032 29.42669 21.73851
#
# Velocity S-wave (km/s) = 2.52391 3.65260 3.13939
# Velocity P-wave (km/s) = 4.17312 5.70283 4.99686
#
# Compressibility (1/GPa) = 0.05081917
#
# Stress axis : x y z
#
# Youngs Moduli (GPa) = 97.88616 36.53354 99.33938
#
# Poissons Ratio (x) = -0.20005 0.31782
# Poissons Ratio (y) = -0.53600 0.06896
# Poissons Ratio (z) = 0.31317 0.02536
#
# Static dielectric constant tensor:
#      x y z
#    x 1.766390 -0.000010 -0.001600 
#    y -0.000010 1.832600 0.000010 
#    z -0.001600 0.000010 1.824930 
# 
# From -- ./inp_files/353364.got.cif
#   From: 2010.05.17/outbox.cif.g08.bks.cpg/sg12_177_cif.got.tgz:353364.got - 2010.06.03 13:09:07.
