data_PCOD9193611
_publ_section_title
;
Structure prediction by ZEFSAII (Michael W. Deem and Ramdas Pophale) SiO2 
 PCOD9193611
Probable space group: C 2/M
;
_chemical_formula_sum "Si O2"
_cell_formula_units_Z 48
_cell_length_a 17.065612
_cell_length_b 7.389074
_cell_length_c 14.954306
_cell_angle_alpha 90.000000
_cell_angle_beta 92.182522
_cell_angle_gamma 90.000000
_cell_volume 1884.356136
_symmetry_space_group_name_H-M "C 2/M"
_symmetry_group_IT_number 12
_symmetry_cell_setting 'monoclinic'
loop_
_space_group_symop_operation_xyz
x,y,z
-x,y,-z
-x,-y,-z
x,-y,z
1/2+x,1/2+y,z
1/2-x,1/2+y,-z
1/2-x,1/2-y,-z
1/2+x,1/2-y,z
loop_
_atom_site_type_symbol
_atom_site_label
_atom_site_fract_x
_atom_site_fract_y
_atom_site_fract_z
Si Si1 0.917224 0.280499 0.955797
Si Si2 0.818781 0.292186 0.112954
Si Si3 0.089161 0.218789 0.715046
Si Si4 0.825299 0.791334 0.784088
Si Si5 0.667779 0.715485 0.544524
Si Si6 0.422703 0.278258 0.626745
O O1 0.916675 0.500000 0.954536
O O2 0.897995 0.215082 0.856031
O O3 0.849263 0.215901 0.020994
O O4 0.000000 0.222624 0.000000
O O5 0.797270 0.500000 0.093525
O O6 0.890389 0.289929 0.186429
O O7 0.746782 0.206556 0.164374
O O8 0.154141 0.280177 0.644811
O O9 0.006149 0.275688 0.670118
O O10 0.089425 0.000000 0.722015
O O11 0.854822 0.714922 0.691881
O O12 0.804371 0.000000 0.765750
O O13 0.658976 0.500000 0.549901
O O14 0.750000 0.750000 0.500000
O O15 0.600160 0.780210 0.473594
O O16 0.422916 0.500000 0.626967
#
# Coordination Sequence:
#
# PCOD9193611 Si02
#       6
#     8   8   8   8   8   8
#     4  10  21  36  53  75 105 139 172 210 259 309
#     4  10  21  36  53  76 107 139 169 209 264 311
#     4  10  20  34  55  80 102 133 177 215 250 300
#     4  10  20  34  54  77 101 135 175 213 256 305
#     4  10  20  35  55  78 106 138 171 210 255 304
#     4   9  18  34  54  76 104 136 171 213 259 304
#
# _framework density 25.472892000000002
#
# number of rings (size 3 to 8) (size 9 to 14) (size 15 to 20)
#    0.000    2.167    0.000    3.000    0.000    5.667 
#    0.000    1.667    0.000    2.000    0.000    0.000 
#    0.000    0.000    0.000    0.000    0.000    0.000 
#
# Total GULP energy -134299.688766 kJ/mol
# GULP energy per Si atom -5595.820365 kJ/mol
# Density = 2.541491 g / cm^3
# Si number density = 25.472892 Si / 1000 Ang^3
#
#
#
# Elastic Constant Matrix: (Units=GPa)
#
#
# Indices 1 2 3 4 5 6 
#
# 1 67.4448 2.0835 -13.2216 0.0000 2.7453 0.0000
# 2 2.0835 98.5159 0.1122 0.0000 -3.9060 0.0000
# 3 -13.2216 0.1122 109.8082 0.0000 -0.5072 0.0000
# 4 0.0000 0.0000 0.0000 2.5375 0.0000 -0.0937
# 5 2.7453 -3.9060 -0.5072 0.0000 49.6480 0.0000
# 6 0.0000 0.0000 0.0000 -0.0937 0.0000 -0.4597
#
#
#
# Elastic Compliance Matrix: (Units=1/GPa)
#
#
# Indices 1 2 3 4 5 6 
#
# 1 0.015231 -0.000358 0.001830 0.000000 -0.000852 0.000000
# 2 -0.000358 0.010191 -0.000050 0.000000 0.000821 0.000000
# 3 0.001830 -0.000050 0.009327 0.000000 -0.000010 0.000000
# 4 0.000000 0.000000 0.000000 0.391143 0.000000 -0.079714
# 5 -0.000852 0.000821 -0.000010 0.000000 0.020253 0.000000
# 6 0.000000 0.000000 0.000000 -0.079714 0.000000 -2.158903
#
#
# Mechanical properties :
#
#
# Convention : Reuss Voigt Hill
#
# Bulk Modulus (GPa) = 26.59936 28.19080 27.39508
# Shear Modulus (GPa) = -2.93587 29.46482 13.26447
#
# Velocity S-wave (km/s) = -1.07473 3.40474 2.28442
# Velocity P-wave (km/s) = 2.98744 5.15241 4.21142
#
# Compressibility (1/GPa) = 0.03759489
#
# Stress axis : x y z
#
# Youngs Moduli (GPa) = 65.65344 98.12749 107.21349
#
# Poissons Ratio (x) = 0.03513 -0.19624
# Poissons Ratio (y) = 0.02350 0.00533
# Poissons Ratio (z) = -0.12017 0.00488
#
# Static dielectric constant tensor:
#      x y z
#    x 2.051160 0.000000 -0.033140 
#    y 0.000000 1.980140 0.000000 
#    z -0.033140 0.000000 1.962050 
# 
# From -- ./inp_files/212861.got.cif
#   From: 2010.05.17/outbox.cif.g08.bks.cpg/sg12_107_cif.got.tgz:212861.got - 2010.06.03 13:09:07.
