data_PCOD9193554
_publ_section_title
;
Structure prediction by ZEFSAII (Michael W. Deem and Ramdas Pophale) SiO2 
 PCOD9193554
Probable space group: C 2/M
;
_chemical_formula_sum "Si O2"
_cell_formula_units_Z 64
_cell_length_a 8.692311
_cell_length_b 30.141487
_cell_length_c 15.216853
_cell_angle_alpha 90.000000
_cell_angle_beta 129.073471
_cell_angle_gamma 90.000000
_cell_volume 3095.108011
_symmetry_space_group_name_H-M "C 2/M"
_symmetry_group_IT_number 12
_symmetry_cell_setting 'monoclinic'
loop_
_space_group_symop_operation_xyz
x,y,z
-x,y,-z
-x,-y,-z
x,-y,z
1/2+x,1/2+y,z
1/2-x,1/2+y,-z
1/2-x,1/2-y,-z
1/2+x,1/2-y,z
loop_
_atom_site_type_symbol
_atom_site_label
_atom_site_fract_x
_atom_site_fract_y
_atom_site_fract_z
Si Si1 0.425753 0.300256 0.697110
Si Si2 0.965616 0.051595 0.784130
Si Si3 0.190858 0.609524 0.007592
Si Si4 0.513577 0.215305 0.610808
Si Si5 0.686172 0.357614 0.502920
Si Si6 0.769519 0.050209 0.883655
Si Si7 0.294087 0.949845 0.479192
Si Si8 0.779545 0.705319 0.956907
O O1 0.442588 0.258668 0.636411
O O2 0.247340 0.294291 0.702742
O O3 0.381452 0.342623 0.619859
O O4 0.628817 0.300241 0.822310
O O5 0.785240 0.061318 0.786907
O O6 0.881818 0.052966 0.656381
O O7 0.138925 0.084844 0.874343
O O8 0.025812 0.000000 0.824194
O O9 0.247701 0.659340 0.000697
O O10 0.153383 0.582011 0.905945
O O11 0.000000 0.611038 0.000000
O O12 0.500000 0.221143 0.500000
O O13 0.371041 0.175115 0.587831
O O14 0.500000 0.350494 0.500000
O O15 0.757830 0.408384 0.529440
O O16 0.699490 0.000000 0.868370
O O17 0.000000 0.052248 0.000000
O O18 0.500000 0.944307 0.500000
O O19 0.294829 0.000000 0.517181
O O20 0.750000 0.750000 0.000000
O O21 0.000000 0.706875 0.000000
#
# Coordination Sequence:
#
# PCOD9193554 Si02
#       8
#     8   8   8   8   8   8   8   8
#     4  11  20  38  62  83 115 151 189 241 292 337
#     4   9  18  35  59  84 110 144 185 226 275 333
#     4  10  20  34  53  82 116 146 181 231 284 333
#     4  10  20  35  60  91 114 140 186 241 297 344
#     4  11  22  37  60  90 118 146 187 237 292 352
#     4   8  15  30  54  81 106 136 178 225 269 319
#     4  10  21  39  60  82 113 152 191 232 282 342
#     4  11  25  41  55  77 112 154 198 233 277 341
#
# _framework density 20.677790999999999
#
# number of rings (size 3 to 8) (size 9 to 14) (size 15 to 20)
#    0.000    2.000    0.000    6.375    0.000    2.750 
#    0.000    7.500    0.000    3.000    0.000    0.000 
#    0.000    0.000    0.000    0.000    0.000    0.125 
#
# Total GULP energy -178639.023256 kJ/mol
# GULP energy per Si atom -5582.469477 kJ/mol
# Density = 2.063073 g / cm^3
# Si number density = 20.677791 Si / 1000 Ang^3
#
#
#
# Elastic Constant Matrix: (Units=GPa)
#
#
# Indices 1 2 3 4 5 6 
#
# 1 101.7818 59.6594 4.6785 0.0000 15.5900 0.0000
# 2 59.6594 145.1157 9.5083 0.0000 2.2752 0.0000
# 3 4.6785 9.5083 28.3764 0.0000 20.3989 0.0000
# 4 0.0000 0.0000 0.0000 11.8429 0.0000 -1.7427
# 5 15.5900 2.2752 20.3989 0.0000 28.4450 0.0000
# 6 0.0000 0.0000 0.0000 -1.7427 0.0000 33.8496
#
#
#
# Elastic Compliance Matrix: (Units=1/GPa)
#
#
# Indices 1 2 3 4 5 6 
#
# 1 0.015958 -0.007061 0.011593 0.000000 -0.016495 0.000000
# 2 -0.007061 0.010246 -0.009210 0.000000 0.009656 0.000000
# 3 0.011593 -0.009210 0.083499 0.000000 -0.065497 0.000000
# 4 0.000000 0.000000 0.000000 0.085083 0.000000 0.004380
# 5 -0.016495 0.009656 -0.065497 0.000000 0.090394 0.000000
# 6 0.000000 0.000000 0.000000 0.004380 0.000000 0.029768
#
#
# Mechanical properties :
#
#
# Convention : Reuss Voigt Hill
#
# Bulk Modulus (GPa) = 9.96557 46.99626 28.48091
# Shear Modulus (GPa) = 13.97607 28.25603 21.11605
#
# Velocity S-wave (km/s) = 2.60262 3.70062 3.19908
# Velocity P-wave (km/s) = 3.72310 6.40599 5.23919
#
# Compressibility (1/GPa) = 0.10034550
#
# Stress axis : x y z
#
# Youngs Moduli (GPa) = 62.66596 97.59730 11.97614
#
# Poissons Ratio (x) = 0.68917 -0.13884
# Poissons Ratio (y) = 0.44251 0.11030
# Poissons Ratio (z) = -0.72646 0.89888
#
# Static dielectric constant tensor:
#      x y z
#    x 1.722440 0.000000 0.017920 
#    y 0.000000 1.763680 0.000000 
#    z 0.017920 0.000000 1.780680 
# 
# From -- ./inp_files/201320.got.cif
#   From: 2010.05.17/outbox.cif.g08.bks.cpg/sg12_101_cif.got.tgz:201320.got - 2010.06.03 13:09:07.
