data_PCOD9193893
_publ_section_title
;
Structure prediction by ZEFSAII (Michael W. Deem and Ramdas Pophale) SiO2 
 PCOD9193893
Probable space group: C 2/M
;
_chemical_formula_sum "Si O2"
_cell_formula_units_Z 56
_cell_length_a 14.663656
_cell_length_b 9.200899
_cell_length_c 26.494614
_cell_angle_alpha 90.000000
_cell_angle_beta 115.593782
_cell_angle_gamma 90.000000
_cell_volume 3223.877991
_symmetry_space_group_name_H-M "C 2/M"
_symmetry_group_IT_number 12
_symmetry_cell_setting 'monoclinic'
loop_
_space_group_symop_operation_xyz
x,y,z
-x,y,-z
-x,-y,-z
x,-y,z
1/2+x,1/2+y,z
1/2-x,1/2+y,-z
1/2-x,1/2-y,-z
1/2+x,1/2-y,z
loop_
_atom_site_type_symbol
_atom_site_label
_atom_site_fract_x
_atom_site_fract_y
_atom_site_fract_z
Si Si1 0.911044 0.832065 0.437803
Si Si2 0.796011 0.825837 0.860173
Si Si3 0.280741 0.326818 0.059056
Si Si4 0.768521 0.827310 0.557814
Si Si5 0.995998 0.826811 0.845154
Si Si6 0.926180 0.672794 0.234710
Si Si7 0.510681 0.671159 0.352469
O O1 0.822094 0.721893 0.428237
O O2 0.000000 0.810058 0.500000
O O3 0.952656 0.813956 0.391580
O O4 0.876701 0.000000 0.435872
O O5 0.781769 0.741493 0.909301
O O6 0.896417 0.784846 0.853016
O O7 0.692653 0.796816 0.804442
O O8 0.800607 0.000000 0.870910
O O9 0.264895 0.500000 0.052620
O O10 0.399835 0.301162 0.099287
O O11 0.250000 0.250000 0.000000
O O12 0.750000 0.750000 0.500000
O O13 0.874599 0.783494 0.608012
O O14 0.771397 0.000000 0.550562
O O15 0.010558 0.743477 0.796020
O O16 0.989362 0.000000 0.833651
O O17 0.939618 0.500000 0.237501
O O18 0.961422 0.739406 0.295796
O O19 0.510679 0.500000 0.338909
#
# Coordination Sequence:
#
# PCOD9193893 Si02
#       7
#     8   8   8   8   8   8   8
#     4  10  20  38  58  79 109 142 176 217 272 331
#     4   9  19  37  58  79 107 144 184 229 273 319
#     4  10  20  34  54  82 115 150 186 225 269 321
#     4  11  22  37  57  81 107 140 179 220 268 325
#     4   9  19  37  59  79 107 149 187 221 274 331
#     4  10  21  36  56  82 109 136 179 234 275 317
#     4  10  22  39  57  77 110 148 177 217 276 336
#
# _framework density 17.370384000000001
#
# number of rings (size 3 to 8) (size 9 to 14) (size 15 to 20)
#    0.000    2.143    1.429    1.286    0.000    5.429 
#    0.000    7.143    0.000    0.000    0.000    0.000 
#    0.000    0.000    0.000    0.000    0.000    0.000 
#
# Total GULP energy -156287.029135 kJ/mol
# GULP energy per Si atom -5581.679612 kJ/mol
# Density = 1.733085 g / cm^3
# Si number density = 17.370384 Si / 1000 Ang^3
#
#
#
# Elastic Constant Matrix: (Units=GPa)
#
#
# Indices 1 2 3 4 5 6 
#
# 1 113.8474 45.4636 50.2935 0.0000 -9.1508 0.0000
# 2 45.4636 53.2914 65.9779 0.0000 -4.4542 0.0000
# 3 50.2935 65.9779 138.1720 0.0000 -15.0878 0.0000
# 4 0.0000 0.0000 0.0000 36.6005 0.0000 -4.3137
# 5 -9.1508 -4.4542 -15.0878 0.0000 12.9185 0.0000
# 6 0.0000 0.0000 0.0000 -4.3137 0.0000 30.6057
#
#
#
# Elastic Compliance Matrix: (Units=1/GPa)
#
#
# Indices 1 2 3 4 5 6 
#
# 1 0.014141 -0.014962 0.002897 0.000000 0.008242 0.000000
# 2 -0.014962 0.063189 -0.026941 0.000000 -0.020276 0.000000
# 3 0.002897 -0.026941 0.020926 0.000000 0.017203 0.000000
# 4 0.000000 0.000000 0.000000 0.027784 0.000000 0.003916
# 5 0.008242 -0.020276 0.017203 0.000000 0.096347 0.000000
# 6 0.000000 0.000000 0.000000 0.003916 0.000000 0.033226
#
#
# Mechanical properties :
#
#
# Convention : Reuss Voigt Hill
#
# Bulk Modulus (GPa) = 49.39732 69.86453 59.63092
# Shear Modulus (GPa) = 14.68984 25.59665 20.14325
#
# Velocity S-wave (km/s) = 2.91122 3.84289 3.40903
# Velocity P-wave (km/s) = 6.30870 7.74585 7.06392
#
# Compressibility (1/GPa) = 0.02024401
#
# Stress axis : x y z
#
# Youngs Moduli (GPa) = 70.71559 15.82562 47.78794
#
# Poissons Ratio (x) = 0.23678 -0.13844
# Poissons Ratio (y) = 1.05804 1.28745
# Poissons Ratio (z) = -0.20487 0.42636
#
# Static dielectric constant tensor:
#      x y z
#    x 1.582270 0.000000 0.005500 
#    y 0.000000 1.579650 0.000000 
#    z 0.005500 0.000000 1.561460 
# 
# From -- ./inp_files/338209.got.cif
#   From: 2010.05.17/outbox.cif.g08.bks.cpg/sg12_170_cif.got.tgz:338209.got - 2010.06.03 13:09:07.
