data_PCOD9193024
_publ_section_title
;
Structure prediction by ZEFSAII (Michael W. Deem and Ramdas Pophale) SiO2 
 PCOD9193024
Probable space group: C 2/M
;
_chemical_formula_sum "Si O2"
_cell_formula_units_Z 56
_cell_length_a 14.709074
_cell_length_b 9.247951
_cell_length_c 25.198108
_cell_angle_alpha 90.000000
_cell_angle_beta 116.676023
_cell_angle_gamma 90.000000
_cell_volume 3062.825009
_symmetry_space_group_name_H-M "C 2/M"
_symmetry_group_IT_number 12
_symmetry_cell_setting 'monoclinic'
loop_
_space_group_symop_operation_xyz
x,y,z
-x,y,-z
-x,-y,-z
x,-y,z
1/2+x,1/2+y,z
1/2-x,1/2+y,-z
1/2-x,1/2-y,-z
1/2+x,1/2-y,z
loop_
_atom_site_type_symbol
_atom_site_label
_atom_site_fract_x
_atom_site_fract_y
_atom_site_fract_z
Si Si1 0.418725 0.173710 0.728765
Si Si2 0.119628 0.827757 0.820070
Si Si3 0.600455 0.673811 0.493776
Si Si4 0.674312 0.826663 0.409088
Si Si5 0.716970 0.163672 0.939206
Si Si6 0.068614 0.162811 0.064534
Si Si7 0.666061 0.170452 0.181024
O O1 0.523364 0.256797 0.766544
O O2 0.366995 0.213316 0.659627
O O3 0.348199 0.207017 0.761170
O O4 0.436507 0.000000 0.733139
O O5 0.139410 0.751784 0.881985
O O6 0.220829 0.800877 0.811241
O O7 0.107868 0.000000 0.823436
O O8 0.500000 0.718144 0.500000
O O9 0.595940 0.500000 0.485713
O O10 0.612791 0.748725 0.439932
O O11 0.705898 0.708106 0.552131
O O12 0.664332 0.000000 0.412579
O O13 0.819673 0.152881 0.931557
O O14 0.681783 0.000000 0.941845
O O15 0.750000 0.250000 0.000000
O O16 0.084979 0.247262 0.123024
O O17 0.028969 0.000000 0.064253
O O18 0.000000 0.230617 0.000000
O O19 0.647936 0.000000 0.169831
#
# Coordination Sequence:
#
# PCOD9193024 Si02
#       7
#     8   8   8   8   8   8   8
#     4  10  21  37  56  79 110 148 183 221 276 327
#     4  10  21  37  55  77 105 139 182 228 273 326
#     4   9  18  34  58  85 114 149 186 224 266 313
#     4   9  19  35  54  81 116 148 182 225 268 320
#     4  10  20  34  52  75 104 135 170 219 277 334
#     4   9  19  34  51  73 100 130 166 216 272 324
#     4   9  20  37  54  75 103 137 177 222 270 327
#
# _framework density 18.283773
#
# number of rings (size 3 to 8) (size 9 to 14) (size 15 to 20)
#    0.000    2.571    0.000    0.857    2.000    4.000 
#    0.000    2.857    0.000    0.000    0.000    0.000 
#    0.000    0.000    0.000    0.000    0.000    0.000 
#
# Total GULP energy -156187.546232 kJ/mol
# GULP energy per Si atom -5578.126651 kJ/mol
# Density = 1.824216 g / cm^3
# Si number density = 18.283773 Si / 1000 Ang^3
#
#
#
# Elastic Constant Matrix: (Units=GPa)
#
#
# Indices 1 2 3 4 5 6 
#
# 1 101.5675 50.2753 72.1696 0.0000 -10.9361 0.0000
# 2 50.2753 57.3083 74.7879 0.0000 -6.7637 0.0000
# 3 72.1696 74.7879 196.3385 0.0000 -15.5055 0.0000
# 4 0.0000 0.0000 0.0000 30.6660 0.0000 -3.7366
# 5 -10.9361 -6.7637 -15.5055 0.0000 20.2706 0.0000
# 6 0.0000 0.0000 0.0000 -3.7366 0.0000 11.3146
#
#
#
# Elastic Compliance Matrix: (Units=1/GPa)
#
#
# Indices 1 2 3 4 5 6 
#
# 1 0.017878 -0.014007 -0.000898 0.000000 0.004285 0.000000
# 2 -0.014007 0.045718 -0.012407 0.000000 -0.001793 0.000000
# 3 -0.000898 -0.012407 0.010413 0.000000 0.003341 0.000000
# 4 0.000000 0.000000 0.000000 0.033977 0.000000 0.011221
# 5 0.004285 -0.001793 0.003341 0.000000 0.053602 0.000000
# 6 0.000000 0.000000 0.000000 0.011221 0.000000 0.092087
#
#
# Mechanical properties :
#
#
# Convention : Reuss Voigt Hill
#
# Bulk Modulus (GPa) = 51.58639 83.29776 67.44207
# Shear Modulus (GPa) = 15.88513 22.98235 19.43374
#
# Velocity S-wave (km/s) = 2.95076 3.54924 3.26374
# Velocity P-wave (km/s) = 6.31544 7.90274 7.15326
#
# Compressibility (1/GPa) = 0.01938496
#
# Stress axis : x y z
#
# Youngs Moduli (GPa) = 55.93369 21.87344 96.03114
#
# Poissons Ratio (x) = 0.30638 0.08623
# Poissons Ratio (y) = 0.78345 1.19150
# Poissons Ratio (z) = 0.05022 0.27139
#
# Static dielectric constant tensor:
#      x y z
#    x 1.641130 0.000000 -0.002110 
#    y 0.000000 1.635190 0.000000 
#    z -0.002110 0.000000 1.603050 
# 
# From -- ./inp_files/339048.got.cif
#   From: 2010.05.17/outbox.cif.g08.bks.cpg/sg12_170_cif.got.tgz:339048.got - 2010.06.03 13:09:07.
