data_PCOD9193350
_publ_section_title
;
Structure prediction by ZEFSAII (Michael W. Deem and Ramdas Pophale) SiO2 
 PCOD9193350
Probable space group: C 2/M
;
_chemical_formula_sum "Si O2"
_cell_formula_units_Z 44
_cell_length_a 13.004572
_cell_length_b 11.990704
_cell_length_c 20.494114
_cell_angle_alpha 90.000000
_cell_angle_beta 31.636678
_cell_angle_gamma 90.000000
_cell_volume 1676.258840
_symmetry_space_group_name_H-M "C 2/M"
_symmetry_group_IT_number 12
_symmetry_cell_setting 'monoclinic'
loop_
_space_group_symop_operation_xyz
x,y,z
-x,y,-z
-x,-y,-z
x,-y,z
1/2+x,1/2+y,z
1/2-x,1/2+y,-z
1/2-x,1/2-y,-z
1/2+x,1/2-y,z
loop_
_atom_site_type_symbol
_atom_site_label
_atom_site_fract_x
_atom_site_fract_y
_atom_site_fract_z
Si Si1 0.101168 0.000000 0.238719
Si Si2 0.149738 0.289923 0.366480
Si Si3 0.487676 0.623539 0.896263
Si Si4 0.430504 0.127201 0.295543
Si Si5 0.608155 0.623268 0.574778
Si Si6 0.732593 0.202518 0.910783
O O1 0.917882 0.102413 0.335198
O O2 0.261622 0.101307 0.143030
O O3 0.294592 0.369419 0.250141
O O4 0.280241 0.193576 0.330610
O O5 0.015337 0.218878 0.389727
O O6 0.000000 0.339593 0.500000
O O7 0.454474 0.500000 0.942141
O O8 0.336018 0.643140 0.918280
O O9 0.453507 0.730835 0.960225
O O10 0.630261 0.194675 0.186549
O O11 0.312512 0.121029 0.428310
O O12 0.457727 0.000000 0.259311
O O13 0.493348 0.500000 0.625975
#
# Coordination Sequence:
#
# PCOD9193350 Si02
#       6
#     4   8   8   8   8   8
#     4  10  20  36  52  76 114 140 174 218 256 318
#     4   9  17  32  55  80 109 135 175 221 260 304
#     4  10  20  35  55  79 103 136 175 227 265 311
#     4   9  16  30  54  82 106 140 172 218 261 301
#     4   8  17  32  51  79 105 140 171 215 253 305
#     4  10  20  34  53  77 110 138 174 217 268 315
#
# _framework density 26.248930000000001
#
# number of rings (size 3 to 8) (size 9 to 14) (size 15 to 20)
#    0.545    2.182    0.909    1.091    0.000    3.273 
#    3.273    1.818    0.000    3.273    0.000    0.000 
#    0.000    0.000    0.000    0.000    0.000    0.000 
#
# Total GULP energy -122490.077392 kJ/mol
# GULP energy per Si atom -5567.730791 kJ/mol
# Density = 2.618919 g / cm^3
# Si number density = 26.248930 Si / 1000 Ang^3
#
#
#
# Elastic Constant Matrix: (Units=GPa)
#
#
# Indices 1 2 3 4 5 6 
#
# 1 40.1424 32.2165 11.1917 -0.0003 5.5546 0.0000
# 2 32.2165 198.3079 74.5988 -0.0013 -2.7376 0.0002
# 3 11.1917 74.5988 157.1934 -0.0054 0.7993 0.0001
# 4 -0.0003 -0.0013 -0.0054 49.7098 0.0004 4.6067
# 5 5.5546 -2.7376 0.7993 0.0004 29.4380 0.0004
# 6 0.0000 0.0002 0.0001 4.6067 0.0004 1.6233
#
#
#
# Elastic Compliance Matrix: (Units=1/GPa)
#
#
# Indices 1 2 3 4 5 6 
#
# 1 0.029699 -0.005021 0.000299 0.000000 -0.006079 0.000002
# 2 -0.005021 0.007000 -0.002973 0.000000 0.001679 -0.000001
# 3 0.000299 -0.002973 0.007754 0.000001 -0.000544 -0.000003
# 4 0.000000 0.000000 0.000001 0.027295 0.000001 -0.077461
# 5 -0.006079 0.001679 -0.000544 0.000001 0.035288 -0.000009
# 6 0.000002 -0.000001 -0.000003 -0.077461 -0.000009 0.835861
#
#
# Mechanical properties :
#
#
# Convention : Reuss Voigt Hill
#
# Bulk Modulus (GPa) = 34.40809 70.18419 52.29614
# Shear Modulus (GPa) = 5.16543 34.66333 19.91438
#
# Velocity S-wave (km/s) = 1.40433 3.63790 2.75739
# Velocity P-wave (km/s) = 3.97069 6.66646 5.48671
#
# Compressibility (1/GPa) = 0.02906293
#
# Stress axis : x y z
#
# Youngs Moduli (GPa) = 33.67127 142.85782 128.96709
#
# Poissons Ratio (x) = 0.71734 -0.03861
# Poissons Ratio (y) = 0.16908 0.38342
# Poissons Ratio (z) = -0.01008 0.42471
#
# Static dielectric constant tensor:
#      x y z
#    x 2.172520 0.000000 -0.005930 
#    y 0.000000 2.083480 0.000000 
#    z -0.005930 0.000000 2.200120 
# 
# From -- ./inp_files/164387.got.cif
#   From: 2010.05.17/outbox.cif.g08.bks.cpg/sg12_83_cif.got.tgz:164387.got - 2010.06.03 13:09:07.
