data_PCOD9193556
_publ_section_title
;
Structure prediction by ZEFSAII (Michael W. Deem and Ramdas Pophale) SiO2 
 PCOD9193556
Probable space group: C 2/M
;
_chemical_formula_sum "Si O2"
_cell_formula_units_Z 58
_cell_length_a 23.458419
_cell_length_b 7.560935
_cell_length_c 19.174989
_cell_angle_alpha 90.000000
_cell_angle_beta 52.025386
_cell_angle_gamma 90.000000
_cell_volume 2680.968922
_symmetry_space_group_name_H-M "C 2/M"
_symmetry_group_IT_number 12
_symmetry_cell_setting 'monoclinic'
loop_
_space_group_symop_operation_xyz
x,y,z
-x,y,-z
-x,-y,-z
x,-y,z
1/2+x,1/2+y,z
1/2-x,1/2+y,-z
1/2-x,1/2-y,-z
1/2+x,1/2-y,z
loop_
_atom_site_type_symbol
_atom_site_label
_atom_site_fract_x
_atom_site_fract_y
_atom_site_fract_z
Si Si1 0.081516 0.213813 0.419930
Si Si2 0.314724 0.207257 0.531054
Si Si3 0.653298 0.295722 0.646125
Si Si4 0.252348 0.791904 0.916676
Si Si5 0.502619 0.283557 0.195116
Si Si6 0.408995 0.711825 0.011259
Si Si7 0.596547 0.298760 0.254025
Si Si8 0.000000 0.500000 0.000000
O O1 0.137561 0.274359 0.436247
O O2 0.094876 0.282312 0.331868
O O3 0.000000 0.263681 0.500000
O O4 0.086632 0.000000 0.416296
O O5 0.351524 0.289670 0.434674
O O6 0.233019 0.280123 0.602113
O O7 0.307309 0.000000 0.519631
O O8 0.655274 0.500000 0.667539
O O9 0.579994 0.220967 0.734644
O O10 0.320935 0.697439 0.832526
O O11 0.264933 0.000000 0.898281
O O12 0.250000 0.750000 0.000000
O O13 0.174611 0.752027 0.942536
O O14 0.503294 0.500000 0.195229
O O15 0.544053 0.234933 0.092971
O O16 0.548396 0.221019 0.227865
O O17 0.417629 0.500000 0.017363
O O18 0.438023 0.841834 0.047921
O O19 0.569065 0.500000 0.282838
#
# Coordination Sequence:
#
# PCOD9193556 Si02
#       8
#     8   8   8   8   8   8   8   2
#     4  10  21  38  59  83 116 159 200 244 304 373
#     4  10  20  34  53  82 116 150 191 246 300 356
#     4   9  18  35  59  80 108 154 201 241 297 359
#     4  11  22  38  64  92 126 162 204 265 323 381
#     4   9  17  36  62  86 113 151 200 254 301 363
#     4  10  23  43  65  94 127 168 215 261 320 385
#     4  10  20  35  60  91 119 153 203 253 308 376
#     4  12  26  44  68  90 128 176 206 262 316 390
#
# _framework density 21.633970999999999
#
# number of rings (size 3 to 8) (size 9 to 14) (size 15 to 20)
#    0.000    2.069    1.379    1.862    1.931    3.586 
#    3.724    1.379    0.000    0.000    0.000    0.000 
#    0.000    0.000    0.000    0.000    0.000    0.000 
#
# Total GULP energy -161666.947299 kJ/mol
# GULP energy per Si atom -5574.722321 kJ/mol
# Density = 2.158473 g / cm^3
# Si number density = 21.633971 Si / 1000 Ang^3
#
#
#
# Elastic Constant Matrix: (Units=GPa)
#
#
# Indices 1 2 3 4 5 6 
#
# 1 102.1017 14.0441 23.3296 0.0013 -6.4306 -0.0028
# 2 14.0441 65.2905 -11.2365 0.0045 -5.6621 -0.0076
# 3 23.3296 -11.2365 92.3211 0.0020 -14.4894 -0.0028
# 4 0.0013 0.0045 0.0020 6.4199 -0.0020 -3.2489
# 5 -6.4306 -5.6621 -14.4894 -0.0020 33.4744 0.0029
# 6 -0.0028 -0.0076 -0.0028 -3.2489 0.0029 16.3265
#
#
#
# Elastic Compliance Matrix: (Units=1/GPa)
#
#
# Indices 1 2 3 4 5 6 
#
# 1 0.010902 -0.002846 -0.003056 0.000001 0.000290 0.000000
# 2 -0.002846 0.016831 0.003357 -0.000008 0.003753 0.000006
# 3 -0.003056 0.003357 0.012885 -0.000003 0.005558 0.000002
# 4 0.000001 -0.000008 -0.000003 0.173209 0.000004 0.034468
# 5 0.000290 0.003753 0.005558 0.000004 0.032970 -0.000002
# 6 0.000000 0.000006 0.000002 0.034468 -0.000002 0.068109
#
#
# Mechanical properties :
#
#
# Convention : Reuss Voigt Hill
#
# Bulk Modulus (GPa) = 28.14614 34.66529 31.40571
# Shear Modulus (GPa) = 15.06754 26.81589 20.94172
#
# Velocity S-wave (km/s) = 2.64195 3.52451 3.11465
# Velocity P-wave (km/s) = 4.72704 5.71150 5.24243
#
# Compressibility (1/GPa) = 0.03552885
#
# Stress axis : x y z
#
# Youngs Moduli (GPa) = 91.72542 59.41247 77.61074
#
# Poissons Ratio (x) = 0.16907 0.23716
# Poissons Ratio (y) = 0.26103 -0.26052
# Poissons Ratio (z) = 0.28029 -0.19943
#
# Static dielectric constant tensor:
#      x y z
#    x 1.787000 -0.000010 0.011710 
#    y -0.000010 1.805540 0.000020 
#    z 0.011710 0.000020 1.776170 
# 
# From -- ./inp_files/282136.got.cif
#   From: 2010.05.17/outbox.cif.g08.bks.cpg/sg12_142_cif.got.tgz:282136.got - 2010.06.03 13:09:07.
