data_PCOD9193998
_publ_section_title
;
Structure prediction by ZEFSAII (Michael W. Deem and Ramdas Pophale) SiO2 
 PCOD9193998
Probable space group: C 2/M
;
_chemical_formula_sum "Si O2"
_cell_formula_units_Z 64
_cell_length_a 28.968923
_cell_length_b 8.711683
_cell_length_c 14.626498
_cell_angle_alpha 90.000000
_cell_angle_beta 120.502340
_cell_angle_gamma 90.000000
_cell_volume 3180.421712
_symmetry_space_group_name_H-M "C 2/M"
_symmetry_group_IT_number 12
_symmetry_cell_setting 'monoclinic'
loop_
_space_group_symop_operation_xyz
x,y,z
-x,y,-z
-x,-y,-z
x,-y,z
1/2+x,1/2+y,z
1/2-x,1/2+y,-z
1/2-x,1/2-y,-z
1/2+x,1/2-y,z
loop_
_atom_site_type_symbol
_atom_site_label
_atom_site_fract_x
_atom_site_fract_y
_atom_site_fract_z
Si Si1 0.267720 0.676596 0.613341
Si Si2 0.852663 0.676815 0.472155
Si Si3 0.830909 0.317692 0.839376
Si Si4 0.014790 0.814634 0.618329
Si Si5 0.441633 0.314174 0.903064
Si Si6 0.125213 0.685590 0.703230
Si Si7 0.243357 0.315200 0.891880
Si Si8 0.072154 0.183652 0.319529
O O1 0.285246 0.500000 0.619841
O O2 0.250000 0.750000 0.500000
O O3 0.210696 0.676635 0.608416
O O4 0.309078 0.767329 0.717417
O O5 0.868734 0.500000 0.501840
O O6 0.878319 0.740540 0.405637
O O7 0.871566 0.767394 0.579791
O O8 0.830798 0.500000 0.847025
O O9 0.891181 0.253451 0.907014
O O10 0.789623 0.248152 0.871639
O O11 0.073905 0.754374 0.701368
O O12 0.000000 0.762763 0.500000
O O13 0.972276 0.761893 0.651870
O O14 0.014851 0.000000 0.617930
O O15 0.437568 0.500000 0.901579
O O16 0.436734 0.262028 0.792402
O O17 0.500000 0.271722 0.000000
O O18 0.122367 0.500000 0.700104
O O19 0.183441 0.729246 0.799090
O O20 0.246366 0.500000 0.894461
O O21 0.250000 0.250000 0.000000
O O22 0.069550 0.000000 0.314598
#
# Coordination Sequence:
#
# PCOD9193998 Si02
#       8
#     8   8   8   8   8   8   8   8
#     4  11  22  38  59  90 128 167 210 262 319 382
#     4  10  20  35  56  83 119 158 197 247 308 367
#     4  12  25  42  66  96 128 167 212 261 320 384
#     4  10  20  34  54  85 123 159 201 254 306 367
#     4  10  23  44  67  89 119 164 214 264 319 376
#     4  10  21  38  59  85 119 160 202 248 304 365
#     4  11  24  45  68  95 129 166 211 263 316 378
#     4  10  21  37  58  87 121 159 205 256 311 372
#
# _framework density 20.123117000000001
#
# number of rings (size 3 to 8) (size 9 to 14) (size 15 to 20)
#    0.000    1.500    2.500    2.625    0.000    6.500 
#    0.000    1.250    0.000    0.000    0.000    0.000 
#    0.000    0.000    0.000    0.000    0.000    0.000 
#
# Total GULP energy -178762.610104 kJ/mol
# GULP energy per Si atom -5586.331566 kJ/mol
# Density = 2.007732 g / cm^3
# Si number density = 20.123117 Si / 1000 Ang^3
#
#
#
# Elastic Constant Matrix: (Units=GPa)
#
#
# Indices 1 2 3 4 5 6 
#
# 1 124.7382 32.2165 57.1658 0.0000 19.1393 0.0000
# 2 32.2165 44.1916 30.3896 0.0000 6.5385 0.0000
# 3 57.1658 30.3896 122.0490 0.0000 13.3561 0.0000
# 4 0.0000 0.0000 0.0000 28.4274 0.0000 3.7481
# 5 19.1393 6.5385 13.3561 0.0000 35.0851 0.0000
# 6 0.0000 0.0000 0.0000 3.7481 0.0000 26.1184
#
#
#
# Elastic Compliance Matrix: (Units=1/GPa)
#
#
# Indices 1 2 3 4 5 6 
#
# 1 0.011723 -0.005407 -0.003710 0.000000 -0.003975 0.000000
# 2 -0.005407 0.030029 -0.004857 0.000000 -0.000797 0.000000
# 3 -0.003710 -0.004857 0.011290 0.000000 -0.001369 0.000000
# 4 0.000000 0.000000 0.000000 0.035856 0.000000 -0.005146
# 5 -0.003975 -0.000797 -0.001369 0.000000 0.031340 0.000000
# 6 0.000000 0.000000 0.000000 -0.005146 0.000000 0.039026
#
#
# Mechanical properties :
#
#
# Convention : Reuss Voigt Hill
#
# Bulk Modulus (GPa) = 39.84956 58.94697 49.39826
# Shear Modulus (GPa) = 25.56534 29.33996 27.45265
#
# Velocity S-wave (km/s) = 3.56820 3.82255 3.69756
# Velocity P-wave (km/s) = 6.06811 6.98851 6.54451
#
# Compressibility (1/GPa) = 0.02509438
#
# Stress axis : x y z
#
# Youngs Moduli (GPa) = 85.29946 33.30120 88.57269
#
# Poissons Ratio (x) = 0.18007 0.32857
# Poissons Ratio (y) = 0.46125 0.43020
# Poissons Ratio (z) = 0.31643 0.16175
#
# Static dielectric constant tensor:
#      x y z
#    x 1.752360 0.000000 -0.003240 
#    y 0.000000 1.681670 0.000000 
#    z -0.003240 0.000000 1.699810 
# 
# From -- ./inp_files/250106.got.cif
#   From: 2010.05.17/outbox.cif.g08.bks.cpg/sg12_126_cif.got.tgz:250106.got - 2010.06.03 13:09:07.
