data_PCOD9193669
_publ_section_title
;
Structure prediction by ZEFSAII (Michael W. Deem and Ramdas Pophale) SiO2 
 PCOD9193669
Probable space group: C 2/M
;
_chemical_formula_sum "Si O2"
_cell_formula_units_Z 60
_cell_length_a 9.189033
_cell_length_b 14.405793
_cell_length_c 21.860298
_cell_angle_alpha 90.000000
_cell_angle_beta 71.450530
_cell_angle_gamma 90.000000
_cell_volume 2743.430722
_symmetry_space_group_name_H-M "C 2/M"
_symmetry_group_IT_number 12
_symmetry_cell_setting 'monoclinic'
loop_
_space_group_symop_operation_xyz
x,y,z
-x,y,-z
-x,-y,-z
x,-y,z
1/2+x,1/2+y,z
1/2-x,1/2+y,-z
1/2-x,1/2-y,-z
1/2+x,1/2-y,z
loop_
_atom_site_type_symbol
_atom_site_label
_atom_site_fract_x
_atom_site_fract_y
_atom_site_fract_z
Si Si1 0.704741 0.892088 0.760921
Si Si2 0.500000 0.808997 0.000000
Si Si3 0.473135 0.392480 0.624543
Si Si4 0.968846 0.603911 0.332255
Si Si5 0.669332 0.396264 0.707171
Si Si6 0.380090 0.712301 0.165455
Si Si7 0.812012 0.299029 0.916048
Si Si8 0.582936 0.223420 0.544544
O O1 0.565654 0.871626 0.732976
O O2 0.691019 0.815744 0.815106
O O3 0.845271 0.878544 0.694540
O O4 0.703146 0.000000 0.780871
O O5 0.349855 0.747132 0.039455
O O6 0.587797 0.857186 0.046553
O O7 0.468312 0.500000 0.604843
O O8 0.625067 0.373434 0.644091
O O9 0.478282 0.314324 0.572857
O O10 0.905440 0.500000 0.348966
O O11 0.905532 0.667522 0.393963
O O12 0.149487 0.603908 0.314500
O O13 0.607821 0.500000 0.726438
O O14 0.610907 0.332630 0.769157
O O15 0.258635 0.659131 0.137361
O O16 0.553769 0.724379 0.117623
O O17 0.500000 0.170003 0.500000
O O18 0.750000 0.250000 0.500000
#
# Coordination Sequence:
#
# PCOD9193669 Si02
#       8
#     8   4   8   8   8   8   8   8
#     4  10  20  34  54  78 107 136 162 203 261 319
#     4   8  16  34  48  76 110 142 192 210 236 304
#     4  10  21  37  53  71 100 137 166 200 261 322
#     4  10  21  37  53  71 100 137 166 200 261 322
#     4  10  20  34  54  78 107 136 162 203 261 319
#     4  11  18  30  52  84 106 128 172 215 256 297
#     4   9  18  29  52  79 106 143 178 216 250 286
#     4  12  24  36  54  76  96 127 174 223 256 291
#
# _framework density 21.870426999999999
#
# number of rings (size 3 to 8) (size 9 to 14) (size 15 to 20)
#    0.000    1.867    0.000    4.800    0.000    1.067 
#    0.000    0.000    0.000    0.000    0.000   65.333 
#    0.000    0.000    0.000    0.000    0.000    0.000 
#
# Total GULP energy -167078.504168 kJ/mol
# GULP energy per Si atom -5569.283472 kJ/mol
# Density = 2.182065 g / cm^3
# Si number density = 21.870427 Si / 1000 Ang^3
#
#
#
# Elastic Constant Matrix: (Units=GPa)
#
#
# Indices 1 2 3 4 5 6 
#
# 1 119.1886 1.3852 10.6197 0.0000 1.1550 0.0000
# 2 1.3852 64.1523 35.9015 0.0000 3.0160 0.0000
# 3 10.6197 35.9015 59.9650 0.0000 -18.1072 0.0000
# 4 0.0000 0.0000 0.0000 30.8468 0.0000 19.2877
# 5 1.1550 3.0160 -18.1072 0.0000 31.5167 0.0000
# 6 0.0000 0.0000 0.0000 19.2877 0.0000 28.4709
#
#
#
# Elastic Compliance Matrix: (Units=1/GPa)
#
#
# Indices 1 2 3 4 5 6 
#
# 1 0.008690 0.001796 -0.003342 0.000000 -0.002411 0.000000
# 2 0.001796 0.028711 -0.022210 0.000000 -0.015574 0.000000
# 3 -0.003342 -0.022210 0.037803 0.000000 0.023967 0.000000
# 4 0.000000 0.000000 0.000000 0.056242 0.000000 -0.038102
# 5 -0.002411 -0.015574 0.023967 0.000000 0.047078 0.000000
# 6 0.000000 0.000000 0.000000 -0.038102 0.000000 0.060936
#
#
# Mechanical properties :
#
#
# Convention : Reuss Voigt Hill
#
# Bulk Modulus (GPa) = 36.11251 37.67985 36.89618
# Shear Modulus (GPa) = 16.88035 31.19350 24.03692
#
# Velocity S-wave (km/s) = 2.78120 3.78072 3.31880
# Velocity P-wave (km/s) = 5.18279 6.02698 5.62076
#
# Compressibility (1/GPa) = 0.02769123
#
# Stress axis : x y z
#
# Youngs Moduli (GPa) = 115.07011 34.83019 26.45311
#
# Poissons Ratio (x) = -0.06256 0.08842
# Poissons Ratio (y) = -0.20669 0.58753
# Poissons Ratio (z) = 0.38461 0.77358
#
# Static dielectric constant tensor:
#      x y z
#    x 1.929700 0.000000 0.082060 
#    y 0.000000 1.866810 0.000000 
#    z 0.082060 0.000000 1.896010 
# 
# From -- ./inp_files/332895.got.cif
#   From: 2010.05.17/outbox.cif.g08.bks.cpg/sg12_167_cif.got.tgz:332895.got - 2010.06.03 13:09:07.
