data_PCOD9193944
_publ_section_title
;
Structure prediction by ZEFSAII (Michael W. Deem and Ramdas Pophale) SiO2 
 PCOD9193944
Probable space group: C 2/M
;
_chemical_formula_sum "Si O2"
_cell_formula_units_Z 64
_cell_length_a 19.019379
_cell_length_b 8.956306
_cell_length_c 28.025045
_cell_angle_alpha 90.000000
_cell_angle_beta 49.124091
_cell_angle_gamma 90.000000
_cell_volume 3609.668312
_symmetry_space_group_name_H-M "C 2/M"
_symmetry_group_IT_number 12
_symmetry_cell_setting 'monoclinic'
loop_
_space_group_symop_operation_xyz
x,y,z
-x,y,-z
-x,-y,-z
x,-y,z
1/2+x,1/2+y,z
1/2-x,1/2+y,-z
1/2-x,1/2-y,-z
1/2+x,1/2-y,z
loop_
_atom_site_type_symbol
_atom_site_label
_atom_site_fract_x
_atom_site_fract_y
_atom_site_fract_z
Si Si1 0.340559 0.173736 0.640431
Si Si2 0.880712 0.323463 0.361913
Si Si3 0.892289 0.672360 0.065246
Si Si4 0.684037 0.825805 0.462146
Si Si5 0.329021 0.321575 0.998325
Si Si6 0.356435 0.177374 0.261287
Si Si7 0.959263 0.822401 0.129277
Si Si8 0.975438 0.823068 0.403077
O O1 0.342959 0.181857 0.581719
O O2 0.242335 0.240603 0.700361
O O3 0.425015 0.267701 0.623565
O O4 0.348846 0.000000 0.650253
O O5 0.887848 0.500000 0.367724
O O6 0.780156 0.263834 0.423785
O O7 0.886810 0.297086 0.302599
O O8 0.956222 0.233871 0.358286
O O9 0.863994 0.500000 0.084003
O O10 0.833603 0.750632 0.049364
O O11 0.897470 0.758577 0.113030
O O12 0.000000 0.673274 0.000000
O O13 0.603046 0.754960 0.529463
O O14 0.698032 0.000000 0.468435
O O15 0.316050 0.500000 0.007251
O O16 0.250000 0.250000 0.000000
O O17 0.431977 0.293684 0.930574
O O18 0.427712 0.243041 0.191574
O O19 0.345252 0.000000 0.259701
O O20 0.946705 0.000000 0.138128
O O21 0.966765 0.000000 0.410392
#
# Coordination Sequence:
#
# PCOD9193944 Si02
#       8
#     8   8   8   8   8   8   8   8
#     4  10  21  37  56  77 104 137 174 219 268 318
#     4  10  21  37  55  76 105 139 177 221 268 320
#     4   9  17  31  53  80 109 141 178 218 258 303
#     4  10  20  35  55  78 104 136 174 216 268 328
#     4  10  20  34  54  83 117 148 179 218 267 315
#     4  10  21  38  59  80 103 137 180 221 262 314
#     4  10  20  35  57  82 109 143 180 218 260 313
#     4  12  23  34  52  78 107 137 173 220 272 323
#
# _framework density 17.730160000000001
#
# number of rings (size 3 to 8) (size 9 to 14) (size 15 to 20)
#    0.000    1.875    0.000    4.500    0.000    7.500 
#    0.000    1.250    0.000    3.000    0.000    0.000 
#    0.000    0.000    0.000    0.000    0.000    0.000 
#
# Total GULP energy -178733.799828 kJ/mol
# GULP energy per Si atom -5585.431245 kJ/mol
# Density = 1.768981 g / cm^3
# Si number density = 17.730160 Si / 1000 Ang^3
#
#
#
# Elastic Constant Matrix: (Units=GPa)
#
#
# Indices 1 2 3 4 5 6 
#
# 1 84.8292 42.0207 17.7254 0.0000 -7.2265 0.0004
# 2 42.0207 109.8989 40.6607 -0.0001 5.5513 0.0008
# 3 17.7254 40.6607 59.5266 0.0000 11.6845 0.0001
# 4 0.0000 -0.0001 0.0000 28.0591 0.0000 -0.6598
# 5 -7.2265 5.5513 11.6845 0.0000 7.7662 0.0000
# 6 0.0004 0.0008 0.0001 -0.6598 0.0000 34.3134
#
#
#
# Elastic Compliance Matrix: (Units=1/GPa)
#
#
# Indices 1 2 3 4 5 6 
#
# 1 0.019686 -0.006111 -0.008714 0.000000 0.035797 0.000000
# 2 -0.006111 0.014236 -0.006798 0.000000 -0.005634 0.000000
# 3 -0.008714 -0.006798 0.035017 0.000000 -0.055933 0.000000
# 4 0.000000 0.000000 0.000000 0.035655 0.000000 0.000686
# 5 0.035797 -0.005634 -0.055933 0.000000 0.250252 0.000000
# 6 0.000000 0.000000 0.000000 0.000686 0.000000 0.029156
#
#
# Mechanical properties :
#
#
# Convention : Reuss Voigt Hill
#
# Bulk Modulus (GPa) = 38.92388 50.56316 44.74352
# Shear Modulus (GPa) = 11.47279 24.28424 17.87852
#
# Velocity S-wave (km/s) = 2.54653 3.70490 3.17893
# Velocity P-wave (km/s) = 5.53603 6.84703 6.22613
#
# Compressibility (1/GPa) = 0.02569117
#
# Stress axis : x y z
#
# Youngs Moduli (GPa) = 50.79764 70.24533 28.55769
#
# Poissons Ratio (x) = 0.42928 0.24886
# Poissons Ratio (y) = 0.31044 0.19415
# Poissons Ratio (z) = 0.44266 0.47755
#
# Static dielectric constant tensor:
#      x y z
#    x 1.603090 0.000000 0.014270 
#    y 0.000000 1.589680 0.000000 
#    z 0.014270 0.000000 1.579570 
# 
# From -- ./inp_files/378170.got.cif
#   From: 2010.05.17/outbox.cif.g08.bks.cpg/sg12_190_cif.got.tgz:378170.got - 2010.06.03 13:09:07.
