data_PCOD9193760
_publ_section_title
;
Structure prediction by ZEFSAII (Michael W. Deem and Ramdas Pophale) SiO2 
 PCOD9193760
Probable space group: C 2/M
;
_chemical_formula_sum "Si O2"
_cell_formula_units_Z 56
_cell_length_a 16.718458
_cell_length_b 7.537165
_cell_length_c 23.003918
_cell_angle_alpha 90.000000
_cell_angle_beta 48.046401
_cell_angle_gamma 90.000000
_cell_volume 2155.737799
_symmetry_space_group_name_H-M "C 2/M"
_symmetry_group_IT_number 12
_symmetry_cell_setting 'monoclinic'
loop_
_space_group_symop_operation_xyz
x,y,z
-x,y,-z
-x,-y,-z
x,-y,z
1/2+x,1/2+y,z
1/2-x,1/2+y,-z
1/2-x,1/2-y,-z
1/2+x,1/2-y,z
loop_
_atom_site_type_symbol
_atom_site_label
_atom_site_fract_x
_atom_site_fract_y
_atom_site_fract_z
Si Si1 0.330824 0.295997 0.377907
Si Si2 0.350023 0.782628 0.814442
Si Si3 0.850972 0.215444 0.243177
Si Si4 0.883187 0.797424 0.048724
Si Si5 0.889449 0.713309 0.669457
Si Si6 0.423682 0.793198 0.904582
Si Si7 0.388420 0.291916 0.476867
O O1 0.365159 0.500000 0.363283
O O2 0.374374 0.216811 0.297272
O O3 0.362371 0.216162 0.424652
O O4 0.200111 0.293510 0.438591
O O5 0.409892 0.727896 0.726445
O O6 0.393318 0.721645 0.855641
O O7 0.350801 0.000000 0.815115
O O8 0.225432 0.724037 0.871361
O O9 0.730802 0.273923 0.286481
O O10 0.947082 0.273455 0.155122
O O11 0.850438 0.000000 0.243818
O O12 0.868628 0.798819 0.985984
O O13 0.891688 0.000000 0.066759
O O14 0.000000 0.710780 0.000000
O O15 0.889199 0.500000 0.668703
O O16 0.984006 0.771187 0.580409
O O17 0.395431 0.000000 0.921173
O O18 0.363743 0.500000 0.490471
#
# Coordination Sequence:
#
# PCOD9193760 Si02
#       7
#     8   8   8   8   8   8   8
#     4   9  19  36  56  78 105 140 183 223 260 312
#     4   9  19  35  55  80 107 139 179 218 261 314
#     4  10  21  37  57  79 104 140 184 223 261 312
#     4  10  20  37  60  81 106 142 182 220 258 309
#     4  10  20  36  57  78 104 139 179 221 264 314
#     4  11  22  35  54  81 112 141 172 217 270 318
#     4  10  20  34  54  80 109 140 175 219 271 321
#
# _framework density 25.977186
#
# number of rings (size 3 to 8) (size 9 to 14) (size 15 to 20)
#    0.000    2.143    0.000    3.000    0.000    4.857 
#    0.000    5.000    0.000    0.000    0.000    0.000 
#    0.000    0.000    0.000    0.000    0.000    0.000 
#
# Total GULP energy -156653.423894 kJ/mol
# GULP energy per Si atom -5594.765139 kJ/mol
# Density = 2.591806 g / cm^3
# Si number density = 25.977186 Si / 1000 Ang^3
#
#
#
# Elastic Constant Matrix: (Units=GPa)
#
#
# Indices 1 2 3 4 5 6 
#
# 1 58.5890 -1.2607 -0.4103 0.0000 -9.1706 0.0010
# 2 -1.2607 84.2603 -8.7085 0.0001 0.8876 0.0021
# 3 -0.4103 -8.7085 137.8759 0.0000 -9.2534 0.0001
# 4 0.0000 0.0001 0.0000 18.2657 -0.0001 -1.3026
# 5 -9.1706 0.8876 -9.2534 -0.0001 51.4173 0.0000
# 6 0.0010 0.0021 0.0001 -1.3026 0.0000 6.0822
#
#
#
# Elastic Compliance Matrix: (Units=1/GPa)
#
#
# Indices 1 2 3 4 5 6 
#
# 1 0.017573 0.000259 0.000282 0.000000 0.003181 -0.000003
# 2 0.000259 0.011950 0.000754 0.000000 -0.000024 -0.000004
# 3 0.000282 0.000754 0.007393 0.000000 0.001368 0.000000
# 4 0.000000 0.000000 0.000000 0.055597 0.000000 0.011906
# 5 0.003181 -0.000024 0.001368 0.000000 0.020263 -0.000001
# 6 -0.000003 -0.000004 0.000000 0.011906 -0.000001 0.166963
#
#
# Mechanical properties :
#
#
# Convention : Reuss Voigt Hill
#
# Bulk Modulus (GPa) = 25.31271 28.88511 27.09891
# Shear Modulus (GPa) = 17.22246 34.56002 25.89124
#
# Velocity S-wave (km/s) = 2.57764 3.65142 3.16047
# Velocity P-wave (km/s) = 4.31559 5.37780 4.87571
#
# Compressibility (1/GPa) = 0.03950584
#
# Stress axis : x y z
#
# Youngs Moduli (GPa) = 56.90402 83.68176 135.26016
#
# Poissons Ratio (x) = -0.02164 -0.03816
# Poissons Ratio (y) = -0.01471 -0.10197
# Poissons Ratio (z) = -0.01605 -0.06309
#
# Static dielectric constant tensor:
#      x y z
#    x 2.154420 0.000000 -0.025100 
#    y 0.000000 1.977300 0.000000 
#    z -0.025100 0.000000 1.970290 
# 
# From -- ./inp_files/342268.got.cif
#   From: 2010.05.17/outbox.cif.g08.bks.cpg/sg12_172_cif.got.tgz:342268.got - 2010.06.03 13:09:07.
