data_PCOD9193242
_publ_section_title
;
Structure prediction by ZEFSAII (Michael W. Deem and Ramdas Pophale) SiO2 
 PCOD9193242
Probable space group: C 2/M
;
_chemical_formula_sum "Si O2"
_cell_formula_units_Z 48
_cell_length_a 7.387389
_cell_length_b 15.262076
_cell_length_c 19.566805
_cell_angle_alpha 90.000000
_cell_angle_beta 92.848483
_cell_angle_gamma 90.000000
_cell_volume 2203.370701
_symmetry_space_group_name_H-M "C 2/M"
_symmetry_group_IT_number 12
_symmetry_cell_setting 'monoclinic'
loop_
_space_group_symop_operation_xyz
x,y,z
-x,y,-z
-x,-y,-z
x,-y,z
1/2+x,1/2+y,z
1/2-x,1/2+y,-z
1/2-x,1/2-y,-z
1/2+x,1/2-y,z
loop_
_atom_site_type_symbol
_atom_site_label
_atom_site_fract_x
_atom_site_fract_y
_atom_site_fract_z
Si Si1 0.196019 0.000000 0.223885
Si Si2 0.824448 0.646997 0.844262
Si Si3 0.627478 0.000000 0.254560
Si Si4 0.244306 0.841627 0.135295
Si Si5 0.145188 0.000000 0.383275
Si Si6 0.712891 0.646469 0.488161
Si Si7 0.779220 0.500000 0.588522
Si Si8 0.718779 0.898287 0.006578
O O1 0.147038 0.084756 0.178216
O O2 0.414999 0.000000 0.233334
O O3 0.138314 0.000000 0.301370
O O4 0.783150 0.583690 0.780629
O O5 0.784686 0.747948 0.832038
O O6 0.040947 0.638816 0.859559
O O7 0.731288 0.621725 0.914446
O O8 0.637383 0.000000 0.335552
O O9 0.195624 0.842960 0.053675
O O10 0.232742 0.911196 0.418212
O O11 0.937053 0.000000 0.403298
O O12 0.500000 0.639995 0.500000
O O13 0.750000 0.750000 0.500000
O O14 0.818241 0.587257 0.545756
O O15 0.757448 0.000000 0.991756
O O16 0.500000 0.887459 0.000000
#
# Coordination Sequence:
#
# PCOD9193242 Si02
#       8
#     4   8   4   8   4   8   4   8
#     4  10  21  36  53  76 107 142 178 212 254 314
#     4  10  20  34  53  76 102 136 178 221 265 312
#     4  10  21  36  53  76 107 142 178 212 254 314
#     4  10  20  34  53  76 102 136 178 221 265 312
#     4   9  20  38  57  79 110 142 170 209 260 306
#     4   9  19  37  60  84 108 137 173 211 254 304
#     4   9  20  38  57  79 110 142 170 209 260 306
#     4   9  15  30  55  74  95 134 179 221 264 310
#
# _framework density 21.784804999999999
#
# number of rings (size 3 to 8) (size 9 to 14) (size 15 to 20)
#    0.000    2.500    1.667    1.500    0.000    4.000 
#    0.000    8.333    0.000    1.000    0.000    0.000 
#    0.000    0.000    0.000    0.000    0.000    0.000 
#
# Total GULP energy -133918.182150 kJ/mol
# GULP energy per Si atom -5579.924256 kJ/mol
# Density = 2.173522 g / cm^3
# Si number density = 21.784805 Si / 1000 Ang^3
#
#
#
# Elastic Constant Matrix: (Units=GPa)
#
#
# Indices 1 2 3 4 5 6 
#
# 1 47.8385 -12.0040 2.7663 0.0000 -4.5368 0.0000
# 2 -12.0040 154.7773 67.3745 0.0000 -10.8079 0.0000
# 3 2.7663 67.3745 141.3952 0.0000 -5.9235 0.0000
# 4 0.0000 0.0000 0.0000 4.7195 0.0000 -7.2926
# 5 -4.5368 -10.8079 -5.9235 0.0000 28.3727 0.0000
# 6 0.0000 0.0000 0.0000 -7.2926 0.0000 13.2864
#
#
#
# Elastic Compliance Matrix: (Units=1/GPa)
#
#
# Indices 1 2 3 4 5 6 
#
# 1 0.022063 0.002671 -0.001527 0.000000 0.004227 0.000000
# 2 0.002671 0.008629 -0.004044 0.000000 0.002870 0.000000
# 3 -0.001527 -0.004044 0.009033 0.000000 0.000101 0.000000
# 4 0.000000 0.000000 0.000000 1.395340 0.000000 0.765875
# 5 0.004227 0.002870 0.000101 0.000000 0.037035 0.000000
# 6 0.000000 0.000000 0.000000 0.765875 0.000000 0.495639
#
#
# Mechanical properties :
#
#
# Convention : Reuss Voigt Hill
#
# Bulk Modulus (GPa) = 29.47647 51.14273 40.30960
# Shear Modulus (GPa) = 2.51908 28.33398 15.42653
#
# Velocity S-wave (km/s) = 1.07650 3.61034 2.66396
# Velocity P-wave (km/s) = 3.88655 6.39583 5.29207
#
# Compressibility (1/GPa) = 0.03392537
#
# Stress axis : x y z
#
# Youngs Moduli (GPa) = 45.32458 115.89358 110.70224
#
# Poissons Ratio (x) = -0.30957 0.16908
# Poissons Ratio (y) = -0.12107 0.44763
# Poissons Ratio (z) = 0.06923 0.46862
#
# Static dielectric constant tensor:
#      x y z
#    x 1.863090 0.000000 0.014960 
#    y 0.000000 1.793240 0.000000 
#    z 0.014960 0.000000 1.791850 
# 
# From -- ./inp_files/255836.got.cif
#   From: 2010.05.17/outbox.cif.g08.bks.cpg/sg12_128_cif.got.tgz:255836.got - 2010.06.03 13:09:07.
