data_PCOD9193343
_publ_section_title
;
Structure prediction by ZEFSAII (Michael W. Deem and Ramdas Pophale) SiO2 
 PCOD9193343
Probable space group: C 2/M
;
_chemical_formula_sum "Si O2"
_cell_formula_units_Z 64
_cell_length_a 25.407586
_cell_length_b 22.533849
_cell_length_c 8.531118
_cell_angle_alpha 90.000000
_cell_angle_beta 43.933995
_cell_angle_gamma 90.000000
_cell_volume 3388.888837
_symmetry_space_group_name_H-M "C 2/M"
_symmetry_group_IT_number 12
_symmetry_cell_setting 'monoclinic'
loop_
_space_group_symop_operation_xyz
x,y,z
-x,y,-z
-x,-y,-z
x,-y,z
1/2+x,1/2+y,z
1/2-x,1/2+y,-z
1/2-x,1/2-y,-z
1/2+x,1/2-y,z
loop_
_atom_site_type_symbol
_atom_site_label
_atom_site_fract_x
_atom_site_fract_y
_atom_site_fract_z
Si Si1 0.717251 0.334724 0.358772
Si Si2 0.140711 0.430876 0.446141
Si Si3 0.227953 0.664970 0.404058
Si Si4 0.463884 0.796772 0.918521
Si Si5 0.188688 0.568625 0.008210
Si Si6 0.111523 0.249440 0.473816
Si Si7 0.333324 0.740531 0.999343
Si Si8 0.039781 0.431943 0.120880
O O1 0.741109 0.324937 0.487848
O O2 0.750247 0.396601 0.226078
O O3 0.630905 0.315304 0.507726
O O4 0.765711 0.288266 0.150957
O O5 0.157168 0.500000 0.417907
O O6 0.186287 0.397961 0.483890
O O7 0.049187 0.426845 0.643594
O O8 0.175311 0.405667 0.210376
O O9 0.162009 0.708224 0.479752
O O10 0.297174 0.678910 0.136593
O O11 0.530116 0.781043 0.653920
O O12 0.446832 0.866833 0.984291
O O13 0.500000 0.772271 0.000000
O O14 0.391028 0.764329 0.007158
O O15 0.210995 0.500000 0.972080
O O16 0.104067 0.569536 0.115746
O O17 0.132625 0.243162 0.246100
O O18 0.048784 0.500000 0.032047
#
# Coordination Sequence:
#
# PCOD9193343 Si02
#       8
#     8   8   8   8   8   8   8   8
#     4  11  21  35  53  76 106 137 175 225 272 313
#     4  10  20  34  53  77 107 144 185 223 261 313
#     4  11  21  35  53  76 106 137 175 225 272 313
#     4  12  23  36  54  80 110 140 177 224 271 318
#     4  10  20  34  53  77 107 144 185 223 261 313
#     4  11  22  36  55  75 101 139 180 220 266 321
#     4  11  22  36  55  75 101 139 180 220 266 321
#     4  10  21  33  51  75 108 147 186 222 258 303
#
# _framework density 18.885247
#
# number of rings (size 3 to 8) (size 9 to 14) (size 15 to 20)
#    0.000    1.250    2.500    6.750    0.000    3.250 
#    0.000    2.500    0.000    0.000    0.000    0.875 
#    0.000    7.000    0.000    0.000    0.000    0.000 
#
# Total GULP energy -178244.486671 kJ/mol
# GULP energy per Si atom -5570.140208 kJ/mol
# Density = 1.884226 g / cm^3
# Si number density = 18.885247 Si / 1000 Ang^3
#
#
#
# Elastic Constant Matrix: (Units=GPa)
#
#
# Indices 1 2 3 4 5 6 
#
# 1 69.1722 29.1695 5.0688 0.0000 2.3127 0.0000
# 2 29.1695 67.7552 14.5769 0.0000 -10.6645 0.0000
# 3 5.0688 14.5769 49.2970 0.0000 5.9975 0.0000
# 4 0.0000 0.0000 0.0000 6.8138 0.0000 -7.6488
# 5 2.3127 -10.6645 5.9975 0.0000 28.8733 0.0000
# 6 0.0000 0.0000 0.0000 -7.6488 0.0000 30.4744
#
#
#
# Elastic Compliance Matrix: (Units=1/GPa)
#
#
# Indices 1 2 3 4 5 6 
#
# 1 0.018312 -0.008981 0.001390 0.000000 -0.005073 0.000000
# 2 -0.008981 0.021661 -0.006712 0.000000 0.010114 0.000000
# 3 0.001390 -0.006712 0.023024 0.000000 -0.007373 0.000000
# 4 0.000000 0.000000 0.000000 0.204329 0.000000 0.051285
# 5 -0.005073 0.010114 -0.007373 0.000000 0.040308 0.000000
# 6 0.000000 0.000000 0.000000 0.051285 0.000000 0.045686
#
#
# Mechanical properties :
#
#
# Convention : Reuss Voigt Hill
#
# Bulk Modulus (GPa) = 29.07761 31.53941 30.30851
# Shear Modulus (GPa) = 12.71001 22.39292 17.55147
#
# Velocity S-wave (km/s) = 2.59706 3.44719 3.05187
# Velocity P-wave (km/s) = 4.94200 5.70797 5.33874
#
# Compressibility (1/GPa) = 0.03439072
#
# Stress axis : x y z
#
# Youngs Moduli (GPa) = 54.61019 46.16496 43.43273
#
# Poissons Ratio (x) = 0.41460 -0.06037
# Poissons Ratio (y) = 0.49044 0.29153
# Poissons Ratio (z) = -0.07590 0.30987
#
# Static dielectric constant tensor:
#      x y z
#    x 1.680590 0.000000 -0.001700 
#    y 0.000000 1.713820 0.000000 
#    z -0.001700 0.000000 1.766860 
# 
# From -- ./inp_files/99658.got.cif
#   From: 2010.05.17/outbox.cif.g08.bks.cpg/sg12_50_cif.got.tgz:99658.got - 2010.06.03 13:09:07.
