data_PCOD9193109
_publ_section_title
;
Structure prediction by ZEFSAII (Michael W. Deem and Ramdas Pophale) SiO2 
 PCOD9193109
Probable space group: C 2/M
;
_chemical_formula_sum "Si O2"
_cell_formula_units_Z 56
_cell_length_a 9.602519
_cell_length_b 26.999300
_cell_length_c 19.641022
_cell_angle_alpha 90.000000
_cell_angle_beta 40.171988
_cell_angle_gamma 90.000000
_cell_volume 3284.869794
_symmetry_space_group_name_H-M "C 2/M"
_symmetry_group_IT_number 12
_symmetry_cell_setting 'monoclinic'
loop_
_space_group_symop_operation_xyz
x,y,z
-x,y,-z
-x,-y,-z
x,-y,z
1/2+x,1/2+y,z
1/2-x,1/2+y,-z
1/2-x,1/2-y,-z
1/2+x,1/2-y,z
loop_
_atom_site_type_symbol
_atom_site_label
_atom_site_fract_x
_atom_site_fract_y
_atom_site_fract_z
Si Si1 0.341603 0.163480 0.762146
Si Si2 0.496139 0.262534 0.921317
Si Si3 0.973618 0.280184 0.431811
Si Si4 0.414536 0.603789 0.607127
Si Si5 0.491295 0.054994 0.712277
Si Si6 0.682827 0.800316 0.740544
Si Si7 0.339993 0.943424 0.503787
O O1 0.105174 0.188079 0.848403
O O2 0.478458 0.177429 0.642722
O O3 0.351799 0.104986 0.774156
O O4 0.468475 0.191704 0.775577
O O5 0.629958 0.218284 0.835686
O O6 0.500000 0.266660 0.000000
O O7 0.250000 0.250000 0.000000
O O8 0.750000 0.250000 0.500000
O O9 0.000000 0.297438 0.500000
O O10 0.166382 0.241059 0.349231
O O11 0.500000 0.619885 0.500000
O O12 0.311331 0.648964 0.685895
O O13 0.615264 0.583258 0.573828
O O14 0.221961 0.565164 0.662986
O O15 0.542282 0.054531 0.612892
O O16 0.409293 0.000000 0.761924
O O17 0.500000 0.921283 0.500000
O O18 0.291931 0.000000 0.543169
#
# Coordination Sequence:
#
# PCOD9193109 Si02
#       7
#     8   8   8   8   8   8   8
#     4  10  21  35  55  82 105 143 182 220 270 317
#     4  11  22  40  60  77 104 137 173 227 278 326
#     4  11  21  32  49  75 116 151 174 212 260 317
#     4   9  17  30  52  75 105 142 183 212 253 311
#     4   9  18  33  52  74 104 141 184 219 256 313
#     4  10  20  34  52  78 105 141 179 215 264 323
#     4   9  17  29  44  68 106 146 178 216 259 298
#
# _framework density 17.047861000000001
#
# number of rings (size 3 to 8) (size 9 to 14) (size 15 to 20)
#    0.000    2.143    2.857    0.857    4.000    2.286 
#    2.571    0.000    0.000    0.429    0.000    0.000 
#    0.000   14.857    0.000    0.000    0.000    0.000 
#
# Total GULP energy -155989.470241 kJ/mol
# GULP energy per Si atom -5571.052509 kJ/mol
# Density = 1.700906 g / cm^3
# Si number density = 17.047861 Si / 1000 Ang^3
#
#
#
# Elastic Constant Matrix: (Units=GPa)
#
#
# Indices 1 2 3 4 5 6 
#
# 1 82.7499 29.4325 24.6885 0.0000 -7.1734 0.0000
# 2 29.4325 104.0234 39.8500 0.0000 -8.4533 0.0000
# 3 24.6885 39.8500 75.6752 0.0000 -1.1607 0.0000
# 4 0.0000 0.0000 0.0000 14.9823 0.0000 -0.1473
# 5 -7.1734 -8.4533 -1.1607 0.0000 30.6748 0.0000
# 6 0.0000 0.0000 0.0000 -0.1473 0.0000 17.5606
#
#
#
# Elastic Compliance Matrix: (Units=1/GPa)
#
#
# Indices 1 2 3 4 5 6 
#
# 1 0.014179 -0.002571 -0.003234 0.000000 0.002485 0.000000
# 2 -0.002571 0.012807 -0.005864 0.000000 0.002706 0.000000
# 3 -0.003234 -0.005864 0.017331 0.000000 -0.001716 0.000000
# 4 0.000000 0.000000 0.000000 0.066751 0.000000 0.000560
# 5 0.002485 0.002706 -0.001716 0.000000 0.033862 0.000000
# 6 0.000000 0.000000 0.000000 0.000560 0.000000 0.056950
#
#
# Mechanical properties :
#
#
# Convention : Reuss Voigt Hill
#
# Bulk Modulus (GPa) = 47.66511 50.04341 48.85426
# Shear Modulus (GPa) = 21.53213 23.87536 22.70374
#
# Velocity S-wave (km/s) = 3.55778 3.74637 3.65329
# Velocity P-wave (km/s) = 6.70055 6.93773 6.82017
#
# Compressibility (1/GPa) = 0.02097971
#
# Stress axis : x y z
#
# Youngs Moduli (GPa) = 70.52511 78.08273 57.70058
#
# Poissons Ratio (x) = 0.20076 0.18660
# Poissons Ratio (y) = 0.18133 0.33834
# Poissons Ratio (z) = 0.22807 0.45785
#
# Static dielectric constant tensor:
#      x y z
#    x 1.591070 0.000000 -0.008750 
#    y 0.000000 1.620450 0.000000 
#    z -0.008750 0.000000 1.576650 
# 
# From -- ./inp_files/199410.got.cif
#   From: 2010.05.17/outbox.cif.g08.bks.cpg/sg12_100_cif.got.tgz:199410.got - 2010.06.03 13:09:07.
