data_PCOD9193740
_publ_section_title
;
Structure prediction by ZEFSAII (Michael W. Deem and Ramdas Pophale) SiO2 
 PCOD9193740
Probable space group: C 2/M
;
_chemical_formula_sum "Si O2"
_cell_formula_units_Z 64
_cell_length_a 15.518088
_cell_length_b 7.461166
_cell_length_c 26.518541
_cell_angle_alpha 90.000000
_cell_angle_beta 111.114150
_cell_angle_gamma 90.000000
_cell_volume 2864.264710
_symmetry_space_group_name_H-M "C 2/M"
_symmetry_group_IT_number 12
_symmetry_cell_setting 'monoclinic'
loop_
_space_group_symop_operation_xyz
x,y,z
-x,y,-z
-x,-y,-z
x,-y,z
1/2+x,1/2+y,z
1/2-x,1/2+y,-z
1/2-x,1/2-y,-z
1/2+x,1/2-y,z
loop_
_atom_site_type_symbol
_atom_site_label
_atom_site_fract_x
_atom_site_fract_y
_atom_site_fract_z
Si Si1 0.238612 0.785035 0.438152
Si Si2 0.072997 0.787116 0.757195
Si Si3 0.718796 0.280963 0.067211
Si Si4 0.904664 0.794201 0.045020
Si Si5 0.433492 0.216418 0.440679
Si Si6 0.779297 0.214750 0.816537
Si Si7 0.480084 0.719978 0.839306
Si Si8 0.540740 0.287768 0.361278
O O1 0.250000 0.750000 0.500000
O O2 0.329833 0.718510 0.428941
O O3 0.141680 0.713734 0.396605
O O4 0.236808 0.000000 0.432205
O O5 0.181680 0.761221 0.771662
O O6 0.042481 0.717943 0.805767
O O7 0.010130 0.713804 0.698836
O O8 0.057827 0.000000 0.755879
O O9 0.721183 0.500000 0.065743
O O10 0.810831 0.212351 0.058896
O O11 0.718972 0.222834 0.124983
O O12 0.629891 0.220505 0.015847
O O13 0.981215 0.716253 0.098520
O O14 0.931968 0.000000 0.041270
O O15 0.500000 0.279004 0.500000
O O16 0.475892 0.266942 0.396218
O O17 0.432270 0.000000 0.442659
O O18 0.873768 0.273839 0.810148
O O19 0.783131 0.000000 0.819152
O O20 0.484740 0.500000 0.841793
O O21 0.552867 0.500000 0.355357
#
# Coordination Sequence:
#
# PCOD9193740 Si02
#       8
#     8   8   8   8   8   8   8   8
#     4  10  20  35  56  83 113 144 175 211 258 312
#     4  10  21  39  56  74 105 142 183 222 259 314
#     4   9  17  28  47  77 107 130 169 223 268 315
#     4   9  16  29  50  74 101 138 173 210 267 325
#     4  10  20  35  57  86 115 141 172 212 260 313
#     4  10  20  34  54  80 105 137 179 225 272 315
#     4   9  18  33  55  77 101 140 182 216 263 324
#     4  10  22  37  56  81 108 143 181 219 261 308
#
# _framework density 22.344304000000001
#
# number of rings (size 3 to 8) (size 9 to 14) (size 15 to 20)
#    0.000    2.375    2.500    0.000    0.000    2.750 
#    0.000    6.250    0.000    0.000    0.000    4.375 
#    0.000    0.000    0.000    0.000    0.000    0.000 
#
# Total GULP energy -178722.287222 kJ/mol
# GULP energy per Si atom -5585.071476 kJ/mol
# Density = 2.229345 g / cm^3
# Si number density = 22.344304 Si / 1000 Ang^3
#
#
#
# Elastic Constant Matrix: (Units=GPa)
#
#
# Indices 1 2 3 4 5 6 
#
# 1 124.5579 -1.3533 48.6358 0.0000 39.8004 0.0000
# 2 -1.3533 68.6546 3.2806 0.0000 2.6606 0.0000
# 3 48.6358 3.2806 126.4824 0.0000 43.4377 0.0000
# 4 0.0000 0.0000 0.0000 -21.6166 0.0000 -0.5079
# 5 39.8004 2.6606 43.4377 0.0000 31.8839 0.0000
# 6 0.0000 0.0000 0.0000 -0.5079 0.0000 15.4511
#
#
#
# Elastic Compliance Matrix: (Units=1/GPa)
#
#
# Indices 1 2 3 4 5 6 
#
# 1 0.013497 0.000928 0.001125 0.000000 -0.018459 0.000000
# 2 0.000928 0.014677 0.000152 0.000000 -0.002590 0.000000
# 3 0.001125 0.000152 0.014952 0.000000 -0.021788 0.000000
# 4 0.000000 0.000000 0.000000 -0.046225 0.000000 -0.001519
# 5 -0.018459 -0.002590 -0.021788 0.000000 0.084305 0.000000
# 6 0.000000 0.000000 0.000000 -0.001519 0.000000 0.064670
#
#
# Mechanical properties :
#
#
# Convention : Reuss Voigt Hill
#
# Bulk Modulus (GPa) = 21.03654 46.75788 33.89721
# Shear Modulus (GPa) = 31.78392 23.08580 27.43486
#
# Velocity S-wave (km/s) = 3.77565 3.21781 3.50783
# Velocity P-wave (km/s) = 5.33315 5.89722 5.62226
#
# Compressibility (1/GPa) = 0.04753633
#
# Stress axis : x y z
#
# Youngs Moduli (GPa) = 74.08846 68.13353 66.88020
#
# Poissons Ratio (x) = -0.06320 -0.07525
# Poissons Ratio (y) = -0.06873 -0.01017
# Poissons Ratio (z) = -0.08336 -0.01036
#
# Static dielectric constant tensor:
#      x y z
#    x 1.806790 0.000000 0.026190 
#    y 0.000000 1.746380 0.000000 
#    z 0.026190 0.000000 1.807540 
# 
# From -- ./inp_files/359787.got.cif
#   From: 2010.05.17/outbox.cif.g08.bks.cpg/sg12_180_cif.got.tgz:359787.got - 2010.06.03 13:09:07.
