data_PCOD9193296
_publ_section_title
;
Structure prediction by ZEFSAII (Michael W. Deem and Ramdas Pophale) SiO2 
 PCOD9193296
Probable space group: C 2/M
;
_chemical_formula_sum "Si O2"
_cell_formula_units_Z 48
_cell_length_a 8.462214
_cell_length_b 11.771686
_cell_length_c 28.014136
_cell_angle_alpha 90.000000
_cell_angle_beta 64.868883
_cell_angle_gamma 90.000000
_cell_volume 2526.450491
_symmetry_space_group_name_H-M "C 2/M"
_symmetry_group_IT_number 12
_symmetry_cell_setting 'monoclinic'
loop_
_space_group_symop_operation_xyz
x,y,z
-x,y,-z
-x,-y,-z
x,-y,z
1/2+x,1/2+y,z
1/2-x,1/2+y,-z
1/2-x,1/2-y,-z
1/2+x,1/2-y,z
loop_
_atom_site_type_symbol
_atom_site_label
_atom_site_fract_x
_atom_site_fract_y
_atom_site_fract_z
Si Si1 0.292233 0.129136 0.020093
Si Si2 0.736005 0.203466 0.792047
Si Si3 0.269223 0.371618 0.604325
Si Si4 0.929836 0.692158 0.460713
Si Si5 0.040532 0.629169 0.724757
Si Si6 0.058020 0.875739 0.144346
O O1 0.190139 0.134986 0.083371
O O2 0.247758 0.000000 0.005361
O O3 0.500000 0.128123 0.000000
O O4 0.250000 0.250000 0.000000
O O5 0.877265 0.287597 0.750251
O O6 0.643943 0.135490 0.761496
O O7 0.835695 0.134313 0.819933
O O8 0.587252 0.278832 0.836519
O O9 0.337781 0.500000 0.601259
O O10 0.127887 0.372035 0.579545
O O11 0.425472 0.285971 0.572000
O O12 0.169715 0.337079 0.665327
O O13 0.750000 0.750000 0.500000
O O14 0.000000 0.632613 0.500000
O O15 0.983875 0.500000 0.722788
O O16 0.973129 0.000000 0.152315
#
# Coordination Sequence:
#
# PCOD9193296 Si02
#       6
#     8   8   8   8   8   8
#     4  10  21  37  56  80 110 144 184 228 275 327
#     4  10  20  34  54  77 105 136 171 214 261 309
#     4  10  20  35  54  75 103 136 168 209 258 304
#     4   9  19  34  52  75 101 130 169 209 248 301
#     4  10  20  34  53  77 103 134 171 209 255 310
#     4  10  20  35  54  77 106 139 176 218 265 316
#
# _framework density 18.998987
#
# number of rings (size 3 to 8) (size 9 to 14) (size 15 to 20)
#    0.000    2.167    0.000    3.000    0.000    3.667 
#    0.000    6.667    0.000   14.000    0.000    0.000 
#    0.000    0.000    0.000    0.000    0.000    0.000 
#
# Total GULP energy -133734.085976 kJ/mol
# GULP energy per Si atom -5572.253582 kJ/mol
# Density = 1.895574 g / cm^3
# Si number density = 18.998987 Si / 1000 Ang^3
#
#
#
# Elastic Constant Matrix: (Units=GPa)
#
#
# Indices 1 2 3 4 5 6 
#
# 1 50.2610 26.3759 7.2647 0.0000 -12.1653 0.0000
# 2 26.3759 99.3676 41.2356 0.0000 -15.5251 0.0000
# 3 7.2647 41.2356 86.4674 0.0000 -19.8634 0.0000
# 4 0.0000 0.0000 0.0000 59.0833 0.0000 -34.4158
# 5 -12.1653 -15.5251 -19.8634 0.0000 29.4820 0.0000
# 6 0.0000 0.0000 0.0000 -34.4158 0.0000 25.4333
#
#
#
# Elastic Compliance Matrix: (Units=1/GPa)
#
#
# Indices 1 2 3 4 5 6 
#
# 1 0.025044 -0.006518 0.003064 0.000000 0.008966 0.000000
# 2 -0.006518 0.014479 -0.006180 0.000000 0.000771 0.000000
# 3 0.003064 -0.006180 0.016324 0.000000 0.009008 0.000000
# 4 0.000000 0.000000 0.000000 0.079920 0.000000 0.108147
# 5 0.008966 0.000771 0.009008 0.000000 0.044094 0.000000
# 6 0.000000 0.000000 0.000000 0.108147 0.000000 0.185661
#
#
# Mechanical properties :
#
#
# Convention : Reuss Voigt Hill
#
# Bulk Modulus (GPa) = 27.33840 42.87206 35.10523
# Shear Modulus (GPa) = 12.59496 33.54769 23.07133
#
# Velocity S-wave (km/s) = 2.57753 4.20666 3.48853
# Velocity P-wave (km/s) = 4.82482 6.79772 5.89440
#
# Compressibility (1/GPa) = 0.03657858
#
# Stress axis : x y z
#
# Youngs Moduli (GPa) = 39.92956 69.06574 61.25847
#
# Poissons Ratio (x) = 0.45020 -0.18770
# Poissons Ratio (y) = 0.26028 0.37859
# Poissons Ratio (z) = -0.12235 0.42684
#
# Static dielectric constant tensor:
#      x y z
#    x 1.633540 0.000000 0.026770 
#    y 0.000000 1.683800 0.000000 
#    z 0.026770 0.000000 1.644700 
# 
# From -- ./inp_files/331975.got.cif
#   From: 2010.05.17/outbox.cif.g08.bks.cpg/sg12_166_cif.got.tgz:331975.got - 2010.06.03 13:09:07.
