data_PCOD9193756
_publ_section_title
;
Structure prediction by ZEFSAII (Michael W. Deem and Ramdas Pophale) SiO2 
 PCOD9193756
Probable space group: C 2/M
;
_chemical_formula_sum "Si O2"
_cell_formula_units_Z 48
_cell_length_a 22.016849
_cell_length_b 9.566775
_cell_length_c 12.693363
_cell_angle_alpha 90.000000
_cell_angle_beta 109.863566
_cell_angle_gamma 90.000000
_cell_volume 2514.538255
_symmetry_space_group_name_H-M "C 2/M"
_symmetry_group_IT_number 12
_symmetry_cell_setting 'monoclinic'
loop_
_space_group_symop_operation_xyz
x,y,z
-x,y,-z
-x,-y,-z
x,-y,z
1/2+x,1/2+y,z
1/2-x,1/2+y,-z
1/2-x,1/2-y,-z
1/2+x,1/2-y,z
loop_
_atom_site_type_symbol
_atom_site_label
_atom_site_fract_x
_atom_site_fract_y
_atom_site_fract_z
Si Si1 0.616024 0.164567 0.846585
Si Si2 0.496461 0.835543 0.377000
Si Si3 0.747576 0.830443 0.827972
Si Si4 0.769638 0.161628 0.611414
Si Si5 0.603665 0.667993 0.037841
Si Si6 0.923454 0.838300 0.744496
O O1 0.574699 0.176695 0.715465
O O2 0.688523 0.216666 0.865169
O O3 0.617823 0.000000 0.876246
O O4 0.583569 0.252074 0.920952
O O5 0.500000 0.786232 0.500000
O O6 0.541700 0.753637 0.322294
O O7 0.514095 0.000000 0.386986
O O8 0.738469 0.784746 0.701787
O O9 0.820137 0.794426 0.904231
O O10 0.745465 0.000000 0.825496
O O11 0.750000 0.250000 0.500000
O O12 0.846631 0.164558 0.676137
O O13 0.750710 0.000000 0.585100
O O14 0.598104 0.500000 0.023080
O O15 0.570058 0.705797 0.128861
O O16 0.944914 0.000000 0.749771
#
# Coordination Sequence:
#
# PCOD9193756 Si02
#       6
#     8   8   8   8   8   8
#     4  10  20  34  54  80 108 140 178 219 265 314
#     4  10  23  39  55  78 106 142 186 223 262 316
#     4   8  16  32  53  77 108 140 169 213 267 318
#     4   9  18  32  53  79 105 139 178 217 265 316
#     4   9  18  35  57  81 107 137 175 216 268 325
#     4   9  20  38  56  77 108 142 178 221 268 317
#
# _framework density 19.088992000000001
#
# number of rings (size 3 to 8) (size 9 to 14) (size 15 to 20)
#    0.000    2.833    0.000    2.500    2.333    3.000 
#    0.000    6.667    0.000    0.000    0.000    0.000 
#    0.000    0.000    0.000    0.000    0.000    0.000 
#
# Total GULP energy -133831.330637 kJ/mol
# GULP energy per Si atom -5576.305443 kJ/mol
# Density = 1.904555 g / cm^3
# Si number density = 19.088992 Si / 1000 Ang^3
#
#
#
# Elastic Constant Matrix: (Units=GPa)
#
#
# Indices 1 2 3 4 5 6 
#
# 1 85.6126 30.6329 34.1555 0.0000 -31.0474 0.0000
# 2 30.6329 32.9668 43.2965 0.0000 -16.4121 0.0000
# 3 34.1555 43.2965 135.4358 0.0000 -32.9198 0.0000
# 4 0.0000 0.0000 0.0000 33.9641 0.0000 -5.5408
# 5 -31.0474 -16.4121 -32.9198 0.0000 28.6765 0.0000
# 6 0.0000 0.0000 0.0000 -5.5408 0.0000 26.2214
#
#
#
# Elastic Compliance Matrix: (Units=1/GPa)
#
#
# Indices 1 2 3 4 5 6 
#
# 1 0.023846 -0.018089 0.004893 0.000000 0.021083 0.000000
# 2 -0.018089 0.071033 -0.018066 0.000000 0.000330 0.000000
# 3 0.004893 -0.018066 0.014840 0.000000 0.011995 0.000000
# 4 0.000000 0.000000 0.000000 0.030494 0.000000 0.006444
# 5 0.021083 0.000330 0.011995 0.000000 0.071656 0.000000
# 6 0.000000 0.000000 0.000000 0.006444 0.000000 0.039498
#
#
# Mechanical properties :
#
#
# Convention : Reuss Voigt Hill
#
# Bulk Modulus (GPa) = 21.18807 52.24275 36.71541
# Shear Modulus (GPa) = 15.16883 27.50108 21.33496
#
# Velocity S-wave (km/s) = 2.82199 3.79974 3.34677
# Velocity P-wave (km/s) = 4.66282 6.83214 5.84893
#
# Compressibility (1/GPa) = 0.04719637
#
# Stress axis : x y z
#
# Youngs Moduli (GPa) = 41.93523 14.07799 67.38349
#
# Poissons Ratio (x) = 0.25466 -0.32974
# Poissons Ratio (y) = 0.75857 1.21735
# Poissons Ratio (z) = -0.20521 0.25433
#
# Static dielectric constant tensor:
#      x y z
#    x 1.697090 0.000000 0.026520 
#    y 0.000000 1.634060 0.000000 
#    z 0.026520 0.000000 1.673670 
# 
# From -- ./inp_files/173036.got.cif
#   From: 2010.05.17/outbox.cif.g08.bks.cpg/sg12_87_cif.got.tgz:173036.got - 2010.06.03 13:09:07.
