data_PCOD9193983
_publ_section_title
;
Structure prediction by ZEFSAII (Michael W. Deem and Ramdas Pophale) SiO2 
 PCOD9193983
Probable space group: C 2/M
;
_chemical_formula_sum "Si O2"
_cell_formula_units_Z 58
_cell_length_a 19.322839
_cell_length_b 8.248707
_cell_length_c 16.973137
_cell_angle_alpha 90.000000
_cell_angle_beta 102.969919
_cell_angle_gamma 90.000000
_cell_volume 2636.303702
_symmetry_space_group_name_H-M "C 2/M"
_symmetry_group_IT_number 12
_symmetry_cell_setting 'monoclinic'
loop_
_space_group_symop_operation_xyz
x,y,z
-x,y,-z
-x,-y,-z
x,-y,z
1/2+x,1/2+y,z
1/2-x,1/2+y,-z
1/2-x,1/2-y,-z
1/2+x,1/2-y,z
loop_
_atom_site_type_symbol
_atom_site_label
_atom_site_fract_x
_atom_site_fract_y
_atom_site_fract_z
Si Si1 0.264373 0.807917 0.776412
Si Si2 0.603720 0.810672 0.753991
Si Si3 0.500000 0.500000 0.000000
Si Si4 0.690120 0.809032 0.044215
Si Si5 0.958122 0.182819 0.415150
Si Si6 0.155293 0.324248 0.523535
Si Si7 0.543634 0.195167 0.913682
Si Si8 0.183540 0.820710 0.375097
O O1 0.179562 0.776642 0.760599
O O2 0.298264 0.739105 0.865832
O O3 0.302311 0.735006 0.709649
O O4 0.275339 0.000000 0.774388
O O5 0.549286 0.766538 0.670489
O O6 0.569142 0.780124 0.830326
O O7 0.620783 0.000000 0.753863
O O8 0.502038 0.349878 0.068572
O O9 0.700545 0.000000 0.054880
O O10 0.750000 0.750000 0.000000
O O11 0.613993 0.784969 0.985691
O O12 0.879156 0.187536 0.431695
O O13 0.000000 0.257747 0.500000
O O14 0.983855 0.000000 0.410764
O O15 0.125778 0.500000 0.538945
O O16 0.143756 0.291298 0.428148
O O17 0.237701 0.329807 0.567003
O O18 0.520224 0.000000 0.914712
O O19 0.151684 0.000000 0.368391
#
# Coordination Sequence:
#
# PCOD9193983 Si02
#       8
#     8   8   2   8   8   8   8   8
#     4  11  21  33  58  93 128 165 202 253 321 390
#     4  11  22  38  63  94 127 162 207 267 327 383
#     4  12  26  44  76  94 130 192 234 262 338 406
#     4  10  21  36  60  95 136 165 204 269 335 391
#     4  11  24  40  61  89 121 159 210 268 315 372
#     4  10  20  35  57  82 115 155 199 245 304 370
#     4  10  24  45  68 102 135 172 228 280 327 400
#     4  10  20  34  54  84 119 157 197 242 305 372
#
# _framework density 22.000502000000001
#
# number of rings (size 3 to 8) (size 9 to 14) (size 15 to 20)
#    0.000    1.517    2.759    2.276    2.897    2.759 
#    0.000    1.379    0.000    1.655    0.000    0.000 
#    0.000    0.000    0.000    0.000    0.000    0.000 
#
# Total GULP energy -161472.259209 kJ/mol
# GULP energy per Si atom -5568.008938 kJ/mol
# Density = 2.195043 g / cm^3
# Si number density = 22.000502 Si / 1000 Ang^3
#
#
#
# Elastic Constant Matrix: (Units=GPa)
#
#
# Indices 1 2 3 4 5 6 
#
# 1 14.9946 23.1035 18.6998 0.0000 -9.1685 0.0000
# 2 23.1035 80.3270 40.2441 0.0000 -6.6021 0.0000
# 3 18.6998 40.2441 204.9017 0.0000 -17.7187 0.0000
# 4 0.0000 0.0000 0.0000 20.4790 0.0000 -3.5003
# 5 -9.1685 -6.6021 -17.7187 0.0000 31.4529 0.0000
# 6 0.0000 0.0000 0.0000 -3.5003 0.0000 16.3039
#
#
#
# Elastic Compliance Matrix: (Units=1/GPa)
#
#
# Indices 1 2 3 4 5 6 
#
# 1 0.152404 -0.039408 -0.003198 0.000000 0.034352 0.000000
# 2 -0.039408 0.024060 -0.001772 0.000000 -0.007435 0.000000
# 3 -0.003198 -0.001772 0.005684 0.000000 0.001898 0.000000
# 4 0.000000 0.000000 0.000000 0.050691 0.000000 0.010883
# 5 0.034352 -0.007435 0.001898 0.000000 0.041316 0.000000
# 6 0.000000 0.000000 0.000000 0.010883 0.000000 0.063671
#
#
# Mechanical properties :
#
#
# Convention : Reuss Voigt Hill
#
# Bulk Modulus (GPa) = 10.70762 51.59091 31.14926
# Shear Modulus (GPa) = 10.92385 28.19223 19.55804
#
# Velocity S-wave (km/s) = 2.23071 3.58360 2.98481
# Velocity P-wave (km/s) = 3.39298 6.37367 5.10568
#
# Compressibility (1/GPa) = 0.09339142
#
# Stress axis : x y z
#
# Youngs Moduli (GPa) = 6.56152 41.56210 175.91884
#
# Poissons Ratio (x) = 1.63790 0.56260
# Poissons Ratio (y) = 0.25858 0.31174
# Poissons Ratio (z) = 0.02098 0.07365
#
# Static dielectric constant tensor:
#      x y z
#    x 1.859080 0.000000 0.019730 
#    y 0.000000 1.815450 0.000000 
#    z 0.019730 0.000000 1.838600 
# 
# From -- ./inp_files/237765.got.cif
#   From: 2010.05.17/outbox.cif.g08.bks.cpg/sg12_119_cif.got.tgz:237765.got - 2010.06.03 13:09:07.
