data_PCOD9193089
_publ_section_title
;
Structure prediction by ZEFSAII (Michael W. Deem and Ramdas Pophale) SiO2 
 PCOD9193089
Probable space group: C 2/M
;
_chemical_formula_sum "Si O2"
_cell_formula_units_Z 56
_cell_length_a 14.646898
_cell_length_b 9.132660
_cell_length_c 24.823927
_cell_angle_alpha 90.000000
_cell_angle_beta 115.726662
_cell_angle_gamma 90.000000
_cell_volume 2991.424371
_symmetry_space_group_name_H-M "C 2/M"
_symmetry_group_IT_number 12
_symmetry_cell_setting 'monoclinic'
loop_
_space_group_symop_operation_xyz
x,y,z
-x,y,-z
-x,-y,-z
x,-y,z
1/2+x,1/2+y,z
1/2-x,1/2+y,-z
1/2-x,1/2-y,-z
1/2+x,1/2-y,z
loop_
_atom_site_type_symbol
_atom_site_label
_atom_site_fract_x
_atom_site_fract_y
_atom_site_fract_z
Si Si1 0.423227 0.175746 0.722884
Si Si2 0.124162 0.825625 0.816812
Si Si3 0.611936 0.674646 0.507949
Si Si4 0.683842 0.674149 0.405185
Si Si5 0.718526 0.165591 0.938119
Si Si6 0.065445 0.164480 0.064755
Si Si7 0.659196 0.172364 0.183286
O O1 0.531981 0.245421 0.764030
O O2 0.374530 0.245666 0.657613
O O3 0.355639 0.211300 0.758347
O O4 0.430253 0.000000 0.719615
O O5 0.143405 0.756151 0.880647
O O6 0.227393 0.800753 0.809180
O O7 0.107318 0.000000 0.816430
O O8 0.500000 0.715373 0.500000
O O9 0.625157 0.500000 0.520909
O O10 0.627494 0.699832 0.448025
O O11 0.702877 0.761481 0.559777
O O12 0.687153 0.500000 0.396944
O O13 0.822169 0.154349 0.930749
O O14 0.681981 0.000000 0.939754
O O15 0.750000 0.250000 0.000000
O O16 0.079830 0.246236 0.124328
O O17 0.024405 0.000000 0.063295
O O18 0.000000 0.235376 0.000000
O O19 0.639988 0.000000 0.172777
#
# Coordination Sequence:
#
# PCOD9193089 Si02
#       7
#     8   8   8   8   8   8   8
#     4  11  23  39  59  84 116 154 192 234 287 340
#     4  10  21  39  58  78 107 144 188 236 285 340
#     4   9  19  38  63  88 120 159 194 233 281 329
#     4  10  21  37  58  89 121 152 195 237 278 332
#     4  10  20  34  52  77 107 138 176 226 286 346
#     4   9  19  34  52  76 103 133 173 226 285 338
#     4   9  21  39  56  77 106 144 186 230 281 341
#
# _framework density 18.720179000000002
#
# number of rings (size 3 to 8) (size 9 to 14) (size 15 to 20)
#    0.000    2.286    0.000    1.714    2.000    4.571 
#    0.000    5.714    0.000    0.000    0.000    0.000 
#    0.000    0.000    0.000    0.000    0.000    0.000 
#
# Total GULP energy -156289.884336 kJ/mol
# GULP energy per Si atom -5581.781583 kJ/mol
# Density = 1.867757 g / cm^3
# Si number density = 18.720179 Si / 1000 Ang^3
#
#
#
# Elastic Constant Matrix: (Units=GPa)
#
#
# Indices 1 2 3 4 5 6 
#
# 1 91.6113 58.2635 61.5143 0.0000 8.4328 0.0000
# 2 58.2635 98.1566 98.9632 0.0000 5.4316 0.0000
# 3 61.5143 98.9632 192.2197 0.0000 15.7404 0.0000
# 4 0.0000 0.0000 0.0000 33.6745 0.0000 -2.8936
# 5 8.4328 5.4316 15.7404 0.0000 18.6158 0.0000
# 6 0.0000 0.0000 0.0000 -2.8936 0.0000 17.7402
#
#
#
# Elastic Compliance Matrix: (Units=1/GPa)
#
#
# Indices 1 2 3 4 5 6 
#
# 1 0.018003 -0.010433 0.000031 0.000000 -0.005137 0.000000
# 2 -0.010433 0.027416 -0.011290 0.000000 0.006273 0.000000
# 3 0.000031 -0.011290 0.011535 0.000000 -0.006473 0.000000
# 4 0.000000 0.000000 0.000000 0.030118 0.000000 0.004913
# 5 -0.005137 0.006273 -0.006473 0.000000 0.059688 0.000000
# 6 0.000000 0.000000 0.000000 0.004913 0.000000 0.057170
#
#
# Mechanical properties :
#
#
# Convention : Reuss Voigt Hill
#
# Bulk Modulus (GPa) = 73.69148 91.05215 82.37182
# Shear Modulus (GPa) = 19.85395 24.88920 22.37157
#
# Velocity S-wave (km/s) = 3.26016 3.65024 3.46070
# Velocity P-wave (km/s) = 7.32269 8.15535 7.75021
#
# Compressibility (1/GPa) = 0.01357009
#
# Stress axis : x y z
#
# Youngs Moduli (GPa) = 55.54587 36.47491 86.69068
#
# Poissons Ratio (x) = 0.38053 -0.00265
# Poissons Ratio (y) = 0.57950 0.97874
# Poissons Ratio (z) = -0.00170 0.41180
#
# Static dielectric constant tensor:
#      x y z
#    x 1.663270 0.000000 -0.012510 
#    y 0.000000 1.649350 0.000000 
#    z -0.012510 0.000000 1.615000 
# 
# From -- ./inp_files/339049.got.cif
#   From: 2010.05.17/outbox.cif.g08.bks.cpg/sg12_170_cif.got.tgz:339049.got - 2010.06.03 13:09:07.
