data_PCOD9193593
_publ_section_title
;
Structure prediction by ZEFSAII (Michael W. Deem and Ramdas Pophale) SiO2 
 PCOD9193593
Probable space group: C 2/M
;
_chemical_formula_sum "Si O2"
_cell_formula_units_Z 56
_cell_length_a 7.908268
_cell_length_b 11.495673
_cell_length_c 30.887957
_cell_angle_alpha 90.000000
_cell_angle_beta 121.396967
_cell_angle_gamma 90.000000
_cell_volume 2396.891463
_symmetry_space_group_name_H-M "C 2/M"
_symmetry_group_IT_number 12
_symmetry_cell_setting 'monoclinic'
loop_
_space_group_symop_operation_xyz
x,y,z
-x,y,-z
-x,-y,-z
x,-y,z
1/2+x,1/2+y,z
1/2-x,1/2+y,-z
1/2-x,1/2-y,-z
1/2+x,1/2-y,z
loop_
_atom_site_type_symbol
_atom_site_label
_atom_site_fract_x
_atom_site_fract_y
_atom_site_fract_z
Si Si1 0.859917 0.370474 0.423625
Si Si2 0.836467 0.871337 0.925374
Si Si3 0.873907 0.189816 0.251949
Si Si4 0.775663 0.870435 0.453330
Si Si5 0.068056 0.377099 0.810025
Si Si6 0.465844 0.871466 0.046811
Si Si7 0.815629 0.623735 0.314226
O O1 0.783586 0.500000 0.426474
O O2 0.097337 0.366832 0.464547
O O3 0.759104 0.252318 0.426197
O O4 0.850098 0.366533 0.369969
O O5 0.640109 0.868219 0.868874
O O6 0.757850 0.867971 0.964294
O O7 0.946420 0.753114 0.927696
O O8 0.928927 0.000000 0.929818
O O9 0.850694 0.273426 0.207678
O O10 0.079548 0.124238 0.274875
O O11 0.667648 0.124135 0.227115
O O12 0.897682 0.270318 0.297544
O O13 0.000000 0.871546 0.500000
O O14 0.750808 0.000000 0.428626
O O15 0.149207 0.500000 0.804249
O O16 0.543250 0.000000 0.072424
O O17 0.500000 0.873612 0.000000
O O18 0.899872 0.500000 0.310558
#
# Coordination Sequence:
#
# PCOD9193593 Si02
#       7
#     8   8   8   8   8   8   8
#     4  10  21  36  55  80 109 140 178 223 267 317
#     4  10  21  36  55  80 109 140 178 223 267 317
#     4  10  20  34  54  76 102 138 174 212 264 318
#     4  10  21  37  56  80 110 143 180 222 269 321
#     4  10  20  35  53  76 105 136 174 218 263 313
#     4  10  21  37  56  80 110 143 180 222 269 321
#     4  10  20  35  53  76 105 136 174 218 263 313
#
# _framework density 23.363595
#
# number of rings (size 3 to 8) (size 9 to 14) (size 15 to 20)
#    0.000    2.000    0.000    3.429    0.000    1.714 
#    0.000    7.143    0.000    0.000    0.000    0.000 
#    0.000    0.000    0.000    0.000    0.000    0.000 
#
# Total GULP energy -156189.875789 kJ/mol
# GULP energy per Si atom -5578.209850 kJ/mol
# Density = 2.331042 g / cm^3
# Si number density = 23.363595 Si / 1000 Ang^3
#
#
#
# Elastic Constant Matrix: (Units=GPa)
#
#
# Indices 1 2 3 4 5 6 
#
# 1 39.8898 46.1578 -10.3251 0.0000 -1.7634 0.0000
# 2 46.1578 236.5437 31.4923 0.0000 -5.9129 0.0000
# 3 -10.3251 31.4923 56.4521 0.0000 -1.3707 0.0000
# 4 0.0000 0.0000 0.0000 16.5036 0.0000 37.2833
# 5 -1.7634 -5.9129 -1.3707 0.0000 29.8729 0.0000
# 6 0.0000 0.0000 0.0000 37.2833 0.0000 782.6822
#
#
#
# Elastic Compliance Matrix: (Units=1/GPa)
#
#
# Indices 1 2 3 4 5 6 
#
# 1 0.038955 -0.009211 0.012289 0.000000 0.001040 0.000000
# 2 -0.009211 0.006764 -0.005445 0.000000 0.000545 0.000000
# 3 0.012289 -0.005445 0.023016 0.000000 0.000704 0.000000
# 4 0.000000 0.000000 0.000000 0.067900 0.000000 -0.003234
# 5 0.001040 0.000545 0.000704 0.000000 0.033677 0.000000
# 6 0.000000 0.000000 0.000000 -0.003234 0.000000 0.001432
#
#
# Mechanical properties :
#
#
# Convention : Reuss Voigt Hill
#
# Bulk Modulus (GPa) = 15.62506 51.94841 33.78674
# Shear Modulus (GPa) = 25.27671 183.51579 104.39625
#
# Velocity S-wave (km/s) = 3.29277 8.87233 6.69181
# Velocity P-wave (km/s) = 4.59986 11.28010 8.61393
#
# Compressibility (1/GPa) = 0.06399974
#
# Stress axis : x y z
#
# Youngs Moduli (GPa) = 25.67082 147.85193 43.44772
#
# Poissons Ratio (x) = 1.36193 -0.53392
# Poissons Ratio (y) = 0.23647 0.23656
# Poissons Ratio (z) = -0.31546 0.80500
#
# Static dielectric constant tensor:
#      x y z
#    x 1.841330 0.000000 0.011260 
#    y 0.000000 1.889020 0.000000 
#    z 0.011260 0.000000 1.942330 
# 
# From -- ./inp_files/355854.got.cif
#   From: 2010.05.17/outbox.cif.g08.bks.cpg/sg12_178_cif.got.tgz:355854.got - 2010.06.03 13:09:07.
