data_PCOD9193389
_publ_section_title
;
Structure prediction by ZEFSAII (Michael W. Deem and Ramdas Pophale) SiO2 
 PCOD9193389
Probable space group: C 2/M
;
_chemical_formula_sum "Si O2"
_cell_formula_units_Z 56
_cell_length_a 19.982346
_cell_length_b 8.992182
_cell_length_c 30.856354
_cell_angle_alpha 90.000000
_cell_angle_beta 36.034528
_cell_angle_gamma 90.000000
_cell_volume 3261.631194
_symmetry_space_group_name_H-M "C 2/M"
_symmetry_group_IT_number 12
_symmetry_cell_setting 'monoclinic'
loop_
_space_group_symop_operation_xyz
x,y,z
-x,y,-z
-x,-y,-z
x,-y,z
1/2+x,1/2+y,z
1/2-x,1/2+y,-z
1/2-x,1/2-y,-z
1/2+x,1/2-y,z
loop_
_atom_site_type_symbol
_atom_site_label
_atom_site_fract_x
_atom_site_fract_y
_atom_site_fract_z
Si Si1 0.129306 0.322485 0.941688
Si Si2 0.016639 0.321637 0.227904
Si Si3 0.081438 0.171016 0.499806
Si Si4 0.888161 0.322494 0.653343
Si Si5 0.660617 0.322357 0.229102
Si Si6 0.729001 0.823103 0.057144
Si Si7 0.728700 0.322471 0.653720
O O1 0.132472 0.500000 0.948483
O O2 0.214960 0.293809 0.856901
O O3 0.179960 0.237944 0.956216
O O4 0.000000 0.279654 0.000000
O O5 0.010127 0.500000 0.235991
O O6 0.071017 0.250269 0.242637
O O7 0.105779 0.287399 0.142559
O O8 0.893870 0.253543 0.282690
O O9 0.193878 0.255998 0.425395
O O10 0.000000 0.169699 0.500000
O O11 0.007885 0.254445 0.574557
O O12 0.105026 0.000000 0.499332
O O13 0.897648 0.500000 0.652843
O O14 0.851744 0.248409 0.717280
O O15 0.796369 0.291983 0.663208
O O16 0.643612 0.500000 0.239829
O O17 0.737573 0.000000 0.049154
O O18 0.750000 0.750000 0.000000
O O19 0.718950 0.500000 0.654265
#
# Coordination Sequence:
#
# PCOD9193389 Si02
#       7
#     8   8   8   8   8   8   8
#     4   9  19  36  56  78 105 137 173 215 262 311
#     4  10  21  37  55  76 105 140 176 215 261 311
#     4   9  17  31  52  77 105 137 174 215 259 306
#     4  10  20  34  53  78 108 139 174 216 259 307
#     4  10  20  35  55  77 105 140 175 213 261 314
#     4  10  21  36  55  78 105 138 175 216 261 310
#     4  10  20  34  54  80 108 139 175 215 260 308
#
# _framework density 17.169322999999999
#
# number of rings (size 3 to 8) (size 9 to 14) (size 15 to 20)
#    0.000    2.286    0.000    2.571    0.000    7.143 
#    0.000    5.000    0.000    0.000    0.000    0.000 
#    0.000    0.000    0.000    0.000    0.000    0.000 
#
# Total GULP energy -156261.789438 kJ/mol
# GULP energy per Si atom -5580.778194 kJ/mol
# Density = 1.713025 g / cm^3
# Si number density = 17.169323 Si / 1000 Ang^3
#
#
#
# Elastic Constant Matrix: (Units=GPa)
#
#
# Indices 1 2 3 4 5 6 
#
# 1 90.6526 73.2417 108.7702 -0.0004 -1.2275 0.0011
# 2 73.2417 101.2036 94.0342 -0.0009 0.3621 0.0012
# 3 108.7702 94.0342 163.4353 -0.0002 -1.7514 0.0002
# 4 -0.0004 -0.0009 -0.0002 31.9944 0.0005 2.6920
# 5 -1.2275 0.3621 -1.7514 0.0005 32.3037 -0.0016
# 6 0.0011 0.0012 0.0002 2.6920 -0.0016 32.0609
#
#
#
# Elastic Compliance Matrix: (Units=1/GPa)
#
#
# Indices 1 2 3 4 5 6 
#
# 1 0.063105 -0.014303 -0.033761 0.000000 0.000728 -0.000001
# 2 -0.014303 0.024499 -0.004588 0.000001 -0.001067 0.000000
# 3 -0.033761 -0.004588 0.031232 0.000000 0.000462 0.000001
# 4 0.000000 0.000001 0.000000 0.031478 -0.000001 -0.002643
# 5 0.000728 -0.001067 0.000462 -0.000001 0.031021 0.000002
# 6 -0.000001 0.000000 0.000001 -0.002643 0.000002 0.031413
#
#
# Mechanical properties :
#
#
# Convention : Reuss Voigt Hill
#
# Bulk Modulus (GPa) = 73.89750 100.82040 87.35895
# Shear Modulus (GPa) = 15.50086 24.55483 20.02785
#
# Velocity S-wave (km/s) = 3.00796 3.78584 3.41910
# Velocity P-wave (km/s) = 7.42951 8.82943 8.15955
#
# Compressibility (1/GPa) = 0.01353226
#
# Stress axis : x y z
#
# Youngs Moduli (GPa) = 15.84665 40.81721 32.01830
#
# Poissons Ratio (x) = 0.58381 1.08096
# Poissons Ratio (y) = 0.22665 0.14692
# Poissons Ratio (z) = 0.53499 0.18729
#
# Static dielectric constant tensor:
#      x y z
#    x 1.548630 0.000000 -0.002770 
#    y 0.000000 1.571390 0.000000 
#    z -0.002770 0.000000 1.568560 
# 
# From -- ./inp_files/275546.got.cif
#   From: 2010.05.17/outbox.cif.g08.bks.cpg/sg12_138_cif.got.tgz:275546.got - 2010.06.03 13:09:07.
