data_PCOD9193030
_publ_section_title
;
Structure prediction by ZEFSAII (Michael W. Deem and Ramdas Pophale) SiO2 
 PCOD9193030
Probable space group: C 2/M
;
_chemical_formula_sum "Si O2"
_cell_formula_units_Z 48
_cell_length_a 19.042559
_cell_length_b 7.748562
_cell_length_c 16.099081
_cell_angle_alpha 90.000000
_cell_angle_beta 89.672440
_cell_angle_gamma 90.000000
_cell_volume 2375.420009
_symmetry_space_group_name_H-M "C 2/M"
_symmetry_group_IT_number 12
_symmetry_cell_setting 'monoclinic'
loop_
_space_group_symop_operation_xyz
x,y,z
-x,y,-z
-x,-y,-z
x,-y,z
1/2+x,1/2+y,z
1/2-x,1/2+y,-z
1/2-x,1/2-y,-z
1/2+x,1/2-y,z
loop_
_atom_site_type_symbol
_atom_site_label
_atom_site_fract_x
_atom_site_fract_y
_atom_site_fract_z
Si Si1 0.705922 0.794695 0.081437
Si Si2 0.794015 0.707694 0.417489
Si Si3 0.799070 0.202896 0.734824
Si Si4 0.544784 0.788019 0.579732
Si Si5 0.461581 0.796877 0.740315
Si Si6 0.954725 0.288321 0.922549
O O1 0.729691 0.726759 0.171362
O O2 0.626032 0.733615 0.068867
O O3 0.704253 0.000000 0.089663
O O4 0.750000 0.750000 0.000000
O O5 0.797863 0.500000 0.410675
O O6 0.750000 0.750000 0.500000
O O7 0.752444 0.772054 0.336197
O O8 0.874334 0.769524 0.423231
O O9 0.877500 0.280137 0.729718
O O10 0.808099 0.000000 0.720328
O O11 0.500000 0.734228 0.500000
O O12 0.505059 0.726170 0.662847
O O13 0.544742 0.000000 0.579565
O O14 0.479703 0.727618 0.831698
O O15 0.477517 0.000000 0.742595
O O16 0.955904 0.500000 0.922273
O O17 0.000000 0.229840 0.000000
#
# Coordination Sequence:
#
# PCOD9193030 Si02
#       6
#     8   8   8   8   8   8
#     4  10  20  34  54  78 104 136 172 211 255 302
#     4  10  21  35  53  78 104 134 172 212 256 304
#     4  10  20  34  52  75 105 137 169 208 254 307
#     4   9  17  30  50  74  97 125 166 212 252 295
#     4   9  17  31  52  73  95 128 168 209 252 298
#     4   8  15  28  48  73  96 123 163 207 248 290
#
# _framework density 20.206955000000001
#
# number of rings (size 3 to 8) (size 9 to 14) (size 15 to 20)
#    0.000    2.667    0.000    3.000    0.000    4.000 
#    0.000    5.833    0.000   19.500    0.000    0.000 
#    0.000    0.000    0.000    0.000    0.000    0.000 
#
# Total GULP energy -133903.652176 kJ/mol
# GULP energy per Si atom -5579.318841 kJ/mol
# Density = 2.016096 g / cm^3
# Si number density = 20.206955 Si / 1000 Ang^3
#
#
#
# Elastic Constant Matrix: (Units=GPa)
#
#
# Indices 1 2 3 4 5 6 
#
# 1 119.4207 -5.7775 126.6208 0.0000 2.5629 0.0000
# 2 -5.7775 24.5671 -2.2969 0.0000 3.0823 0.0000
# 3 126.6208 -2.2969 235.3577 0.0000 5.9284 0.0000
# 4 0.0000 0.0000 0.0000 17.1801 0.0000 -3.4398
# 5 2.5629 3.0823 5.9284 0.0000 45.2841 0.0000
# 6 0.0000 0.0000 0.0000 -3.4398 0.0000 17.8536
#
#
#
# Elastic Compliance Matrix: (Units=1/GPa)
#
#
# Indices 1 2 3 4 5 6 
#
# 1 0.019818 0.003665 -0.010627 0.000000 0.000020 0.000000
# 2 0.003665 0.041786 -0.001492 0.000000 -0.002856 0.000000
# 3 -0.010627 -0.001492 0.009967 0.000000 -0.000602 0.000000
# 4 0.000000 0.000000 0.000000 0.060542 0.000000 0.011664
# 5 0.000020 -0.002856 -0.000602 0.000000 0.022355 0.000000
# 6 0.000000 0.000000 0.000000 0.011664 0.000000 0.058258
#
#
# Mechanical properties :
#
#
# Convention : Reuss Voigt Hill
#
# Bulk Modulus (GPa) = 18.29413 68.49315 43.39364
# Shear Modulus (GPa) = 20.17313 33.45016 26.81164
#
# Velocity S-wave (km/s) = 3.16306 4.07305 3.64655
# Velocity P-wave (km/s) = 4.73423 7.48926 6.26506
#
# Compressibility (1/GPa) = 0.05466235
#
# Stress axis : x y z
#
# Youngs Moduli (GPa) = 50.45911 23.93170 100.33566
#
# Poissons Ratio (x) = -0.08770 1.06624
# Poissons Ratio (y) = -0.18491 0.14968
# Poissons Ratio (z) = 0.53621 0.03570
#
# Static dielectric constant tensor:
#      x y z
#    x 1.692200 0.000000 -0.003970 
#    y 0.000000 1.757590 0.000000 
#    z -0.003970 0.000000 1.731450 
# 
# From -- ./inp_files/221580.got.cif
#   From: 2010.05.17/outbox.cif.g08.bks.cpg/sg12_111_cif.got.tgz:221580.got - 2010.06.03 13:09:07.
