data_PCOD9193881
_publ_section_title
;
Structure prediction by ZEFSAII (Michael W. Deem and Ramdas Pophale) SiO2 
 PCOD9193881
Probable space group: C 2/M
;
_chemical_formula_sum "Si O2"
_cell_formula_units_Z 64
_cell_length_a 25.229162
_cell_length_b 8.671802
_cell_length_c 22.641970
_cell_angle_alpha 90.000000
_cell_angle_beta 46.064397
_cell_angle_gamma 90.000000
_cell_volume 3567.231730
_symmetry_space_group_name_H-M "C 2/M"
_symmetry_group_IT_number 12
_symmetry_cell_setting 'monoclinic'
loop_
_space_group_symop_operation_xyz
x,y,z
-x,y,-z
-x,-y,-z
x,-y,z
1/2+x,1/2+y,z
1/2-x,1/2+y,-z
1/2-x,1/2-y,-z
1/2+x,1/2-y,z
loop_
_atom_site_type_symbol
_atom_site_label
_atom_site_fract_x
_atom_site_fract_y
_atom_site_fract_z
Si Si1 0.863959 0.315216 0.984727
Si Si2 0.586792 0.673822 0.929695
Si Si3 0.445604 0.814245 0.719727
Si Si4 0.859829 0.318528 0.229105
Si Si5 0.279903 0.183748 0.718507
Si Si6 0.058021 0.184509 0.405854
Si Si7 0.996636 0.312061 0.202083
Si Si8 0.774981 0.684789 0.859661
O O1 0.864552 0.500000 0.984747
O O2 0.927293 0.264698 0.889615
O O3 0.888666 0.243839 0.027768
O O4 0.779232 0.259779 0.050516
O O5 0.617809 0.500000 0.895943
O O6 0.604892 0.785373 0.861970
O O7 0.500000 0.659537 0.000000
O O8 0.463222 0.742059 0.643044
O O9 0.496480 0.766436 0.735001
O O10 0.360745 0.775403 0.801455
O O11 0.448207 0.000000 0.711962
O O12 0.848931 0.500000 0.247308
O O13 0.780741 0.238223 0.281817
O O14 0.921716 0.260062 0.227511
O O15 0.359989 0.254003 0.645167
O O16 0.258628 0.228714 0.803202
O O17 0.286161 0.000000 0.713283
O O18 0.000000 0.237510 0.500000
O O19 0.059860 0.000000 0.404527
O O20 0.995844 0.500000 0.200090
O O21 0.767577 0.500000 0.869991
#
# Coordination Sequence:
#
# PCOD9193881 Si02
#       8
#     8   8   8   8   8   8   8   8
#     4  11  20  30  47  70  99 139 187 231 273 315
#     4  11  21  31  44  66  99 138 186 237 276 307
#     4   9  19  38  58  75 105 143 178 216 262 324
#     4  11  20  32  52  75 104 142 183 225 270 314
#     4  10  20  34  54  82 113 140 172 216 266 318
#     4  10  21  38  62  91 115 132 161 210 262 314
#     4   9  20  35  50  73 104 144 188 226 266 311
#     4   9  18  31  48  71 101 137 177 227 274 307
#
# _framework density 17.941084
#
# number of rings (size 3 to 8) (size 9 to 14) (size 15 to 20)
#    0.000    2.000    2.500    2.625    0.000    4.000 
#    0.000    2.500    0.000    0.750    0.000    0.000 
#    0.000    0.000    0.000    0.000    0.000    0.000 
#
# Total GULP energy -178410.008341 kJ/mol
# GULP energy per Si atom -5575.312761 kJ/mol
# Density = 1.790025 g / cm^3
# Si number density = 17.941084 Si / 1000 Ang^3
#
#
#
# Elastic Constant Matrix: (Units=GPa)
#
#
# Indices 1 2 3 4 5 6 
#
# 1 113.8775 21.9137 61.4888 0.0022 11.6796 0.0064
# 2 21.9137 31.2878 22.5303 -0.0011 -0.4598 0.0041
# 3 61.4888 22.5303 98.8144 0.0004 -4.3964 -0.0027
# 4 0.0022 -0.0011 0.0004 15.7511 -0.0002 -9.0586
# 5 11.6796 -0.4598 -4.3964 -0.0002 16.5147 -0.0012
# 6 0.0064 0.0041 -0.0027 -9.0586 -0.0012 18.3612
#
#
#
# Elastic Compliance Matrix: (Units=1/GPa)
#
#
# Indices 1 2 3 4 5 6 
#
# 1 0.016453 -0.004668 -0.009814 -0.000009 -0.014379 -0.000012
# 2 -0.004668 0.039591 -0.005997 -0.000001 0.002807 -0.000009
# 3 -0.009814 -0.005997 0.018110 0.000007 0.011595 0.000012
# 4 -0.000009 -0.000001 0.000007 0.088637 0.000013 0.043729
# 5 -0.014379 0.002807 0.011595 0.000013 0.073886 0.000017
# 6 -0.000012 -0.000009 0.000012 0.043729 0.000017 0.076037
#
#
# Mechanical properties :
#
#
# Convention : Reuss Voigt Hill
#
# Bulk Modulus (GPa) = 30.12426 50.64949 40.38687
# Shear Modulus (GPa) = 13.70849 19.32851 16.51850
#
# Velocity S-wave (km/s) = 2.76721 3.28584 3.03761
# Velocity P-wave (km/s) = 5.19971 6.53360 5.90444
#
# Compressibility (1/GPa) = 0.03319584
#
# Stress axis : x y z
#
# Youngs Moduli (GPa) = 60.77774 25.25843 55.21823
#
# Poissons Ratio (x) = 0.11791 0.54190
# Poissons Ratio (y) = 0.28373 0.33115
# Poissons Ratio (z) = 0.59646 0.15148
#
# Static dielectric constant tensor:
#      x y z
#    x 1.669430 0.000000 -0.032940 
#    y 0.000000 1.613090 0.000000 
#    z -0.032940 0.000000 1.607240 
# 
# From -- ./inp_files/324208.got.cif
#   From: 2010.05.17/outbox.cif.g08.bks.cpg/sg12_163_cif.got.tgz:324208.got - 2010.06.03 13:09:07.
