data_PCOD9193262
_publ_section_title
;
Structure prediction by ZEFSAII (Michael W. Deem and Ramdas Pophale) SiO2 
 PCOD9193262
Probable space group: C 2/M
;
_chemical_formula_sum "Si O2"
_cell_formula_units_Z 56
_cell_length_a 19.819403
_cell_length_b 8.902740
_cell_length_c 31.036636
_cell_angle_alpha 90.000000
_cell_angle_beta 143.349308
_cell_angle_gamma 90.000000
_cell_volume 3269.007318
_symmetry_space_group_name_H-M "C 2/M"
_symmetry_group_IT_number 12
_symmetry_cell_setting 'monoclinic'
loop_
_space_group_symop_operation_xyz
x,y,z
-x,y,-z
-x,-y,-z
x,-y,z
1/2+x,1/2+y,z
1/2-x,1/2+y,-z
1/2-x,1/2-y,-z
1/2+x,1/2-y,z
loop_
_atom_site_type_symbol
_atom_site_label
_atom_site_fract_x
_atom_site_fract_y
_atom_site_fract_z
Si Si1 0.280532 0.180958 0.561196
Si Si2 0.871554 0.817092 0.436207
Si Si3 0.112753 0.819356 0.152791
Si Si4 0.490200 0.180094 0.725989
Si Si5 0.167590 0.680514 0.272659
Si Si6 0.235885 0.821893 0.845181
Si Si7 0.409641 0.327758 0.993084
O O1 0.250000 0.250000 0.500000
O O2 0.189866 0.227643 0.551059
O O3 0.403348 0.222376 0.643223
O O4 0.277704 0.000000 0.557048
O O5 0.789093 0.773131 0.354789
O O6 0.000000 0.763474 0.500000
O O7 0.873076 0.000000 0.436578
O O8 0.139504 0.761296 0.213925
O O9 0.200656 0.751520 0.163326
O O10 0.985848 0.775826 0.072213
O O11 0.118616 0.000000 0.153291
O O12 0.424244 0.211581 0.736907
O O13 0.608702 0.262548 0.783194
O O14 0.507746 0.000000 0.732986
O O15 0.169304 0.500000 0.266988
O O16 0.238974 0.000000 0.842469
O O17 0.306565 0.771033 0.923589
O O18 0.372063 0.500000 0.980421
O O19 0.500000 0.329170 0.000000
#
# Coordination Sequence:
#
# PCOD9193262 Si02
#       7
#     8   8   8   8   8   8   8
#     4   9  18  32  51  74 100 132 166 202 247 297
#     4   8  15  30  51  73  98 128 162 201 246 293
#     4  10  20  34  53  76 104 135 164 201 253 308
#     4   9  19  36  52  69 103 143 171 203 253 304
#     4   9  18  33  53  75 100 134 172 207 246 295
#     4  11  21  32  52  79 101 127 171 218 251 290
#     4   8  16  32  51  71  99 134 164 197 252 308
#
# _framework density 17.130582
#
# number of rings (size 3 to 8) (size 9 to 14) (size 15 to 20)
#    0.000    2.857    0.000    4.286    0.000    5.429 
#    0.000    4.286    0.000    0.857    0.000    0.000 
#    0.000    0.000    0.000    0.000    0.000    0.000 
#
# Total GULP energy -156063.314225 kJ/mol
# GULP energy per Si atom -5573.689794 kJ/mol
# Density = 1.709159 g / cm^3
# Si number density = 17.130582 Si / 1000 Ang^3
#
#
#
# Elastic Constant Matrix: (Units=GPa)
#
#
# Indices 1 2 3 4 5 6 
#
# 1 67.5875 44.0988 97.4873 0.0000 3.2712 0.0000
# 2 44.0988 53.8250 67.9233 0.0000 5.2192 0.0000
# 3 97.4873 67.9233 196.7583 0.0000 -4.0692 0.0000
# 4 0.0000 0.0000 0.0000 28.2770 0.0000 -7.7140
# 5 3.2712 5.2192 -4.0692 0.0000 33.0132 0.0000
# 6 0.0000 0.0000 0.0000 -7.7140 0.0000 22.2451
#
#
#
# Elastic Compliance Matrix: (Units=1/GPa)
#
#
# Indices 1 2 3 4 5 6 
#
# 1 0.064908 -0.020965 -0.025051 0.000000 -0.006205 0.000000
# 2 -0.020965 0.041202 -0.003938 0.000000 -0.004922 0.000000
# 3 -0.025051 -0.003938 0.018966 0.000000 0.005442 0.000000
# 4 0.000000 0.000000 0.000000 0.039059 0.000000 0.013545
# 5 -0.006205 -0.004922 0.005442 0.000000 0.032355 0.000000
# 6 0.000000 0.000000 0.000000 0.013545 0.000000 0.049651
#
#
# Mechanical properties :
#
#
# Convention : Reuss Voigt Hill
#
# Bulk Modulus (GPa) = 39.73175 81.90995 60.82085
# Shear Modulus (GPa) = 14.10693 23.95115 19.02904
#
# Velocity S-wave (km/s) = 2.87277 3.74324 3.33652
# Velocity P-wave (km/s) = 5.85214 8.16096 7.10102
#
# Compressibility (1/GPa) = 0.02516879
#
# Stress axis : x y z
#
# Youngs Moduli (GPa) = 15.40652 24.27093 52.72608
#
# Poissons Ratio (x) = 0.50884 1.32082
# Poissons Ratio (y) = 0.32300 0.20761
# Poissons Ratio (z) = 0.38594 0.09557
#
# Static dielectric constant tensor:
#      x y z
#    x 1.555700 0.000000 0.003030 
#    y 0.000000 1.571670 0.000000 
#    z 0.003030 0.000000 1.590020 
# 
# From -- ./inp_files/363193.got.cif
#   From: 2010.05.17/outbox.cif.g08.bks.cpg/sg12_182_cif.got.tgz:363193.got - 2010.06.03 13:09:07.
