data_PCOD9193922
_publ_section_title
;
Structure prediction by ZEFSAII (Michael W. Deem and Ramdas Pophale) SiO2 
 PCOD9193922
Probable space group: C 2/M
;
_chemical_formula_sum "Si O2"
_cell_formula_units_Z 36
_cell_length_a 5.232636
_cell_length_b 30.442702
_cell_length_c 10.729466
_cell_angle_alpha 90.000000
_cell_angle_beta 104.811256
_cell_angle_gamma 90.000000
_cell_volume 1652.366669
_symmetry_space_group_name_H-M "C 2/M"
_symmetry_group_IT_number 12
_symmetry_cell_setting 'monoclinic'
loop_
_space_group_symop_operation_xyz
x,y,z
-x,y,-z
-x,-y,-z
x,-y,z
1/2+x,1/2+y,z
1/2-x,1/2+y,-z
1/2-x,1/2-y,-z
1/2+x,1/2-y,z
loop_
_atom_site_type_symbol
_atom_site_label
_atom_site_fract_x
_atom_site_fract_y
_atom_site_fract_z
Si Si1 0.568339 0.904948 0.359621
Si Si2 0.791976 0.500000 0.588292
Si Si3 0.053415 0.276070 0.854078
Si Si4 0.205682 0.623478 0.918372
Si Si5 0.784787 0.311766 0.581242
O O1 0.500000 0.906943 0.500000
O O2 0.674373 0.953269 0.339852
O O3 0.347212 0.895001 0.227413
O O4 0.754261 0.861744 0.370768
O O5 0.500000 0.500000 0.500000
O O6 0.000000 0.500000 0.500000
O O7 0.289449 0.241218 0.886923
O O8 0.160310 0.324008 0.902015
O O9 0.931319 0.282688 0.701042
O O10 0.500000 0.614360 0.000000
O O11 0.000000 0.607953 0.000000
O O12 0.500000 0.295775 0.500000
O O13 0.000000 0.315697 0.500000
#
# Coordination Sequence:
#
# PCOD9193922 Si02
#       5
#     8   4   8   8   8
#     4   9  21  41  66  94 124 161 205 249 300 362
#     4  10  20  36  64  98 126 156 201 252 297 354
#     4  11  23  37  56  83 114 154 205 253 298 355
#     4  11  25  43  63  89 125 164 203 252 309 363
#     4  10  20  34  54  82 119 157 194 244 304 359
#
# _framework density 21.786933000000001
#
# number of rings (size 3 to 8) (size 9 to 14) (size 15 to 20)
#    0.000    1.778    0.000    3.333    0.000   17.778 
#    0.000    1.111    0.000    0.000    0.000    0.000 
#    0.000    0.000    0.000    0.000    0.000    0.000 
#
# Total GULP energy -100467.537644 kJ/mol
# GULP energy per Si atom -5581.529869 kJ/mol
# Density = 2.173734 g / cm^3
# Si number density = 21.786933 Si / 1000 Ang^3
#
#
#
# Elastic Constant Matrix: (Units=GPa)
#
#
# Indices 1 2 3 4 5 6 
#
# 1 136.4805 19.6373 60.3929 0.0000 25.1589 0.0000
# 2 19.6373 109.9654 34.7716 0.0000 8.4733 0.0000
# 3 60.3929 34.7716 147.7159 0.0000 21.2321 0.0000
# 4 0.0000 0.0000 0.0000 23.4713 0.0000 6.6583
# 5 25.1589 8.4733 21.2321 0.0000 43.4433 0.0000
# 6 0.0000 0.0000 0.0000 6.6583 0.0000 17.5055
#
#
#
# Elastic Compliance Matrix: (Units=1/GPa)
#
#
# Indices 1 2 3 4 5 6 
#
# 1 0.009532 -0.000376 -0.003254 0.000000 -0.003856 0.000000
# 2 -0.000376 0.009869 -0.002069 0.000000 -0.000696 0.000000
# 3 -0.003254 -0.002069 0.008882 0.000000 -0.002053 0.000000
# 4 0.000000 0.000000 0.000000 0.047758 0.000000 -0.018165
# 5 -0.003856 -0.000696 -0.002053 0.000000 0.026391 0.000000
# 6 0.000000 0.000000 0.000000 -0.018165 0.000000 0.064034
#
#
# Mechanical properties :
#
#
# Convention : Reuss Voigt Hill
#
# Bulk Modulus (GPa) = 59.22765 69.30729 64.26747
# Shear Modulus (GPa) = 27.24887 35.50803 31.37845
#
# Velocity S-wave (km/s) = 3.54036 4.04144 3.79917
# Velocity P-wave (km/s) = 6.62994 7.32517 6.98621
#
# Compressibility (1/GPa) = 0.01688400
#
# Stress axis : x y z
#
# Youngs Moduli (GPa) = 104.90869 101.32875 112.58153
#
# Poissons Ratio (x) = 0.03810 0.36638
# Poissons Ratio (y) = 0.03945 0.23297
# Poissons Ratio (z) = 0.34141 0.20968
#
# Static dielectric constant tensor:
#      x y z
#    x 1.750060 0.000000 -0.005600 
#    y 0.000000 1.819530 0.000000 
#    z -0.005600 0.000000 1.815760 
# 
# From -- ./inp_files/115954.got.cif
#   From: 2010.05.17/outbox.cif.g08.bks.cpg/sg12_58_cif.got.tgz:115954.got - 2010.06.03 13:09:07.
