data_PCOD9193599
_publ_section_title
;
Structure prediction by ZEFSAII (Michael W. Deem and Ramdas Pophale) SiO2 
 PCOD9193599
Probable space group: C 2/M
;
_chemical_formula_sum "Si O2"
_cell_formula_units_Z 40
_cell_length_a 19.336277
_cell_length_b 11.002090
_cell_length_c 13.892668
_cell_angle_alpha 90.000000
_cell_angle_beta 148.871896
_cell_angle_gamma 90.000000
_cell_volume 1527.865055
_symmetry_space_group_name_H-M "C 2/M"
_symmetry_group_IT_number 12
_symmetry_cell_setting 'monoclinic'
loop_
_space_group_symop_operation_xyz
x,y,z
-x,y,-z
-x,-y,-z
x,-y,z
1/2+x,1/2+y,z
1/2-x,1/2+y,-z
1/2-x,1/2-y,-z
1/2+x,1/2-y,z
loop_
_atom_site_type_symbol
_atom_site_label
_atom_site_fract_x
_atom_site_fract_y
_atom_site_fract_z
Si Si1 0.276576 0.270833 0.711024
Si Si2 0.526992 0.265572 0.891691
Si Si3 0.073709 0.000000 0.735274
Si Si4 0.013189 0.500000 0.186147
Si Si5 0.966855 0.739359 0.328483
Si Si6 0.727969 0.500000 0.591525
Si Si7 0.659143 0.000000 0.826407
O O1 0.376723 0.306113 0.741904
O O2 0.120705 0.303891 0.519657
O O3 0.260336 0.123820 0.686051
O O4 0.361084 0.316788 0.903655
O O5 0.527444 0.121779 0.915146
O O6 0.555279 0.266029 0.812093
O O7 0.075035 0.128367 0.679693
O O8 0.194619 0.000000 0.954089
O O9 0.929297 0.000000 0.614819
O O10 0.173479 0.500000 0.382030
O O11 0.941146 0.500000 0.201554
O O12 0.877594 0.629775 0.262068
#
# Coordination Sequence:
#
# PCOD9193599 Si02
#       7
#     8   8   4   4   8   4   4
#     4   9  16  28  49  78 109 139 173 215 262 310
#     4   9  16  28  49  78 109 139 173 215 262 310
#     4  10  20  35  56  78 105 141 176 215 263 312
#     4   8  15  28  50  79 106 132 169 219 269 313
#     4  10  20  34  54  76 105 138 177 216 259 310
#     4   8  15  28  50  79 106 132 169 219 269 313
#     4  10  20  35  56  78 105 141 176 215 263 312
#
# _framework density 26.180322
#
# number of rings (size 3 to 8) (size 9 to 14) (size 15 to 20)
#    0.000    2.800    0.000    1.800    0.000    4.000 
#    0.000    1.000    0.000   52.800    0.000    0.000 
#    0.000    0.000    0.000    0.000    0.000    0.000 
#
# Total GULP energy -111686.285172 kJ/mol
# GULP energy per Si atom -5584.314259 kJ/mol
# Density = 2.612073 g / cm^3
# Si number density = 26.180322 Si / 1000 Ang^3
#
#
#
# Elastic Constant Matrix: (Units=GPa)
#
#
# Indices 1 2 3 4 5 6 
#
# 1 90.2196 22.7954 29.1040 0.0000 1.7024 0.0000
# 2 22.7954 109.3368 53.3357 0.0000 19.7686 0.0000
# 3 29.1040 53.3357 137.6482 0.0000 23.6792 0.0000
# 4 0.0000 0.0000 0.0000 22.6255 0.0000 10.6663
# 5 1.7024 19.7686 23.6792 0.0000 45.9484 0.0000
# 6 0.0000 0.0000 0.0000 10.6663 0.0000 90.1524
#
#
#
# Elastic Compliance Matrix: (Units=1/GPa)
#
#
# Indices 1 2 3 4 5 6 
#
# 1 0.012191 -0.001751 -0.002141 0.000000 0.001405 0.000000
# 2 -0.001751 0.011881 -0.003692 0.000000 -0.003144 0.000000
# 3 -0.002141 -0.003692 0.009723 0.000000 -0.003343 0.000000
# 4 0.000000 0.000000 0.000000 0.046809 0.000000 -0.005538
# 5 0.001405 -0.003144 -0.003343 0.000000 0.024787 0.000000
# 6 0.000000 0.000000 0.000000 -0.005538 0.000000 0.011748
#
#
# Mechanical properties :
#
#
# Convention : Reuss Voigt Hill
#
# Bulk Modulus (GPa) = 53.68886 60.85274 57.27080
# Shear Modulus (GPa) = 36.09709 47.20991 41.65350
#
# Velocity S-wave (km/s) = 3.71723 4.25109 3.99309
# Velocity P-wave (km/s) = 6.24304 6.88403 6.57135
#
# Compressibility (1/GPa) = 0.01862584
#
# Stress axis : x y z
#
# Youngs Moduli (GPa) = 82.03025 84.16932 102.84557
#
# Poissons Ratio (x) = 0.14741 0.22015
# Poissons Ratio (y) = 0.14367 0.37975
# Poissons Ratio (z) = 0.17560 0.31079
#
# Static dielectric constant tensor:
#      x y z
#    x 2.032310 0.000000 -0.003090 
#    y 0.000000 2.189310 0.000000 
#    z -0.003090 0.000000 2.054520 
# 
# From -- ./inp_files/293557.got.cif
#   From: 2010.05.17/outbox.cif.g08.bks.cpg/sg12_147_cif.got.tgz:293557.got - 2010.06.03 13:09:07.
