data_PCOD9193240
_publ_section_title
;
Structure prediction by ZEFSAII (Michael W. Deem and Ramdas Pophale) SiO2 
 PCOD9193240
Probable space group: C 2/M
;
_chemical_formula_sum "Si O2"
_cell_formula_units_Z 64
_cell_length_a 18.563998
_cell_length_b 9.180237
_cell_length_c 31.517788
_cell_angle_alpha 90.000000
_cell_angle_beta 137.857572
_cell_angle_gamma 90.000000
_cell_volume 3604.027043
_symmetry_space_group_name_H-M "C 2/M"
_symmetry_group_IT_number 12
_symmetry_cell_setting 'monoclinic'
loop_
_space_group_symop_operation_xyz
x,y,z
-x,y,-z
-x,-y,-z
x,-y,z
1/2+x,1/2+y,z
1/2-x,1/2+y,-z
1/2-x,1/2-y,-z
1/2+x,1/2-y,z
loop_
_atom_site_type_symbol
_atom_site_label
_atom_site_fract_x
_atom_site_fract_y
_atom_site_fract_z
Si Si1 0.920222 0.670946 0.568080
Si Si2 0.021606 0.174100 0.182981
Si Si3 0.373268 0.326174 0.940306
Si Si4 0.223945 0.824776 0.943902
Si Si5 0.760958 0.827966 0.438772
Si Si6 0.191613 0.174162 0.184368
Si Si7 0.683969 0.172876 0.312774
Si Si8 0.642203 0.672358 0.685454
O O1 0.939629 0.500000 0.569940
O O2 0.860996 0.741177 0.501740
O O3 0.836666 0.687115 0.570592
O O4 0.029418 0.752183 0.627209
O O5 0.091519 0.211922 0.171561
O O6 0.080210 0.248766 0.248180
O O7 0.897926 0.214119 0.122702
O O8 0.027561 0.000000 0.190615
O O9 0.357391 0.500000 0.940681
O O10 0.305657 0.235789 0.944603
O O11 0.335882 0.292246 0.876145
O O12 0.500000 0.297392 0.000000
O O13 0.230639 0.000000 0.950479
O O14 0.250000 0.750000 0.000000
O O15 0.721761 0.777322 0.375576
O O16 0.788259 0.000000 0.448012
O O17 0.294853 0.256943 0.247584
O O18 0.208497 0.000000 0.195269
O O19 0.779779 0.195795 0.320940
O O20 0.662673 0.000000 0.305946
O O21 0.628857 0.500000 0.685722
#
# Coordination Sequence:
#
# PCOD9193240 Si02
#       8
#     8   8   8   8   8   8   8   8
#     4  10  20  34  53  76 102 135 175 216 261 314
#     4   9  19  36  56  78 106 139 175 218 266 315
#     4  10  21  38  59  82 110 145 183 223 271 323
#     4  11  23  38  57  83 113 145 183 225 271 322
#     4   9  19  36  54  73 101 136 174 215 259 309
#     4   9  18  35  57  77 103 140 178 216 261 316
#     4   9  19  35  55  78 103 136 176 215 259 312
#     4  10  20  34  53  77 106 137 171 215 263 311
#
# _framework density 17.757912999999999
#
# number of rings (size 3 to 8) (size 9 to 14) (size 15 to 20)
#    0.000    2.375    0.000    1.875    0.000    6.750 
#    0.000    8.750    0.000    0.000    0.000    0.000 
#    0.000    0.000    0.000    0.000    0.000    0.000 
#
# Total GULP energy -178623.122914 kJ/mol
# GULP energy per Si atom -5581.972591 kJ/mol
# Density = 1.771750 g / cm^3
# Si number density = 17.757913 Si / 1000 Ang^3
#
#
#
# Elastic Constant Matrix: (Units=GPa)
#
#
# Indices 1 2 3 4 5 6 
#
# 1 69.7123 57.1471 86.0934 0.0000 -2.5180 0.0000
# 2 57.1471 68.2080 93.4309 0.0000 4.1063 0.0000
# 3 86.0934 93.4309 207.3070 0.0000 -1.2756 0.0000
# 4 0.0000 0.0000 0.0000 35.8002 0.0000 -1.1134
# 5 -2.5180 4.1063 -1.2756 0.0000 36.9364 0.0000
# 6 0.0000 0.0000 0.0000 -1.1134 0.0000 24.8930
#
#
#
# Elastic Compliance Matrix: (Units=1/GPa)
#
#
# Indices 1 2 3 4 5 6 
#
# 1 0.049284 -0.035935 -0.004227 0.000000 0.007209 0.000000
# 2 -0.035935 0.065408 -0.014618 0.000000 -0.010226 0.000000
# 3 -0.004227 -0.014618 0.013179 0.000000 0.001792 0.000000
# 4 0.000000 0.000000 0.000000 0.027972 0.000000 0.001251
# 5 0.007209 -0.010226 0.001792 0.000000 0.028764 0.000000
# 6 0.000000 0.000000 0.000000 0.001251 0.000000 0.040228
#
#
# Mechanical properties :
#
#
# Convention : Reuss Voigt Hill
#
# Bulk Modulus (GPa) = 54.61646 90.95226 72.78436
# Shear Modulus (GPa) = 14.68435 26.76296 20.72366
#
# Velocity S-wave (km/s) = 2.87874 3.88635 3.41986
# Velocity P-wave (km/s) = 6.47089 8.45384 7.52794
#
# Compressibility (1/GPa) = 0.01830950
#
# Stress axis : x y z
#
# Youngs Moduli (GPa) = 20.29055 15.28862 75.88103
#
# Poissons Ratio (x) = 0.54940 0.32078
# Poissons Ratio (y) = 0.72915 1.10922
# Poissons Ratio (z) = 0.08578 0.22349
#
# Static dielectric constant tensor:
#      x y z
#    x 1.591400 0.000000 -0.005650 
#    y 0.000000 1.593850 0.000000 
#    z -0.005650 0.000000 1.578210 
# 
# From -- ./inp_files/378325.got.cif
#   From: 2010.05.17/outbox.cif.g08.bks.cpg/sg12_190_cif.got.tgz:378325.got - 2010.06.03 13:09:07.
