data_PCOD9193175
_publ_section_title
;
Structure prediction by ZEFSAII (Michael W. Deem and Ramdas Pophale) SiO2 
 PCOD9193175
Probable space group: C 2/M
;
_chemical_formula_sum "Si O2"
_cell_formula_units_Z 56
_cell_length_a 30.764770
_cell_length_b 8.669011
_cell_length_c 12.864373
_cell_angle_alpha 90.000000
_cell_angle_beta 74.705677
_cell_angle_gamma 90.000000
_cell_volume 3309.418617
_symmetry_space_group_name_H-M "C 2/M"
_symmetry_group_IT_number 12
_symmetry_cell_setting 'monoclinic'
loop_
_space_group_symop_operation_xyz
x,y,z
-x,y,-z
-x,-y,-z
x,-y,z
1/2+x,1/2+y,z
1/2-x,1/2+y,-z
1/2-x,1/2-y,-z
1/2+x,1/2-y,z
loop_
_atom_site_type_symbol
_atom_site_label
_atom_site_fract_x
_atom_site_fract_y
_atom_site_fract_z
Si Si1 0.696764 0.184340 0.418934
Si Si2 0.892850 0.184305 0.607551
Si Si3 0.299738 0.315570 0.351330
Si Si4 0.943400 0.815060 0.361041
Si Si5 0.952515 0.312326 0.980319
Si Si6 0.386959 0.814856 0.202628
Si Si7 0.541923 0.185194 0.262058
O O1 0.658324 0.260432 0.373800
O O2 0.691202 0.243663 0.540710
O O3 0.748157 0.223053 0.355202
O O4 0.691751 0.000000 0.420881
O O5 0.918785 0.226963 0.484207
O O6 0.918648 0.261400 0.686696
O O7 0.894669 0.000000 0.616619
O O8 0.303505 0.500000 0.358019
O O9 0.337400 0.253173 0.250085
O O10 0.917229 0.740541 0.280685
O O11 0.994673 0.757753 0.328170
O O12 0.941894 0.000000 0.351719
O O13 0.953065 0.500000 0.980970
O O14 0.912095 0.264054 0.081465
O O15 0.949357 0.264923 0.862604
O O16 0.000000 0.261014 0.000000
O O17 0.384891 0.000000 0.205610
O O18 0.537767 0.000000 0.266591
#
# Coordination Sequence:
#
# PCOD9193175 Si02
#       7
#     8   8   8   8   8   8   8
#     4  10  20  34  55  79 107 144 182 214 261 327
#     4  11  23  37  53  77 114 146 176 224 272 315
#     4  10  20  34  52  81 114 139 171 224 274 312
#     4  11  22  35  51  77 113 146 176 219 272 316
#     4   9  18  35  55  78 106 138 180 230 268 303
#     4  11  20  33  57  81 107 143 182 219 266 324
#     4  11  22  37  57  77 105 145 188 224 262 322
#
# _framework density 16.921403000000002
#
# number of rings (size 3 to 8) (size 9 to 14) (size 15 to 20)
#    0.000    1.571    2.857    3.000    0.000    5.143 
#    0.000    3.571    0.000    0.857    0.000    0.000 
#    0.000    0.000    0.000    0.000    0.000    0.000 
#
# Total GULP energy -156396.007423 kJ/mol
# GULP energy per Si atom -5585.571694 kJ/mol
# Density = 1.688289 g / cm^3
# Si number density = 16.921403 Si / 1000 Ang^3
#
#
#
# Elastic Constant Matrix: (Units=GPa)
#
#
# Indices 1 2 3 4 5 6 
#
# 1 101.7305 8.5831 48.6259 0.0000 -12.0069 0.0000
# 2 8.5831 19.8474 12.6685 0.0000 -3.7484 0.0000
# 3 48.6259 12.6685 72.0405 0.0000 -6.1256 0.0000
# 4 0.0000 0.0000 0.0000 13.4552 0.0000 -6.3530
# 5 -12.0069 -3.7484 -6.1256 0.0000 30.0437 0.0000
# 6 0.0000 0.0000 0.0000 -6.3530 0.0000 30.2525
#
#
#
# Elastic Compliance Matrix: (Units=1/GPa)
#
#
# Indices 1 2 3 4 5 6 
#
# 1 0.014974 0.000586 -0.009866 0.000000 0.004046 0.000000
# 2 0.000586 0.057567 -0.010063 0.000000 0.005365 0.000000
# 3 -0.009866 -0.010063 0.022254 0.000000 -0.000661 0.000000
# 4 0.000000 0.000000 0.000000 0.082501 0.000000 0.017325
# 5 0.004046 0.005365 -0.000661 0.000000 0.035436 0.000000
# 6 0.000000 0.000000 0.000000 0.017325 0.000000 0.036693
#
#
# Mechanical properties :
#
#
# Convention : Reuss Voigt Hill
#
# Bulk Modulus (GPa) = 17.82238 37.04152 27.43195
# Shear Modulus (GPa) = 16.29652 22.99968 19.64810
#
# Velocity S-wave (km/s) = 3.10671 3.69074 3.41125
# Velocity P-wave (km/s) = 4.83985 6.33245 5.63578
#
# Compressibility (1/GPa) = 0.05610924
#
# Stress axis : x y z
#
# Youngs Moduli (GPa) = 66.78320 17.37103 44.93609
#
# Poissons Ratio (x) = -0.01018 0.44334
# Poissons Ratio (y) = -0.03914 0.45218
# Poissons Ratio (z) = 0.65889 0.17480
#
# Static dielectric constant tensor:
#      x y z
#    x 1.562540 0.000000 -0.015650 
#    y 0.000000 1.571360 0.000000 
#    z -0.015650 0.000000 1.555610 
# 
# From -- ./inp_files/186394.got.cif
#   From: 2010.05.17/outbox.cif.g08.bks.cpg/sg12_94_cif.got.tgz:186394.got - 2010.06.03 13:09:07.
