data_PCOD9193494
_publ_section_title
;
Structure prediction by ZEFSAII (Michael W. Deem and Ramdas Pophale) SiO2 
 PCOD9193494
Probable space group: C 2/M
;
_chemical_formula_sum "Si O2"
_cell_formula_units_Z 64
_cell_length_a 19.719932
_cell_length_b 8.017652
_cell_length_c 19.291233
_cell_angle_alpha 90.000000
_cell_angle_beta 95.752436
_cell_angle_gamma 90.000000
_cell_volume 3034.730164
_symmetry_space_group_name_H-M "C 2/M"
_symmetry_group_IT_number 12
_symmetry_cell_setting 'monoclinic'
loop_
_space_group_symop_operation_xyz
x,y,z
-x,y,-z
-x,-y,-z
x,-y,z
1/2+x,1/2+y,z
1/2-x,1/2+y,-z
1/2-x,1/2-y,-z
1/2+x,1/2-y,z
loop_
_atom_site_type_symbol
_atom_site_label
_atom_site_fract_x
_atom_site_fract_y
_atom_site_fract_z
Si Si1 0.096992 0.797240 0.039125
Si Si2 0.155106 0.297202 0.293240
Si Si3 0.118258 0.689412 0.655694
Si Si4 0.256920 0.301268 0.921598
Si Si5 0.284353 0.693502 0.220609
Si Si6 0.757158 0.196551 0.421805
Si Si7 0.999365 0.298878 0.264569
Si Si8 0.039411 0.200925 0.892441
O O1 0.165382 0.744242 0.083488
O O2 0.032200 0.751142 0.078199
O O3 0.097372 0.000000 0.035850
O O4 0.091261 0.739083 0.958292
O O5 0.150901 0.500000 0.295733
O O6 0.208164 0.257971 0.237109
O O7 0.196614 0.235757 0.365610
O O8 0.077711 0.236769 0.275585
O O9 0.105276 0.500000 0.632893
O O10 0.164223 0.697667 0.729832
O O11 0.168701 0.764443 0.603408
O O12 0.047163 0.765246 0.676119
O O13 0.250699 0.500000 0.913478
O O14 0.209295 0.215943 0.860419
O O15 0.250000 0.250000 0.000000
O O16 0.295700 0.500000 0.240920
O O17 0.750000 0.250000 0.500000
O O18 0.749383 0.000000 0.418471
O O19 0.000557 0.500000 0.270459
O O20 0.964493 0.259898 0.186873
O O21 0.044364 0.000000 0.890126
#
# Coordination Sequence:
#
# PCOD9193494 Si02
#       8
#     8   8   8   8   8   8   8   8
#     4   8  17  33  49  68  95 130 176 223 274 332
#     4   8  17  35  58  82 108 141 181 219 263 318
#     4  10  21  36  56  84 116 147 180 222 269 325
#     4  11  22  34  48  70 100 137 180 229 281 332
#     4  10  20  36  56  76 103 143 187 232 277 327
#     4  10  20  38  64  89 115 149 184 220 260 313
#     4  10  20  34  53  80 111 139 176 224 272 320
#     4   9  17  32  53  72  95 133 175 219 273 331
#
# _framework density 21.089191
#
# number of rings (size 3 to 8) (size 9 to 14) (size 15 to 20)
#    0.000    2.500    0.000    3.750    1.750    1.000 
#    0.000    6.250    0.000    3.750    0.000    0.000 
#    0.000    0.000    0.000    0.000    0.000    0.000 
#
# Total GULP energy -178430.077247 kJ/mol
# GULP energy per Si atom -5575.939914 kJ/mol
# Density = 2.104119 g / cm^3
# Si number density = 21.089191 Si / 1000 Ang^3
#
#
#
# Elastic Constant Matrix: (Units=GPa)
#
#
# Indices 1 2 3 4 5 6 
#
# 1 70.1462 -1.0365 18.0860 0.0000 -13.4376 0.0000
# 2 -1.0365 21.8013 -1.8943 0.0000 -0.9934 0.0000
# 3 18.0860 -1.8943 118.8429 0.0000 -14.8031 0.0000
# 4 0.0000 0.0000 0.0000 29.3837 0.0000 -1.7908
# 5 -13.4376 -0.9934 -14.8031 0.0000 24.7870 0.0000
# 6 0.0000 0.0000 0.0000 -1.7908 0.0000 12.3737
#
#
#
# Elastic Compliance Matrix: (Units=1/GPa)
#
#
# Indices 1 2 3 4 5 6 
#
# 1 0.016166 0.001004 -0.001456 0.000000 0.007935 0.000000
# 2 0.001004 0.046134 0.000951 0.000000 0.002961 0.000000
# 3 -0.001456 0.000951 0.009245 0.000000 0.004770 0.000000
# 4 0.000000 0.000000 0.000000 0.034335 0.000000 0.004969
# 5 0.007935 0.002961 0.004770 0.000000 0.047613 0.000000
# 6 0.000000 0.000000 0.000000 0.004969 0.000000 0.081536
#
#
# Mechanical properties :
#
#
# Convention : Reuss Voigt Hill
#
# Bulk Modulus (GPa) = 13.78471 26.78898 20.28684
# Shear Modulus (GPa) = 19.36389 26.35123 22.85756
#
# Velocity S-wave (km/s) = 3.03345 3.53868 3.29576
# Velocity P-wave (km/s) = 4.33817 5.42463 4.91153
#
# Compressibility (1/GPa) = 0.07254416
#
# Stress axis : x y z
#
# Youngs Moduli (GPa) = 61.85756 21.67595 108.16200
#
# Poissons Ratio (x) = -0.02176 0.15747
# Poissons Ratio (y) = -0.06209 -0.10291
# Poissons Ratio (z) = 0.09006 -0.02062
#
# Static dielectric constant tensor:
#      x y z
#    x 1.822980 0.000000 -0.011060 
#    y 0.000000 1.762150 0.000000 
#    z -0.011060 0.000000 1.785600 
# 
# From -- ./inp_files/281335.got.cif
#   From: 2010.05.17/outbox.cif.g08.bks.cpg/sg12_141_cif.got.tgz:281335.got - 2010.06.03 13:09:07.
