data_PCOD9193492
_publ_section_title
;
Structure prediction by ZEFSAII (Michael W. Deem and Ramdas Pophale) SiO2 
 PCOD9193492
Probable space group: C 2/M
;
_chemical_formula_sum "Si O2"
_cell_formula_units_Z 64
_cell_length_a 10.077404
_cell_length_b 31.501414
_cell_length_c 24.639289
_cell_angle_alpha 90.000000
_cell_angle_beta 150.682329
_cell_angle_gamma 90.000000
_cell_volume 3829.956848
_symmetry_space_group_name_H-M "C 2/M"
_symmetry_group_IT_number 12
_symmetry_cell_setting 'monoclinic'
loop_
_space_group_symop_operation_xyz
x,y,z
-x,y,-z
-x,-y,-z
x,-y,z
1/2+x,1/2+y,z
1/2-x,1/2+y,-z
1/2-x,1/2-y,-z
1/2+x,1/2-y,z
loop_
_atom_site_type_symbol
_atom_site_label
_atom_site_fract_x
_atom_site_fract_y
_atom_site_fract_z
Si Si1 0.545663 0.178179 0.315808
Si Si2 0.706255 0.737758 0.422167
Si Si3 0.928676 0.395473 0.119139
Si Si4 0.378242 0.657136 0.328368
Si Si5 0.235466 0.550901 0.721942
Si Si6 0.161084 0.107466 0.137861
Si Si7 0.684636 0.949223 0.117444
Si Si8 0.799845 0.104213 0.476927
O O1 0.523182 0.225567 0.329599
O O2 0.735221 0.177899 0.330183
O O3 0.284473 0.151114 0.205309
O O4 0.685798 0.148649 0.411636
O O5 0.750000 0.750000 0.500000
O O6 0.574049 0.691553 0.372108
O O7 0.000000 0.738687 0.500000
O O8 0.837002 0.406231 0.147990
O O9 0.145811 0.358204 0.204809
O O10 0.069555 0.430490 0.132003
O O11 0.646325 0.384990 0.989234
O O12 0.536150 0.616817 0.410672
O O13 0.208678 0.500000 0.714663
O O14 0.307114 0.571075 0.805979
O O15 0.499500 0.561643 0.779789
O O16 0.953649 0.573161 0.604451
O O17 0.664838 0.000000 0.111712
O O18 0.500000 0.934746 0.000000
O O19 0.000000 0.088024 0.500000
#
# Coordination Sequence:
#
# PCOD9193492 Si02
#       8
#     8   8   8   8   8   8   8   8
#     4   9  17  34  55  76 107 140 177 223 270 308
#     4  12  20  33  55  81 107 140 182 220 263 320
#     4  10  20  36  55  81 107 142 183 222 271 325
#     4  10  20  34  53  80 111 137 174 223 270 320
#     4  10  20  34  56  81 107 144 185 222 270 326
#     4   9  19  35  58  78 104 143 186 228 267 312
#     4  10  20  36  55  77 110 145 177 224 278 321
#     4   9  17  33  54  78 108 145 180 224 270 314
#
# _framework density 16.710370999999999
#
# number of rings (size 3 to 8) (size 9 to 14) (size 15 to 20)
#    0.000    2.125    3.750    1.125    0.000    1.750 
#    0.000    2.500    0.000    1.500    0.000    0.000 
#    0.000    0.000    0.000    0.000    0.000    0.000 
#
# Total GULP energy -178297.975421 kJ/mol
# GULP energy per Si atom -5571.811732 kJ/mol
# Density = 1.667234 g / cm^3
# Si number density = 16.710371 Si / 1000 Ang^3
#
#
#
# Elastic Constant Matrix: (Units=GPa)
#
#
# Indices 1 2 3 4 5 6 
#
# 1 78.4698 37.8041 39.2745 -0.0002 14.6798 0.0000
# 2 37.8041 62.6684 40.3923 0.0003 12.0336 0.0000
# 3 39.2745 40.3923 87.8064 0.0041 16.4381 0.0007
# 4 -0.0002 0.0003 0.0041 20.2440 -0.0001 1.9992
# 5 14.6798 12.0336 16.4381 -0.0001 24.1552 0.0001
# 6 0.0000 0.0000 0.0007 1.9992 0.0001 24.2477
#
#
#
# Elastic Compliance Matrix: (Units=1/GPa)
#
#
# Indices 1 2 3 4 5 6 
#
# 1 0.019727 -0.008315 -0.004045 0.000001 -0.005094 0.000000
# 2 -0.008315 0.026686 -0.008038 0.000001 -0.002771 0.000000
# 3 -0.004045 -0.008038 0.017976 -0.000004 -0.005770 0.000000
# 4 0.000001 0.000001 -0.000004 0.049803 0.000001 -0.004106
# 5 -0.005094 -0.002771 -0.005770 0.000001 0.049802 0.000000
# 6 0.000000 0.000000 0.000000 -0.004106 0.000000 0.041580
#
#
# Mechanical properties :
#
#
# Convention : Reuss Voigt Hill
#
# Bulk Modulus (GPa) = 42.38576 51.54294 46.96435
# Shear Modulus (GPa) = 19.66699 21.16095 20.41397
#
# Velocity S-wave (km/s) = 3.43437 3.56242 3.49898
# Velocity P-wave (km/s) = 6.41455 6.91614 6.67006
#
# Compressibility (1/GPa) = 0.02359283
#
# Stress axis : x y z
#
# Youngs Moduli (GPa) = 50.69179 37.47315 55.63025
#
# Poissons Ratio (x) = 0.31158 0.22503
# Poissons Ratio (y) = 0.42149 0.44715
# Poissons Ratio (z) = 0.20505 0.30121
#
# Static dielectric constant tensor:
#      x y z
#    x 1.567640 0.000000 0.004540 
#    y 0.000000 1.537970 0.000000 
#    z 0.004540 0.000000 1.581090 
# 
# From -- ./inp_files/334362.got.cif
#   From: 2010.05.17/outbox.cif.g08.bks.cpg/sg12_168_cif.got.tgz:334362.got - 2010.06.03 13:09:07.
