data_PCOD9193283
_publ_section_title
;
Structure prediction by ZEFSAII (Michael W. Deem and Ramdas Pophale) SiO2 
 PCOD9193283
Probable space group: C 2/M
;
_chemical_formula_sum "Si O2"
_cell_formula_units_Z 28
_cell_length_a 5.478785
_cell_length_b 32.825416
_cell_length_c 6.888314
_cell_angle_alpha 90.000000
_cell_angle_beta 76.517902
_cell_angle_gamma 90.000000
_cell_volume 1204.679454
_symmetry_space_group_name_H-M "C 2/M"
_symmetry_group_IT_number 12
_symmetry_cell_setting 'monoclinic'
loop_
_space_group_symop_operation_xyz
x,y,z
-x,y,-z
-x,-y,-z
x,-y,z
1/2+x,1/2+y,z
1/2-x,1/2+y,-z
1/2-x,1/2-y,-z
1/2+x,1/2-y,z
loop_
_atom_site_type_symbol
_atom_site_label
_atom_site_fract_x
_atom_site_fract_y
_atom_site_fract_z
Si Si1 0.500000 0.345706 0.000000
Si Si2 0.583416 0.725290 0.263397
Si Si3 0.288707 0.921147 0.796143
Si Si4 0.702112 0.546993 0.245792
O O1 0.615163 0.316342 0.140514
O O2 0.296630 0.375581 0.135113
O O3 0.500000 0.717061 0.500000
O O4 0.343384 0.749599 0.219340
O O5 0.580366 0.925918 0.699231
O O6 0.086243 0.939230 0.684569
O O7 0.249449 0.946462 0.004493
O O8 0.736063 0.500000 0.290478
#
# Coordination Sequence:
#
# PCOD9193283 Si02
#       4
#     4   8   8   8
#     4  10  20  34  53  76 108 130 160 214 255 288
#     4  10  22  38  56  77  99 131 170 202 247 308
#     4   9  17  23  38  66  92 124 162 194 240 291
#     4   9  14  24  37  59  98 128 158 203 233 274
#
# _framework density 23.242699999999999
#
# number of rings (size 3 to 8) (size 9 to 14) (size 15 to 20)
#    0.000    2.857    0.000    5.143    0.000    9.143 
#    0.000    0.000    0.000    0.000    0.000    0.000 
#    0.000  150.857    0.000    0.000    0.000    0.000 
#
# Total GULP energy -78254.488438 kJ/mol
# GULP energy per Si atom -5589.606317 kJ/mol
# Density = 2.318980 g / cm^3
# Si number density = 23.242700 Si / 1000 Ang^3
#
#
#
# Elastic Constant Matrix: (Units=GPa)
#
#
# Indices 1 2 3 4 5 6 
#
# 1 212.9974 60.2946 39.5916 0.0000 28.9955 0.0000
# 2 60.2946 167.3950 30.4846 0.0000 19.3213 0.0000
# 3 39.5916 30.4846 60.4528 0.0000 0.4674 0.0000
# 4 0.0000 0.0000 0.0000 6.2398 0.0000 9.1480
# 5 28.9955 19.3213 0.4674 0.0000 40.6479 0.0000
# 6 0.0000 0.0000 0.0000 9.1480 0.0000 23.0247
#
#
#
# Elastic Compliance Matrix: (Units=1/GPa)
#
#
# Indices 1 2 3 4 5 6 
#
# 1 0.006181 -0.001160 -0.003434 0.000000 -0.003818 0.000000
# 2 -0.001160 0.007208 -0.002855 0.000000 -0.002566 0.000000
# 3 -0.003434 -0.002855 0.020203 0.000000 0.003574 0.000000
# 4 0.000000 0.000000 0.000000 0.383848 0.000000 -0.152507
# 5 -0.003818 -0.002566 0.003574 0.000000 0.028504 0.000000
# 6 0.000000 0.000000 0.000000 -0.152507 0.000000 0.104024
#
#
# Mechanical properties :
#
#
# Convention : Reuss Voigt Hill
#
# Bulk Modulus (GPa) = 53.49321 77.95410 65.72365
# Shear Modulus (GPa) = 8.75508 34.68076 21.71792
#
# Velocity S-wave (km/s) = 1.94293 3.86698 3.06011
# Velocity P-wave (km/s) = 5.30079 7.31779 6.38938
#
# Compressibility (1/GPa) = 0.01869396
#
# Stress axis : x y z
#
# Youngs Moduli (GPa) = 161.77502 138.73621 49.49864
#
# Poissons Ratio (x) = 0.16100 0.16996
# Poissons Ratio (y) = 0.18774 0.14131
# Poissons Ratio (z) = 0.55547 0.39608
#
# Static dielectric constant tensor:
#      x y z
#    x 1.983230 0.000000 -0.120240 
#    y 0.000000 1.779410 0.000000 
#    z -0.120240 0.000000 2.168240 
# 
# From -- ./inp_files/33953.got.cif
#   From: 2010.05.17/outbox.cif.g08.bks.cpg/sg12_17_cif.got.tgz:33953.got - 2010.06.03 13:09:07.
