data_PCOD9193032
_publ_section_title
;
Structure prediction by ZEFSAII (Michael W. Deem and Ramdas Pophale) SiO2 
 PCOD9193032
Probable space group: C 2/M
;
_chemical_formula_sum "Si O2"
_cell_formula_units_Z 64
_cell_length_a 8.034577
_cell_length_b 19.143018
_cell_length_c 22.865497
_cell_angle_alpha 90.000000
_cell_angle_beta 127.950708
_cell_angle_gamma 90.000000
_cell_volume 2773.178760
_symmetry_space_group_name_H-M "C 2/M"
_symmetry_group_IT_number 12
_symmetry_cell_setting 'monoclinic'
loop_
_space_group_symop_operation_xyz
x,y,z
-x,y,-z
-x,-y,-z
x,-y,z
1/2+x,1/2+y,z
1/2-x,1/2+y,-z
1/2-x,1/2-y,-z
1/2+x,1/2-y,z
loop_
_atom_site_type_symbol
_atom_site_label
_atom_site_fract_x
_atom_site_fract_y
_atom_site_fract_z
Si Si1 0.374735 0.780396 0.281067
Si Si2 0.352507 0.077274 0.515165
Si Si3 0.157466 0.833383 0.905907
Si Si4 0.582350 0.424319 0.647467
Si Si5 0.957253 0.855057 0.241801
Si Si6 0.749680 0.080554 0.965523
Si Si7 0.189753 0.680429 0.855721
Si Si8 0.287958 0.682726 0.419145
O O1 0.186401 0.819495 0.274781
O O2 0.313942 0.706603 0.238934
O O3 0.427339 0.821004 0.231993
O O4 0.587133 0.767736 0.364600
O O5 0.500000 0.114206 0.500000
O O6 0.134288 0.068805 0.434873
O O7 0.310257 0.121856 0.562330
O O8 0.439517 0.000000 0.547972
O O9 0.197302 0.753674 0.893284
O O10 0.139616 0.875993 0.841369
O O11 0.927242 0.830066 0.884693
O O12 0.285113 0.871635 0.984565
O O13 0.695326 0.500000 0.665035
O O14 0.532439 0.410589 0.704527
O O15 0.668226 0.356140 0.632420
O O16 0.630967 0.118497 0.886633
O O17 0.692171 0.000000 0.962385
O O18 0.000000 0.080993 0.000000
O O19 0.500000 0.706786 0.500000
#
# Coordination Sequence:
#
# PCOD9193032 Si02
#       8
#     8   8   8   8   8   8   8   8
#     4  10  20  36  55  77 107 140 182 231 273 323
#     4   9  17  31  51  74 101 135 175 218 264 320
#     4   9  18  32  55  80 104 141 181 220 262 314
#     4  10  20  34  52  75 105 138 174 218 268 324
#     4  10  20  35  55  79 107 141 182 225 271 320
#     4   9  17  31  52  81 114 142 174 218 265 313
#     4   9  18  33  55  79 104 141 183 221 265 318
#     4  10  20  35  54  79 106 140 180 223 277 327
#
# _framework density 23.078211
#
# number of rings (size 3 to 8) (size 9 to 14) (size 15 to 20)
#    0.000    2.500    0.000    2.250    0.000    3.000 
#    0.000   10.000    0.000    1.500    0.000    0.000 
#    0.000    0.000    0.000    0.000    0.000    0.000 
#
# Total GULP energy -178364.500669 kJ/mol
# GULP energy per Si atom -5573.890646 kJ/mol
# Density = 2.302568 g / cm^3
# Si number density = 23.078211 Si / 1000 Ang^3
#
#
#
# Elastic Constant Matrix: (Units=GPa)
#
#
# Indices 1 2 3 4 5 6 
#
# 1 79.5080 6.6465 21.2668 0.0000 -22.3721 0.0000
# 2 6.6465 57.2890 29.9010 0.0000 -17.3468 0.0000
# 3 21.2668 29.9010 99.8749 0.0000 -34.0252 0.0000
# 4 0.0000 0.0000 0.0000 163.3321 0.0000 -94.7476
# 5 -22.3721 -17.3468 -34.0252 0.0000 34.9420 0.0000
# 6 0.0000 0.0000 0.0000 -94.7476 0.0000 80.4367
#
#
#
# Elastic Compliance Matrix: (Units=1/GPa)
#
#
# Indices 1 2 3 4 5 6 
#
# 1 0.015440 0.001459 -0.000164 0.000000 0.010450 0.000000
# 2 0.001459 0.021810 -0.004240 0.000000 0.007633 0.000000
# 3 -0.000164 -0.004240 0.015808 0.000000 0.013183 0.000000
# 4 0.000000 0.000000 0.000000 0.019332 0.000000 0.022772
# 5 0.010450 0.007633 0.013183 0.000000 0.051936 0.000000
# 6 0.000000 0.000000 0.000000 0.022772 0.000000 0.039255
#
#
# Mechanical properties :
#
#
# Convention : Reuss Voigt Hill
#
# Bulk Modulus (GPa) = 21.20139 39.14451 30.17295
# Shear Modulus (GPa) = 26.99858 67.66598 47.33228
#
# Velocity S-wave (km/s) = 3.42405 5.42070 4.53366
# Velocity P-wave (km/s) = 4.98386 7.49514 6.36459
#
# Compressibility (1/GPa) = 0.04716672
#
# Stress axis : x y z
#
# Youngs Moduli (GPa) = 64.76803 45.84993 63.25857
#
# Poissons Ratio (x) = -0.06688 0.01040
# Poissons Ratio (y) = -0.09447 0.26821
# Poissons Ratio (z) = 0.01065 0.19440
#
# Static dielectric constant tensor:
#      x y z
#    x 1.882810 0.000000 0.004640 
#    y 0.000000 1.512170 0.000000 
#    z 0.004640 0.000000 1.879610 
# 
# From -- ./inp_files/301729.got.cif
#   From: 2010.05.17/outbox.cif.g08.bks.cpg/sg12_151_cif.got.tgz:301729.got - 2010.06.03 13:09:07.
