data_PCOD9193707
_publ_section_title
;
Structure prediction by ZEFSAII (Michael W. Deem and Ramdas Pophale) SiO2 
 PCOD9193707
Probable space group: C 2/M
;
_chemical_formula_sum "Si O2"
_cell_formula_units_Z 56
_cell_length_a 18.511714
_cell_length_b 7.549235
_cell_length_c 23.346126
_cell_angle_alpha 90.000000
_cell_angle_beta 127.468716
_cell_angle_gamma 90.000000
_cell_volume 2589.482073
_symmetry_space_group_name_H-M "C 2/M"
_symmetry_group_IT_number 12
_symmetry_cell_setting 'monoclinic'
loop_
_space_group_symop_operation_xyz
x,y,z
-x,y,-z
-x,-y,-z
x,-y,z
1/2+x,1/2+y,z
1/2-x,1/2+y,-z
1/2-x,1/2-y,-z
1/2+x,1/2-y,z
loop_
_atom_site_type_symbol
_atom_site_label
_atom_site_fract_x
_atom_site_fract_y
_atom_site_fract_z
Si Si1 0.472856 0.217307 0.855546
Si Si2 0.664993 0.787778 0.999902
Si Si3 0.597923 0.216902 0.571591
Si Si4 0.234787 0.210747 0.426001
Si Si5 0.691883 0.214137 0.142468
Si Si6 0.459584 0.207080 0.719376
Si Si7 0.886741 0.289849 0.290955
O O1 0.570238 0.275629 0.927084
O O2 0.390638 0.274673 0.856890
O O3 0.459830 0.279525 0.783998
O O4 0.471442 0.000000 0.855140
O O5 0.656904 0.000000 0.000054
O O6 0.750000 0.750000 0.000000
O O7 0.681034 0.720932 0.072095
O O8 0.500000 0.270677 0.500000
O O9 0.680568 0.276837 0.571115
O O10 0.610113 0.279037 0.642690
O O11 0.599519 0.000000 0.571780
O O12 0.250000 0.250000 0.500000
O O13 0.139161 0.281409 0.356772
O O14 0.230932 0.000000 0.417344
O O15 0.788430 0.265117 0.215605
O O16 0.688780 0.000000 0.139671
O O17 0.535479 0.284689 0.713432
O O18 0.483161 0.000000 0.737501
O O19 0.904324 0.500000 0.304817
#
# Coordination Sequence:
#
# PCOD9193707 Si02
#       7
#     8   8   8   8   8   8   8
#     4   9  18  34  55  78 106 141 178 215 261 317
#     4  10  20  35  55  78 105 140 180 220 264 313
#     4   9  18  34  55  77 102 135 174 212 253 306
#     4  11  22  36  56  80 107 139 175 217 262 310
#     4  10  20  34  54  79 107 139 176 219 263 311
#     4  10  20  35  56  79 105 139 176 215 260 312
#     4  10  20  35  56  80 107 140 175 213 262 317
#
# _framework density 21.625947
#
# number of rings (size 3 to 8) (size 9 to 14) (size 15 to 20)
#    0.000    2.143    0.000    3.429    0.000    6.286 
#    0.000    2.143    0.000    4.714    0.000    0.000 
#    0.000    0.000    0.000    0.000    0.000    0.000 
#
# Total GULP energy -156525.491963 kJ/mol
# GULP energy per Si atom -5590.196142 kJ/mol
# Density = 2.157673 g / cm^3
# Si number density = 21.625947 Si / 1000 Ang^3
#
#
#
# Elastic Constant Matrix: (Units=GPa)
#
#
# Indices 1 2 3 4 5 6 
#
# 1 256.7871 -5.7128 136.6595 0.0000 -12.0985 0.0000
# 2 -5.7128 47.2863 -19.5524 0.0000 -8.8420 0.0000
# 3 136.6595 -19.5524 211.6013 0.0000 -18.1537 0.0000
# 4 0.0000 0.0000 0.0000 13.6286 0.0000 0.8556
# 5 -12.0985 -8.8420 -18.1537 0.0000 47.9772 0.0000
# 6 0.0000 0.0000 0.0000 0.8556 0.0000 7.6507
#
#
#
# Elastic Compliance Matrix: (Units=1/GPa)
#
#
# Indices 1 2 3 4 5 6 
#
# 1 0.005972 -0.000947 -0.003959 0.000000 -0.000166 0.000000
# 2 -0.000947 0.023354 0.003223 0.000000 0.005285 0.000000
# 3 -0.003959 0.003223 0.007799 0.000000 0.002547 0.000000
# 4 0.000000 0.000000 0.000000 0.073894 0.000000 -0.008263
# 5 -0.000166 0.005285 0.002547 0.000000 0.022739 0.000000
# 6 0.000000 0.000000 0.000000 -0.008263 0.000000 0.131631
#
#
# Mechanical properties :
#
#
# Convention : Reuss Voigt Hill
#
# Bulk Modulus (GPa) = 29.62095 82.05150 55.83622
# Shear Modulus (GPa) = 17.85666 40.80332 29.32999
#
# Velocity S-wave (km/s) = 2.87663 4.34842 3.68671
# Velocity P-wave (km/s) = 4.97594 7.95206 6.63307
#
# Compressibility (1/GPa) = 0.03375989
#
# Stress axis : x y z
#
# Youngs Moduli (GPa) = 167.44217 42.81897 128.22406
#
# Poissons Ratio (x) = 0.04053 0.50761
# Poissons Ratio (y) = 0.15848 -0.41322
# Poissons Ratio (z) = 0.66287 -0.13799
#
# Static dielectric constant tensor:
#      x y z
#    x 1.753530 0.000000 -0.024460 
#    y 0.000000 1.894280 0.000000 
#    z -0.024460 0.000000 1.717760 
# 
# From -- ./inp_files/275065.got.cif
#   From: 2010.05.17/outbox.cif.g08.bks.cpg/sg12_138_cif.got.tgz:275065.got - 2010.06.03 13:09:07.
