data_PCOD9193394
_publ_section_title
;
Structure prediction by ZEFSAII (Michael W. Deem and Ramdas Pophale) SiO2 
 PCOD9193394
Probable space group: C 2/M
;
_chemical_formula_sum "Si O2"
_cell_formula_units_Z 56
_cell_length_a 20.947770
_cell_length_b 9.818371
_cell_length_c 24.063613
_cell_angle_alpha 90.000000
_cell_angle_beta 140.970425
_cell_angle_gamma 90.000000
_cell_volume 3116.639426
_symmetry_space_group_name_H-M "C 2/M"
_symmetry_group_IT_number 12
_symmetry_cell_setting 'monoclinic'
loop_
_space_group_symop_operation_xyz
x,y,z
-x,y,-z
-x,-y,-z
x,-y,z
1/2+x,1/2+y,z
1/2-x,1/2+y,-z
1/2-x,1/2-y,-z
1/2+x,1/2-y,z
loop_
_atom_site_type_symbol
_atom_site_label
_atom_site_fract_x
_atom_site_fract_y
_atom_site_fract_z
Si Si1 0.571672 0.157912 0.915755
Si Si2 0.227561 0.152737 0.290135
Si Si3 0.546793 0.334861 0.704630
Si Si4 0.080568 0.239949 0.097192
Si Si5 0.579688 0.336669 0.602550
Si Si6 0.948622 0.836929 0.747997
Si Si7 0.234106 0.661166 0.109071
O O1 0.487950 0.166275 0.908892
O O2 0.530312 0.253580 0.839293
O O3 0.582175 0.000000 0.905997
O O4 0.674581 0.211916 0.014366
O O5 0.147183 0.153092 0.184843
O O6 0.315736 0.258896 0.337659
O O7 0.160559 0.190526 0.298679
O O8 0.268360 0.000000 0.324297
O O9 0.550677 0.500000 0.706240
O O10 0.537285 0.293106 0.634295
O O11 0.462376 0.298855 0.692913
O O12 0.655052 0.284094 0.801645
O O13 0.160985 0.315377 0.112291
O O14 0.000000 0.172379 0.000000
O O15 0.500000 0.307882 0.500000
O O16 0.597517 0.500000 0.615784
O O17 0.966449 0.000000 0.766165
O O18 0.244278 0.500000 0.107537
#
# Coordination Sequence:
#
# PCOD9193394 Si02
#       7
#     8   8   8   8   8   8   8
#     4   9  17  27  44  72 104 136 177 222 256 295
#     4  10  20  34  53  78 108 142 174 209 261 315
#     4   9  17  32  54  74 100 135 174 215 257 314
#     4   9  16  27  46  74 107 140 176 217 255 304
#     4  10  21  38  62  86 102 126 173 228 271 308
#     4   9  19  34  50  71 104 146 177 200 250 319
#     4   9  15  25  45  72  99 135 178 218 261 300
#
# _framework density 17.968070999999998
#
# number of rings (size 3 to 8) (size 9 to 14) (size 15 to 20)
#    0.000    2.714    1.429    0.429    0.000    5.143 
#    0.000    3.571    0.000    0.000    0.000    0.000 
#    0.000    0.000    0.000    0.000    0.000    0.000 
#
# Total GULP energy -155887.944583 kJ/mol
# GULP energy per Si atom -5567.426592 kJ/mol
# Density = 1.792718 g / cm^3
# Si number density = 17.968071 Si / 1000 Ang^3
#
#
#
# Elastic Constant Matrix: (Units=GPa)
#
#
# Indices 1 2 3 4 5 6 
#
# 1 117.9327 20.9262 63.1139 0.0000 -26.0367 0.0000
# 2 20.9262 29.1885 31.1723 0.0000 -6.2262 0.0000
# 3 63.1139 31.1723 73.4245 0.0000 -9.7280 0.0000
# 4 0.0000 0.0000 0.0000 6.4786 0.0000 -1.0198
# 5 -26.0367 -6.2262 -9.7280 0.0000 17.2382 0.0000
# 6 0.0000 0.0000 0.0000 -1.0198 0.0000 13.4777
#
#
#
# Elastic Compliance Matrix: (Units=1/GPa)
#
#
# Indices 1 2 3 4 5 6 
#
# 1 0.025116 0.013122 -0.023244 0.000000 0.029558 0.000000
# 2 0.013122 0.070636 -0.038112 0.000000 0.023826 0.000000
# 3 -0.023244 -0.038112 0.046804 0.000000 -0.022461 0.000000
# 4 0.000000 0.000000 0.000000 0.156215 0.000000 0.011820
# 5 0.029558 0.023826 -0.022461 0.000000 0.098586 0.000000
# 6 0.000000 0.000000 0.000000 0.011820 0.000000 0.075091
#
#
# Mechanical properties :
#
#
# Convention : Reuss Voigt Hill
#
# Bulk Modulus (GPa) = 21.69687 50.10785 35.90236
# Shear Modulus (GPa) = 8.55757 14.46111 11.50934
#
# Velocity S-wave (km/s) = 2.18472 2.84002 2.53364
# Velocity P-wave (km/s) = 4.29714 6.22109 5.34637
#
# Compressibility (1/GPa) = 0.04608960
#
# Stress axis : x y z
#
# Youngs Moduli (GPa) = 39.81495 14.15704 21.36570
#
# Poissons Ratio (x) = -0.18577 0.49663
# Poissons Ratio (y) = -0.52247 0.81428
# Poissons Ratio (z) = 0.92547 0.53955
#
# Static dielectric constant tensor:
#      x y z
#    x 1.638320 0.000000 -0.008390 
#    y 0.000000 1.600980 0.000000 
#    z -0.008390 0.000000 1.623480 
# 
# From -- ./inp_files/346664.got.cif
#   From: 2010.05.17/outbox.cif.g08.bks.cpg/sg12_174_cif.got.tgz:346664.got - 2010.06.03 13:09:07.
