data_PCOD9193650
_publ_section_title
;
Structure prediction by ZEFSAII (Michael W. Deem and Ramdas Pophale) SiO2 
 PCOD9193650
Probable space group: C 2/M
;
_chemical_formula_sum "Si O2"
_cell_formula_units_Z 64
_cell_length_a 8.987964
_cell_length_b 10.924475
_cell_length_c 33.139629
_cell_angle_alpha 90.000000
_cell_angle_beta 93.726671
_cell_angle_gamma 90.000000
_cell_volume 3247.059455
_symmetry_space_group_name_H-M "C 2/M"
_symmetry_group_IT_number 12
_symmetry_cell_setting 'monoclinic'
loop_
_space_group_symop_operation_xyz
x,y,z
-x,y,-z
-x,-y,-z
x,-y,z
1/2+x,1/2+y,z
1/2-x,1/2+y,-z
1/2-x,1/2-y,-z
1/2+x,1/2-y,z
loop_
_atom_site_type_symbol
_atom_site_label
_atom_site_fract_x
_atom_site_fract_y
_atom_site_fract_z
Si Si1 0.489237 0.142721 0.198030
Si Si2 0.343742 0.639871 0.520422
Si Si3 0.085668 0.362669 0.043944
Si Si4 0.317570 0.362070 0.613617
Si Si5 0.588941 0.637393 0.926101
Si Si6 0.078189 0.248582 0.664590
Si Si7 0.155045 0.639232 0.284012
Si Si8 0.705555 0.362041 0.836620
O O1 0.575759 0.174346 0.241004
O O2 0.369080 0.247208 0.187176
O O3 0.617044 0.147053 0.166029
O O4 0.435827 0.000000 0.199815
O O5 0.500000 0.639032 0.500000
O O6 0.281164 0.500000 0.515327
O O7 0.250000 0.750000 0.500000
O O8 0.360452 0.666032 0.568418
O O9 0.060174 0.500000 0.061362
O O10 0.264058 0.350476 0.043385
O O11 0.022521 0.248070 0.067640
O O12 0.000000 0.360102 0.000000
O O13 0.263676 0.500000 0.613863
O O14 0.460289 0.348559 0.645258
O O15 0.182052 0.284403 0.628947
O O16 0.524930 0.500000 0.931009
O O17 0.652992 0.643634 0.881853
O O18 0.968440 0.347178 0.682920
O O19 0.197528 0.211366 0.700628
O O20 0.201545 0.500000 0.280623
O O21 0.664440 0.500000 0.820540
#
# Coordination Sequence:
#
# PCOD9193650 Si02
#       8
#     8   8   8   8   8   8   8   8
#     4  10  21  37  57  80 109 143 179 222 269 318
#     4  10  21  37  56  80 109 141 180 223 267 319
#     4  10  21  37  57  82 111 143 180 222 269 321
#     4  10  20  35  54  77 106 138 174 218 265 314
#     4  10  21  36  55  80 110 142 179 223 267 317
#     4  10  20  34  54  78 105 137 174 214 265 318
#     4  10  20  35  54  78 106 137 175 217 263 316
#     4  10  21  37  55  79 109 141 180 223 267 316
#
# _framework density 19.710141
#
# number of rings (size 3 to 8) (size 9 to 14) (size 15 to 20)
#    0.000    2.000    0.000    3.375    0.000    3.000 
#    0.000    6.250    0.000    0.000    0.000    0.000 
#    0.000    0.000    0.000    0.000    0.000    0.000 
#
# Total GULP energy -178399.936831 kJ/mol
# GULP energy per Si atom -5574.998026 kJ/mol
# Density = 1.966528 g / cm^3
# Si number density = 19.710141 Si / 1000 Ang^3
#
#
#
# Elastic Constant Matrix: (Units=GPa)
#
#
# Indices 1 2 3 4 5 6 
#
# 1 53.6899 36.3400 -10.5190 0.0000 0.0445 0.0000
# 2 36.3400 105.3205 19.1491 0.0000 6.8917 0.0000
# 3 -10.5190 19.1491 38.0339 0.0000 2.0397 0.0000
# 4 0.0000 0.0000 0.0000 27.1316 0.0000 2.9604
# 5 0.0445 6.8917 2.0397 0.0000 33.6729 0.0000
# 6 0.0000 0.0000 0.0000 2.9604 0.0000 25.7909
#
#
#
# Elastic Compliance Matrix: (Units=1/GPa)
#
#
# Indices 1 2 3 4 5 6 
#
# 1 0.030723 -0.013480 0.015187 0.000000 0.001798 0.000000
# 2 -0.013480 0.016479 -0.011884 0.000000 -0.002635 0.000000
# 3 0.015187 -0.011884 0.036465 0.000000 0.000203 0.000000
# 4 0.000000 0.000000 0.000000 0.037325 0.000000 -0.004284
# 5 0.001798 -0.002635 0.000203 0.000000 0.030222 0.000000
# 6 0.000000 0.000000 0.000000 -0.004284 0.000000 0.039265
#
#
# Mechanical properties :
#
#
# Convention : Reuss Voigt Hill
#
# Bulk Modulus (GPa) = 15.79398 31.88717 23.84058
# Shear Modulus (GPa) = 21.55763 27.45735 24.50749
#
# Velocity S-wave (km/s) = 3.31075 3.73642 3.53001
# Velocity P-wave (km/s) = 4.75871 5.90149 5.36064
#
# Compressibility (1/GPa) = 0.06331526
#
# Stress axis : x y z
#
# Youngs Moduli (GPa) = 32.54856 60.68327 27.42365
#
# Poissons Ratio (x) = 0.81800 -0.41649
# Poissons Ratio (y) = 0.43875 0.32589
# Poissons Ratio (z) = -0.49433 0.72113
#
# Static dielectric constant tensor:
#      x y z
#    x 1.656950 0.000000 0.003390 
#    y 0.000000 1.712590 0.000000 
#    z 0.003390 0.000000 1.728530 
# 
# From -- ./inp_files/372164.got.cif
#   From: 2010.05.17/outbox.cif.g08.bks.cpg/sg12_187_cif.got.tgz:372164.got - 2010.06.03 13:09:07.
