data_PCOD9193658
_publ_section_title
;
Structure prediction by ZEFSAII (Michael W. Deem and Ramdas Pophale) SiO2 
 PCOD9193658
Probable space group: C 2/M
;
_chemical_formula_sum "Si O2"
_cell_formula_units_Z 64
_cell_length_a 9.498477
_cell_length_b 13.789490
_cell_length_c 23.808691
_cell_angle_alpha 90.000000
_cell_angle_beta 92.992972
_cell_angle_gamma 90.000000
_cell_volume 3114.188475
_symmetry_space_group_name_H-M "C 2/M"
_symmetry_group_IT_number 12
_symmetry_cell_setting 'monoclinic'
loop_
_space_group_symop_operation_xyz
x,y,z
-x,y,-z
-x,-y,-z
x,-y,z
1/2+x,1/2+y,z
1/2-x,1/2+y,-z
1/2-x,1/2-y,-z
1/2+x,1/2-y,z
loop_
_atom_site_type_symbol
_atom_site_label
_atom_site_fract_x
_atom_site_fract_y
_atom_site_fract_z
Si Si1 0.833584 0.302069 0.217723
Si Si2 0.617530 0.712887 0.961404
Si Si3 0.088906 0.769947 0.290756
Si Si4 0.141003 0.208874 0.633165
Si Si5 0.460498 0.106926 0.114597
Si Si6 0.346765 0.615995 0.483368
Si Si7 0.211861 0.109052 0.851062
Si Si8 0.100290 0.386785 0.556932
O O1 0.684647 0.322095 0.245191
O O2 0.830265 0.191524 0.194092
O O3 0.973001 0.302003 0.260146
O O4 0.858224 0.369008 0.164432
O O5 0.554402 0.808979 0.930970
O O6 0.658461 0.642144 0.911380
O O7 0.500000 0.669717 0.000000
O O8 0.750000 0.750000 0.000000
O O9 0.217353 0.722551 0.328154
O O10 0.987939 0.830056 0.331143
O O11 0.184116 0.146425 0.580303
O O12 0.081203 0.311217 0.606762
O O13 0.618843 0.109790 0.141493
O O14 0.432547 0.000000 0.090801
O O15 0.500000 0.655578 0.500000
O O16 0.346003 0.500000 0.485325
O O17 0.246546 0.646165 0.531603
O O18 0.164865 0.000000 0.836338
O O19 0.102655 0.500000 0.575018
O O20 0.000000 0.382711 0.500000
#
# Coordination Sequence:
#
# PCOD9193658 Si02
#       8
#     8   8   8   8   8   8   8   8
#     4  10  20  42  58  83 113 151 188 255 290 337
#     4  11  22  38  59  91 132 160 183 238 294 332
#     4  10  22  36  58  80 113 145 187 232 305 341
#     4  11  20  36  54  80 110 145 179 232 280 353
#     4  10  21  38  65  89 112 158 207 236 275 349
#     4  10  20  34  54  78 107 144 182 223 275 339
#     4  10  21  38  64  89 114 156 205 239 278 345
#     4  10  20  34  54  78 105 140 183 224 270 337
#
# _framework density 20.551100999999999
#
# number of rings (size 3 to 8) (size 9 to 14) (size 15 to 20)
#    0.000    1.750    2.500    2.250    0.000    1.000 
#    0.000    9.375    0.000    0.000    0.000    0.000 
#    0.000    0.000    0.000    0.000    0.000    0.000 
#
# Total GULP energy -178491.185385 kJ/mol
# GULP energy per Si atom -5577.849543 kJ/mol
# Density = 2.050433 g / cm^3
# Si number density = 20.551101 Si / 1000 Ang^3
#
#
#
# Elastic Constant Matrix: (Units=GPa)
#
#
# Indices 1 2 3 4 5 6 
#
# 1 99.0701 1.9727 19.8765 0.0000 -15.9118 0.0000
# 2 1.9727 66.9872 9.3666 0.0000 -8.6050 0.0000
# 3 19.8765 9.3666 72.6459 0.0000 -16.3653 0.0000
# 4 0.0000 0.0000 0.0000 5.3863 0.0000 -1.3568
# 5 -15.9118 -8.6050 -16.3653 0.0000 47.4937 0.0000
# 6 0.0000 0.0000 0.0000 -1.3568 0.0000 21.3431
#
#
#
# Elastic Compliance Matrix: (Units=1/GPa)
#
#
# Indices 1 2 3 4 5 6 
#
# 1 0.011042 0.000389 -0.002409 0.000000 0.002940 0.000000
# 2 0.000389 0.015442 -0.001559 0.000000 0.002391 0.000000
# 3 -0.002409 -0.001559 0.015590 0.000000 0.004283 0.000000
# 4 0.000000 0.000000 0.000000 0.188679 0.000000 0.011995
# 5 0.002940 0.002391 0.004283 0.000000 0.023949 0.000000
# 6 0.000000 0.000000 0.000000 0.011995 0.000000 0.047616
#
#
# Mechanical properties :
#
#
# Convention : Reuss Voigt Hill
#
# Bulk Modulus (GPa) = 28.63970 33.45942 31.04956
# Shear Modulus (GPa) = 15.57079 28.67712 22.12395
#
# Velocity S-wave (km/s) = 2.75555 3.73957 3.28462
# Velocity P-wave (km/s) = 4.90818 5.91289 5.43380
#
# Compressibility (1/GPa) = 0.03491657
#
# Stress axis : x y z
#
# Youngs Moduli (GPa) = 90.56673 64.75900 64.14256
#
# Poissons Ratio (x) = -0.02521 0.15452
# Poissons Ratio (y) = -0.03526 0.09999
# Poissons Ratio (z) = 0.21818 0.10095
#
# Static dielectric constant tensor:
#      x y z
#    x 1.762370 0.000000 0.011270 
#    y 0.000000 1.715590 0.000000 
#    z 0.011270 0.000000 1.736880 
# 
# From -- ./inp_files/332926.got.cif
#   From: 2010.05.17/outbox.cif.g08.bks.cpg/sg12_167_cif.got.tgz:332926.got - 2010.06.03 13:09:07.
