data_PCOD9193279
_publ_section_title
;
Structure prediction by ZEFSAII (Michael W. Deem and Ramdas Pophale) SiO2 
 PCOD9193279
Probable space group: C 2/M
;
_chemical_formula_sum "Si O2"
_cell_formula_units_Z 56
_cell_length_a 21.377322
_cell_length_b 7.435192
_cell_length_c 29.490326
_cell_angle_alpha 90.000000
_cell_angle_beta 148.629959
_cell_angle_gamma 90.000000
_cell_volume 2440.049115
_symmetry_space_group_name_H-M "C 2/M"
_symmetry_group_IT_number 12
_symmetry_cell_setting 'monoclinic'
loop_
_space_group_symop_operation_xyz
x,y,z
-x,y,-z
-x,-y,-z
x,-y,z
1/2+x,1/2+y,z
1/2-x,1/2+y,-z
1/2-x,1/2-y,-z
1/2+x,1/2-y,z
loop_
_atom_site_type_symbol
_atom_site_label
_atom_site_fract_x
_atom_site_fract_y
_atom_site_fract_z
Si Si1 0.245637 0.281998 0.567100
Si Si2 0.450238 0.208657 0.626116
Si Si3 0.046231 0.203540 0.870951
Si Si4 0.135113 0.281140 0.591971
Si Si5 0.748295 0.711169 0.933618
Si Si6 0.217597 0.282381 0.810797
Si Si7 0.686427 0.719894 0.222842
O O1 0.247438 0.500000 0.566531
O O2 0.369319 0.219936 0.621207
O O3 0.135891 0.217377 0.466893
O O4 0.218869 0.226963 0.601711
O O5 0.582270 0.283845 0.716273
O O6 0.468621 0.000000 0.625138
O O7 0.121690 0.282051 0.875656
O O8 0.926910 0.286265 0.818390
O O9 0.012641 0.000000 0.836330
O O10 0.142945 0.200854 0.971710
O O11 0.131685 0.500000 0.589619
O O12 0.193753 0.228765 0.675679
O O13 0.000000 0.218477 0.500000
O O14 0.753261 0.500000 0.948531
O O15 0.755264 0.729400 0.884374
O O16 0.215273 0.500000 0.809167
O O17 0.303252 0.222837 0.822774
O O18 0.679725 0.500000 0.218144
#
# Coordination Sequence:
#
# PCOD9193279 Si02
#       7
#     8   8   8   8   8   8   8
#     4   9  17  29  49  73  99 135 176 219 260 300
#     4   9  18  31  46  71 105 137 171 210 259 314
#     4   9  19  37  58  79 104 135 174 216 260 313
#     4   9  16  27  48  77 105 133 172 221 262 292
#     4  10  21  36  57  81 107 135 169 216 266 316
#     4  10  20  34  53  76 106 141 174 213 261 314
#     4   9  18  32  52  77 104 137 179 220 256 304
#
# _framework density 22.950358999999999
#
# number of rings (size 3 to 8) (size 9 to 14) (size 15 to 20)
#    0.000    2.714    0.000    1.286    2.000    5.143 
#    0.000    3.571    0.000    1.286    0.000    0.000 
#    0.000    0.000    0.000    0.000    0.000    0.000 
#
# Total GULP energy -156372.818854 kJ/mol
# GULP energy per Si atom -5584.743531 kJ/mol
# Density = 2.289812 g / cm^3
# Si number density = 22.950359 Si / 1000 Ang^3
#
#
#
# Elastic Constant Matrix: (Units=GPa)
#
#
# Indices 1 2 3 4 5 6 
#
# 1 119.6404 -9.6566 33.7742 0.0000 -18.9388 0.0002
# 2 -9.6566 74.5666 -5.3522 -0.0006 1.4397 0.0006
# 3 33.7742 -5.3522 44.4742 0.0001 2.3685 -0.0002
# 4 0.0000 -0.0006 0.0001 -9.5680 -0.0001 7.3354
# 5 -18.9388 1.4397 2.3685 -0.0001 33.7847 -0.0001
# 6 0.0002 0.0006 -0.0002 7.3354 -0.0001 11.4781
#
#
#
# Elastic Compliance Matrix: (Units=1/GPa)
#
#
# Indices 1 2 3 4 5 6 
#
# 1 0.012355 0.000758 -0.009695 0.000000 0.007573 0.000000
# 2 0.000758 0.013590 0.001072 -0.000001 -0.000229 0.000000
# 3 -0.009695 0.001072 0.030382 0.000000 -0.007610 0.000000
# 4 0.000000 -0.000001 0.000000 -0.070146 0.000000 0.044829
# 5 0.007573 -0.000229 -0.007610 0.000000 0.034388 0.000000
# 6 0.000000 0.000000 0.000000 0.044829 0.000000 0.058473
#
#
# Mechanical properties :
#
#
# Convention : Reuss Voigt Hill
#
# Bulk Modulus (GPa) = 24.63191 30.69024 27.66107
# Shear Modulus (GPa) = 46.16628 21.80000 33.98314
#
# Velocity S-wave (km/s) = 4.48992 3.08535 3.85219
# Velocity P-wave (km/s) = 6.13475 5.10823 5.64487
#
# Compressibility (1/GPa) = 0.04059775
#
# Stress axis : x y z
#
# Youngs Moduli (GPa) = 80.93735 73.58153 32.91462
#
# Poissons Ratio (x) = -0.05577 0.31910
# Poissons Ratio (y) = -0.06135 -0.03529
# Poissons Ratio (z) = 0.78467 -0.07889
#
# Static dielectric constant tensor:
#      x y z
#    x 1.837640 0.000000 0.018910 
#    y 0.000000 2.003820 0.000000 
#    z 0.018910 0.000000 1.821490 
# 
# From -- ./inp_files/237825.got.cif
#   From: 2010.05.17/outbox.cif.g08.bks.cpg/sg12_119_cif.got.tgz:237825.got - 2010.06.03 13:09:07.
