data_PCOD9193383
_publ_section_title
;
Structure prediction by ZEFSAII (Michael W. Deem and Ramdas Pophale) SiO2 
 PCOD9193383
Probable space group: C 2/M
;
_chemical_formula_sum "Si O2"
_cell_formula_units_Z 64
_cell_length_a 19.419170
_cell_length_b 9.349792
_cell_length_c 18.819305
_cell_angle_alpha 90.000000
_cell_angle_beta 94.948511
_cell_angle_gamma 90.000000
_cell_volume 3404.194677
_symmetry_space_group_name_H-M "C 2/M"
_symmetry_group_IT_number 12
_symmetry_cell_setting 'monoclinic'
loop_
_space_group_symop_operation_xyz
x,y,z
-x,y,-z
-x,-y,-z
x,-y,z
1/2+x,1/2+y,z
1/2-x,1/2+y,-z
1/2-x,1/2-y,-z
1/2+x,1/2-y,z
loop_
_atom_site_type_symbol
_atom_site_label
_atom_site_fract_x
_atom_site_fract_y
_atom_site_fract_z
Si Si1 0.589719 0.170085 0.713530
Si Si2 0.481836 0.664033 0.797870
Si Si3 0.747961 0.672380 0.254473
Si Si4 0.979708 0.661774 0.080189
Si Si5 0.710180 0.834653 0.106138
Si Si6 0.148348 0.836728 0.971825
Si Si7 0.374161 0.335061 0.659636
Si Si8 0.515696 0.828998 0.421376
O O1 0.547961 0.263211 0.766695
O O2 0.671191 0.200888 0.723536
O O3 0.550101 0.200178 0.635738
O O4 0.580994 0.000000 0.726779
O O5 0.495020 0.500000 0.818170
O O6 0.466131 0.758361 0.865101
O O7 0.421247 0.668753 0.734909
O O8 0.739739 0.500000 0.242462
O O9 0.722159 0.756274 0.182257
O O10 0.700752 0.711431 0.318415
O O11 0.969384 0.500000 0.103496
O O12 0.909868 0.752183 0.075717
O O13 0.000000 0.660244 0.000000
O O14 0.663820 0.745863 0.046500
O O15 0.686564 0.000000 0.112382
O O16 0.783542 0.838389 0.070950
O O17 0.127548 0.000000 0.984528
O O18 0.370244 0.500000 0.635251
O O19 0.416444 0.243341 0.606441
O O20 0.500000 0.781021 0.500000
O O21 0.525957 0.000000 0.422825
#
# Coordination Sequence:
#
# PCOD9193383 Si02
#       8
#     8   8   8   8   8   8   8   8
#     4   9  18  34  57  81 107 142 180 220 263 316
#     4  10  20  35  54  75 102 137 180 226 271 326
#     4  10  20  34  53  78 107 140 179 221 270 321
#     4  11  24  37  50  72 102 135 177 227 277 326
#     4  10  21  35  53  76 102 135 174 221 274 327
#     4  10  21  37  54  73  99 134 179 225 274 329
#     4   9  20  36  54  80 110 141 178 219 267 322
#     4   9  18  35  59  85 112 145 182 217 259 314
#
# _framework density 18.800333999999999
#
# number of rings (size 3 to 8) (size 9 to 14) (size 15 to 20)
#    0.000    2.250    0.000    2.250    1.750    6.250 
#    0.000    0.625    0.000    0.000    0.000    0.000 
#    0.000    0.000    0.000    0.000    0.000    0.000 
#
# Total GULP energy -178620.062292 kJ/mol
# GULP energy per Si atom -5581.876947 kJ/mol
# Density = 1.875754 g / cm^3
# Si number density = 18.800334 Si / 1000 Ang^3
#
#
#
# Elastic Constant Matrix: (Units=GPa)
#
#
# Indices 1 2 3 4 5 6 
#
# 1 65.8773 20.6987 16.0619 0.0000 -14.9814 0.0000
# 2 20.6987 88.5325 36.4180 0.0000 -5.3429 0.0000
# 3 16.0619 36.4180 98.2551 0.0000 -11.1696 0.0000
# 4 0.0000 0.0000 0.0000 28.3213 0.0000 -3.2137
# 5 -14.9814 -5.3429 -11.1696 0.0000 19.1546 0.0000
# 6 0.0000 0.0000 0.0000 -3.2137 0.0000 19.0374
#
#
#
# Elastic Compliance Matrix: (Units=1/GPa)
#
#
# Indices 1 2 3 4 5 6 
#
# 1 0.019603 -0.003625 -0.000249 0.000000 0.014176 0.000000
# 2 -0.003625 0.014012 -0.004797 0.000000 -0.001724 0.000000
# 3 -0.000249 -0.004797 0.012661 0.000000 0.005850 0.000000
# 4 0.000000 0.000000 0.000000 0.035999 0.000000 0.006077
# 5 0.014176 -0.001724 0.005850 0.000000 0.066225 0.000000
# 6 0.000000 0.000000 0.000000 0.006077 0.000000 0.053554
#
#
# Mechanical properties :
#
#
# Convention : Reuss Voigt Hill
#
# Bulk Modulus (GPa) = 34.56170 44.33577 39.44874
# Shear Modulus (GPa) = 21.83011 25.26842 23.54927
#
# Velocity S-wave (km/s) = 3.41127 3.67009 3.54305
# Velocity P-wave (km/s) = 5.82573 6.44927 6.14541
#
# Compressibility (1/GPa) = 0.02893376
#
# Stress axis : x y z
#
# Youngs Moduli (GPa) = 51.01182 71.36745 78.98050
#
# Poissons Ratio (x) = 0.25871 0.01970
# Poissons Ratio (y) = 0.18492 0.37886
# Poissons Ratio (z) = 0.01273 0.34234
#
# Static dielectric constant tensor:
#      x y z
#    x 1.669160 0.000000 -0.000570 
#    y 0.000000 1.646810 0.000000 
#    z -0.000570 0.000000 1.652790 
# 
# From -- ./inp_files/281221.got.cif
#   From: 2010.05.17/outbox.cif.g08.bks.cpg/sg12_141_cif.got.tgz:281221.got - 2010.06.03 13:09:07.
