data_PCOD9193646
_publ_section_title
;
Structure prediction by ZEFSAII (Michael W. Deem and Ramdas Pophale) SiO2 
 PCOD9193646
Probable space group: C 2/M
;
_chemical_formula_sum "Si O2"
_cell_formula_units_Z 48
_cell_length_a 10.173991
_cell_length_b 11.509094
_cell_length_c 17.559598
_cell_angle_alpha 90.000000
_cell_angle_beta 87.081867
_cell_angle_gamma 90.000000
_cell_volume 2053.447191
_symmetry_space_group_name_H-M "C 2/M"
_symmetry_group_IT_number 12
_symmetry_cell_setting 'monoclinic'
loop_
_space_group_symop_operation_xyz
x,y,z
-x,y,-z
-x,-y,-z
x,-y,z
1/2+x,1/2+y,z
1/2-x,1/2+y,-z
1/2-x,1/2-y,-z
1/2+x,1/2-y,z
loop_
_atom_site_type_symbol
_atom_site_label
_atom_site_fract_x
_atom_site_fract_y
_atom_site_fract_z
Si Si1 0.675020 0.132548 0.937210
Si Si2 0.424155 0.375408 0.288429
Si Si3 0.608855 0.799473 0.103244
Si Si4 0.009724 0.373550 0.748322
Si Si5 0.838887 0.375844 0.604998
Si Si6 0.393030 0.624604 0.570474
O O1 0.545162 0.204143 0.916197
O O2 0.807846 0.181275 0.896085
O O3 0.649604 0.000000 0.917259
O O4 0.679083 0.139088 0.029142
O O5 0.433534 0.500000 0.245577
O O6 0.420648 0.251845 0.245958
O O7 0.294296 0.379404 0.343057
O O8 0.541519 0.373704 0.347331
O O9 0.604775 0.863805 0.184282
O O10 0.076591 0.500000 0.756655
O O11 0.953744 0.373934 0.664714
O O12 0.850949 0.500000 0.562744
O O13 0.834871 0.253089 0.563324
O O14 0.500000 0.618409 0.500000
O O15 0.318994 0.500000 0.569394
#
# Coordination Sequence:
#
# PCOD9193646 Si02
#       6
#     8   8   8   8   8   8
#     4  10  21  40  59  83 119 154 193 248 304 352
#     4   9  19  35  52  73 106 139 172 221 272 324
#     4  10  21  37  60  85 114 152 196 243 294 356
#     4  10  20  34  54  78 104 140 183 226 275 335
#     4   9  19  34  50  74 105 135 172 219 270 323
#     4   9  18  33  52  74 101 135 174 214 262 322
#
# _framework density 23.375326999999999
#
# number of rings (size 3 to 8) (size 9 to 14) (size 15 to 20)
#    0.000    2.500    0.000    2.000    2.333    2.333 
#    0.000    8.333    0.000    0.000    0.000    0.000 
#    0.000    0.000    0.000    0.000    0.000    0.000 
#
# Total GULP energy -133617.236419 kJ/mol
# GULP energy per Si atom -5567.384851 kJ/mol
# Density = 2.332212 g / cm^3
# Si number density = 23.375327 Si / 1000 Ang^3
#
#
#
# Elastic Constant Matrix: (Units=GPa)
#
#
# Indices 1 2 3 4 5 6 
#
# 1 34.9028 37.9014 -7.2250 0.0000 -7.5679 0.0000
# 2 37.9014 259.7450 41.6418 0.0000 -21.7002 0.0000
# 3 -7.2250 41.6418 51.5463 0.0000 5.1509 0.0000
# 4 0.0000 0.0000 0.0000 17.3320 0.0000 -18.0131
# 5 -7.5679 -21.7002 5.1509 0.0000 23.6448 0.0000
# 6 0.0000 0.0000 0.0000 -18.0131 0.0000 19.3242
#
#
#
# Elastic Compliance Matrix: (Units=1/GPa)
#
#
# Indices 1 2 3 4 5 6 
#
# 1 0.039587 -0.007244 0.011039 0.000000 0.003617 0.000000
# 2 -0.007244 0.006397 -0.006684 0.000000 0.005008 0.000000
# 3 0.011039 -0.006684 0.027199 0.000000 -0.008526 0.000000
# 4 0.000000 0.000000 0.000000 1.848123 0.000000 1.722732
# 5 0.003617 0.005008 -0.008526 0.000000 0.049904 0.000000
# 6 0.000000 0.000000 0.000000 1.722732 0.000000 1.657597
#
#
# Mechanical properties :
#
#
# Convention : Reuss Voigt Hill
#
# Bulk Modulus (GPa) = 14.83551 54.53673 34.68612
# Shear Modulus (GPa) = 1.36722 30.31860 15.84291
#
# Velocity S-wave (km/s) = 0.76562 3.60534 2.60621
# Velocity P-wave (km/s) = 2.67245 6.38066 4.89157
#
# Compressibility (1/GPa) = 0.06740586
#
# Stress axis : x y z
#
# Youngs Moduli (GPa) = 25.26091 156.32678 36.76657
#
# Poissons Ratio (x) = 1.13243 -0.40588
# Poissons Ratio (y) = 0.18299 0.24573
# Poissons Ratio (z) = -0.27886 1.04482
#
# Static dielectric constant tensor:
#      x y z
#    x 1.890730 0.000000 0.041040 
#    y 0.000000 1.979390 0.000000 
#    z 0.041040 0.000000 1.880800 
# 
# From -- ./inp_files/262110.got.cif
#   From: 2010.05.17/outbox.cif.g08.bks.cpg/sg12_132_cif.got.tgz:262110.got - 2010.06.03 13:09:07.
