data_PCOD9193049
_publ_section_title
;
Structure prediction by ZEFSAII (Michael W. Deem and Ramdas Pophale) SiO2 
 PCOD9193049
Probable space group: C 2/M
;
_chemical_formula_sum "Si O2"
_cell_formula_units_Z 52
_cell_length_a 8.212173
_cell_length_b 12.450581
_cell_length_c 26.387445
_cell_angle_alpha 90.000000
_cell_angle_beta 86.698174
_cell_angle_gamma 90.000000
_cell_volume 2693.540519
_symmetry_space_group_name_H-M "C 2/M"
_symmetry_group_IT_number 12
_symmetry_cell_setting 'monoclinic'
loop_
_space_group_symop_operation_xyz
x,y,z
-x,y,-z
-x,-y,-z
x,-y,z
1/2+x,1/2+y,z
1/2-x,1/2+y,-z
1/2-x,1/2-y,-z
1/2+x,1/2-y,z
loop_
_atom_site_type_symbol
_atom_site_label
_atom_site_fract_x
_atom_site_fract_y
_atom_site_fract_z
Si Si1 0.979390 0.880184 0.060473
Si Si2 0.289354 0.121437 0.559709
Si Si3 0.500000 0.709777 0.500000
Si Si4 0.379882 0.309272 0.734811
Si Si5 0.195084 0.120134 0.678246
Si Si6 0.608055 0.182620 0.808689
Si Si7 0.836248 0.309119 0.882774
O O1 0.788864 0.871404 0.079114
O O2 0.078197 0.786990 0.087409
O O3 0.037878 0.000000 0.073892
O O4 0.000000 0.867262 0.000000
O O5 0.421616 0.211073 0.543258
O O6 0.225316 0.133805 0.618026
O O7 0.140890 0.140678 0.523474
O O8 0.353322 0.000000 0.553175
O O9 0.294110 0.212109 0.705932
O O10 0.504049 0.370367 0.695881
O O11 0.497829 0.257853 0.775011
O O12 0.236701 0.371400 0.767789
O O13 0.251199 0.000000 0.691998
O O14 0.719405 0.256128 0.842719
O O15 0.478671 0.128900 0.849419
#
# Coordination Sequence:
#
# PCOD9193049 Si02
#       7
#     8   8   4   8   8   8   8
#     4  10  20  34  53  76 101 132 168 204 248 300
#     4  10  20  34  52  76 103 131 169 208 245 300
#     4  10  20  34  54  76 100 136 166 204 260 292
#     4   9  17  34  53  73 103 131 164 211 245 292
#     4  10  20  34  53  75 101 135 168 203 251 297
#     4   8  16  32  52  73 102 131 164 209 248 289
#     4   9  17  34  54  74 102 134 164 207 253 290
#
# _framework density 19.305444999999999
#
# number of rings (size 3 to 8) (size 9 to 14) (size 15 to 20)
#    0.000    2.615    0.000    1.846    0.000    0.000 
#    0.000   35.385    0.000   21.231    0.000    0.000 
#    0.000    0.000    0.000    0.000    0.000    0.000 
#
# Total GULP energy -144764.454402 kJ/mol
# GULP energy per Si atom -5567.863631 kJ/mol
# Density = 1.926151 g / cm^3
# Si number density = 19.305445 Si / 1000 Ang^3
#
#
#
# Elastic Constant Matrix: (Units=GPa)
#
#
# Indices 1 2 3 4 5 6 
#
# 1 68.8130 12.8164 30.0658 0.0000 -17.6212 0.0000
# 2 12.8164 79.2740 33.8444 0.0000 2.2311 0.0000
# 3 30.0658 33.8444 102.7495 0.0000 -31.1560 0.0000
# 4 0.0000 0.0000 0.0000 369.3296 0.0000 -121.0590
# 5 -17.6212 2.2311 -31.1560 0.0000 40.6412 0.0000
# 6 0.0000 0.0000 0.0000 -121.0590 0.0000 54.8742
#
#
#
# Elastic Compliance Matrix: (Units=1/GPa)
#
#
# Indices 1 2 3 4 5 6 
#
# 1 0.017524 -0.001754 -0.002888 0.000000 0.005480 0.000000
# 2 -0.001754 0.016018 -0.006853 0.000000 -0.006894 0.000000
# 3 -0.002888 -0.006853 0.016376 0.000000 0.011678 0.000000
# 4 0.000000 0.000000 0.000000 0.009779 0.000000 0.021574
# 5 0.005480 -0.006894 0.011678 0.000000 0.036312 0.000000
# 6 0.000000 0.000000 0.000000 0.021574 0.000000 0.065818
#
#
# Mechanical properties :
#
#
# Convention : Reuss Voigt Hill
#
# Bulk Modulus (GPa) = 37.13783 44.92107 41.02945
# Shear Modulus (GPa) = 25.80060 104.57635 65.18847
#
# Velocity S-wave (km/s) = 3.65970 7.36797 5.81723
# Velocity P-wave (km/s) = 6.09398 9.78273 8.14980
#
# Compressibility (1/GPa) = 0.02692672
#
# Stress axis : x y z
#
# Youngs Moduli (GPa) = 57.06410 62.43031 61.06570
#
# Poissons Ratio (x) = 0.10952 0.17637
# Poissons Ratio (y) = 0.10011 0.41848
# Poissons Ratio (z) = 0.16481 0.42784
#
# Static dielectric constant tensor:
#      x y z
#    x 1.684880 0.000000 -0.059220 
#    y 0.000000 1.641080 0.000000 
#    z -0.059220 0.000000 1.682900 
# 
# From -- ./inp_files/355530.got.cif
#   From: 2010.05.17/outbox.cif.g08.bks.cpg/sg12_178_cif.got.tgz:355530.got - 2010.06.03 13:09:07.
