data_PCOD9193788
_publ_section_title
;
Structure prediction by ZEFSAII (Michael W. Deem and Ramdas Pophale) SiO2 
 PCOD9193788
Probable space group: C 2/M
;
_chemical_formula_sum "Si O2"
_cell_formula_units_Z 56
_cell_length_a 10.697798
_cell_length_b 13.586553
_cell_length_c 21.934402
_cell_angle_alpha 90.000000
_cell_angle_beta 75.948550
_cell_angle_gamma 90.000000
_cell_volume 3092.688487
_symmetry_space_group_name_H-M "C 2/M"
_symmetry_group_IT_number 12
_symmetry_cell_setting 'monoclinic'
loop_
_space_group_symop_operation_xyz
x,y,z
-x,y,-z
-x,-y,-z
x,-y,z
1/2+x,1/2+y,z
1/2-x,1/2+y,-z
1/2-x,1/2-y,-z
1/2+x,1/2-y,z
loop_
_atom_site_type_symbol
_atom_site_label
_atom_site_fract_x
_atom_site_fract_y
_atom_site_fract_z
Si Si1 0.970174 0.887082 0.296099
Si Si2 0.690720 0.245767 0.606551
Si Si3 0.767464 0.613712 0.281051
Si Si4 0.301828 0.235740 0.892864
Si Si5 0.906937 0.769451 0.187083
Si Si6 0.149091 0.616357 0.994269
Si Si7 0.349337 0.110882 0.506860
O O1 0.927661 0.810516 0.353500
O O2 0.905955 0.850173 0.241095
O O3 0.124024 0.882878 0.270594
O O4 0.934918 0.000000 0.314850
O O5 0.735278 0.177871 0.657105
O O6 0.667337 0.173146 0.552867
O O7 0.788857 0.327225 0.569330
O O8 0.800970 0.500000 0.289003
O O9 0.865553 0.666716 0.223735
O O10 0.201272 0.209819 0.851096
O O11 0.446967 0.259762 0.854134
O O12 0.239535 0.328481 0.935391
O O13 0.312291 0.151280 0.942817
O O14 0.159364 0.500000 0.986472
O O15 0.000000 0.645534 0.000000
O O16 0.500000 0.103047 0.500000
O O17 0.294383 0.000000 0.508705
#
# Coordination Sequence:
#
# PCOD9193788 Si02
#       7
#     8   8   8   8   8   8   8
#     4  10  21  37  57  83 114 149 190 240 291 338
#     4  10  20  35  56  80 111 148 191 239 284 341
#     4  10  21  37  58  83 112 151 193 235 287 348
#     4  11  22  40  61  90 119 152 191 243 284 339
#     4  11  22  38  61  85 119 152 192 237 288 344
#     4  10  22  39  63  89 118 157 195 236 289 345
#     4  10  20  34  54  80 111 149 188 233 289 345
#
# _framework density 18.107223000000001
#
# number of rings (size 3 to 8) (size 9 to 14) (size 15 to 20)
#    0.000    1.714    2.857    1.714    0.000    2.286 
#    0.000    0.714    0.000    6.857    0.000    0.000 
#    0.000    0.000    0.000    0.000    0.000    0.000 
#
# Total GULP energy -156174.746875 kJ/mol
# GULP energy per Si atom -5577.669531 kJ/mol
# Density = 1.806601 g / cm^3
# Si number density = 18.107223 Si / 1000 Ang^3
#
#
#
# Elastic Constant Matrix: (Units=GPa)
#
#
# Indices 1 2 3 4 5 6 
#
# 1 99.0283 43.6970 46.4246 0.0000 -7.8314 0.0000
# 2 43.6970 128.5434 44.9863 0.0000 -4.1941 0.0000
# 3 46.4246 44.9863 93.8162 0.0000 -7.1903 0.0000
# 4 0.0000 0.0000 0.0000 6.2386 0.0000 -1.8732
# 5 -7.8314 -4.1941 -7.1903 0.0000 27.4195 0.0000
# 6 0.0000 0.0000 0.0000 -1.8732 0.0000 27.6338
#
#
#
# Elastic Compliance Matrix: (Units=1/GPa)
#
#
# Indices 1 2 3 4 5 6 
#
# 1 0.014059 -0.002802 -0.005448 0.000000 0.002158 0.000000
# 2 -0.002802 0.009909 -0.003378 0.000000 -0.000170 0.000000
# 3 -0.005448 -0.003378 0.015120 0.000000 0.001892 0.000000
# 4 0.000000 0.000000 0.000000 0.163623 0.000000 0.011092
# 5 0.002158 -0.000170 0.001892 0.000000 0.037557 0.000000
# 6 0.000000 0.000000 0.000000 0.011092 0.000000 0.036939
#
#
# Mechanical properties :
#
#
# Convention : Reuss Voigt Hill
#
# Bulk Modulus (GPa) = 63.16456 65.73376 64.44916
# Shear Modulus (GPa) = 16.35373 24.67706 20.51540
#
# Velocity S-wave (km/s) = 3.00852 3.69566 3.36965
# Velocity P-wave (km/s) = 6.85767 7.38863 7.12809
#
# Compressibility (1/GPa) = 0.01583166
#
# Stress axis : x y z
#
# Youngs Moduli (GPa) = 71.12680 100.92240 66.13836
#
# Poissons Ratio (x) = 0.28281 0.36033
# Poissons Ratio (y) = 0.19931 0.22340
# Poissons Ratio (z) = 0.38751 0.34089
#
# Static dielectric constant tensor:
#      x y z
#    x 1.608770 0.000000 -0.000060 
#    y 0.000000 1.612400 0.000000 
#    z -0.000060 0.000000 1.623600 
# 
# From -- ./inp_files/304695.got.cif
#   From: 2010.05.17/outbox.cif.g08.bks.cpg/sg12_153_cif.got.tgz:304695.got - 2010.06.03 13:09:07.
