data_PCOD9193537
_publ_section_title
;
Structure prediction by ZEFSAII (Michael W. Deem and Ramdas Pophale) SiO2 
 PCOD9193537
Probable space group: C 2/M
;
_chemical_formula_sum "Si O2"
_cell_formula_units_Z 64
_cell_length_a 24.556723
_cell_length_b 13.954933
_cell_length_c 9.086061
_cell_angle_alpha 90.000000
_cell_angle_beta 116.778378
_cell_angle_gamma 90.000000
_cell_volume 2779.755170
_symmetry_space_group_name_H-M "C 2/M"
_symmetry_group_IT_number 12
_symmetry_cell_setting 'monoclinic'
loop_
_space_group_symop_operation_xyz
x,y,z
-x,y,-z
-x,-y,-z
x,-y,z
1/2+x,1/2+y,z
1/2-x,1/2+y,-z
1/2-x,1/2-y,-z
1/2+x,1/2-y,z
loop_
_atom_site_type_symbol
_atom_site_label
_atom_site_fract_x
_atom_site_fract_y
_atom_site_fract_z
Si Si1 0.281935 0.817031 0.333984
Si Si2 0.588350 0.393032 0.198609
Si Si3 0.557657 0.391854 0.466423
Si Si4 0.902031 0.610382 0.839405
Si Si5 0.281569 0.607657 0.468589
Si Si6 0.155839 0.229684 0.072116
Si Si7 0.008343 0.388785 0.765357
Si Si8 0.607299 0.214356 0.699980
O O1 0.284251 0.702581 0.372036
O O2 0.269320 0.872856 0.468962
O O3 0.219520 0.825718 0.164561
O O4 0.343991 0.848447 0.331194
O O5 0.575113 0.500000 0.133218
O O6 0.543528 0.368454 0.278377
O O7 0.654082 0.389896 0.362416
O O8 0.598499 0.328148 0.070271
O O9 0.500000 0.398444 0.500000
O O10 0.585244 0.500000 0.499624
O O11 0.594279 0.306505 0.584802
O O12 0.885097 0.500000 0.795772
O O13 0.847051 0.677256 0.824782
O O14 0.942490 0.644296 0.748698
O O15 0.947303 0.612636 0.036989
O O16 0.274597 0.500000 0.397173
O O17 0.143136 0.255463 0.890350
O O18 0.001339 0.500000 0.713768
O O19 0.044859 0.332909 0.683415
#
# Coordination Sequence:
#
# PCOD9193537 Si02
#       8
#     8   8   8   8   8   8   8   8
#     4  10  20  34  53  81 115 146 184 228 276 339
#     4   9  18  36  56  75 106 147 186 227 274 327
#     4  10  22  39  58  79 107 148 192 233 281 335
#     4   8  15  31  51  74 105 142 179 216 264 329
#     4   9  18  35  56  75 103 149 193 225 266 321
#     4  10  21  33  55  85 115 144 182 230 283 335
#     4   8  16  31  52  75 104 141 178 216 269 328
#     4  11  21  35  57  84 114 146 180 231 288 339
#
# _framework density 23.023610000000001
#
# number of rings (size 3 to 8) (size 9 to 14) (size 15 to 20)
#    0.000    2.625    1.250    1.125    1.750    1.500 
#    0.000    0.000    0.000    7.125    0.000    0.000 
#    0.000    0.000    0.000    0.000    0.000    0.000 
#
# Total GULP energy -178572.031096 kJ/mol
# GULP energy per Si atom -5580.375972 kJ/mol
# Density = 2.297121 g / cm^3
# Si number density = 23.023610 Si / 1000 Ang^3
#
#
#
# Elastic Constant Matrix: (Units=GPa)
#
#
# Indices 1 2 3 4 5 6 
#
# 1 98.2180 3.0183 23.9610 0.0000 -31.5321 0.0000
# 2 3.0183 72.5785 -2.1348 0.0000 -8.9759 0.0000
# 3 23.9610 -2.1348 43.8625 0.0000 -5.9554 0.0000
# 4 0.0000 0.0000 0.0000 12.4487 0.0000 -0.3014
# 5 -31.5321 -8.9759 -5.9554 0.0000 37.9536 0.0000
# 6 0.0000 0.0000 0.0000 -0.3014 0.0000 13.4553
#
#
#
# Elastic Compliance Matrix: (Units=1/GPa)
#
#
# Indices 1 2 3 4 5 6 
#
# 1 0.015752 0.000644 -0.006924 0.000000 0.012153 0.000000
# 2 0.000644 0.014279 0.000893 0.000000 0.004052 0.000000
# 3 -0.006924 0.000893 0.026435 0.000000 -0.001393 0.000000
# 4 0.000000 0.000000 0.000000 0.080373 0.000000 0.001800
# 5 0.012153 0.004052 -0.001393 0.000000 0.037185 0.000000
# 6 0.000000 0.000000 0.000000 0.001800 0.000000 0.074361
#
#
# Mechanical properties :
#
#
# Convention : Reuss Voigt Hill
#
# Bulk Modulus (GPa) = 21.88475 29.37199 25.62837
# Shear Modulus (GPa) = 18.22233 25.42581 21.82407
#
# Velocity S-wave (km/s) = 2.81635 3.32676 3.08214
# Velocity P-wave (km/s) = 4.48350 5.24800 4.88074
#
# Compressibility (1/GPa) = 0.04569392
#
# Stress axis : x y z
#
# Youngs Moduli (GPa) = 63.48243 70.03376 37.82849
#
# Poissons Ratio (x) = -0.04512 0.26191
# Poissons Ratio (y) = -0.04090 -0.03379
# Poissons Ratio (z) = 0.43953 -0.06256
#
# Static dielectric constant tensor:
#      x y z
#    x 1.944350 0.000000 0.027970 
#    y 0.000000 1.900830 0.000000 
#    z 0.027970 0.000000 1.831050 
# 
# From -- ./inp_files/104634.got.cif
#   From: 2010.05.17/outbox.cif.g08.bks.cpg/sg12_53_cif.got.tgz:104634.got - 2010.06.03 13:09:07.
