data_PCOD9193515
_publ_section_title
;
Structure prediction by ZEFSAII (Michael W. Deem and Ramdas Pophale) SiO2 
 PCOD9193515
Probable space group: C 2/M
;
_chemical_formula_sum "Si O2"
_cell_formula_units_Z 56
_cell_length_a 24.310556
_cell_length_b 8.667037
_cell_length_c 15.692946
_cell_angle_alpha 90.000000
_cell_angle_beta 64.109510
_cell_angle_gamma 90.000000
_cell_volume 2974.637722
_symmetry_space_group_name_H-M "C 2/M"
_symmetry_group_IT_number 12
_symmetry_cell_setting 'monoclinic'
loop_
_space_group_symop_operation_xyz
x,y,z
-x,y,-z
-x,-y,-z
x,-y,z
1/2+x,1/2+y,z
1/2-x,1/2+y,-z
1/2-x,1/2-y,-z
1/2+x,1/2-y,z
loop_
_atom_site_type_symbol
_atom_site_label
_atom_site_fract_x
_atom_site_fract_y
_atom_site_fract_z
Si Si1 0.392441 0.814493 0.322677
Si Si2 0.755261 0.315775 0.135635
Si Si3 0.720077 0.683043 0.695944
Si Si4 0.558191 0.314970 0.401769
Si Si5 0.531162 0.185336 0.234841
Si Si6 0.161654 0.814940 0.465304
Si Si7 0.844535 0.314056 0.923005
O O1 0.345951 0.747974 0.284906
O O2 0.462366 0.759627 0.263780
O O3 0.368250 0.757888 0.430761
O O4 0.390885 0.000000 0.321105
O O5 0.753318 0.500000 0.149860
O O6 0.762418 0.233825 0.220770
O O7 0.695218 0.262566 0.125036
O O8 0.811631 0.276563 0.034267
O O9 0.720931 0.500000 0.686913
O O10 0.770636 0.754857 0.598602
O O11 0.500000 0.274555 0.500000
O O12 0.557725 0.500000 0.390172
O O13 0.551220 0.236655 0.315515
O O14 0.619031 0.274119 0.412993
O O15 0.585089 0.234097 0.134393
O O16 0.528867 0.000000 0.234619
O O17 0.161767 0.000000 0.474018
O O18 0.840571 0.500000 0.915788
#
# Coordination Sequence:
#
# PCOD9193515 Si02
#       7
#     8   8   8   8   8   8   8
#     4  11  23  39  57  80 112 150 192 232 277 332
#     4  10  20  37  61  88 116 146 184 230 280 332
#     4  12  25  40  58  80 110 148 192 237 282 330
#     4  10  20  34  53  80 114 148 181 222 273 326
#     4  10  21  36  57  84 114 149 187 228 277 331
#     4  11  22  38  59  83 113 149 189 231 280 332
#     4   9  19  37  61  89 118 147 181 226 280 336
#
# _framework density 18.825821000000001
#
# number of rings (size 3 to 8) (size 9 to 14) (size 15 to 20)
#    0.000    1.571    1.429    3.857    0.000    5.429 
#    0.000    0.714    0.000    4.286    0.000    0.000 
#    0.000    0.000    0.000    0.000    0.000    0.000 
#
# Total GULP energy -156491.406202 kJ/mol
# GULP energy per Si atom -5588.978793 kJ/mol
# Density = 1.878297 g / cm^3
# Si number density = 18.825821 Si / 1000 Ang^3
#
#
#
# Elastic Constant Matrix: (Units=GPa)
#
#
# Indices 1 2 3 4 5 6 
#
# 1 80.9167 23.3062 37.5079 0.0000 -20.0670 0.0000
# 2 23.3062 33.4393 6.9233 0.0000 -5.0143 0.0001
# 3 37.5079 6.9233 59.7356 0.0000 -26.5318 0.0000
# 4 0.0000 0.0000 0.0000 23.7926 0.0000 5.1666
# 5 -20.0670 -5.0143 -26.5318 0.0000 27.9938 0.0000
# 6 0.0000 0.0001 0.0000 5.1666 0.0000 27.8291
#
#
#
# Elastic Compliance Matrix: (Units=1/GPa)
#
#
# Indices 1 2 3 4 5 6 
#
# 1 0.021726 -0.012438 -0.010832 0.000000 0.003079 0.000000
# 2 -0.012438 0.037980 0.004265 0.000000 0.001929 0.000000
# 3 -0.010832 0.004265 0.034433 0.000000 0.025634 0.000000
# 4 0.000000 0.000000 0.000000 0.043796 0.000000 -0.008131
# 5 0.003079 0.001929 0.025634 0.000000 0.062570 0.000000
# 6 0.000000 0.000000 0.000000 -0.008131 0.000000 0.037443
#
#
# Mechanical properties :
#
#
# Convention : Reuss Voigt Hill
#
# Bulk Modulus (GPa) = 17.81649 34.39627 26.10638
# Shear Modulus (GPa) = 16.96832 23.01339 19.99085
#
# Velocity S-wave (km/s) = 3.00548 3.50013 3.26219
# Velocity P-wave (km/s) = 4.63985 5.88600 5.29968
#
# Compressibility (1/GPa) = 0.05612778
#
# Stress axis : x y z
#
# Youngs Moduli (GPa) = 46.02876 26.32976 29.04194
#
# Poissons Ratio (x) = 0.32748 0.31459
# Poissons Ratio (y) = 0.57249 -0.12385
# Poissons Ratio (z) = 0.49859 -0.11228
#
# Static dielectric constant tensor:
#      x y z
#    x 1.648620 0.000000 -0.028360 
#    y 0.000000 1.631700 0.000000 
#    z -0.028360 0.000000 1.642670 
# 
# From -- ./inp_files/238343.got.cif
#   From: 2010.05.17/outbox.cif.g08.bks.cpg/sg12_120_cif.got.tgz:238343.got - 2010.06.03 13:09:07.
