data_PCOD9193829
_publ_section_title
;
Structure prediction by ZEFSAII (Michael W. Deem and Ramdas Pophale) SiO2 
 PCOD9193829
Probable space group: C 2/M
;
_chemical_formula_sum "Si O2"
_cell_formula_units_Z 64
_cell_length_a 24.885172
_cell_length_b 7.459006
_cell_length_c 15.381253
_cell_angle_alpha 90.000000
_cell_angle_beta 73.655806
_cell_angle_gamma 90.000000
_cell_volume 2739.670684
_symmetry_space_group_name_H-M "C 2/M"
_symmetry_group_IT_number 12
_symmetry_cell_setting 'monoclinic'
loop_
_space_group_symop_operation_xyz
x,y,z
-x,y,-z
-x,-y,-z
x,-y,z
1/2+x,1/2+y,z
1/2-x,1/2+y,-z
1/2-x,1/2-y,-z
1/2+x,1/2-y,z
loop_
_atom_site_type_symbol
_atom_site_label
_atom_site_fract_x
_atom_site_fract_y
_atom_site_fract_z
Si Si1 0.151637 0.789805 0.375534
Si Si2 0.098765 0.708311 0.091832
Si Si3 0.315286 0.714104 0.454999
Si Si4 0.315687 0.794672 0.083933
Si Si5 0.641706 0.291440 0.749217
Si Si6 0.475152 0.783773 0.602418
Si Si7 0.696196 0.281110 0.179756
Si Si8 0.485277 0.217767 0.228363
O O1 0.155090 0.713598 0.471169
O O2 0.089523 0.769364 0.366960
O O3 0.192475 0.719273 0.281773
O O4 0.164935 0.000000 0.378066
O O5 0.087613 0.500000 0.075187
O O6 0.141444 0.719568 0.153297
O O7 0.038710 0.782360 0.148310
O O8 0.134874 0.788827 0.996262
O O9 0.325283 0.500000 0.446331
O O10 0.250000 0.750000 0.500000
O O11 0.336114 0.784811 0.352764
O O12 0.333297 0.796188 0.176389
O O13 0.253269 0.716696 0.108928
O O14 0.310473 0.000000 0.055401
O O15 0.657631 0.500000 0.747010
O O16 0.574637 0.275946 0.778995
O O17 0.500000 0.717575 0.500000
O O18 0.506246 0.722430 0.675383
O O19 0.477877 0.000000 0.600653
O O20 0.696146 0.500000 0.179520
O O21 0.486319 0.000000 0.228106
#
# Coordination Sequence:
#
# PCOD9193829 Si02
#       8
#     8   8   8   8   8   8   8   8
#     4  10  20  34  54  81 113 147 182 225 282 342
#     4  10  21  38  61  87 115 152 195 240 293 349
#     4  10  22  39  58  84 117 154 196 237 284 343
#     4  10  22  40  61  84 114 155 197 239 294 354
#     4  11  24  40  59  86 117 153 199 246 290 339
#     4  10  20  34  54  81 110 144 188 232 278 334
#     4  10  20  35  58  88 118 149 187 235 294 352
#     4  10  21  38  58  82 116 154 193 240 292 348
#
# _framework density 23.360472999999999
#
# number of rings (size 3 to 8) (size 9 to 14) (size 15 to 20)
#    0.000    1.875    1.250    2.250    0.000    5.250 
#    0.000    2.500    0.000    0.000    0.000    0.000 
#    0.000    0.000    0.000    0.000    0.000    0.000 
#
# Total GULP energy -178873.828394 kJ/mol
# GULP energy per Si atom -5589.807137 kJ/mol
# Density = 2.330730 g / cm^3
# Si number density = 23.360473 Si / 1000 Ang^3
#
#
#
# Elastic Constant Matrix: (Units=GPa)
#
#
# Indices 1 2 3 4 5 6 
#
# 1 68.8013 -25.4369 23.0164 0.0000 -13.4056 0.0000
# 2 -25.4369 73.4111 2.0553 0.0000 -1.7020 0.0000
# 3 23.0164 2.0553 129.0787 0.0000 -29.1800 0.0000
# 4 0.0000 0.0000 0.0000 -2.4382 0.0000 8.9797
# 5 -13.4056 -1.7020 -29.1800 0.0000 42.8783 0.0000
# 6 0.0000 0.0000 0.0000 8.9797 0.0000 15.4396
#
#
#
# Elastic Compliance Matrix: (Units=1/GPa)
#
#
# Indices 1 2 3 4 5 6 
#
# 1 0.018669 0.006640 -0.002429 0.000000 0.004447 0.000000
# 2 0.006640 0.015997 -0.000976 0.000000 0.002047 0.000000
# 3 -0.002429 -0.000976 0.009473 0.000000 0.005648 0.000000
# 4 0.000000 0.000000 0.000000 -0.130534 0.000000 0.075919
# 5 0.004447 0.002047 0.005648 0.000000 0.028637 0.000000
# 6 0.000000 0.000000 0.000000 0.075919 0.000000 0.020614
#
#
# Mechanical properties :
#
#
# Convention : Reuss Voigt Hill
#
# Bulk Modulus (GPa) = 19.75981 30.06229 24.91105
# Shear Modulus (GPa) = -186.95657 29.28636 -78.83511
#
# Velocity S-wave (km/s) = -8.95572 3.54456 -5.81554
# Velocity P-wave (km/s) = 9.92284 5.44506 5.86575
#
# Compressibility (1/GPa) = 0.05060778
#
# Stress axis : x y z
#
# Youngs Moduli (GPa) = 53.56589 62.51022 105.56537
#
# Poissons Ratio (x) = -0.41505 0.25645
# Poissons Ratio (y) = -0.35567 0.10303
# Poissons Ratio (z) = 0.13013 0.06101
#
# Static dielectric constant tensor:
#      x y z
#    x 1.829510 0.000000 -0.020580 
#    y 0.000000 1.794530 0.000000 
#    z -0.020580 0.000000 1.918830 
# 
# From -- ./inp_files/243835.got.cif
#   From: 2010.05.17/outbox.cif.g08.bks.cpg/sg12_122_cif.got.tgz:243835.got - 2010.06.03 13:09:07.
