data_PCOD9193656
_publ_section_title
;
Structure prediction by ZEFSAII (Michael W. Deem and Ramdas Pophale) SiO2 
 PCOD9193656
Probable space group: C 2/M
;
_chemical_formula_sum "Si O2"
_cell_formula_units_Z 56
_cell_length_a 28.287211
_cell_length_b 9.040838
_cell_length_c 16.746503
_cell_angle_alpha 90.000000
_cell_angle_beta 47.698920
_cell_angle_gamma 90.000000
_cell_volume 3167.602382
_symmetry_space_group_name_H-M "C 2/M"
_symmetry_group_IT_number 12
_symmetry_cell_setting 'monoclinic'
loop_
_space_group_symop_operation_xyz
x,y,z
-x,y,-z
-x,-y,-z
x,-y,z
1/2+x,1/2+y,z
1/2-x,1/2+y,-z
1/2-x,1/2-y,-z
1/2+x,1/2-y,z
loop_
_atom_site_type_symbol
_atom_site_label
_atom_site_fract_x
_atom_site_fract_y
_atom_site_fract_z
Si Si1 0.017623 0.177060 0.730359
Si Si2 0.480118 0.825661 0.611391
Si Si3 0.228126 0.821408 0.820543
Si Si4 0.376497 0.677508 0.940609
Si Si5 0.256334 0.675635 0.619264
Si Si6 0.165632 0.673432 0.170716
Si Si7 0.351520 0.175404 0.390910
O O1 0.079714 0.250726 0.697834
O O2 0.012613 0.232635 0.644630
O O3 0.950408 0.223776 0.847617
O O4 0.022299 0.000000 0.727919
O O5 0.500000 0.780534 0.500000
O O6 0.404012 0.810857 0.709574
O O7 0.496384 0.000000 0.603009
O O8 0.243026 0.743719 0.720625
O O9 0.280730 0.780052 0.827486
O O10 0.230755 0.000000 0.807226
O O11 0.159920 0.780404 0.937096
O O12 0.374954 0.500000 0.937296
O O13 0.338413 0.739683 0.907556
O O14 0.267287 0.500000 0.611561
O O15 0.315868 0.752898 0.507475
O O16 0.195195 0.701340 0.631194
O O17 0.175780 0.500000 0.141436
O O18 0.357977 0.000000 0.395289
#
# Coordination Sequence:
#
# PCOD9193656 Si02
#       7
#     8   8   8   8   8   8   8
#     4  10  20  34  54  78 105 140 181 222 268 315
#     4   9  18  31  47  72 107 142 178 218 264 321
#     4  10  20  34  54  79 109 145 183 220 266 317
#     4   9  19  35  52  76 110 146 182 222 264 311
#     4  10  22  38  57  84 108 133 173 221 270 320
#     4   9  18  31  49  75 105 143 184 218 260 314
#     4  10  21  39  60  79 106 139 173 216 271 330
#
# _framework density 17.678985999999998
#
# number of rings (size 3 to 8) (size 9 to 14) (size 15 to 20)
#    0.000    2.429    0.000    1.714    2.000    3.714 
#    0.000    0.714    0.000    4.286    0.000    0.000 
#    0.000    0.000    0.000    0.000    0.000    0.000 
#
# Total GULP energy -156252.572540 kJ/mol
# GULP energy per Si atom -5580.449019 kJ/mol
# Density = 1.763875 g / cm^3
# Si number density = 17.678986 Si / 1000 Ang^3
#
#
#
# Elastic Constant Matrix: (Units=GPa)
#
#
# Indices 1 2 3 4 5 6 
#
# 1 76.0683 41.0469 42.3716 -0.0001 -14.1075 0.0000
# 2 41.0469 40.1844 35.1461 -0.0002 -5.0470 0.0001
# 3 42.3716 35.1461 93.7781 -0.0001 8.3396 0.0000
# 4 -0.0001 -0.0002 -0.0001 21.7026 0.0001 3.6165
# 5 -14.1075 -5.0470 8.3396 0.0001 14.9899 0.0000
# 6 0.0000 0.0001 0.0000 3.6165 0.0000 28.9904
#
#
#
# Elastic Compliance Matrix: (Units=1/GPa)
#
#
# Indices 1 2 3 4 5 6 
#
# 1 0.040759 -0.027229 -0.011370 0.000000 0.035518 0.000000
# 2 -0.027229 0.062983 -0.011477 0.000001 0.001965 0.000000
# 3 -0.011370 -0.011477 0.022511 0.000000 -0.027089 0.000000
# 4 0.000000 0.000001 0.000000 0.047056 0.000000 -0.005870
# 5 0.035518 0.001965 -0.027089 0.000000 0.115870 0.000000
# 6 0.000000 0.000000 0.000000 -0.005870 0.000000 0.035226
#
#
# Mechanical properties :
#
#
# Convention : Reuss Voigt Hill
#
# Bulk Modulus (GPa) = 38.31083 49.68443 43.99763
# Shear Modulus (GPa) = 11.54048 19.23434 15.38741
#
# Velocity S-wave (km/s) = 2.55773 3.30203 2.95342
# Velocity P-wave (km/s) = 5.51724 6.53472 6.04742
#
# Compressibility (1/GPa) = 0.02610228
#
# Stress axis : x y z
#
# Youngs Moduli (GPa) = 24.53430 15.87726 44.42294
#
# Poissons Ratio (x) = 0.43232 0.50508
# Poissons Ratio (y) = 0.66804 0.50983
# Poissons Ratio (z) = 0.27895 0.18222
#
# Static dielectric constant tensor:
#      x y z
#    x 1.593490 0.000000 -0.028110 
#    y 0.000000 1.592150 0.000000 
#    z -0.028110 0.000000 1.594870 
# 
# From -- ./inp_files/238428.got.cif
#   From: 2010.05.17/outbox.cif.g08.bks.cpg/sg12_120_cif.got.tgz:238428.got - 2010.06.03 13:09:07.
