data_PCOD9193639
_publ_section_title
;
Structure prediction by ZEFSAII (Michael W. Deem and Ramdas Pophale) SiO2 
 PCOD9193639
Probable space group: C 2/M
;
_chemical_formula_sum "Si O2"
_cell_formula_units_Z 40
_cell_length_a 22.747732
_cell_length_b 11.174248
_cell_length_c 13.740691
_cell_angle_alpha 90.000000
_cell_angle_beta 30.356090
_cell_angle_gamma 90.000000
_cell_volume 1765.129936
_symmetry_space_group_name_H-M "C 2/M"
_symmetry_group_IT_number 12
_symmetry_cell_setting 'monoclinic'
loop_
_space_group_symop_operation_xyz
x,y,z
-x,y,-z
-x,-y,-z
x,-y,z
1/2+x,1/2+y,z
1/2-x,1/2+y,-z
1/2-x,1/2-y,-z
1/2+x,1/2-y,z
loop_
_atom_site_type_symbol
_atom_site_label
_atom_site_fract_x
_atom_site_fract_y
_atom_site_fract_z
Si Si1 0.486317 0.367348 0.385254
Si Si2 0.097451 0.218782 0.026364
Si Si3 0.280033 0.210972 0.621466
Si Si4 0.119435 0.366689 0.722327
Si Si5 0.734341 0.364629 0.091603
O O1 0.433027 0.500000 0.464920
O O2 0.392407 0.261781 0.517196
O O3 0.595131 0.362820 0.304252
O O4 0.550318 0.352807 0.187263
O O5 0.186580 0.152524 0.827249
O O6 0.176625 0.330838 0.950452
O O7 0.985528 0.272488 0.133052
O O8 0.213171 0.322270 0.666359
O O9 0.322874 0.136761 0.467615
O O10 0.079359 0.500000 0.799275
O O11 0.761031 0.500000 0.018141
O O12 0.750000 0.250000 0.000000
#
# Coordination Sequence:
#
# PCOD9193639 Si02
#       5
#     8   8   8   8   8
#     4   9  19  35  53  75 105 137 170 212 260 311
#     4  10  20  34  54  78 103 135 175 215 259 312
#     4  10  21  35  52  77 104 133 173 217 261 309
#     4  10  21  36  52  73 104 137 170 213 262 312
#     4   9  18  33  53  78 108 140 175 218 266 315
#
# _framework density 22.66122
#
# number of rings (size 3 to 8) (size 9 to 14) (size 15 to 20)
#    0.000    2.400    0.000    1.800    0.000    5.600 
#    0.000    2.000    0.000    7.200    0.000   19.600 
#    0.000    0.000    0.000    0.000    0.000    0.000 
#
# Total GULP energy -111573.631837 kJ/mol
# GULP energy per Si atom -5578.681592 kJ/mol
# Density = 2.260964 g / cm^3
# Si number density = 22.661220 Si / 1000 Ang^3
#
#
#
# Elastic Constant Matrix: (Units=GPa)
#
#
# Indices 1 2 3 4 5 6 
#
# 1 85.7750 16.6951 -2.8408 0.0000 -10.2021 0.0000
# 2 16.6951 85.7579 6.6844 0.0000 1.1622 0.0000
# 3 -2.8408 6.6844 114.9567 0.0000 13.6041 0.0000
# 4 0.0000 0.0000 0.0000 10.5176 0.0000 -8.4003
# 5 -10.2021 1.1622 13.6041 0.0000 40.3542 0.0000
# 6 0.0000 0.0000 0.0000 -8.4003 0.0000 3.9685
#
#
#
# Elastic Compliance Matrix: (Units=1/GPa)
#
#
# Indices 1 2 3 4 5 6 
#
# 1 0.012527 -0.002488 0.000074 0.000000 0.003214 0.000000
# 2 -0.002488 0.012208 -0.000683 0.000000 -0.000751 0.000000
# 3 0.000074 -0.000683 0.009099 0.000000 -0.003029 0.000000
# 4 0.000000 0.000000 0.000000 -0.137666 0.000000 -0.291407
# 5 0.003214 -0.000751 -0.003029 0.000000 0.026636 0.000000
# 6 0.000000 0.000000 0.000000 -0.291407 0.000000 -0.364854
#
#
# Mechanical properties :
#
#
# Convention : Reuss Voigt Hill
#
# Bulk Modulus (GPa) = 36.17775 36.39633 36.28704
# Shear Modulus (GPa) = -11.71943 28.69810 8.48933
#
# Velocity S-wave (km/s) = -2.27658 3.56251 1.93761
# Velocity P-wave (km/s) = 3.01477 5.74612 4.58839
#
# Compressibility (1/GPa) = 0.02764130
#
# Stress axis : x y z
#
# Youngs Moduli (GPa) = 79.82507 81.91022 109.90333
#
# Poissons Ratio (x) = 0.20380 -0.00812
# Poissons Ratio (y) = 0.19861 0.07502
# Poissons Ratio (z) = -0.00590 0.05591
#
# Static dielectric constant tensor:
#      x y z
#    x 1.884070 0.000000 0.093260 
#    y 0.000000 1.759080 0.000000 
#    z 0.093260 0.000000 1.940780 
# 
# From -- ./inp_files/141096.got.cif
#   From: 2010.05.17/outbox.cif.g08.bks.cpg/sg12_71_cif.got.tgz:141096.got - 2010.06.03 13:09:07.
