data_PCOD9193229
_publ_section_title
;
Structure prediction by ZEFSAII (Michael W. Deem and Ramdas Pophale) SiO2 
 PCOD9193229
Probable space group: C 2/M
;
_chemical_formula_sum "Si O2"
_cell_formula_units_Z 58
_cell_length_a 15.067212
_cell_length_b 7.691786
_cell_length_c 20.497236
_cell_angle_alpha 90.000000
_cell_angle_beta 86.797018
_cell_angle_gamma 90.000000
_cell_volume 2371.791089
_symmetry_space_group_name_H-M "C 2/M"
_symmetry_group_IT_number 12
_symmetry_cell_setting 'monoclinic'
loop_
_space_group_symop_operation_xyz
x,y,z
-x,y,-z
-x,-y,-z
x,-y,z
1/2+x,1/2+y,z
1/2-x,1/2+y,-z
1/2-x,1/2-y,-z
1/2+x,1/2-y,z
loop_
_atom_site_type_symbol
_atom_site_label
_atom_site_fract_x
_atom_site_fract_y
_atom_site_fract_z
Si Si1 0.666104 0.312182 0.543834
Si Si2 0.706769 0.798038 0.765814
Si Si3 0.918880 0.704490 0.043896
Si Si4 0.570609 0.798632 0.671944
Si Si5 0.736480 0.712734 0.093641
Si Si6 0.000000 0.000000 0.500000
Si Si7 0.390906 0.798806 0.713002
Si Si8 0.451892 0.709831 0.855831
O O1 0.690869 0.500000 0.572392
O O2 0.750000 0.250000 0.500000
O O3 0.631436 0.204262 0.606125
O O4 0.579222 0.351698 0.504095
O O5 0.625806 0.717091 0.729255
O O6 0.734079 0.726492 0.834900
O O7 0.795883 0.791624 0.718307
O O8 0.686310 0.000000 0.778106
O O9 0.913516 0.500000 0.028306
O O10 0.818590 0.776553 0.045761
O O11 0.958280 0.721327 0.115618
O O12 0.000000 0.787605 0.000000
O O13 0.471743 0.723009 0.666426
O O14 0.554012 0.000000 0.688979
O O15 0.737303 0.500000 0.091678
O O16 0.633136 0.764569 0.095414
O O17 0.430497 0.779320 0.784900
O O18 0.372864 0.000000 0.698671
O O19 0.453765 0.500000 0.852962
#
# Coordination Sequence:
#
# PCOD9193229 Si02
#       8
#     8   8   8   8   8   2   8   8
#     4  10  22  43  66  90 124 164 215 257 306 366
#     4   9  18  34  55  80 112 151 181 224 288 350
#     4  10  20  34  53  76 101 137 188 240 290 344
#     4  10  21  37  59  90 123 153 192 240 297 357
#     4   8  16  33  53  73 105 144 178 215 282 352
#     4   8  24  44  66  90 124 168 210 264 314 354
#     4  10  20  35  55  83 119 146 186 232 286 353
#     4  10  20  35  54  74 105 149 185 227 288 350
#
# _framework density 24.454093
#
# number of rings (size 3 to 8) (size 9 to 14) (size 15 to 20)
#    0.414    2.069    0.000    2.897    0.000    5.793 
#    2.483    8.966    0.000    0.000    0.000    0.000 
#    0.000    0.000    0.000    0.000    0.000    0.000 
#
# Total GULP energy -161567.425660 kJ/mol
# GULP energy per Si atom -5571.290540 kJ/mol
# Density = 2.439843 g / cm^3
# Si number density = 24.454093 Si / 1000 Ang^3
#
#
#
# Elastic Constant Matrix: (Units=GPa)
#
#
# Indices 1 2 3 4 5 6 
#
# 1 168.2898 2.2670 28.9332 0.0000 -20.9813 0.0000
# 2 2.2670 70.3549 -3.4836 0.0000 -1.3018 0.0000
# 3 28.9332 -3.4836 48.5289 0.0000 -23.7401 0.0000
# 4 0.0000 0.0000 0.0000 15.8451 0.0000 0.0217
# 5 -20.9813 -1.3018 -23.7401 0.0000 42.1801 0.0000
# 6 0.0000 0.0000 0.0000 0.0217 0.0000 19.1954
#
#
#
# Elastic Compliance Matrix: (Units=1/GPa)
#
#
# Indices 1 2 3 4 5 6 
#
# 1 0.006697 -0.000352 -0.003303 0.000000 0.001461 0.000000
# 2 -0.000352 0.014343 0.001891 0.000000 0.001332 0.000000
# 3 -0.003303 0.001891 0.030271 0.000000 0.015452 0.000000
# 4 0.000000 0.000000 0.000000 0.063111 0.000000 -0.000071
# 5 0.001461 0.001332 0.015452 0.000000 0.033173 0.000000
# 6 0.000000 0.000000 0.000000 -0.000071 0.000000 0.052096
#
#
# Mechanical properties :
#
#
# Convention : Reuss Voigt Hill
#
# Bulk Modulus (GPa) = 20.92828 38.06742 29.49785
# Shear Modulus (GPa) = 22.81576 32.74127 27.77852
#
# Velocity S-wave (km/s) = 3.05782 3.66305 3.37404
# Velocity P-wave (km/s) = 4.58736 5.78716 5.22183
#
# Compressibility (1/GPa) = 0.04778223
#
# Stress axis : x y z
#
# Youngs Moduli (GPa) = 149.32156 69.71901 33.03525
#
# Poissons Ratio (x) = 0.02456 0.10912
# Poissons Ratio (y) = 0.05261 -0.06248
# Poissons Ratio (z) = 0.49325 -0.13185
#
# Static dielectric constant tensor:
#      x y z
#    x 2.010100 0.000000 -0.057560 
#    y 0.000000 1.901920 0.000000 
#    z -0.057560 0.000000 2.044910 
# 
# From -- ./inp_files/337965.got.cif
#   From: 2010.05.17/outbox.cif.g08.bks.cpg/sg12_169_cif.got.tgz:337965.got - 2010.06.03 13:09:07.
