data_PCOD9193228
_publ_section_title
;
Structure prediction by ZEFSAII (Michael W. Deem and Ramdas Pophale) SiO2 
 PCOD9193228
Probable space group: C 2/M
;
_chemical_formula_sum "Si O2"
_cell_formula_units_Z 64
_cell_length_a 21.020315
_cell_length_b 7.899407
_cell_length_c 22.953463
_cell_angle_alpha 90.000000
_cell_angle_beta 62.986218
_cell_angle_gamma 90.000000
_cell_volume 3395.545604
_symmetry_space_group_name_H-M "C 2/M"
_symmetry_group_IT_number 12
_symmetry_cell_setting 'monoclinic'
loop_
_space_group_symop_operation_xyz
x,y,z
-x,y,-z
-x,-y,-z
x,-y,z
1/2+x,1/2+y,z
1/2-x,1/2+y,-z
1/2-x,1/2-y,-z
1/2+x,1/2-y,z
loop_
_atom_site_type_symbol
_atom_site_label
_atom_site_fract_x
_atom_site_fract_y
_atom_site_fract_z
Si Si1 0.245385 0.204266 0.175225
Si Si2 0.596186 0.793268 0.908900
Si Si3 0.441821 0.203477 0.943859
Si Si4 0.862998 0.703459 0.443300
Si Si5 0.012163 0.707008 0.427645
Si Si6 0.331169 0.204060 0.674528
Si Si7 0.192019 0.200520 0.072820
Si Si8 0.756287 0.296372 0.589875
O O1 0.327514 0.264555 0.146300
O O2 0.198748 0.249578 0.250292
O O3 0.213065 0.269858 0.127588
O O4 0.247969 0.000000 0.170902
O O5 0.523994 0.737268 0.906236
O O6 0.596110 0.000000 0.908114
O O7 0.587690 0.742305 0.980300
O O8 0.386393 0.253366 0.917431
O O9 0.443347 0.000000 0.944631
O O10 0.864347 0.500000 0.446535
O O11 0.813759 0.765541 0.517720
O O12 0.821357 0.749413 0.401937
O O13 0.943698 0.763426 0.418838
O O14 0.013210 0.500000 0.426739
O O15 0.088473 0.765029 0.372067
O O16 0.000000 0.756406 0.500000
O O17 0.279653 0.265005 0.643639
O O18 0.333100 0.000000 0.670346
O O19 0.195395 0.000000 0.075920
O O20 0.250000 0.250000 0.000000
O O21 0.760519 0.500000 0.588339
#
# Coordination Sequence:
#
# PCOD9193228 Si02
#       8
#     8   8   8   8   8   8   8   8
#     4  10  21  37  53  73 105 143 174 206 259 317
#     4   8  15  31  54  76 100 134 170 207 254 308
#     4   9  16  31  56  80 101 128 170 217 258 301
#     4   9  16  28  51  77  98 126 165 209 253 298
#     4   9  15  29  53  77 100 130 172 219 258 296
#     4  10  20  34  53  76 101 135 176 215 258 305
#     4  11  21  34  54  79 107 138 173 216 264 311
#     4   9  17  30  48  73 103 129 159 206 259 302
#
# _framework density 18.848223999999998
#
# number of rings (size 3 to 8) (size 9 to 14) (size 15 to 20)
#    0.000    2.625    2.500    1.125    0.000    1.500 
#    0.000    3.750    0.000    8.250    0.000    0.000 
#    0.000    0.000    0.000    0.000    0.000    0.000 
#
# Total GULP energy -178418.678478 kJ/mol
# GULP energy per Si atom -5575.583702 kJ/mol
# Density = 1.880532 g / cm^3
# Si number density = 18.848224 Si / 1000 Ang^3
#
#
#
# Elastic Constant Matrix: (Units=GPa)
#
#
# Indices 1 2 3 4 5 6 
#
# 1 212.0910 12.3470 105.2296 0.0001 -1.7173 0.0003
# 2 12.3470 15.0897 5.4907 0.0003 -1.3716 0.0015
# 3 105.2296 5.4907 131.5859 0.0000 -3.6604 0.0001
# 4 0.0001 0.0003 0.0000 18.8344 0.0001 1.9735
# 5 -1.7173 -1.3716 -3.6604 0.0001 27.7471 0.0002
# 6 0.0003 0.0015 0.0001 1.9735 0.0002 24.2415
#
#
#
# Elastic Compliance Matrix: (Units=1/GPa)
#
#
# Indices 1 2 3 4 5 6 
#
# 1 0.008094 -0.004378 -0.006305 0.000000 -0.000547 0.000000
# 2 -0.004378 0.069905 0.000675 -0.000001 0.003274 -0.000004
# 3 -0.006305 0.000675 0.012650 0.000000 0.001312 0.000000
# 4 0.000000 -0.000001 0.000000 0.053551 0.000000 -0.004360
# 5 -0.000547 0.003274 0.001312 0.000000 0.036341 0.000000
# 6 0.000000 -0.000004 0.000000 -0.004360 0.000000 0.041607
#
#
# Mechanical properties :
#
#
# Convention : Reuss Voigt Hill
#
# Bulk Modulus (GPa) = 14.15775 67.21125 40.68450
# Shear Modulus (GPa) = 18.81773 29.87787 24.34780
#
# Velocity S-wave (km/s) = 3.16315 3.98575 3.59804
# Velocity P-wave (km/s) = 4.56820 7.54442 6.23645
#
# Compressibility (1/GPa) = 0.07063271
#
# Stress axis : x y z
#
# Youngs Moduli (GPa) = 123.55307 14.30521 79.05071
#
# Poissons Ratio (x) = 0.06263 0.49842
# Poissons Ratio (y) = 0.54093 -0.05339
# Poissons Ratio (z) = 0.77901 -0.00966
#
# Static dielectric constant tensor:
#      x y z
#    x 1.678510 0.000000 0.002230 
#    y 0.000000 1.694340 0.000000 
#    z 0.002230 0.000000 1.621050 
# 
# From -- ./inp_files/319779.got.cif
#   From: 2010.05.17/outbox.cif.g08.bks.cpg/sg12_160_cif.got.tgz:319779.got - 2010.06.03 13:09:07.
