data_PCOD9193808
_publ_section_title
;
Structure prediction by ZEFSAII (Michael W. Deem and Ramdas Pophale) SiO2 
 PCOD9193808
Probable space group: C 2/M
;
_chemical_formula_sum "Si O2"
_cell_formula_units_Z 56
_cell_length_a 11.286855
_cell_length_b 28.776744
_cell_length_c 13.803488
_cell_angle_alpha 90.000000
_cell_angle_beta 142.449720
_cell_angle_gamma 90.000000
_cell_volume 2732.415862
_symmetry_space_group_name_H-M "C 2/M"
_symmetry_group_IT_number 12
_symmetry_cell_setting 'monoclinic'
loop_
_space_group_symop_operation_xyz
x,y,z
-x,y,-z
-x,-y,-z
x,-y,z
1/2+x,1/2+y,z
1/2-x,1/2+y,-z
1/2-x,1/2-y,-z
1/2+x,1/2-y,z
loop_
_atom_site_type_symbol
_atom_site_label
_atom_site_fract_x
_atom_site_fract_y
_atom_site_fract_z
Si Si1 0.214362 0.333923 0.392343
Si Si2 0.970295 0.752118 0.243942
Si Si3 0.664993 0.661220 0.736788
Si Si4 0.831503 0.000000 0.973631
Si Si5 0.160153 0.597718 0.519878
Si Si6 0.039916 0.500000 0.408467
Si Si7 0.396305 0.402637 0.123340
Si Si8 0.887469 0.188302 0.022486
O O1 0.194759 0.343191 0.264903
O O2 0.440437 0.345022 0.559882
O O3 0.110571 0.365681 0.404090
O O4 0.154782 0.281159 0.378067
O O5 0.849352 0.784231 0.240984
O O6 0.014520 0.791431 0.193107
O O7 0.816797 0.714256 0.105853
O O8 0.701602 0.623413 0.845922
O O9 0.641540 0.000000 0.781868
O O10 0.000000 0.000000 0.000000
O O11 0.844911 0.045889 0.051519
O O12 0.373424 0.600737 0.704840
O O13 0.000000 0.601297 0.500000
O O14 0.153927 0.547246 0.466706
O O15 0.000000 0.500000 0.500000
O O16 0.355976 0.366212 0.011810
O O17 0.000000 0.200203 0.000000
#
# Coordination Sequence:
#
# PCOD9193808 Si02
#       8
#     8   8   8   4   8   4   8   8
#     4  10  20  35  62  82 117 160 202 246 305 351
#     4  10  20  34  54  80 115 158 203 242 294 349
#     4   9  20  40  55  86 118 159 203 249 293 362
#     4  12  22  36  65  90 119 159 189 240 311 361
#     4  10  21  38  59  89 118 151 198 254 302 359
#     4  10  22  38  61  88 123 145 195 245 291 357
#     4  10  22  38  59  85 121 155 195 246 302 360
#     4  10  21  33  52  79 116 151 195 243 293 356
#
# _framework density 20.494682999999998
#
# number of rings (size 3 to 8) (size 9 to 14) (size 15 to 20)
#    0.000    2.000    0.000    3.857    4.000    0.000 
#    5.143    0.714    0.000    4.286    0.000    0.000 
#    0.000    0.000    0.000    0.000    0.000    0.000 
#
# Total GULP energy -155892.732459 kJ/mol
# GULP energy per Si atom -5567.597588 kJ/mol
# Density = 2.044804 g / cm^3
# Si number density = 20.494683 Si / 1000 Ang^3
#
#
#
# Elastic Constant Matrix: (Units=GPa)
#
#
# Indices 1 2 3 4 5 6 
#
# 1 89.8551 50.9562 27.2402 0.0000 -17.8539 0.0000
# 2 50.9562 126.6287 10.2995 0.0000 -14.3144 0.0000
# 3 27.2402 10.2995 42.0661 0.0000 -7.7871 0.0000
# 4 0.0000 0.0000 0.0000 44.0709 0.0000 -1.9150
# 5 -17.8539 -14.3144 -7.7871 0.0000 19.5924 0.0000
# 6 0.0000 0.0000 0.0000 -1.9150 0.0000 22.3331
#
#
#
# Elastic Compliance Matrix: (Units=1/GPa)
#
#
# Indices 1 2 3 4 5 6 
#
# 1 0.019137 -0.005880 -0.009196 0.000000 0.009487 0.000000
# 2 -0.005880 0.010456 0.001803 0.000000 0.002997 0.000000
# 3 -0.009196 0.001803 0.030200 0.000000 0.004940 0.000000
# 4 0.000000 0.000000 0.000000 0.022776 0.000000 0.001953
# 5 0.009487 0.002997 0.004940 0.000000 0.063839 0.000000
# 6 0.000000 0.000000 0.000000 0.001953 0.000000 0.044944
#
#
# Mechanical properties :
#
#
# Convention : Reuss Voigt Hill
#
# Bulk Modulus (GPa) = 30.07967 48.39352 39.23660
# Shear Modulus (GPa) = 21.83598 28.53621 25.18610
#
# Velocity S-wave (km/s) = 3.26766 3.73550 3.50938
# Velocity P-wave (km/s) = 5.38010 6.50148 5.96719
#
# Compressibility (1/GPa) = 0.03324504
#
# Stress axis : x y z
#
# Youngs Moduli (GPa) = 52.25576 95.64324 33.11226
#
# Poissons Ratio (x) = 0.56241 0.30450
# Poissons Ratio (y) = 0.30728 -0.05969
# Poissons Ratio (z) = 0.48055 -0.17241
#
# Static dielectric constant tensor:
#      x y z
#    x 1.760590 0.000000 -0.007260 
#    y 0.000000 1.761630 0.000000 
#    z -0.007260 0.000000 1.874460 
# 
# From -- ./inp_files/209211.got.cif
#   From: 2010.05.17/outbox.cif.g08.bks.cpg/sg12_105_cif.got.tgz:209211.got - 2010.06.03 13:09:07.
