data_PCOD9193023
_publ_section_title
;
Structure prediction by ZEFSAII (Michael W. Deem and Ramdas Pophale) SiO2 
 PCOD9193023
Probable space group: C 2/M
;
_chemical_formula_sum "Si O2"
_cell_formula_units_Z 48
_cell_length_a 20.077215
_cell_length_b 13.821811
_cell_length_c 25.866305
_cell_angle_alpha 90.000000
_cell_angle_beta 159.575961
_cell_angle_gamma 90.000000
_cell_volume 2504.868962
_symmetry_space_group_name_H-M "C 2/M"
_symmetry_group_IT_number 12
_symmetry_cell_setting 'monoclinic'
loop_
_space_group_symop_operation_xyz
x,y,z
-x,y,-z
-x,-y,-z
x,-y,z
1/2+x,1/2+y,z
1/2-x,1/2+y,-z
1/2-x,1/2-y,-z
1/2+x,1/2-y,z
loop_
_atom_site_type_symbol
_atom_site_label
_atom_site_fract_x
_atom_site_fract_y
_atom_site_fract_z
Si Si1 0.810294 0.614392 0.472130
Si Si2 0.894542 0.387577 0.114034
Si Si3 0.551016 0.608323 0.598080
Si Si4 0.026994 0.814358 0.178654
Si Si5 0.649250 0.811566 0.657302
Si Si6 0.300167 0.884697 0.581578
O O1 0.772691 0.500000 0.440821
O O2 0.662423 0.667135 0.326600
O O3 0.783239 0.650370 0.510824
O O4 0.027472 0.633174 0.611587
O O5 0.937216 0.500000 0.130358
O O6 0.976930 0.300448 0.138638
O O7 0.998803 0.366919 0.244435
O O8 0.669848 0.370531 0.956393
O O9 0.500000 0.602779 0.500000
O O10 0.614891 0.500000 0.659647
O O11 0.684454 0.701051 0.700370
O O12 0.367298 0.637046 0.499156
O O13 0.153308 0.849628 0.222101
O O14 0.500000 0.809513 0.500000
O O15 0.287936 0.000000 0.567199
#
# Coordination Sequence:
#
# PCOD9193023 Si02
#       6
#     8   8   8   8   8   8
#     4  10  20  34  52  75 104 135 169 213 255 292
#     4  10  20  35  53  74 104 135 166 210 256 301
#     4   9  16  28  48  74 102 128 159 207 257 298
#     4  10  21  34  52  78 101 133 177 207 246 307
#     4   9  18  30  47  73  99 129 171 208 247 300
#     4   9  18  32  52  78 103 131 168 207 253 302
#
# _framework density 19.162679000000001
#
# number of rings (size 3 to 8) (size 9 to 14) (size 15 to 20)
#    0.000    2.500    0.000    3.500    0.000    8.333 
#    0.000    0.833    0.000    3.000    0.000    3.500 
#    0.000   32.000    0.000    0.000    0.000    0.000 
#
# Total GULP energy -133628.531384 kJ/mol
# GULP energy per Si atom -5567.855474 kJ/mol
# Density = 1.911906 g / cm^3
# Si number density = 19.162679 Si / 1000 Ang^3
#
#
#
# Elastic Constant Matrix: (Units=GPa)
#
#
# Indices 1 2 3 4 5 6 
#
# 1 125.6851 7.4279 43.8127 -0.0061 17.4234 -0.0052
# 2 7.4279 87.8313 -0.9582 0.0094 6.2220 -0.0018
# 3 43.8127 -0.9582 58.8346 -0.0022 18.8907 0.0498
# 4 -0.0061 0.0094 -0.0022 29.2891 -0.0017 -12.7557
# 5 17.4234 6.2220 18.8907 -0.0017 19.2151 -0.0132
# 6 -0.0052 -0.0018 0.0498 -12.7557 -0.0132 39.4174
#
#
#
# Elastic Compliance Matrix: (Units=1/GPa)
#
#
# Indices 1 2 3 4 5 6 
#
# 1 0.010904 -0.000835 -0.007373 0.000007 -0.002368 0.000012
# 2 -0.000835 0.011888 0.002642 -0.000007 -0.005690 -0.000007
# 3 -0.007373 0.002642 0.030188 -0.000026 -0.023848 -0.000055
# 4 0.000007 -0.000007 -0.000026 0.039744 0.000033 0.012861
# 5 -0.002368 -0.005690 -0.023848 0.000033 0.079478 0.000067
# 6 0.000012 -0.000007 -0.000055 0.012861 0.000067 0.029532
#
#
# Mechanical properties :
#
#
# Convention : Reuss Voigt Hill
#
# Bulk Modulus (GPa) = 23.89587 41.43510 32.66549
# Shear Modulus (GPa) = 22.04447 32.38891 27.21669
#
# Velocity S-wave (km/s) = 3.39541 4.11567 3.77277
# Velocity P-wave (km/s) = 5.27910 6.65243 6.00515
#
# Compressibility (1/GPa) = 0.04184823
#
# Stress axis : x y z
#
# Youngs Moduli (GPa) = 91.70660 84.11862 33.12597
#
# Poissons Ratio (x) = 0.07023 0.24425
# Poissons Ratio (y) = 0.07656 -0.08753
# Poissons Ratio (z) = 0.67619 -0.22227
#
# Static dielectric constant tensor:
#      x y z
#    x 1.708180 0.000000 0.011860 
#    y 0.000000 1.742210 -0.000010 
#    z 0.011860 -0.000010 1.636260 
# 
# From -- ./inp_files/366408.got.cif
#   From: 2010.05.17/outbox.cif.g08.bks.cpg/sg12_184_cif.got.tgz:366408.got - 2010.06.03 13:09:07.
