data_PCOD9193128
_publ_section_title
;
Structure prediction by ZEFSAII (Michael W. Deem and Ramdas Pophale) SiO2 
 PCOD9193128
Probable space group: C 2/M
;
_chemical_formula_sum "Si O2"
_cell_formula_units_Z 60
_cell_length_a 14.424629
_cell_length_b 17.570785
_cell_length_c 27.863386
_cell_angle_alpha 90.000000
_cell_angle_beta 27.343409
_cell_angle_gamma 90.000000
_cell_volume 3243.751565
_symmetry_space_group_name_H-M "C 2/M"
_symmetry_group_IT_number 12
_symmetry_cell_setting 'monoclinic'
loop_
_space_group_symop_operation_xyz
x,y,z
-x,y,-z
-x,-y,-z
x,-y,z
1/2+x,1/2+y,z
1/2-x,1/2+y,-z
1/2-x,1/2-y,-z
1/2+x,1/2-y,z
loop_
_atom_site_type_symbol
_atom_site_label
_atom_site_fract_x
_atom_site_fract_y
_atom_site_fract_z
Si Si1 0.069996 0.083461 0.851062
Si Si2 0.073352 0.912529 0.521428
Si Si3 0.028442 0.648829 0.311322
Si Si4 0.000000 0.653863 0.500000
Si Si5 0.606518 0.729667 0.022048
Si Si6 0.527291 0.255809 0.580808
Si Si7 0.580942 0.411438 0.730480
Si Si8 0.307226 0.271322 0.829246
O O1 0.298561 0.086447 0.765471
O O2 0.074667 0.099831 0.791419
O O3 0.956976 0.144074 0.935938
O O4 0.980968 0.000000 0.897398
O O5 0.310014 0.889436 0.415117
O O6 0.969158 0.843456 0.598804
O O7 0.000000 0.908390 0.500000
O O8 0.044237 0.000000 0.551335
O O9 0.046133 0.705362 0.258231
O O10 0.090423 0.705446 0.326720
O O11 0.037607 0.710082 0.526899
O O12 0.197024 0.605823 0.393845
O O13 0.393105 0.773696 0.112176
O O14 0.750000 0.750000 0.000000
O O15 0.727273 0.744283 0.917689
O O16 0.750000 0.250000 0.500000
O O17 0.530996 0.500000 0.744294
O O18 0.426617 0.350320 0.778931
#
# Coordination Sequence:
#
# PCOD9193128 Si02
#       8
#     8   8   8   4   8   8   8   8
#     4  10  20  36  61  91 118 149 191 250 304 349
#     4  10  20  34  52  78 113 155 201 250 296 339
#     4  10  20  37  56  83 113 154 198 242 296 355
#     4  12  21  38  59  86 122 166 214 244 289 356
#     4  10  20  41  66  89 116 154 197 241 302 373
#     4  10  20  34  52  79 109 154 207 242 286 343
#     4  11  22  37  58  91 126 159 200 250 302 353
#     4  10  22  39  62  92 116 155 200 244 304 359
#
# _framework density 18.497101000000001
#
# number of rings (size 3 to 8) (size 9 to 14) (size 15 to 20)
#    0.000    1.733    3.333    2.200    0.000    0.000 
#    0.000   12.000    0.000    0.000    0.000    0.000 
#    0.000    0.000    0.000    0.000    0.000    0.000 
#
# Total GULP energy -167116.019760 kJ/mol
# GULP energy per Si atom -5570.533992 kJ/mol
# Density = 1.845500 g / cm^3
# Si number density = 18.497101 Si / 1000 Ang^3
#
#
#
# Elastic Constant Matrix: (Units=GPa)
#
#
# Indices 1 2 3 4 5 6 
#
# 1 91.5290 45.1982 23.2182 0.0039 -5.2243 0.0014
# 2 45.1982 152.0316 40.4995 0.0008 -2.3982 0.0006
# 3 23.2182 40.4995 58.1272 -0.0151 6.8638 0.0049
# 4 0.0039 0.0008 -0.0151 16.7866 0.0097 0.1740
# 5 -5.2243 -2.3982 6.8638 0.0097 22.3026 0.0001
# 6 0.0014 0.0006 0.0049 0.1740 0.0001 22.1264
#
#
#
# Elastic Compliance Matrix: (Units=1/GPa)
#
#
# Indices 1 2 3 4 5 6 
#
# 1 0.013591 -0.002951 -0.003851 -0.000009 0.004052 0.000000
# 2 -0.002951 0.008877 -0.005227 -0.000006 0.001872 0.000001
# 3 -0.003851 -0.005227 0.023408 0.000027 -0.008668 -0.000005
# 4 -0.000009 -0.000006 0.000027 0.059576 -0.000037 -0.000469
# 5 0.004052 0.001872 -0.008668 -0.000037 0.048656 0.000002
# 6 0.000000 0.000001 -0.000005 -0.000469 0.000002 0.045199
#
#
# Mechanical properties :
#
#
# Convention : Reuss Voigt Hill
#
# Bulk Modulus (GPa) = 45.83618 57.72440 51.78029
# Shear Modulus (GPa) = 21.67911 25.09457 23.38684
#
# Velocity S-wave (km/s) = 3.42720 3.68730 3.55963
# Velocity P-wave (km/s) = 6.36356 7.02875 6.70441
#
# Compressibility (1/GPa) = 0.02181683
#
# Stress axis : x y z
#
# Youngs Moduli (GPa) = 73.57945 112.65314 42.72104
#
# Poissons Ratio (x) = 0.33239 0.16453
# Poissons Ratio (y) = 0.21710 0.22332
# Poissons Ratio (z) = 0.28338 0.58887
#
# Static dielectric constant tensor:
#      x y z
#    x 1.642470 0.000000 -0.003450 
#    y 0.000000 1.657370 0.000000 
#    z -0.003450 0.000000 1.664790 
# 
# From -- ./inp_files/376480.got.cif
#   From: 2010.05.17/outbox.cif.g08.bks.cpg/sg12_189_cif.got.tgz:376480.got - 2010.06.03 13:09:07.
