data_PCOD9193963
_publ_section_title
;
Structure prediction by ZEFSAII (Michael W. Deem and Ramdas Pophale) SiO2 
 PCOD9193963
Probable space group: C 2/M
;
_chemical_formula_sum "Si O2"
_cell_formula_units_Z 60
_cell_length_a 15.956891
_cell_length_b 22.731704
_cell_length_c 8.599686
_cell_angle_alpha 90.000000
_cell_angle_beta 115.760877
_cell_angle_gamma 90.000000
_cell_volume 2809.327702
_symmetry_space_group_name_H-M "C 2/M"
_symmetry_group_IT_number 12
_symmetry_cell_setting 'monoclinic'
loop_
_space_group_symop_operation_xyz
x,y,z
-x,y,-z
-x,-y,-z
x,-y,z
1/2+x,1/2+y,z
1/2-x,1/2+y,-z
1/2-x,1/2-y,-z
1/2+x,1/2-y,z
loop_
_atom_site_type_symbol
_atom_site_label
_atom_site_fract_x
_atom_site_fract_y
_atom_site_fract_z
Si Si1 0.000000 0.150061 0.000000
Si Si2 0.109566 0.231321 0.557047
Si Si3 0.352133 0.625538 0.630680
Si Si4 0.531093 0.065263 0.697427
Si Si5 0.401958 0.929371 0.837658
Si Si6 0.658374 0.328199 0.911101
Si Si7 0.188056 0.649766 0.718701
Si Si8 0.693619 0.569848 0.731298
O O1 0.065532 0.116241 0.177357
O O2 0.930137 0.186598 0.053189
O O3 0.138690 0.192314 0.431547
O O4 0.160317 0.206285 0.751617
O O5 0.134494 0.299747 0.580263
O O6 0.000000 0.222655 0.500000
O O7 0.257767 0.618275 0.653650
O O8 0.350941 0.586932 0.472128
O O9 0.500000 0.056579 0.500000
O O10 0.436067 0.089153 0.696332
O O11 0.617958 0.108040 0.757092
O O12 0.556587 0.000000 0.784316
O O13 0.301871 0.908062 0.810400
O O14 0.391544 0.000000 0.828195
O O15 0.500000 0.914603 0.000000
O O16 0.649235 0.395316 0.839616
O O17 0.745722 0.323126 0.094311
O O18 0.690084 0.500000 0.749614
#
# Coordination Sequence:
#
# PCOD9193963 Si02
#       8
#     4   8   8   8   8   8   8   8
#     4  10  20  42  63  82 112 162 201 248 324 352
#     4  11  21  39  63  85 118 157 199 242 304 366
#     4  10  22  39  62  86 119 158 202 251 306 355
#     4  10  20  34  54  83 122 158 185 226 290 353
#     4   9  17  31  53  79 114 155 190 225 278 347
#     4  10  22  39  62  85 119 157 199 251 304 357
#     4  11  22  36  60  93 120 150 201 251 289 351
#     4  10  21  38  61  88 120 165 206 242 292 362
#
# _framework density 21.357422
#
# number of rings (size 3 to 8) (size 9 to 14) (size 15 to 20)
#    0.000    1.867    1.333    2.800    0.000    3.200 
#    0.000    4.000    4.400    0.000    0.000    0.000 
#    0.000    0.000    0.000    0.000    0.000    0.000 
#
# Total GULP energy -167135.874834 kJ/mol
# GULP energy per Si atom -5571.195828 kJ/mol
# Density = 2.130881 g / cm^3
# Si number density = 21.357422 Si / 1000 Ang^3
#
#
#
# Elastic Constant Matrix: (Units=GPa)
#
#
# Indices 1 2 3 4 5 6 
#
# 1 61.9438 7.5885 21.6053 0.0000 0.9948 0.0000
# 2 7.5885 66.7760 12.1349 0.0000 4.9316 0.0000
# 3 21.6053 12.1349 92.2097 0.0000 -2.9125 0.0000
# 4 0.0000 0.0000 0.0000 15.0108 0.0000 1.4143
# 5 0.9948 4.9316 -2.9125 0.0000 32.8967 0.0000
# 6 0.0000 0.0000 0.0000 1.4143 0.0000 18.9161
#
#
#
# Elastic Compliance Matrix: (Units=1/GPa)
#
#
# Indices 1 2 3 4 5 6 
#
# 1 0.017704 -0.001231 -0.004008 0.000000 -0.000706 0.000000
# 2 -0.001231 0.015633 -0.001847 0.000000 -0.002470 0.000000
# 3 -0.004008 -0.001847 0.012073 0.000000 0.001467 0.000000
# 4 0.000000 0.000000 0.000000 0.067091 0.000000 -0.005016
# 5 -0.000706 -0.002470 0.001467 0.000000 0.030920 0.000000
# 6 0.000000 0.000000 0.000000 -0.005016 0.000000 0.053240
#
#
# Mechanical properties :
#
#
# Convention : Reuss Voigt Hill
#
# Bulk Modulus (GPa) = 32.01278 33.73188 32.87233
# Shear Modulus (GPa) = 22.59913 25.33811 23.96862
#
# Velocity S-wave (km/s) = 3.25643 3.44813 3.35365
# Velocity P-wave (km/s) = 5.40007 5.62859 5.51552
#
# Compressibility (1/GPa) = 0.03123753
#
# Stress axis : x y z
#
# Youngs Moduli (GPa) = 56.48470 63.96562 82.82664
#
# Poissons Ratio (x) = 0.07876 0.33200
# Poissons Ratio (y) = 0.06955 0.15297
# Poissons Ratio (z) = 0.22641 0.11814
#
# Static dielectric constant tensor:
#      x y z
#    x 1.752210 0.000000 0.022220 
#    y 0.000000 1.865720 0.000000 
#    z 0.022220 0.000000 1.820180 
# 
# From -- ./inp_files/65924.got.cif
#   From: 2010.05.17/outbox.cif.g08.bks.cpg/sg12_33_cif.got.tgz:65924.got - 2010.06.03 13:09:07.
