data_PCOD9193731
_publ_section_title
;
Structure prediction by ZEFSAII (Michael W. Deem and Ramdas Pophale) SiO2 
 PCOD9193731
Probable space group: C 2/M
;
_chemical_formula_sum "Si O2"
_cell_formula_units_Z 56
_cell_length_a 13.431170
_cell_length_b 11.307909
_cell_length_c 17.662527
_cell_angle_alpha 90.000000
_cell_angle_beta 80.074219
_cell_angle_gamma 90.000000
_cell_volume 2642.404312
_symmetry_space_group_name_H-M "C 2/M"
_symmetry_group_IT_number 12
_symmetry_cell_setting 'monoclinic'
loop_
_space_group_symop_operation_xyz
x,y,z
-x,y,-z
-x,-y,-z
x,-y,z
1/2+x,1/2+y,z
1/2-x,1/2+y,-z
1/2-x,1/2-y,-z
1/2+x,1/2-y,z
loop_
_atom_site_type_symbol
_atom_site_label
_atom_site_fract_x
_atom_site_fract_y
_atom_site_fract_z
Si Si1 0.225657 0.135392 0.396556
Si Si2 0.673180 0.299637 0.901976
Si Si3 0.202732 0.873066 0.218973
Si Si4 0.999815 0.205674 0.824402
Si Si5 0.902087 0.364875 0.566497
Si Si6 0.373901 0.132560 0.953921
Si Si7 0.447096 0.865386 0.319719
O O1 0.202703 0.137589 0.309337
O O2 0.169540 0.251151 0.436686
O O3 0.347105 0.148533 0.384418
O O4 0.199288 0.000000 0.426552
O O5 0.734628 0.227422 0.830508
O O6 0.580735 0.356926 0.868367
O O7 0.759079 0.369528 0.935962
O O8 0.628656 0.209674 0.969900
O O9 0.089876 0.868863 0.200626
O O10 0.249223 0.000000 0.193197
O O11 0.052997 0.272834 0.747852
O O12 0.943457 0.303159 0.883286
O O13 0.858920 0.500000 0.564877
O O14 0.000000 0.359539 0.500000
O O15 0.951810 0.354247 0.643711
O O16 0.406512 0.000000 0.963005
O O17 0.443089 0.000000 0.290781
#
# Coordination Sequence:
#
# PCOD9193731 Si02
#       7
#     8   8   8   8   8   8   8
#     4  10  20  37  60  86 115 150 193 235 280 339
#     4  10  21  36  53  76 109 144 184 232 285 335
#     4  10  20  34  54  79 109 145 184 232 285 337
#     4  11  20  34  55  80 108 142 190 234 278 331
#     4  10  22  41  62  87 121 155 186 229 287 344
#     4  10  22  36  52  77 108 143 186 233 279 332
#     4  10  20  35  58  84 114 152 190 231 283 339
#
# _framework density 21.192820999999999
#
# number of rings (size 3 to 8) (size 9 to 14) (size 15 to 20)
#    0.000    1.857    2.857    1.286    0.000    3.714 
#    0.000    1.429    0.000    5.143    0.000    0.000 
#    0.000    0.000    0.000    0.000    0.000    0.000 
#
# Total GULP energy -156254.312432 kJ/mol
# GULP energy per Si atom -5580.511158 kJ/mol
# Density = 2.114458 g / cm^3
# Si number density = 21.192821 Si / 1000 Ang^3
#
#
#
# Elastic Constant Matrix: (Units=GPa)
#
#
# Indices 1 2 3 4 5 6 
#
# 1 96.4588 21.2625 3.1097 0.0000 15.2334 0.0000
# 2 21.2625 128.0743 23.9298 0.0000 -16.0888 0.0000
# 3 3.1097 23.9298 51.3005 0.0000 4.6774 0.0000
# 4 0.0000 0.0000 0.0000-3874.1349 0.0000 138.6873
# 5 15.2334 -16.0888 4.6774 0.0000 34.2850 0.0000
# 6 0.0000 0.0000 0.0000 138.6873 0.0000 1.8405
#
#
#
# Elastic Compliance Matrix: (Units=1/GPa)
#
#
# Indices 1 2 3 4 5 6 
#
# 1 0.012135 -0.003160 0.001383 0.000000 -0.007063 0.000000
# 2 -0.003160 0.010164 -0.005177 0.000000 0.006880 0.000000
# 3 0.001383 -0.005177 0.022380 0.000000 -0.006097 0.000000
# 4 0.000000 0.000000 0.000000 -0.000070 0.000000 0.005260
# 5 -0.007063 0.006880 -0.006097 0.000000 0.036366 0.000000
# 6 0.000000 0.000000 0.000000 0.005260 0.000000 0.146945
#
#
# Mechanical properties :
#
#
# Convention : Reuss Voigt Hill
#
# Bulk Modulus (GPa) = 32.49968 41.38196 36.94082
# Shear Modulus (GPa) = 19.83455 -752.43311 -366.29928
#
# Velocity S-wave (km/s) = 3.06258 -18.86299 -13.16117
# Velocity P-wave (km/s) = 5.27962 21.32716 14.61118
#
# Compressibility (1/GPa) = 0.03076953
#
# Stress axis : x y z
#
# Youngs Moduli (GPa) = 82.40895 98.38498 44.68293
#
# Poissons Ratio (x) = 0.31091 -0.06177
# Poissons Ratio (y) = 0.26042 0.23132
# Poissons Ratio (z) = -0.11393 0.50933
#
# Static dielectric constant tensor:
#      x y z
#    x 1.817250 0.000000 0.027610 
#    y 0.000000 1.733320 0.000000 
#    z 0.027610 0.000000 1.735350 
# 
# From -- ./inp_files/304311.got.cif
#   From: 2010.05.17/outbox.cif.g08.bks.cpg/sg12_153_cif.got.tgz:304311.got - 2010.06.03 13:09:07.
