data_PCOD9193932
_publ_section_title
;
Structure prediction by ZEFSAII (Michael W. Deem and Ramdas Pophale) SiO2 
 PCOD9193932
Probable space group: C 2/M
;
_chemical_formula_sum "Si O2"
_cell_formula_units_Z 48
_cell_length_a 24.260006
_cell_length_b 7.571756
_cell_length_c 11.913558
_cell_angle_alpha 90.000000
_cell_angle_beta 109.076227
_cell_angle_gamma 90.000000
_cell_volume 2068.234050
_symmetry_space_group_name_H-M "C 2/M"
_symmetry_group_IT_number 12
_symmetry_cell_setting 'monoclinic'
loop_
_space_group_symop_operation_xyz
x,y,z
-x,y,-z
-x,-y,-z
x,-y,z
1/2+x,1/2+y,z
1/2-x,1/2+y,-z
1/2-x,1/2-y,-z
1/2+x,1/2-y,z
loop_
_atom_site_type_symbol
_atom_site_label
_atom_site_fract_x
_atom_site_fract_y
_atom_site_fract_z
Si Si1 0.877068 0.208477 0.644590
Si Si2 0.918730 0.291853 0.189197
Si Si3 0.768834 0.713449 0.705009
Si Si4 0.690929 0.788550 0.028024
Si Si5 0.028510 0.201319 0.130576
Si Si6 0.865599 0.213942 0.392196
O O1 0.809145 0.228809 0.629132
O O2 0.889194 0.277758 0.528105
O O3 0.915820 0.285979 0.771394
O O4 0.890572 0.000000 0.651039
O O5 0.925947 0.500000 0.172237
O O6 0.977964 0.201370 0.190156
O O7 0.901142 0.268700 0.306627
O O8 0.865147 0.222460 0.077031
O O9 0.767979 0.500000 0.705085
O O10 0.799959 0.777945 0.839892
O O11 0.701896 0.773092 0.661571
O O12 0.684997 0.000000 0.029999
O O13 0.750000 0.750000 0.000000
O O14 0.044655 0.000000 0.108758
O O15 0.000000 0.284009 0.000000
O O16 0.865103 0.000000 0.393512
#
# Coordination Sequence:
#
# PCOD9193932 Si02
#       6
#     8   8   8   8   8   8
#     4  10  22  38  58  84 111 149 197 236 278 335
#     4  11  23  37  58  88 117 148 189 236 282 331
#     4  10  20  35  57  84 115 150 184 229 290 339
#     4  10  20  34  54  83 114 144 182 226 276 332
#     4  10  22  41  62  83 111 150 192 234 284 340
#     4  10  21  38  58  82 116 153 189 232 282 340
#
# _framework density 23.208205
#
# number of rings (size 3 to 8) (size 9 to 14) (size 15 to 20)
#    0.000    1.833    1.667    2.000    0.000    4.333 
#    0.000    3.333    0.000    0.000    0.000    0.000 
#    0.000    0.000    0.000    0.000    0.000    0.000 
#
# Total GULP energy -134184.446080 kJ/mol
# GULP energy per Si atom -5591.018587 kJ/mol
# Density = 2.315538 g / cm^3
# Si number density = 23.208205 Si / 1000 Ang^3
#
#
#
# Elastic Constant Matrix: (Units=GPa)
#
#
# Indices 1 2 3 4 5 6 
#
# 1 91.0348 -11.0931 22.1851 0.0000 -4.8084 0.0000
# 2 -11.0931 61.6163 7.9709 0.0000 5.5495 0.0000
# 3 22.1851 7.9709 129.5394 0.0000 -12.2822 0.0000
# 4 0.0000 0.0000 0.0000 4.7214 0.0000 -5.3659
# 5 -4.8084 5.5495 -12.2822 0.0000 32.0863 0.0000
# 6 0.0000 0.0000 0.0000 -5.3659 0.0000 20.8158
#
#
#
# Elastic Compliance Matrix: (Units=1/GPa)
#
#
# Indices 1 2 3 4 5 6 
#
# 1 0.011816 0.002351 -0.002116 0.000000 0.000554 0.000000
# 2 0.002351 0.017179 -0.001772 0.000000 -0.003297 0.000000
# 3 -0.002116 -0.001772 0.008499 0.000000 0.003243 0.000000
# 4 0.000000 0.000000 0.000000 0.299563 0.000000 0.077221
# 5 0.000554 -0.003297 0.003243 0.000000 0.033060 0.000000
# 6 0.000000 0.000000 0.000000 0.077221 0.000000 0.067946
#
#
# Mechanical properties :
#
#
# Convention : Reuss Voigt Hill
#
# Bulk Modulus (GPa) = 29.05315 35.59070 32.32193
# Shear Modulus (GPa) = 11.04702 29.06654 20.05678
#
# Velocity S-wave (km/s) = 2.18410 3.54280 2.94294
# Velocity P-wave (km/s) = 4.34811 5.66603 5.05025
#
# Compressibility (1/GPa) = 0.03441967
#
# Stress axis : x y z
#
# Youngs Moduli (GPa) = 84.62965 58.21058 117.66760
#
# Poissons Ratio (x) = -0.13686 0.24896
# Poissons Ratio (y) = -0.19897 0.20855
# Poissons Ratio (z) = 0.17906 0.10317
#
# Static dielectric constant tensor:
#      x y z
#    x 1.824920 0.000000 0.030100 
#    y 0.000000 1.907290 0.000000 
#    z 0.030100 0.000000 1.909040 
# 
# From -- ./inp_files/172960.got.cif
#   From: 2010.05.17/outbox.cif.g08.bks.cpg/sg12_87_cif.got.tgz:172960.got - 2010.06.03 13:09:07.
