data_PCOD9193781
_publ_section_title
;
Structure prediction by ZEFSAII (Michael W. Deem and Ramdas Pophale) SiO2 
 PCOD9193781
Probable space group: C 2/M
;
_chemical_formula_sum "Si O2"
_cell_formula_units_Z 48
_cell_length_a 8.627413
_cell_length_b 12.352755
_cell_length_c 16.212138
_cell_angle_alpha 90.000000
_cell_angle_beta 80.290663
_cell_angle_gamma 90.000000
_cell_volume 1703.016634
_symmetry_space_group_name_H-M "C 2/M"
_symmetry_group_IT_number 12
_symmetry_cell_setting 'monoclinic'
loop_
_space_group_symop_operation_xyz
x,y,z
-x,y,-z
-x,-y,-z
x,-y,z
1/2+x,1/2+y,z
1/2-x,1/2+y,-z
1/2-x,1/2-y,-z
1/2+x,1/2-y,z
loop_
_atom_site_type_symbol
_atom_site_label
_atom_site_fract_x
_atom_site_fract_y
_atom_site_fract_z
Si Si1 0.823981 0.849347 0.081221
Si Si2 0.226842 0.617849 0.559071
Si Si3 0.284672 0.887674 0.085325
Si Si4 0.938543 0.626084 0.769002
Si Si5 0.990499 0.120576 0.772361
Si Si6 0.644341 0.170115 0.389772
O O1 0.869292 0.724526 0.070652
O O2 0.649628 0.863122 0.136325
O O3 0.925394 0.891798 0.146951
O O4 0.820733 0.890059 0.988557
O O5 0.266069 0.500000 0.584478
O O6 0.330496 0.703239 0.598240
O O7 0.243331 0.625527 0.458297
O O8 0.039550 0.638549 0.586205
O O9 0.191870 0.878736 0.180272
O O10 0.373832 0.000000 0.078356
O O11 0.003442 0.500000 0.757350
O O12 0.015905 0.748757 0.745727
O O13 0.812281 0.629007 0.704090
O O14 0.009505 0.000000 0.727715
#
# Coordination Sequence:
#
# PCOD9193781 Si02
#       6
#     8   8   8   8   8   8
#     4  10  20  34  54  80 110 146 191 245 299 358
#     4  10  21  43  68  93 129 170 215 265 318 383
#     4   9  18  34  54  76 106 147 194 240 293 359
#     4  11  23  37  56  85 118 152 193 248 311 367
#     4  10  21  36  55  79 111 152 195 240 297 363
#     4  10  22  40  66  95 126 168 213 261 318 385
#
# _framework density 28.185279999999999
#
# number of rings (size 3 to 8) (size 9 to 14) (size 15 to 20)
#    0.000    2.000    0.000    4.000    2.333    2.667 
#    0.000    8.333    0.000    6.000    0.000    0.000 
#    0.000    0.000    0.000    0.000    0.000    0.000 
#
# Total GULP energy -133821.538966 kJ/mol
# GULP energy per Si atom -5575.897457 kJ/mol
# Density = 2.812113 g / cm^3
# Si number density = 28.185280 Si / 1000 Ang^3
#
#
#
# Elastic Constant Matrix: (Units=GPa)
#
#
# Indices 1 2 3 4 5 6 
#
# 1 26.6252 40.6258 16.5102 0.0000 15.7872 0.0000
# 2 40.6258 338.0042 27.5749 0.0000 13.7143 0.0000
# 3 16.5102 27.5749 137.2794 0.0000 11.9400 0.0000
# 4 0.0000 0.0000 0.0000 -249.7081 0.0000-1024.4880
# 5 15.7872 13.7143 11.9400 0.0000 33.8140 0.0000
# 6 0.0000 0.0000 0.0000-1024.4880 0.0000-4723.5630
#
#
#
# Elastic Compliance Matrix: (Units=1/GPa)
#
#
# Indices 1 2 3 4 5 6 
#
# 1 0.065921 -0.006492 -0.004309 0.000000 -0.026623 0.000000
# 2 -0.006492 0.003683 -0.000096 0.000000 0.001571 0.000000
# 3 -0.004309 -0.000096 0.007886 0.000000 -0.000734 0.000000
# 4 0.000000 0.000000 0.000000 -0.036353 0.000000 0.007885
# 5 -0.026623 0.001571 -0.000734 0.000000 0.041626 0.000000
# 6 0.000000 0.000000 0.000000 0.007885 0.000000 -0.001922
#
#
# Mechanical properties :
#
#
# Convention : Reuss Voigt Hill
#
# Bulk Modulus (GPa) = 17.95393 74.59229 46.27311
# Shear Modulus (GPa) = 41.25462 -960.07823 -459.41181
#
# Velocity S-wave (km/s) = 3.82998 -18.47622 -12.78088
# Velocity P-wave (km/s) = 5.09334 20.70358 14.18972
#
# Compressibility (1/GPa) = 0.05569812
#
# Stress axis : x y z
#
# Youngs Moduli (GPa) = 15.16959 271.52855 126.81236
#
# Poissons Ratio (x) = 1.76265 0.54639
# Poissons Ratio (y) = 0.09847 0.01213
# Poissons Ratio (z) = 0.06536 0.02598
#
# Static dielectric constant tensor:
#      x y z
#    x 2.391470 0.000000 -0.080180 
#    y 0.000000 2.220140 0.000000 
#    z -0.080180 0.000000 2.172280 
# 
# From -- ./inp_files/261721.got.cif
#   From: 2010.05.17/outbox.cif.g08.bks.cpg/sg12_131_cif.got.tgz:261721.got - 2010.06.03 13:09:07.
