data_PCOD9193734
_publ_section_title
;
Structure prediction by ZEFSAII (Michael W. Deem and Ramdas Pophale) SiO2 
 PCOD9193734
Probable space group: C 2/M
;
_chemical_formula_sum "Si O2"
_cell_formula_units_Z 56
_cell_length_a 15.512400
_cell_length_b 8.936553
_cell_length_c 24.589462
_cell_angle_alpha 90.000000
_cell_angle_beta 52.829612
_cell_angle_gamma 90.000000
_cell_volume 2716.254314
_symmetry_space_group_name_H-M "C 2/M"
_symmetry_group_IT_number 12
_symmetry_cell_setting 'monoclinic'
loop_
_space_group_symop_operation_xyz
x,y,z
-x,y,-z
-x,-y,-z
x,-y,z
1/2+x,1/2+y,z
1/2-x,1/2+y,-z
1/2-x,1/2-y,-z
1/2+x,1/2-y,z
loop_
_atom_site_type_symbol
_atom_site_label
_atom_site_fract_x
_atom_site_fract_y
_atom_site_fract_z
Si Si1 0.607457 0.682132 0.928199
Si Si2 0.673567 0.328248 0.452052
Si Si3 0.735637 0.174473 0.695217
Si Si4 0.549589 0.678535 0.829007
Si Si5 0.154163 0.678379 0.140007
Si Si6 0.410732 0.672506 0.723708
Si Si7 0.087842 0.669871 0.585146
O O1 0.607646 0.500000 0.929285
O O2 0.598934 0.726207 0.868288
O O3 0.721030 0.729558 0.911063
O O4 0.500000 0.733734 0.000000
O O5 0.634344 0.500000 0.463415
O O6 0.698358 0.268912 0.382315
O O7 0.791291 0.331497 0.436116
O O8 0.597031 0.234326 0.520748
O O9 0.626580 0.260425 0.751862
O O10 0.813283 0.181079 0.717633
O O11 0.708900 0.000000 0.694065
O O12 0.546987 0.500000 0.828126
O O13 0.429620 0.742958 0.868199
O O14 0.148925 0.500000 0.135343
O O15 0.114967 0.724082 0.215288
O O16 0.422629 0.500000 0.737091
O O17 0.515177 0.727439 0.651165
O O18 0.046403 0.500000 0.601182
#
# Coordination Sequence:
#
# PCOD9193734 Si02
#       7
#     8   8   8   8   8   8   8
#     4   9  20  40  64  91 126 164 200 243 298 359
#     4   9  19  36  54  74 105 148 195 245 302 360
#     4  10  21  37  58  83 115 155 200 252 305 357
#     4  11  22  38  63  93 123 160 206 251 297 357
#     4  11  22  39  63  90 123 163 203 248 303 359
#     4  11  22  36  57  84 116 153 199 253 303 358
#     4  10  20  34  54  79 110 149 195 247 303 363
#
# _framework density 20.616627000000001
#
# number of rings (size 3 to 8) (size 9 to 14) (size 15 to 20)
#    0.000    1.857    1.429    2.571    0.000    4.000 
#    0.000    2.857    0.000    6.000    0.000    0.000 
#    0.000    0.000    0.000    0.000    0.000    0.000 
#
# Total GULP energy -156467.115752 kJ/mol
# GULP energy per Si atom -5588.111277 kJ/mol
# Density = 2.056970 g / cm^3
# Si number density = 20.616627 Si / 1000 Ang^3
#
#
#
# Elastic Constant Matrix: (Units=GPa)
#
#
# Indices 1 2 3 4 5 6 
#
# 1 53.0930 10.3484 -11.4897 0.0000 -16.9696 0.0000
# 2 10.3484 37.7944 -2.1960 0.0000 -6.8303 0.0000
# 3 -11.4897 -2.1960 45.0759 0.0000 -16.1370 0.0000
# 4 0.0000 0.0000 0.0000 17.3914 0.0000 0.6606
# 5 -16.9696 -6.8303 -16.1370 0.0000 30.1867 0.0000
# 6 0.0000 0.0000 0.0000 0.6606 0.0000 20.7864
#
#
#
# Elastic Compliance Matrix: (Units=1/GPa)
#
#
# Indices 1 2 3 4 5 6 
#
# 1 0.031583 -0.002871 0.017355 0.000000 0.026382 0.000000
# 2 -0.002871 0.028581 0.002965 0.000000 0.006438 0.000000
# 3 0.017355 0.002965 0.037701 0.000000 0.030581 0.000000
# 4 0.000000 0.000000 0.000000 0.057569 0.000000 -0.001830
# 5 0.026382 0.006438 0.030581 0.000000 0.065763 0.000000
# 6 0.000000 0.000000 0.000000 -0.001830 0.000000 0.048167
#
#
# Mechanical properties :
#
#
# Convention : Reuss Voigt Hill
#
# Bulk Modulus (GPa) = 7.53222 14.36540 10.94881
# Shear Modulus (GPa) = 17.93922 22.95961 20.44942
#
# Velocity S-wave (km/s) = 2.95300 3.34075 3.15284
# Velocity P-wave (km/s) = 3.91003 4.67588 4.31000
#
# Compressibility (1/GPa) = 0.13276297
#
# Stress axis : x y z
#
# Youngs Moduli (GPa) = 31.66301 34.98833 26.52451
#
# Poissons Ratio (x) = 0.10046 -0.46034
# Poissons Ratio (y) = 0.09091 -0.07865
# Poissons Ratio (z) = -0.54952 -0.10375
#
# Static dielectric constant tensor:
#      x y z
#    x 1.758690 0.000000 0.001810 
#    y 0.000000 1.704860 0.000000 
#    z 0.001810 0.000000 1.720760 
# 
# From -- ./inp_files/338458.got.cif
#   From: 2010.05.17/outbox.cif.g08.bks.cpg/sg12_170_cif.got.tgz:338458.got - 2010.06.03 13:09:07.
