data_PCOD9193738
_publ_section_title
;
Structure prediction by ZEFSAII (Michael W. Deem and Ramdas Pophale) SiO2 
 PCOD9193738
Probable space group: C 2/M
;
_chemical_formula_sum "Si O2"
_cell_formula_units_Z 64
_cell_length_a 9.034306
_cell_length_b 23.785592
_cell_length_c 28.701061
_cell_angle_alpha 90.000000
_cell_angle_beta 147.880971
_cell_angle_gamma 90.000000
_cell_volume 3279.117293
_symmetry_space_group_name_H-M "C 2/M"
_symmetry_group_IT_number 12
_symmetry_cell_setting 'monoclinic'
loop_
_space_group_symop_operation_xyz
x,y,z
-x,y,-z
-x,-y,-z
x,-y,z
1/2+x,1/2+y,z
1/2-x,1/2+y,-z
1/2-x,1/2-y,-z
1/2+x,1/2-y,z
loop_
_atom_site_type_symbol
_atom_site_label
_atom_site_fract_x
_atom_site_fract_y
_atom_site_fract_z
Si Si1 0.183526 0.682256 0.595577
Si Si2 0.873353 0.648116 0.916789
Si Si3 0.363224 0.239739 0.322802
Si Si4 0.898784 0.565305 0.743128
Si Si5 0.737801 0.725853 0.133947
Si Si6 0.688354 0.117994 0.909001
Si Si7 0.226089 0.937791 0.394297
Si Si8 0.768052 0.849942 0.782562
O O1 0.470651 0.708588 0.654166
O O2 0.069119 0.720244 0.606995
O O3 0.230205 0.618153 0.624472
O O4 0.000000 0.682505 0.500000
O O5 0.903060 0.715927 0.917756
O O6 0.547811 0.631452 0.831078
O O7 0.030069 0.620934 0.915346
O O8 0.000000 0.631825 0.000000
O O9 0.406687 0.187624 0.299718
O O10 0.039916 0.255337 0.233200
O O11 0.956338 0.500000 0.749641
O O12 0.562835 0.572138 0.654562
O O13 0.015556 0.583526 0.824776
O O14 0.069712 0.604174 0.752969
O O15 0.777045 0.681149 0.103072
O O16 0.615445 0.690696 0.144697
O O17 0.000000 0.095707 0.000000
O O18 0.500000 0.939904 0.500000
O O19 0.200104 0.000000 0.365231
#
# Coordination Sequence:
#
# PCOD9193738 Si02
#       8
#     8   8   8   8   8   8   8   8
#     4  11  22  36  58  88 125 162 201 250 307 372
#     4  11  21  33  53  84 120 153 195 245 300 360
#     4  11  21  35  55  87 123 162 197 248 306 373
#     4  10  22  42  65  85 115 161 204 253 310 369
#     4  10  20  34  54  79 116 162 197 240 297 361
#     4  11  23  37  58  86 121 160 206 248 299 370
#     4   9  20  39  66  93 117 155 210 260 300 353
#     4  10  21  35  57  84 117 156 193 251 306 362
#
# _framework density 19.517448000000002
#
# number of rings (size 3 to 8) (size 9 to 14) (size 15 to 20)
#    0.000    1.625    1.250    5.250    5.250    1.750 
#    0.000    1.250    0.000    1.500    0.000    4.375 
#    0.000    0.000    0.000    0.000    0.000    0.000 
#
# Total GULP energy -178607.755198 kJ/mol
# GULP energy per Si atom -5581.492350 kJ/mol
# Density = 1.947303 g / cm^3
# Si number density = 19.517448 Si / 1000 Ang^3
#
#
#
# Elastic Constant Matrix: (Units=GPa)
#
#
# Indices 1 2 3 4 5 6 
#
# 1 107.2399 20.6284 32.9461 0.0006 -1.4483 0.0000
# 2 20.6284 69.7825 25.3045 0.0002 3.0084 0.0009
# 3 32.9461 25.3045 81.5238 0.0012 8.7469 0.0029
# 4 0.0006 0.0002 0.0012 14.5602 0.0002 8.6651
# 5 -1.4483 3.0084 8.7469 0.0002 29.9350 0.0004
# 6 0.0000 0.0009 0.0029 8.6651 0.0004 15.4358
#
#
#
# Elastic Compliance Matrix: (Units=1/GPa)
#
#
# Indices 1 2 3 4 5 6 
#
# 1 0.010952 -0.001849 -0.004056 -0.000001 0.001901 0.000001
# 2 -0.001849 0.016461 -0.004310 0.000000 -0.000484 0.000000
# 3 -0.004056 -0.004310 0.015711 0.000001 -0.004354 -0.000003
# 4 -0.000001 0.000000 0.000001 0.103136 0.000000 -0.057897
# 5 0.001901 -0.000484 -0.004354 0.000000 0.034818 0.000000
# 6 0.000001 0.000000 -0.000003 -0.057897 0.000000 0.097286
#
#
# Mechanical properties :
#
#
# Convention : Reuss Voigt Hill
#
# Bulk Modulus (GPa) = 44.06614 46.25603 45.16108
# Shear Modulus (GPa) = 16.32074 23.96401 20.14238
#
# Velocity S-wave (km/s) = 2.89487 3.50784 3.21599
# Velocity P-wave (km/s) = 5.81382 6.33702 6.08105
#
# Compressibility (1/GPa) = 0.02269316
#
# Stress axis : x y z
#
# Youngs Moduli (GPa) = 91.30471 60.75130 63.65129
#
# Poissons Ratio (x) = 0.11231 0.25819
# Poissons Ratio (y) = 0.16879 0.27435
# Poissons Ratio (z) = 0.37036 0.26185
#
# Static dielectric constant tensor:
#      x y z
#    x 1.683160 0.000000 0.008400 
#    y 0.000000 1.703500 0.000000 
#    z 0.008400 0.000000 1.707510 
# 
# From -- ./inp_files/373302.got.cif
#   From: 2010.05.17/outbox.cif.g08.bks.cpg/sg12_187_cif.got.tgz:373302.got - 2010.06.03 13:09:07.
