data_PCOD9193804
_publ_section_title
;
Structure prediction by ZEFSAII (Michael W. Deem and Ramdas Pophale) SiO2 
 PCOD9193804
Probable space group: C 2/M
;
_chemical_formula_sum "Si O2"
_cell_formula_units_Z 48
_cell_length_a 22.278327
_cell_length_b 7.752652
_cell_length_c 13.625508
_cell_angle_alpha 90.000000
_cell_angle_beta 111.597834
_cell_angle_gamma 90.000000
_cell_volume 2188.117431
_symmetry_space_group_name_H-M "C 2/M"
_symmetry_group_IT_number 12
_symmetry_cell_setting 'monoclinic'
loop_
_space_group_symop_operation_xyz
x,y,z
-x,y,-z
-x,-y,-z
x,-y,z
1/2+x,1/2+y,z
1/2-x,1/2+y,-z
1/2-x,1/2-y,-z
1/2+x,1/2-y,z
loop_
_atom_site_type_symbol
_atom_site_label
_atom_site_fract_x
_atom_site_fract_y
_atom_site_fract_z
Si Si1 0.037493 0.711070 0.922541
Si Si2 0.781744 0.291962 0.625585
Si Si3 0.674325 0.290592 0.713354
Si Si4 0.575012 0.196591 0.282919
Si Si5 0.175696 0.303195 0.938392
Si Si6 0.930483 0.196627 0.505172
O O1 0.041333 0.500000 0.921533
O O2 0.111272 0.775816 0.951242
O O3 0.988438 0.770916 0.807132
O O4 0.000000 0.757113 0.000000
O O5 0.784847 0.500000 0.627817
O O6 0.750000 0.250000 0.500000
O O7 0.738066 0.239593 0.691512
O O8 0.853996 0.222715 0.685985
O O9 0.673354 0.500000 0.722566
O O10 0.665986 0.215177 0.815817
O O11 0.617720 0.236525 0.605899
O O12 0.566549 0.197688 0.394176
O O13 0.579753 0.000000 0.248117
O O14 0.175075 0.500000 0.970398
O O15 0.250000 0.250000 0.000000
O O16 0.000000 0.188539 0.500000
O O17 0.909439 0.000000 0.517927
#
# Coordination Sequence:
#
# PCOD9193804 Si02
#       6
#     8   8   8   8   8   8
#     4   9  20  39  63  87 113 151 199 246 293 347
#     4  10  20  34  56  86 118 155 195 236 288 345
#     4  10  21  37  57  83 119 156 193 236 290 350
#     4  10  20  34  57  86 112 146 196 246 286 336
#     4  11  24  41  64  90 117 152 196 246 300 354
#     4  10  20  34  54  80 113 155 188 225 290 356
#
# _framework density 21.936665000000001
#
# number of rings (size 3 to 8) (size 9 to 14) (size 15 to 20)
#    0.000    2.000    1.667    1.500    2.333    1.667 
#    0.000    0.833    0.000    2.500    0.000    0.000 
#    0.000    0.000    0.000    0.000    0.000    0.000 
#
# Total GULP energy -133865.066786 kJ/mol
# GULP energy per Si atom -5577.711116 kJ/mol
# Density = 2.188674 g / cm^3
# Si number density = 21.936665 Si / 1000 Ang^3
#
#
#
# Elastic Constant Matrix: (Units=GPa)
#
#
# Indices 1 2 3 4 5 6 
#
# 1 205.5519 11.5673 70.8331 0.0000 18.2128 0.0000
# 2 11.5673 29.2464 -4.2610 0.0000 9.3623 0.0000
# 3 70.8331 -4.2610 99.4225 0.0000 21.4831 0.0000
# 4 0.0000 0.0000 0.0000 22.6229 0.0000 3.0196
# 5 18.2128 9.3623 21.4831 0.0000 38.0437 0.0000
# 6 0.0000 0.0000 0.0000 3.0196 0.0000 11.4521
#
#
#
# Elastic Compliance Matrix: (Units=1/GPa)
#
#
# Indices 1 2 3 4 5 6 
#
# 1 0.006776 -0.003587 -0.005092 0.000000 0.000514 0.000000
# 2 -0.003587 0.040511 0.006919 0.000000 -0.012160 0.000000
# 3 -0.005092 0.006919 0.015745 0.000000 -0.008156 0.000000
# 4 0.000000 0.000000 0.000000 0.045815 0.000000 -0.012080
# 5 0.000514 -0.012160 -0.008156 0.000000 0.033637 0.000000
# 6 0.000000 0.000000 0.000000 -0.012080 0.000000 0.090506
#
#
# Mechanical properties :
#
#
# Convention : Reuss Voigt Hill
#
# Bulk Modulus (GPa) = 16.80326 54.49995 35.65161
# Shear Modulus (GPa) = 19.50468 31.49583 25.50025
#
# Velocity S-wave (km/s) = 2.98507 3.79326 3.41317
# Velocity P-wave (km/s) = 4.42238 6.63952 5.64095
#
# Compressibility (1/GPa) = 0.05951225
#
# Stress axis : x y z
#
# Youngs Moduli (GPa) = 147.57836 24.68442 63.51211
#
# Poissons Ratio (x) = 0.08853 0.32343
# Poissons Ratio (y) = 0.52931 -0.43944
# Poissons Ratio (z) = 0.75153 -0.17079
#
# Static dielectric constant tensor:
#      x y z
#    x 1.871970 0.000000 0.036580 
#    y 0.000000 1.877150 0.000000 
#    z 0.036580 0.000000 1.769700 
# 
# From -- ./inp_files/173048.got.cif
#   From: 2010.05.17/outbox.cif.g08.bks.cpg/sg12_87_cif.got.tgz:173048.got - 2010.06.03 13:09:07.
