data_PCOD9193021
_publ_section_title
;
Structure prediction by ZEFSAII (Michael W. Deem and Ramdas Pophale) SiO2 
 PCOD9193021
Probable space group: C 2/M
;
_chemical_formula_sum "Si O2"
_cell_formula_units_Z 64
_cell_length_a 32.545156
_cell_length_b 8.653434
_cell_length_c 26.225575
_cell_angle_alpha 90.000000
_cell_angle_beta 150.242913
_cell_angle_gamma 90.000000
_cell_volume 3665.768551
_symmetry_space_group_name_H-M "C 2/M"
_symmetry_group_IT_number 12
_symmetry_cell_setting 'monoclinic'
loop_
_space_group_symop_operation_xyz
x,y,z
-x,y,-z
-x,-y,-z
x,-y,z
1/2+x,1/2+y,z
1/2-x,1/2+y,-z
1/2-x,1/2-y,-z
1/2+x,1/2-y,z
loop_
_atom_site_type_symbol
_atom_site_label
_atom_site_fract_x
_atom_site_fract_y
_atom_site_fract_z
Si Si1 0.388167 0.314920 0.024779
Si Si2 0.007769 0.314766 0.769655
Si Si3 0.761748 0.813564 0.271084
Si Si4 0.043696 0.686476 0.692982
Si Si5 0.329609 0.685337 0.557040
Si Si6 0.924529 0.686734 0.954712
Si Si7 0.366159 0.686521 0.481020
Si Si8 0.701910 0.186578 0.798856
O O1 0.391417 0.500000 0.030335
O O2 0.428164 0.257019 0.015030
O O3 0.291407 0.266558 0.917797
O O4 0.435247 0.246113 0.123712
O O5 0.003929 0.500000 0.767318
O O6 0.042641 0.267878 0.751473
O O7 0.914960 0.248237 0.672709
O O8 0.664828 0.768976 0.164935
O O9 0.809166 0.760899 0.372822
O O10 0.802072 0.749602 0.262843
O O11 0.765025 0.000000 0.273198
O O12 0.041170 0.500000 0.688467
O O13 0.125209 0.738781 0.750759
O O14 0.959272 0.750448 0.577909
O O15 0.329470 0.500000 0.559210
O O16 0.250000 0.750000 0.500000
O O17 0.331389 0.732641 0.499167
O O18 0.926526 0.500000 0.961177
O O19 0.000000 0.735020 0.000000
O O20 0.369103 0.500000 0.483332
O O21 0.700875 0.000000 0.795837
#
# Coordination Sequence:
#
# PCOD9193021 Si02
#       8
#     8   8   8   8   8   8   8   8
#     4  10  20  34  52  75 104 134 166 209 258 306
#     4  10  20  35  54  75 101 134 172 212 252 299
#     4   9  18  33  51  73 100 130 166 205 247 298
#     4   9  19  35  53  73  99 132 170 209 250 300
#     4  10  20  35  54  77 105 136 170 209 254 302
#     4   9  18  33  53  75 100 133 171 208 248 299
#     4   9  19  34  51  73 103 135 167 207 252 297
#     4   9  19  35  52  73 102 133 165 206 255 302
#
# _framework density 17.458821
#
# number of rings (size 3 to 8) (size 9 to 14) (size 15 to 20)
#    0.000    2.625    0.000    1.125    0.000    4.750 
#    0.000    5.000    0.000    0.000    0.000    0.000 
#    0.000    0.000    0.000    0.000    0.000    0.000 
#
# Total GULP energy -178498.963370 kJ/mol
# GULP energy per Si atom -5578.092605 kJ/mol
# Density = 1.741908 g / cm^3
# Si number density = 17.458821 Si / 1000 Ang^3
#
#
#
# Elastic Constant Matrix: (Units=GPa)
#
#
# Indices 1 2 3 4 5 6 
#
# 1 148.6334 30.8574 107.0319 0.0000 19.4326 0.0000
# 2 30.8574 20.2637 31.3146 0.0000 0.0708 0.0000
# 3 107.0319 31.3146 149.1147 0.0000 -17.7492 0.0000
# 4 0.0000 0.0000 0.0000 28.6234 0.0000 -0.4644
# 5 19.4326 0.0708 -17.7492 0.0000 30.2713 0.0000
# 6 0.0000 0.0000 0.0000 -0.4644 0.0000 27.4243
#
#
#
# Elastic Compliance Matrix: (Units=1/GPa)
#
#
# Indices 1 2 3 4 5 6 
#
# 1 0.029577 -0.009071 -0.023202 0.000000 -0.032570 0.000000
# 2 -0.009071 0.078682 -0.010042 0.000000 -0.000249 0.000000
# 3 -0.023202 -0.010042 0.029289 0.000000 0.032091 0.000000
# 4 0.000000 0.000000 0.000000 0.034946 0.000000 0.000592
# 5 -0.032570 -0.000249 0.032091 0.000000 0.072760 0.000000
# 6 0.000000 0.000000 0.000000 0.000592 0.000000 0.036474
#
#
# Mechanical properties :
#
#
# Convention : Reuss Voigt Hill
#
# Bulk Modulus (GPa) = 18.89710 72.93551 45.91630
# Shear Modulus (GPa) = 13.02091 27.18433 20.10262
#
# Velocity S-wave (km/s) = 2.73391 3.95023 3.39695
# Velocity P-wave (km/s) = 4.56213 7.91658 6.46085
#
# Compressibility (1/GPa) = 0.05291817
#
# Stress axis : x y z
#
# Youngs Moduli (GPa) = 33.80971 12.70934 34.14268
#
# Poissons Ratio (x) = 0.11529 0.79218
# Poissons Ratio (y) = 0.30669 0.34286
# Poissons Ratio (z) = 0.78445 0.12763
#
# Static dielectric constant tensor:
#      x y z
#    x 1.576090 0.000000 0.001770 
#    y 0.000000 1.594110 0.000000 
#    z 0.001770 0.000000 1.573560 
# 
# From -- ./inp_files/244200.got.cif
#   From: 2010.05.17/outbox.cif.g08.bks.cpg/sg12_123_cif.got.tgz:244200.got - 2010.06.03 13:09:07.
