data_PCOD9193571
_publ_section_title
;
Structure prediction by ZEFSAII (Michael W. Deem and Ramdas Pophale) SiO2 
 PCOD9193571
Probable space group: C 2/M
;
_chemical_formula_sum "Si O2"
_cell_formula_units_Z 56
_cell_length_a 17.971811
_cell_length_b 15.020795
_cell_length_c 18.624597
_cell_angle_alpha 90.000000
_cell_angle_beta 38.007257
_cell_angle_gamma 90.000000
_cell_volume 3095.879307
_symmetry_space_group_name_H-M "C 2/M"
_symmetry_group_IT_number 12
_symmetry_cell_setting 'monoclinic'
loop_
_space_group_symop_operation_xyz
x,y,z
-x,y,-z
-x,-y,-z
x,-y,z
1/2+x,1/2+y,z
1/2-x,1/2+y,-z
1/2-x,1/2-y,-z
1/2+x,1/2-y,z
loop_
_atom_site_type_symbol
_atom_site_label
_atom_site_fract_x
_atom_site_fract_y
_atom_site_fract_z
Si Si1 0.359888 0.784715 0.131826
Si Si2 0.179173 0.394671 0.694324
Si Si3 0.627108 0.288618 0.217947
Si Si4 0.141860 0.096233 0.904475
Si Si5 0.561098 0.102908 0.211924
Si Si6 0.687659 0.601554 0.038639
Si Si7 0.952212 0.105432 0.455413
O O1 0.342367 0.840017 0.216970
O O2 0.259631 0.811721 0.149157
O O3 0.324741 0.680690 0.168421
O O4 0.500000 0.790551 0.000000
O O5 0.181178 0.500000 0.710537
O O6 0.310081 0.372768 0.562317
O O7 0.069014 0.379918 0.723582
O O8 0.596211 0.183473 0.238191
O O9 0.628273 0.327830 0.136447
O O10 0.529889 0.338312 0.340727
O O11 0.199155 0.000000 0.845585
O O12 0.157652 0.115925 0.977344
O O13 0.000000 0.087702 0.000000
O O14 0.564017 0.000000 0.236905
O O15 0.666633 0.106940 0.071405
O O16 0.651825 0.500000 0.084356
O O17 0.000000 0.121291 0.500000
O O18 0.967338 0.000000 0.429155
#
# Coordination Sequence:
#
# PCOD9193571 Si02
#       7
#     8   8   8   8   8   8   8
#     4  11  22  33  57  87 113 148 187 228 277 339
#     4  10  22  40  59  81 115 150 186 232 284 340
#     4  12  22  34  61  86 112 148 192 237 274 330
#     4   9  19  34  52  77 114 154 184 224 277 331
#     4  10  22  38  57  82 119 156 180 224 289 342
#     4  10  20  34  53  84 118 146 184 230 283 335
#     4  10  21  40  61  82 110 146 189 236 285 333
#
# _framework density 18.088560999999999
#
# number of rings (size 3 to 8) (size 9 to 14) (size 15 to 20)
#    0.000    1.714    2.857    1.714    4.000    1.429 
#    0.000    0.000    0.000    1.286    0.000    0.000 
#    0.000    0.000    0.000    0.000    0.000    0.000 
#
# Total GULP energy -156064.591188 kJ/mol
# GULP energy per Si atom -5573.735400 kJ/mol
# Density = 1.804739 g / cm^3
# Si number density = 18.088561 Si / 1000 Ang^3
#
#
#
# Elastic Constant Matrix: (Units=GPa)
#
#
# Indices 1 2 3 4 5 6 
#
# 1 98.5007 40.5304 47.3520 0.0000 -27.9356 0.0000
# 2 40.5304 82.1162 64.8777 0.0000 -2.6064 0.0000
# 3 47.3520 64.8777 96.9626 0.0000 -13.3901 0.0000
# 4 0.0000 0.0000 0.0000 14.6043 0.0000 2.3138
# 5 -27.9356 -2.6064 -13.3901 0.0000 19.0398 0.0000
# 6 0.0000 0.0000 0.0000 2.3138 0.0000 22.8931
#
#
#
# Elastic Compliance Matrix: (Units=1/GPa)
#
#
# Indices 1 2 3 4 5 6 
#
# 1 0.024376 -0.011232 0.000375 0.000000 0.034490 0.000000
# 2 -0.011232 0.032680 -0.019979 0.000000 -0.026058 0.000000
# 3 0.000375 -0.019979 0.025692 0.000000 0.015883 0.000000
# 4 0.000000 0.000000 0.000000 0.069587 0.000000 -0.007033
# 5 0.034490 -0.026058 0.015883 0.000000 0.110729 0.000000
# 6 0.000000 0.000000 0.000000 -0.007033 0.000000 0.044392
#
#
# Mechanical properties :
#
#
# Convention : Reuss Voigt Hill
#
# Bulk Modulus (GPa) = 47.45332 64.78884 56.12108
# Shear Modulus (GPa) = 13.29244 19.62873 16.46058
#
# Velocity S-wave (km/s) = 2.71376 3.29773 3.01989
# Velocity P-wave (km/s) = 6.00917 7.09897 6.57668
#
# Compressibility (1/GPa) = 0.02107334
#
# Stress axis : x y z
#
# Youngs Moduli (GPa) = 41.02443 30.60010 38.92329
#
# Poissons Ratio (x) = 0.34371 -0.01458
# Poissons Ratio (y) = 0.46081 0.77765
# Poissons Ratio (z) = -0.01537 0.61136
#
# Static dielectric constant tensor:
#      x y z
#    x 1.649920 0.000000 -0.033430 
#    y 0.000000 1.678270 0.000000 
#    z -0.033430 0.000000 1.578350 
# 
# From -- ./inp_files/277804.got.cif
#   From: 2010.05.17/outbox.cif.g08.bks.cpg/sg12_139_cif.got.tgz:277804.got - 2010.06.03 13:09:07.
