data_PCOD9193719
_publ_section_title
;
Structure prediction by ZEFSAII (Michael W. Deem and Ramdas Pophale) SiO2 
 PCOD9193719
Probable space group: C 2/M
;
_chemical_formula_sum "Si O2"
_cell_formula_units_Z 56
_cell_length_a 24.854242
_cell_length_b 7.793684
_cell_length_c 14.169769
_cell_angle_alpha 90.000000
_cell_angle_beta 124.506234
_cell_angle_gamma 90.000000
_cell_volume 2261.868338
_symmetry_space_group_name_H-M "C 2/M"
_symmetry_group_IT_number 12
_symmetry_cell_setting 'monoclinic'
loop_
_space_group_symop_operation_xyz
x,y,z
-x,y,-z
-x,-y,-z
x,-y,z
1/2+x,1/2+y,z
1/2-x,1/2+y,-z
1/2-x,1/2-y,-z
1/2+x,1/2-y,z
loop_
_atom_site_type_symbol
_atom_site_label
_atom_site_fract_x
_atom_site_fract_y
_atom_site_fract_z
Si Si1 0.309741 0.695359 0.947600
Si Si2 0.234808 0.701545 0.688972
Si Si3 0.070620 0.696590 0.046984
Si Si4 0.403841 0.301854 0.416042
Si Si5 0.466439 0.295410 0.660412
Si Si6 0.149902 0.691210 0.320679
Si Si7 0.390858 0.289226 0.190370
O O1 0.288151 0.500000 0.939010
O O2 0.328533 0.774195 0.067924
O O3 0.266284 0.771891 0.819378
O O4 0.382599 0.697637 0.974258
O O5 0.222941 0.500000 0.690003
O O6 0.166900 0.793893 0.605344
O O7 0.284256 0.720513 0.650567
O O8 0.063132 0.500000 0.003713
O O9 0.108202 0.685786 0.182946
O O10 0.000000 0.770434 0.000000
O O11 0.422581 0.500000 0.419424
O O12 0.453720 0.226054 0.541907
O O13 0.391679 0.229937 0.299741
O O14 0.472443 0.500000 0.658305
O O15 0.402178 0.262136 0.657360
O O16 0.536096 0.236612 0.771005
O O17 0.167593 0.500000 0.369388
O O18 0.385925 0.500000 0.182888
#
# Coordination Sequence:
#
# PCOD9193719 Si02
#       7
#     8   8   8   8   8   8   8
#     4   9  18  32  52  77 104 136 174 215 259 311
#     4  10  21  37  55  79 110 142 179 220 264 315
#     4   9  17  29  46  72 106 139 170 209 261 318
#     4  10  21  37  57  79 106 143 183 221 262 313
#     4  10  20  35  57  83 108 138 178 222 267 314
#     4  10  20  34  54  79 108 142 177 217 267 320
#     4   9  18  35  58  82 108 139 177 220 266 317
#
# _framework density 24.758293999999999
#
# number of rings (size 3 to 8) (size 9 to 14) (size 15 to 20)
#    0.000    2.429    0.000    2.143    0.000    4.857 
#    0.000    1.429    0.000    1.714    0.000    0.000 
#    0.000    0.000    0.000    0.000    0.000    0.000 
#
# Total GULP energy -156280.164699 kJ/mol
# GULP energy per Si atom -5581.434454 kJ/mol
# Density = 2.470194 g / cm^3
# Si number density = 24.758294 Si / 1000 Ang^3
#
#
#
# Elastic Constant Matrix: (Units=GPa)
#
#
# Indices 1 2 3 4 5 6 
#
# 1 84.5359 10.7129 13.2542 0.0000 4.1514 0.0000
# 2 10.7129 51.9295 5.5499 0.0000 1.4913 0.0000
# 3 13.2542 5.5499 118.1636 0.0000 2.3724 0.0000
# 4 0.0000 0.0000 0.0000 3.8277 0.0000 6.1500
# 5 4.1514 1.4913 2.3724 0.0000 35.2353 0.0000
# 6 0.0000 0.0000 0.0000 6.1500 0.0000 11.9889
#
#
#
# Elastic Compliance Matrix: (Units=1/GPa)
#
#
# Indices 1 2 3 4 5 6 
#
# 1 0.012391 -0.002386 -0.001252 0.000000 -0.001275 0.000000
# 2 -0.002386 0.019834 -0.000654 0.000000 -0.000514 0.000000
# 3 -0.001252 -0.000654 0.008642 0.000000 -0.000407 0.000000
# 4 0.000000 0.000000 0.000000 1.486247 0.000000 -0.762412
# 5 -0.001275 -0.000514 -0.000407 0.000000 0.028580 0.000000
# 6 0.000000 0.000000 0.000000 -0.762412 0.000000 0.474511
#
#
# Mechanical properties :
#
#
# Convention : Reuss Voigt Hill
#
# Bulk Modulus (GPa) = 30.97572 34.85145 32.91358
# Shear Modulus (GPa) = 2.43956 25.21784 13.82870
#
# Velocity S-wave (km/s) = 0.99373 3.19495 2.36593
# Velocity P-wave (km/s) = 3.72224 5.26474 4.55920
#
# Compressibility (1/GPa) = 0.03228335
#
# Stress axis : x y z
#
# Youngs Moduli (GPa) = 80.70672 50.41930 115.71174
#
# Poissons Ratio (x) = 0.12029 0.14489
# Poissons Ratio (y) = 0.19254 0.07563
# Poissons Ratio (z) = 0.10106 0.03296
#
# Static dielectric constant tensor:
#      x y z
#    x 2.018240 0.000000 -0.028750 
#    y 0.000000 1.937260 0.000000 
#    z -0.028750 0.000000 2.014410 
# 
# From -- ./inp_files/239039.got.cif
#   From: 2010.05.17/outbox.cif.g08.bks.cpg/sg12_120_cif.got.tgz:239039.got - 2010.06.03 13:09:07.
