data_PCOD9193987
_publ_section_title
;
Structure prediction by ZEFSAII (Michael W. Deem and Ramdas Pophale) SiO2 
 PCOD9193987
Probable space group: C 2/M
;
_chemical_formula_sum "Si O2"
_cell_formula_units_Z 64
_cell_length_a 15.134160
_cell_length_b 15.995956
_cell_length_c 14.630448
_cell_angle_alpha 90.000000
_cell_angle_beta 128.351525
_cell_angle_gamma 90.000000
_cell_volume 2777.559299
_symmetry_space_group_name_H-M "C 2/M"
_symmetry_group_IT_number 12
_symmetry_cell_setting 'monoclinic'
loop_
_space_group_symop_operation_xyz
x,y,z
-x,y,-z
-x,-y,-z
x,-y,z
1/2+x,1/2+y,z
1/2-x,1/2+y,-z
1/2-x,1/2-y,-z
1/2+x,1/2-y,z
loop_
_atom_site_type_symbol
_atom_site_label
_atom_site_fract_x
_atom_site_fract_y
_atom_site_fract_z
Si Si1 0.897224 0.595095 0.124620
Si Si2 0.931708 0.909032 0.570502
Si Si3 0.407583 0.903191 0.865803
Si Si4 0.379296 0.759932 0.422851
Si Si5 0.334518 0.657199 0.233996
Si Si6 0.650619 0.651929 0.289725
Si Si7 0.193670 0.908289 0.118812
Si Si8 0.408834 0.283075 0.088382
O O1 0.870362 0.500000 0.068105
O O2 0.824130 0.594692 0.169692
O O3 0.869107 0.686951 0.065274
O O4 0.032257 0.599757 0.194884
O O5 0.895314 0.828129 0.487974
O O6 0.885464 0.897366 0.643283
O O7 0.067164 0.904219 0.668470
O O8 0.897629 0.000000 0.512284
O O9 0.289003 0.862582 0.809467
O O10 0.388685 0.000000 0.872607
O O11 0.500000 0.873305 0.000000
O O12 0.500000 0.805349 0.500000
O O13 0.361163 0.742315 0.304175
O O14 0.266841 0.801430 0.387137
O O15 0.354130 0.669198 0.139862
O O16 0.676723 0.599963 0.215383
O O17 0.543437 0.709783 0.192600
O O18 0.150104 0.000000 0.060439
O O19 0.128558 0.834202 0.024631
#
# Coordination Sequence:
#
# PCOD9193987 Si02
#       8
#     8   8   8   8   8   8   8   8
#     4  10  22  38  56  84 126 176 222 259 301 362
#     4  10  22  40  65  97 126 158 209 273 333 386
#     4  10  20  34  54  84 126 171 212 256 310 378
#     4  10  22  41  65  90 120 163 213 270 329 386
#     4  10  21  37  63  95 129 168 212 262 324 384
#     4  11  23  41  67  94 127 168 214 262 324 387
#     4  11  24  42  66  97 134 175 219 263 310 378
#     4  11  23  39  64  97 135 175 215 261 316 384
#
# _framework density 23.041812
#
# number of rings (size 3 to 8) (size 9 to 14) (size 15 to 20)
#    0.000    1.625    0.000    4.125    0.000    9.250 
#    0.000    1.875    0.000    5.250    0.000    0.000 
#    0.000    0.000    0.000    0.000    0.000    0.000 
#
# Total GULP energy -178448.287855 kJ/mol
# GULP energy per Si atom -5576.508995 kJ/mol
# Density = 2.298937 g / cm^3
# Si number density = 23.041812 Si / 1000 Ang^3
#
#
#
# Elastic Constant Matrix: (Units=GPa)
#
#
# Indices 1 2 3 4 5 6 
#
# 1 173.1275 25.2439 52.1164 0.0000 17.2941 0.0000
# 2 25.2439 132.6184 27.8625 0.0000 3.4016 0.0000
# 3 52.1164 27.8625 70.8246 0.0000 14.4291 0.0000
# 4 0.0000 0.0000 0.0000 3.3515 0.0000 -1.4655
# 5 17.2941 3.4016 14.4291 0.0000 59.3493 0.0000
# 6 0.0000 0.0000 0.0000 -1.4655 0.0000 17.1446
#
#
#
# Elastic Compliance Matrix: (Units=1/GPa)
#
#
# Indices 1 2 3 4 5 6 
#
# 1 0.007475 -0.000308 -0.005196 0.000000 -0.000897 0.000000
# 2 -0.000308 0.008239 -0.003090 0.000000 0.000369 0.000000
# 3 -0.005196 -0.003090 0.019794 0.000000 -0.003121 0.000000
# 4 0.000000 0.000000 0.000000 0.309958 0.000000 0.026494
# 5 -0.000897 0.000369 -0.003121 0.000000 0.017849 0.000000
# 6 0.000000 0.000000 0.000000 0.026494 0.000000 0.060592
#
#
# Mechanical properties :
#
#
# Convention : Reuss Voigt Hill
#
# Bulk Modulus (GPa) = 54.58520 65.22401 59.90461
# Shear Modulus (GPa) = 11.18065 34.05894 22.61980
#
# Velocity S-wave (km/s) = 2.20519 3.84883 3.13658
# Velocity P-wave (km/s) = 5.49772 6.93682 6.25877
#
# Compressibility (1/GPa) = 0.01831998
#
# Stress axis : x y z
#
# Youngs Moduli (GPa) = 133.78094 121.37818 50.51911
#
# Poissons Ratio (x) = 0.03739 0.26252
# Poissons Ratio (y) = 0.04122 0.15608
# Poissons Ratio (z) = 0.69518 0.37500
#
# Static dielectric constant tensor:
#      x y z
#    x 1.895000 0.000000 0.024120 
#    y 0.000000 1.909790 0.000000 
#    z 0.024120 0.000000 1.887950 
# 
# From -- ./inp_files/216847.got.cif
#   From: 2010.05.17/outbox.cif.g08.bks.cpg/sg12_109_cif.got.tgz:216847.got - 2010.06.03 13:09:07.
