data_PCOD9193936
_publ_section_title
;
Structure prediction by ZEFSAII (Michael W. Deem and Ramdas Pophale) SiO2 
 PCOD9193936
Probable space group: C 2/M
;
_chemical_formula_sum "Si O2"
_cell_formula_units_Z 64
_cell_length_a 22.407187
_cell_length_b 20.039929
_cell_length_c 15.746684
_cell_angle_alpha 90.000000
_cell_angle_beta 24.515852
_cell_angle_gamma 90.000000
_cell_volume 2934.020540
_symmetry_space_group_name_H-M "C 2/M"
_symmetry_group_IT_number 12
_symmetry_cell_setting 'monoclinic'
loop_
_space_group_symop_operation_xyz
x,y,z
-x,y,-z
-x,-y,-z
x,-y,z
1/2+x,1/2+y,z
1/2-x,1/2+y,-z
1/2-x,1/2-y,-z
1/2+x,1/2-y,z
loop_
_atom_site_type_symbol
_atom_site_label
_atom_site_fract_x
_atom_site_fract_y
_atom_site_fract_z
Si Si1 0.660883 0.281109 0.879086
Si Si2 0.914758 0.077225 0.952625
Si Si3 0.573031 0.070446 0.558707
Si Si4 0.254711 0.925664 0.488356
Si Si5 0.887069 0.293420 0.293563
Si Si6 0.576091 0.210184 0.563323
Si Si7 0.739129 0.427132 0.030208
Si Si8 0.131002 0.200026 0.267747
O O1 0.761919 0.265277 0.666826
O O2 0.758166 0.249045 0.828341
O O3 0.629808 0.360307 0.930732
O O4 0.508096 0.244017 0.083592
O O5 0.084059 0.086016 0.713184
O O6 0.898784 0.000000 0.005151
O O7 0.825349 0.083030 0.980880
O O8 0.684769 0.074087 0.492804
O O9 0.575111 0.141514 0.510298
O O10 0.410647 0.068367 0.802713
O O11 0.598451 0.000000 0.479194
O O12 0.330995 0.866099 0.338681
O O13 0.282154 0.000000 0.418717
O O14 0.750000 0.250000 0.500000
O O15 0.953952 0.305544 0.300658
O O16 0.451693 0.259033 0.697109
O O17 0.684635 0.500000 0.130233
O O18 0.698174 0.366259 0.142827
O O19 0.000000 0.182015 0.500000
#
# Coordination Sequence:
#
# PCOD9193936 Si02
#       8
#     8   8   8   8   8   8   8   8
#     4  11  22  37  57  84 114 150 191 231 283 342
#     4  10  20  34  54  83 115 147 184 229 282 340
#     4   9  18  34  55  81 111 147 187 227 275 336
#     4   9  18  34  54  80 113 145 182 231 282 334
#     4  11  21  36  57  82 110 150 188 234 282 332
#     4  10  22  36  56  83 115 149 187 232 283 337
#     4  10  20  35  59  84 108 148 195 236 285 343
#     4  10  21  36  54  80 115 147 186 239 292 333
#
# _framework density 21.81307
#
# number of rings (size 3 to 8) (size 9 to 14) (size 15 to 20)
#    0.000    2.000    1.250    3.000    0.000    2.750 
#    0.000    0.000    0.000    9.000    0.000    0.875 
#    0.000    0.500    0.000    0.000    0.000    0.000 
#
# Total GULP energy -178534.772348 kJ/mol
# GULP energy per Si atom -5579.211636 kJ/mol
# Density = 2.176342 g / cm^3
# Si number density = 21.813070 Si / 1000 Ang^3
#
#
#
# Elastic Constant Matrix: (Units=GPa)
#
#
# Indices 1 2 3 4 5 6 
#
# 1 38.9608 5.3245 17.3787 0.0013 -10.8056 -0.0009
# 2 5.3245 136.9510 45.9400 0.0015 5.1005 -0.0014
# 3 17.3787 45.9400 108.4444 0.0013 -13.7030 -0.0024
# 4 0.0013 0.0015 0.0013 28.4498 -0.0014 -12.8362
# 5 -10.8056 5.1005 -13.7030 -0.0014 27.5918 0.0012
# 6 -0.0009 -0.0014 -0.0024 -12.8362 0.0012 15.2325
#
#
#
# Elastic Compliance Matrix: (Units=1/GPa)
#
#
# Indices 1 2 3 4 5 6 
#
# 1 0.030042 -0.000424 -0.003348 -0.000001 0.010181 0.000000
# 2 -0.000424 0.008864 -0.004177 0.000000 -0.003879 0.000000
# 3 -0.003348 -0.004177 0.012227 0.000001 0.005533 0.000002
# 4 -0.000001 0.000000 0.000001 0.056712 0.000001 0.047790
# 5 0.010181 -0.003879 0.005533 0.000001 0.043695 -0.000002
# 6 0.000000 0.000000 0.000002 0.047790 -0.000002 0.105921
#
#
# Mechanical properties :
#
#
# Convention : Reuss Voigt Hill
#
# Bulk Modulus (GPa) = 28.38213 46.84917 37.61565
# Shear Modulus (GPa) = 17.53744 28.63568 23.08656
#
# Velocity S-wave (km/s) = 2.83854 3.62716 3.25681
# Velocity P-wave (km/s) = 4.87677 6.25027 5.60575
#
# Compressibility (1/GPa) = 0.03523344
#
# Stress axis : x y z
#
# Youngs Moduli (GPa) = 33.28691 112.81449 81.78837
#
# Poissons Ratio (x) = 0.04783 0.27385
# Poissons Ratio (y) = 0.01411 0.34166
# Poissons Ratio (z) = 0.11146 0.47126
#
# Static dielectric constant tensor:
#      x y z
#    x 1.851810 0.000000 -0.010590 
#    y 0.000000 1.879640 0.000000 
#    z -0.010590 0.000000 1.790190 
# 
# From -- ./inp_files/290894.got.cif
#   From: 2010.05.17/outbox.cif.g08.bks.cpg/sg12_146_cif.got.tgz:290894.got - 2010.06.03 13:09:07.
