data_PCOD9193385
_publ_section_title
;
Structure prediction by ZEFSAII (Michael W. Deem and Ramdas Pophale) SiO2 
 PCOD9193385
Probable space group: C 2/M
;
_chemical_formula_sum "Si O2"
_cell_formula_units_Z 64
_cell_length_a 14.863437
_cell_length_b 8.542703
_cell_length_c 24.175691
_cell_angle_alpha 90.000000
_cell_angle_beta 98.387371
_cell_angle_gamma 90.000000
_cell_volume 3036.850681
_symmetry_space_group_name_H-M "C 2/M"
_symmetry_group_IT_number 12
_symmetry_cell_setting 'monoclinic'
loop_
_space_group_symop_operation_xyz
x,y,z
-x,y,-z
-x,-y,-z
x,-y,z
1/2+x,1/2+y,z
1/2-x,1/2+y,-z
1/2-x,1/2-y,-z
1/2+x,1/2-y,z
loop_
_atom_site_type_symbol
_atom_site_label
_atom_site_fract_x
_atom_site_fract_y
_atom_site_fract_z
Si Si1 0.368113 0.814651 0.716519
Si Si2 0.467637 0.685263 0.202660
Si Si3 0.518201 0.810621 0.089344
Si Si4 0.393927 0.190035 0.366431
Si Si5 0.801844 0.687932 0.243109
Si Si6 0.055795 0.311628 0.451448
Si Si7 0.849523 0.312098 0.994057
Si Si8 0.784906 0.814221 0.595194
O O1 0.466564 0.760718 0.745421
O O2 0.295974 0.766379 0.757755
O O3 0.333413 0.732251 0.657516
O O4 0.367605 0.000000 0.707397
O O5 0.464492 0.500000 0.209578
O O6 0.509684 0.730676 0.147537
O O7 0.366397 0.755848 0.199744
O O8 0.605717 0.762535 0.060565
O O9 0.520866 0.000000 0.096138
O O10 0.427057 0.771744 0.046169
O O11 0.356812 0.238165 0.303668
O O12 0.492930 0.240742 0.394173
O O13 0.318896 0.238951 0.405137
O O14 0.395026 0.000000 0.365861
O O15 0.792065 0.500000 0.241906
O O16 0.058281 0.500000 0.453499
O O17 0.156901 0.255221 0.449251
O O18 0.000000 0.258404 0.500000
O O19 0.844504 0.500000 0.992278
O O20 0.750000 0.250000 0.000000
O O21 0.784302 0.000000 0.589993
#
# Coordination Sequence:
#
# PCOD9193385 Si02
#       8
#     8   8   8   8   8   8   8   8
#     4  11  22  38  59  83 112 147 187 233 283 338
#     4  12  24  37  56  86 120 154 189 229 279 337
#     4   9  20  39  57  80 114 152 188 228 281 335
#     4   8  17  34  54  75 103 139 175 217 272 325
#     4  10  20  37  59  82 111 149 190 233 280 334
#     4  10  20  34  53  78 107 141 182 225 275 338
#     4   9  19  37  62  84 108 145 190 235 282 332
#     4  10  20  36  56  77 105 141 182 228 278 336
#
# _framework density 21.074465
#
# number of rings (size 3 to 8) (size 9 to 14) (size 15 to 20)
#    0.000    2.125    0.000    5.250    0.000    3.750 
#    0.000    6.875    0.000    0.000    0.000    0.000 
#    0.000    0.000    0.000    0.000    0.000    0.000 
#
# Total GULP energy -178740.634799 kJ/mol
# GULP energy per Si atom -5585.644837 kJ/mol
# Density = 2.102650 g / cm^3
# Si number density = 21.074465 Si / 1000 Ang^3
#
#
#
# Elastic Constant Matrix: (Units=GPa)
#
#
# Indices 1 2 3 4 5 6 
#
# 1 130.0865 7.6966 12.0471 0.0000 -30.5630 0.0000
# 2 7.6966 21.3141 -7.5094 0.0000 -3.2161 0.0000
# 3 12.0471 -7.5094 38.5299 0.0000 -19.9784 0.0000
# 4 0.0000 0.0000 0.0000 24.5781 0.0000 -10.2310
# 5 -30.5630 -3.2161 -19.9784 0.0000 27.2509 0.0000
# 6 0.0000 0.0000 0.0000 -10.2310 0.0000 32.6302
#
#
#
# Elastic Compliance Matrix: (Units=1/GPa)
#
#
# Indices 1 2 3 4 5 6 
#
# 1 0.010951 0.000124 0.004801 0.000000 0.015817 0.000000
# 2 0.000124 0.059321 0.024562 0.000000 0.025147 0.000000
# 3 0.004801 0.024562 0.054101 0.000000 0.047946 0.000000
# 4 0.000000 0.000000 0.000000 0.046794 0.000000 0.014672
# 5 0.015817 0.025147 0.047946 0.000000 0.092554 0.000000
# 6 0.000000 0.000000 0.000000 0.014672 0.000000 0.035247
#
#
# Mechanical properties :
#
#
# Convention : Reuss Voigt Hill
#
# Bulk Modulus (GPa) = 5.45416 23.82213 14.63815
# Shear Modulus (GPa) = 16.60526 28.73825 22.67175
#
# Velocity S-wave (km/s) = 2.81006 3.69677 3.28349
# Velocity P-wave (km/s) = 3.62246 5.43598 4.61909
#
# Compressibility (1/GPa) = 0.18334614
#
# Stress axis : x y z
#
# Youngs Moduli (GPa) = 91.31304 16.85753 18.48408
#
# Poissons Ratio (x) = -0.00209 -0.08875
# Poissons Ratio (y) = -0.01129 -0.45400
# Poissons Ratio (z) = -0.43842 -0.41405
#
# Static dielectric constant tensor:
#      x y z
#    x 1.769880 0.000000 -0.024140 
#    y 0.000000 1.711740 0.000000 
#    z -0.024140 0.000000 1.795000 
# 
# From -- ./inp_files/338820.got.cif
#   From: 2010.05.17/outbox.cif.g08.bks.cpg/sg12_170_cif.got.tgz:338820.got - 2010.06.03 13:09:07.
