data_PCOD9193794
_publ_section_title
;
Structure prediction by ZEFSAII (Michael W. Deem and Ramdas Pophale) SiO2 
 PCOD9193794
Probable space group: C 2/M
;
_chemical_formula_sum "Si O2"
_cell_formula_units_Z 56
_cell_length_a 18.703499
_cell_length_b 8.913500
_cell_length_c 29.686738
_cell_angle_alpha 90.000000
_cell_angle_beta 38.101711
_cell_angle_gamma 90.000000
_cell_volume 3053.940448
_symmetry_space_group_name_H-M "C 2/M"
_symmetry_group_IT_number 12
_symmetry_cell_setting 'monoclinic'
loop_
_space_group_symop_operation_xyz
x,y,z
-x,y,-z
-x,-y,-z
x,-y,z
1/2+x,1/2+y,z
1/2-x,1/2+y,-z
1/2-x,1/2-y,-z
1/2+x,1/2-y,z
loop_
_atom_site_type_symbol
_atom_site_label
_atom_site_fract_x
_atom_site_fract_y
_atom_site_fract_z
Si Si1 0.211599 0.322819 0.065409
Si Si2 0.668106 0.322012 0.231753
Si Si3 0.364261 0.176626 0.065102
Si Si4 0.743728 0.679199 0.364944
Si Si5 0.907410 0.321133 0.638773
Si Si6 0.337798 0.320615 0.492490
Si Si7 0.986231 0.318810 0.770418
O O1 0.207773 0.500000 0.061215
O O2 0.304067 0.276539 0.057305
O O3 0.088285 0.276011 0.148432
O O4 0.250000 0.250000 0.000000
O O5 0.650732 0.500000 0.246660
O O6 0.793358 0.298752 0.146354
O O7 0.654896 0.237927 0.285259
O O8 0.574478 0.259224 0.242261
O O9 0.348358 0.000000 0.061373
O O10 0.500000 0.206687 0.000000
O O11 0.731647 0.500000 0.362897
O O12 0.662951 0.764789 0.369838
O O13 0.706760 0.708399 0.434696
O O14 0.878964 0.719202 0.292389
O O15 0.915328 0.500000 0.635206
O O16 0.035486 0.250220 0.575308
O O17 0.343491 0.500000 0.483244
O O18 0.250000 0.250000 0.500000
O O19 0.977102 0.500000 0.769133
#
# Coordination Sequence:
#
# PCOD9193794 Si02
#       7
#     8   8   8   8   8   8   8
#     4  10  20  34  54  80 112 148 186 230 278 333
#     4  10  20  36  59  83 110 146 188 233 280 336
#     4   9  19  36  57  81 110 145 185 231 285 341
#     4  10  22  40  60  83 112 145 183 230 282 331
#     4  12  25  39  57  83 117 152 187 230 276 327
#     4  11  23  40  64  90 116 148 186 229 278 334
#     4   9  19  37  59  82 110 145 185 231 284 338
#
# _framework density 18.336964999999999
#
# number of rings (size 3 to 8) (size 9 to 14) (size 15 to 20)
#    0.000    1.857    0.000    3.857    0.000    7.143 
#    0.000    5.714    0.000    0.000    0.000    0.000 
#    0.000    0.000    0.000    0.000    0.000    0.000 
#
# Total GULP energy -156421.801165 kJ/mol
# GULP energy per Si atom -5586.492899 kJ/mol
# Density = 1.829523 g / cm^3
# Si number density = 18.336965 Si / 1000 Ang^3
#
#
#
# Elastic Constant Matrix: (Units=GPa)
#
#
# Indices 1 2 3 4 5 6 
#
# 1 119.2937 71.3497 82.6694 0.0000 3.2876 0.0003
# 2 71.3497 82.7504 75.0406 0.0001 9.4257 0.0007
# 3 82.6694 75.0406 127.1417 0.0000 6.0686 0.0000
# 4 0.0000 0.0001 0.0000 27.6202 0.0000 4.0933
# 5 3.2876 9.4257 6.0686 0.0000 35.0930 0.0000
# 6 0.0003 0.0007 0.0000 4.0933 0.0000 38.0236
#
#
#
# Elastic Compliance Matrix: (Units=1/GPa)
#
#
# Indices 1 2 3 4 5 6 
#
# 1 0.019298 -0.011672 -0.005770 0.000000 0.002325 0.000000
# 2 -0.011672 0.033740 -0.012044 0.000000 -0.005886 -0.000001
# 3 -0.005770 -0.012044 0.018700 0.000000 0.000542 0.000000
# 4 0.000000 0.000000 0.000000 0.036792 0.000000 -0.003961
# 5 0.002325 -0.005886 0.000542 0.000000 0.029765 0.000000
# 6 0.000000 -0.000001 0.000000 -0.003961 0.000000 0.026726
#
#
# Mechanical properties :
#
#
# Convention : Reuss Voigt Hill
#
# Bulk Modulus (GPa) = 78.32854 87.47836 82.90345
# Shear Modulus (GPa) = 21.90593 26.82244 24.36418
#
# Velocity S-wave (km/s) = 3.46009 3.82874 3.64908
# Velocity P-wave (km/s) = 7.66629 8.20703 7.94126
#
# Compressibility (1/GPa) = 0.01276674
#
# Stress axis : x y z
#
# Youngs Moduli (GPa) = 51.81880 29.63799 53.47674
#
# Poissons Ratio (x) = 0.34592 0.30857
# Poissons Ratio (y) = 0.60481 0.64408
# Poissons Ratio (z) = 0.29900 0.35696
#
# Static dielectric constant tensor:
#      x y z
#    x 1.584310 0.000000 -0.000840 
#    y 0.000000 1.617150 0.000000 
#    z -0.000840 0.000000 1.636840 
# 
# From -- ./inp_files/362941.got.cif
#   From: 2010.05.17/outbox.cif.g08.bks.cpg/sg12_182_cif.got.tgz:362941.got - 2010.06.03 13:09:07.
