data_PCOD9193607
_publ_section_title
;
Structure prediction by ZEFSAII (Michael W. Deem and Ramdas Pophale) SiO2 
 PCOD9193607
Probable space group: C 2/M
;
_chemical_formula_sum "Si O2"
_cell_formula_units_Z 56
_cell_length_a 15.156356
_cell_length_b 7.441903
_cell_length_c 29.243511
_cell_angle_alpha 90.000000
_cell_angle_beta 129.310236
_cell_angle_gamma 90.000000
_cell_volume 2552.090624
_symmetry_space_group_name_H-M "C 2/M"
_symmetry_group_IT_number 12
_symmetry_cell_setting 'monoclinic'
loop_
_space_group_symop_operation_xyz
x,y,z
-x,y,-z
-x,-y,-z
x,-y,z
1/2+x,1/2+y,z
1/2-x,1/2+y,-z
1/2-x,1/2-y,-z
1/2+x,1/2-y,z
loop_
_atom_site_type_symbol
_atom_site_label
_atom_site_fract_x
_atom_site_fract_y
_atom_site_fract_z
Si Si1 0.248436 0.711730 0.883860
Si Si2 0.607418 0.717665 0.566082
Si Si3 0.516945 0.717174 0.862695
Si Si4 0.061711 0.290835 0.655288
Si Si5 0.192977 0.284522 0.432144
Si Si6 0.234952 0.779485 0.214785
Si Si7 0.633185 0.714374 0.989557
O O1 0.273601 0.500000 0.888572
O O2 0.252411 0.781051 0.833679
O O3 0.339835 0.785753 0.950909
O O4 0.122474 0.727856 0.865181
O O5 0.500000 0.775290 0.500000
O O6 0.606029 0.500000 0.566351
O O7 0.598327 0.780944 0.614672
O O8 0.721390 0.780382 0.578553
O O9 0.520275 0.500000 0.864371
O O10 0.389837 0.773953 0.807627
O O11 0.539718 0.779560 0.922652
O O12 0.051208 0.500000 0.664950
O O13 0.159918 0.215090 0.720025
O O14 0.934513 0.211599 0.614958
O O15 0.186810 0.500000 0.426457
O O16 0.250000 0.250000 0.500000
O O17 0.236232 0.000000 0.215633
O O18 0.616080 0.500000 0.988494
O O19 0.750000 0.750000 0.000000
#
# Coordination Sequence:
#
# PCOD9193607 Si02
#       7
#     8   8   8   8   8   8   8
#     4   9  17  31  51  73  99 131 169 210 250 295
#     4  10  20  35  55  79 105 129 157 201 252 294
#     4   9  17  31  50  71 100 133 166 208 254 295
#     4  10  21  36  53  75 102 133 170 204 241 296
#     4  10  20  34  54  77 101 128 158 197 245 293
#     4   9  19  34  50  71 101 135 169 206 245 293
#     4   8  14  25  45  72  96 124 164 208 251 292
#
# _framework density 21.942795
#
# number of rings (size 3 to 8) (size 9 to 14) (size 15 to 20)
#    0.000    2.714    1.429    0.000    0.000    2.571 
#    0.000    6.429    0.000    0.000    0.000   10.000 
#    0.000    0.000    0.000    0.000    0.000    0.000 
#
# Total GULP energy -156256.549974 kJ/mol
# GULP energy per Si atom -5580.591070 kJ/mol
# Density = 2.189285 g / cm^3
# Si number density = 21.942795 Si / 1000 Ang^3
#
#
#
# Elastic Constant Matrix: (Units=GPa)
#
#
# Indices 1 2 3 4 5 6 
#
# 1 80.4150 -10.2450 25.9478 0.0000 13.1525 0.0000
# 2 -10.2450 68.5008 -2.1142 0.0000 3.7906 0.0000
# 3 25.9478 -2.1142 117.6598 0.0000 19.5264 0.0000
# 4 0.0000 0.0000 0.0000 0.7770 0.0000 3.2076
# 5 13.1525 3.7906 19.5264 0.0000 35.1549 0.0000
# 6 0.0000 0.0000 0.0000 3.2076 0.0000 6.8612
#
#
#
# Elastic Compliance Matrix: (Units=1/GPa)
#
#
# Indices 1 2 3 4 5 6 
#
# 1 0.014188 0.002282 -0.002386 0.000000 -0.004229 0.000000
# 2 0.002282 0.015089 0.000198 0.000000 -0.002591 0.000000
# 3 -0.002386 0.000198 0.009786 0.000000 -0.004564 0.000000
# 4 0.000000 0.000000 0.000000 -1.383926 0.000000 0.646986
# 5 -0.004229 -0.002591 -0.004564 0.000000 0.032842 0.000000
# 6 0.000000 0.000000 0.000000 0.646986 0.000000 -0.156720
#
#
# Mechanical properties :
#
#
# Convention : Reuss Voigt Hill
#
# Bulk Modulus (GPa) = 25.47685 32.63921 29.05803
# Shear Modulus (GPa) = -3.43443 25.42442 10.99499
#
# Velocity S-wave (km/s) = -1.25243 3.40761 2.24090
# Velocity P-wave (km/s) = 3.08939 5.51266 4.46843
#
# Compressibility (1/GPa) = 0.03925132
#
# Stress axis : x y z
#
# Youngs Moduli (GPa) = 70.48287 66.27267 102.18355
#
# Poissons Ratio (x) = -0.15125 0.24382
# Poissons Ratio (y) = -0.16086 -0.02021
# Poissons Ratio (z) = 0.16818 -0.01311
#
# Static dielectric constant tensor:
#      x y z
#    x 1.779400 0.000000 0.024820 
#    y 0.000000 1.643930 0.000000 
#    z 0.024820 0.000000 1.795070 
# 
# From -- ./inp_files/374955.got.cif
#   From: 2010.05.17/outbox.cif.g08.bks.cpg/sg12_188_cif.got.tgz:374955.got - 2010.06.03 13:09:07.
