data_PCOD9193398
_publ_section_title
;
Structure prediction by ZEFSAII (Michael W. Deem and Ramdas Pophale) SiO2 
 PCOD9193398
Probable space group: C 2/M
;
_chemical_formula_sum "Si O2"
_cell_formula_units_Z 56
_cell_length_a 16.279531
_cell_length_b 9.073323
_cell_length_c 25.921527
_cell_angle_alpha 90.000000
_cell_angle_beta 130.039696
_cell_angle_gamma 90.000000
_cell_volume 2931.366727
_symmetry_space_group_name_H-M "C 2/M"
_symmetry_group_IT_number 12
_symmetry_cell_setting 'monoclinic'
loop_
_space_group_symop_operation_xyz
x,y,z
-x,y,-z
-x,-y,-z
x,-y,z
1/2+x,1/2+y,z
1/2-x,1/2+y,-z
1/2-x,1/2-y,-z
1/2+x,1/2-y,z
loop_
_atom_site_type_symbol
_atom_site_label
_atom_site_fract_x
_atom_site_fract_y
_atom_site_fract_z
Si Si1 0.247696 0.675310 0.422800
Si Si2 0.802574 0.328761 0.716219
Si Si3 0.528515 0.173574 0.858075
Si Si4 0.435040 0.322846 0.921869
Si Si5 0.922500 0.174653 0.570854
Si Si6 0.621721 0.825425 0.701402
Si Si7 0.688853 0.820211 0.838771
O O1 0.228255 0.500000 0.424060
O O2 0.230000 0.702649 0.355625
O O3 0.163214 0.768025 0.421756
O O4 0.365953 0.708254 0.493115
O O5 0.773517 0.500000 0.715513
O O6 0.928371 0.314290 0.778080
O O7 0.737231 0.221586 0.726800
O O8 0.492960 0.254362 0.895634
O O9 0.632648 0.229134 0.868981
O O10 0.542894 0.000000 0.875388
O O11 0.433339 0.500000 0.915097
O O12 0.311512 0.272795 0.879351
O O13 0.500000 0.287560 0.000000
O O14 0.033347 0.251104 0.629641
O O15 0.936179 0.000000 0.579812
O O16 0.619596 0.777214 0.760411
O O17 0.607402 0.000000 0.694092
O O18 0.688813 0.000000 0.840018
#
# Coordination Sequence:
#
# PCOD9193398 Si02
#       7
#     8   8   8   8   8   8   8
#     4   9  19  36  55  75 106 148 188 232 291 349
#     4  10  20  35  55  79 108 143 189 239 287 337
#     4  10  20  36  60  85 113 149 191 235 279 338
#     4  10  21  39  61  86 119 153 187 230 281 340
#     4  10  20  34  53  78 108 142 188 242 287 337
#     4  11  21  35  56  78 109 150 191 234 287 347
#     4   9  19  37  59  83 114 154 191 228 286 345
#
# _framework density 19.103715999999999
#
# number of rings (size 3 to 8) (size 9 to 14) (size 15 to 20)
#    0.000    2.143    1.429    1.714    0.000    4.857 
#    0.000    6.429    0.000    0.000    0.000    0.000 
#    0.000    0.000    0.000    0.000    0.000    0.000 
#
# Total GULP energy -156237.077547 kJ/mol
# GULP energy per Si atom -5579.895627 kJ/mol
# Density = 1.906023 g / cm^3
# Si number density = 19.103716 Si / 1000 Ang^3
#
#
#
# Elastic Constant Matrix: (Units=GPa)
#
#
# Indices 1 2 3 4 5 6 
#
# 1 58.8030 19.7876 28.5253 0.0000 -19.7585 0.0000
# 2 19.7876 21.5546 31.3486 0.0000 -7.2236 0.0000
# 3 28.5253 31.3486 99.9109 0.0000 -19.4261 0.0000
# 4 0.0000 0.0000 0.0000 19.4852 0.0000 -1.2394
# 5 -19.7585 -7.2236 -19.4261 0.0000 25.6812 0.0000
# 6 0.0000 0.0000 0.0000 -1.2394 0.0000 29.7274
#
#
#
# Elastic Compliance Matrix: (Units=1/GPa)
#
#
# Indices 1 2 3 4 5 6 
#
# 1 0.030600 -0.026519 0.003179 0.000000 0.018488 0.000000
# 2 -0.026519 0.108742 -0.028805 0.000000 -0.011605 0.000000
# 3 0.003179 -0.028805 0.019978 0.000000 0.009455 0.000000
# 4 0.000000 0.000000 0.000000 0.051457 0.000000 0.002145
# 5 0.018488 -0.011605 0.009455 0.000000 0.057052 0.000000
# 6 0.000000 0.000000 0.000000 0.002145 0.000000 0.033728
#
#
# Mechanical properties :
#
#
# Convention : Reuss Voigt Hill
#
# Bulk Modulus (GPa) = 18.17161 37.73239 27.95200
# Shear Modulus (GPa) = 11.78719 21.68591 16.73655
#
# Velocity S-wave (km/s) = 2.48666 3.37288 2.96309
# Velocity P-wave (km/s) = 4.21632 5.91292 5.13517
#
# Compressibility (1/GPa) = 0.05503091
#
# Stress axis : x y z
#
# Youngs Moduli (GPa) = 32.67988 9.19606 50.05595
#
# Poissons Ratio (x) = 0.24387 -0.15912
# Poissons Ratio (y) = 0.86663 1.44184
# Poissons Ratio (z) = -0.10389 0.26489
#
# Static dielectric constant tensor:
#      x y z
#    x 1.667000 0.000000 0.013730 
#    y 0.000000 1.642770 0.000000 
#    z 0.013730 0.000000 1.674850 
# 
# From -- ./inp_files/308991.got.cif
#   From: 2010.05.17/outbox.cif.g08.bks.cpg/sg12_155_cif.got.tgz:308991.got - 2010.06.03 13:09:07.
