data_PCOD9193186
_publ_section_title
;
Structure prediction by ZEFSAII (Michael W. Deem and Ramdas Pophale) SiO2 
 PCOD9193186
Probable space group: C 2/M
;
_chemical_formula_sum "Si O2"
_cell_formula_units_Z 48
_cell_length_a 17.411910
_cell_length_b 19.546435
_cell_length_c 15.118960
_cell_angle_alpha 90.000000
_cell_angle_beta 155.104152
_cell_angle_gamma 90.000000
_cell_volume 2166.143000
_symmetry_space_group_name_H-M "C 2/M"
_symmetry_group_IT_number 12
_symmetry_cell_setting 'monoclinic'
loop_
_space_group_symop_operation_xyz
x,y,z
-x,y,-z
-x,-y,-z
x,-y,z
1/2+x,1/2+y,z
1/2-x,1/2+y,-z
1/2-x,1/2-y,-z
1/2+x,1/2-y,z
loop_
_atom_site_type_symbol
_atom_site_label
_atom_site_fract_x
_atom_site_fract_y
_atom_site_fract_z
Si Si1 0.362308 0.421551 0.484240
Si Si2 0.949598 0.925276 0.844933
Si Si3 0.000527 0.184400 0.243192
Si Si4 0.091736 0.331679 0.865559
Si Si5 0.519008 0.078462 0.416591
Si Si6 0.715101 0.922567 0.142266
O O1 0.317223 0.500000 0.465310
O O2 0.360623 0.362706 0.556050
O O3 0.246276 0.402555 0.276500
O O4 0.576919 0.424002 0.679137
O O5 0.732010 0.923427 0.616032
O O6 0.024859 0.860531 0.871482
O O7 0.010321 0.000000 0.872351
O O8 0.000000 0.922548 0.000000
O O9 0.033452 0.264320 0.261462
O O10 0.806783 0.187516 0.091071
O O11 0.063167 0.373393 0.744838
O O12 0.083223 0.378654 0.943132
O O13 0.500000 0.100476 0.500000
O O14 0.447641 0.000000 0.337323
O O15 0.648131 0.000000 0.070458
#
# Coordination Sequence:
#
# PCOD9193186 Si02
#       6
#     8   8   8   8   8   8
#     4   8  14  27  48  75 103 141 188 230 268 317
#     4  10  21  38  60  83 111 150 195 241 286 340
#     4  10  20  34  52  84 116 149 187 228 284 347
#     4  10  20  34  52  84 118 150 184 229 291 342
#     4  10  21  38  60  85 111 146 193 243 294 341
#     4   8  14  27  49  74 104 142 186 229 267 321
#
# _framework density 22.159202000000001
#
# number of rings (size 3 to 8) (size 9 to 14) (size 15 to 20)
#    0.000    2.667    0.000    3.000    0.000    4.000 
#   12.000    0.000    0.000    0.000    0.000    4.667 
#    0.000    0.000    0.000    0.000    0.000    0.167 
#
# Total GULP energy -133946.922627 kJ/mol
# GULP energy per Si atom -5581.121776 kJ/mol
# Density = 2.210877 g / cm^3
# Si number density = 22.159202 Si / 1000 Ang^3
#
#
#
# Elastic Constant Matrix: (Units=GPa)
#
#
# Indices 1 2 3 4 5 6 
#
# 1 68.2944 63.4048 27.2509 0.0000 -16.2861 0.0000
# 2 63.4048 164.1517 70.7166 0.0000 -52.4497 0.0000
# 3 27.2509 70.7166 100.1115 0.0000 -31.1285 0.0000
# 4 0.0000 0.0000 0.0000 54.3744 0.0000 -58.5881
# 5 -16.2861 -52.4497 -31.1285 0.0000 54.0958 0.0000
# 6 0.0000 0.0000 0.0000 -58.5881 0.0000 76.6701
#
#
#
# Elastic Compliance Matrix: (Units=1/GPa)
#
#
# Indices 1 2 3 4 5 6 
#
# 1 0.023057 -0.009587 -0.000287 0.000000 -0.002519 0.000000
# 2 -0.009587 0.014703 -0.005165 0.000000 0.008397 0.000000
# 3 -0.000287 -0.005165 0.014775 0.000000 0.003407 0.000000
# 4 0.000000 0.000000 0.000000 0.104125 0.000000 0.079568
# 5 -0.002519 0.008397 0.003407 0.000000 0.027830 0.000000
# 6 0.000000 0.000000 0.000000 0.079568 0.000000 0.073846
#
#
# Mechanical properties :
#
#
# Convention : Reuss Voigt Hill
#
# Bulk Modulus (GPa) = 44.53179 72.81134 58.67156
# Shear Modulus (GPa) = 16.89750 48.44042 32.66896
#
# Velocity S-wave (km/s) = 2.76443 4.68056 3.84381
# Velocity P-wave (km/s) = 5.50721 7.88288 6.79960
#
# Compressibility (1/GPa) = 0.02245587
#
# Stress axis : x y z
#
# Youngs Moduli (GPa) = 43.37059 68.01155 67.68011
#
# Poissons Ratio (x) = 0.65203 0.01946
# Poissons Ratio (y) = 0.41580 0.34960
# Poissons Ratio (z) = 0.01247 0.35131
#
# Static dielectric constant tensor:
#      x y z
#    x 1.817440 0.000000 0.022110 
#    y 0.000000 1.967160 0.000000 
#    z 0.022110 0.000000 1.841980 
# 
# From -- ./inp_files/226939.got.cif
#   From: 2010.05.17/outbox.cif.g08.bks.cpg/sg12_114_cif.got.tgz:226939.got - 2010.06.03 13:09:07.
