data_PCOD9193824
_publ_section_title
;
Structure prediction by ZEFSAII (Michael W. Deem and Ramdas Pophale) SiO2 
 PCOD9193824
Probable space group: C 2/M
;
_chemical_formula_sum "Si O2"
_cell_formula_units_Z 64
_cell_length_a 24.572600
_cell_length_b 7.456168
_cell_length_c 17.095790
_cell_angle_alpha 90.000000
_cell_angle_beta 111.837920
_cell_angle_gamma 90.000000
_cell_volume 2907.476248
_symmetry_space_group_name_H-M "C 2/M"
_symmetry_group_IT_number 12
_symmetry_cell_setting 'monoclinic'
loop_
_space_group_symop_operation_xyz
x,y,z
-x,y,-z
-x,-y,-z
x,-y,z
1/2+x,1/2+y,z
1/2-x,1/2+y,-z
1/2-x,1/2-y,-z
1/2+x,1/2-y,z
loop_
_atom_site_type_symbol
_atom_site_label
_atom_site_fract_x
_atom_site_fract_y
_atom_site_fract_z
Si Si1 0.101350 0.711212 0.892767
Si Si2 0.985592 0.716528 0.742470
Si Si3 0.284967 0.218230 0.137309
Si Si4 0.838768 0.281942 0.331570
Si Si5 0.973170 0.719179 0.403273
Si Si6 0.747669 0.285239 0.407137
Si Si7 0.360963 0.287870 0.753035
Si Si8 0.845670 0.783524 0.921699
O O1 0.101689 0.500000 0.874259
O O2 0.161677 0.784775 0.887744
O O3 0.042184 0.782306 0.821671
O O4 0.106625 0.731761 0.988370
O O5 0.987403 0.500000 0.742925
O O6 0.924622 0.766170 0.749501
O O7 0.992377 0.776228 0.656108
O O8 0.301837 0.266480 0.235158
O O9 0.218999 0.280238 0.085553
O O10 0.283755 0.000000 0.131885
O O11 0.840818 0.500000 0.333640
O O12 0.905658 0.222465 0.360908
O O13 0.804659 0.220331 0.390316
O O14 0.973717 0.500000 0.403821
O O15 0.000000 0.777667 0.500000
O O16 0.747438 0.500000 0.399162
O O17 0.750000 0.250000 0.500000
O O18 0.689645 0.216191 0.331613
O O19 0.349614 0.500000 0.754229
O O20 0.357368 0.217693 0.839912
O O21 0.844549 0.000000 0.919610
#
# Coordination Sequence:
#
# PCOD9193824 Si02
#       8
#     8   8   8   8   8   8   8   8
#     4  10  20  34  54  81 110 136 168 221 280 318
#     4  10  21  36  55  80 108 139 177 222 269 314
#     4   9  15  30  54  78 106 137 171 216 268 316
#     4   9  15  29  54  79 105 137 172 216 264 309
#     4   9  17  29  50  82 109 131 171 221 262 307
#     4  10  21  36  57  83 109 141 178 218 265 313
#     4  10  22  39  55  75 108 146 181 217 259 312
#     4  10  20  35  56  79 103 139 184 218 256 320
#
# _framework density 22.012219000000002
#
# number of rings (size 3 to 8) (size 9 to 14) (size 15 to 20)
#    0.000    2.375    2.500    0.375    1.750    2.000 
#    0.000    2.500    0.000    1.875    0.000    0.000 
#    0.000    0.000    0.000    0.000    0.000    0.000 
#
# Total GULP energy -178756.208184 kJ/mol
# GULP energy per Si atom -5586.131506 kJ/mol
# Density = 2.196212 g / cm^3
# Si number density = 22.012219 Si / 1000 Ang^3
#
#
#
# Elastic Constant Matrix: (Units=GPa)
#
#
# Indices 1 2 3 4 5 6 
#
# 1 86.2746 -11.0767 8.0071 0.0000 -18.7198 0.0000
# 2 -11.0767 61.9868 -13.8624 0.0000 -0.2689 0.0000
# 3 8.0071 -13.8624 87.6165 0.0000 -16.4070 0.0000
# 4 0.0000 0.0000 0.0000 15.5219 0.0000 -2.3098
# 5 -18.7198 -0.2689 -16.4070 0.0000 32.2326 0.0000
# 6 0.0000 0.0000 0.0000 -2.3098 0.0000 11.2261
#
#
#
# Elastic Compliance Matrix: (Units=1/GPa)
#
#
# Indices 1 2 3 4 5 6 
#
# 1 0.013670 0.002642 0.000729 0.000000 0.008333 0.000000
# 2 0.002642 0.017314 0.003109 0.000000 0.003261 0.000000
# 3 0.000729 0.003109 0.013179 0.000000 0.007158 0.000000
# 4 0.000000 0.000000 0.000000 0.066460 0.000000 0.013674
# 5 0.008333 0.003261 0.007158 0.000000 0.039534 0.000000
# 6 0.000000 0.000000 0.000000 0.013674 0.000000 0.091892
#
#
# Mechanical properties :
#
#
# Convention : Reuss Voigt Hill
#
# Bulk Modulus (GPa) = 17.50622 22.44598 19.97610
# Shear Modulus (GPa) = 20.15065 28.65010 24.40037
#
# Velocity S-wave (km/s) = 3.02889 3.61162 3.33301
# Velocity P-wave (km/s) = 4.49471 5.25461 4.88945
#
# Compressibility (1/GPa) = 0.05712256
#
# Stress axis : x y z
#
# Youngs Moduli (GPa) = 73.15068 57.75698 75.87869
#
# Poissons Ratio (x) = -0.15259 -0.05532
# Poissons Ratio (y) = -0.19326 -0.23588
# Poissons Ratio (z) = -0.05333 -0.17954
#
# Static dielectric constant tensor:
#      x y z
#    x 1.772140 0.000000 -0.004530 
#    y 0.000000 1.872620 0.000000 
#    z -0.004530 0.000000 1.784860 
# 
# From -- ./inp_files/232526.got.cif
#   From: 2010.05.17/outbox.cif.g08.bks.cpg/sg12_117_cif.got.tgz:232526.got - 2010.06.03 13:09:07.
