data_PCOD9193154
_publ_section_title
;
Structure prediction by ZEFSAII (Michael W. Deem and Ramdas Pophale) SiO2 
 PCOD9193154
Probable space group: C 2/M
;
_chemical_formula_sum "Si O2"
_cell_formula_units_Z 56
_cell_length_a 22.365178
_cell_length_b 7.619013
_cell_length_c 13.916414
_cell_angle_alpha 90.000000
_cell_angle_beta 90.783996
_cell_angle_gamma 90.000000
_cell_volume 2371.143049
_symmetry_space_group_name_H-M "C 2/M"
_symmetry_group_IT_number 12
_symmetry_cell_setting 'monoclinic'
loop_
_space_group_symop_operation_xyz
x,y,z
-x,y,-z
-x,-y,-z
x,-y,z
1/2+x,1/2+y,z
1/2-x,1/2+y,-z
1/2-x,1/2-y,-z
1/2+x,1/2-y,z
loop_
_atom_site_type_symbol
_atom_site_label
_atom_site_fract_x
_atom_site_fract_y
_atom_site_fract_z
Si Si1 0.684549 0.700051 0.375106
Si Si2 0.619180 0.792792 0.875771
Si Si3 0.433757 0.698416 0.312346
Si Si4 0.382397 0.711856 0.901039
Si Si5 0.749064 0.709812 0.113589
Si Si6 0.311598 0.794594 0.406228
Si Si7 0.939072 0.215680 0.712459
O O1 0.683896 0.500000 0.337740
O O2 0.682876 0.703381 0.490725
O O3 0.750870 0.772386 0.352601
O O4 0.621867 0.777864 0.339240
O O5 0.573836 0.700678 0.803225
O O6 0.686225 0.723905 0.852455
O O7 0.617000 0.000000 0.855041
O O8 0.608888 0.770360 0.989261
O O9 0.433251 0.500000 0.349428
O O10 0.373744 0.782251 0.352139
O O11 0.498982 0.778146 0.332211
O O12 0.380380 0.500000 0.903907
O O13 0.317036 0.772331 0.859673
O O14 0.431265 0.765114 0.824139
O O15 0.750660 0.500000 0.128643
O O16 0.750000 0.750000 0.000000
O O17 0.300133 0.000000 0.424776
O O18 0.941364 0.000000 0.707742
#
# Coordination Sequence:
#
# PCOD9193154 Si02
#       7
#     8   8   8   8   8   8   8
#     4   9  19  39  66  89 113 146 187 231 279 337
#     4  10  20  34  52  79 114 151 189 233 291 339
#     4  11  23  38  56  82 115 152 196 235 276 333
#     4   9  17  33  56  79 106 145 194 240 280 325
#     4   8  15  27  48  73 100 132 175 227 277 325
#     4  10  21  38  63  91 118 145 179 230 290 342
#     4   9  20  37  59  84 110 150 198 238 273 325
#
# _framework density 23.6173
#
# number of rings (size 3 to 8) (size 9 to 14) (size 15 to 20)
#    0.000    2.571    0.000    1.286    2.000    2.286 
#    0.000    9.286    0.000    0.000    0.000    0.000 
#    0.000    0.000    0.000    0.000    0.000    0.000 
#
# Total GULP energy -156241.450061 kJ/mol
# GULP energy per Si atom -5580.051788 kJ/mol
# Density = 2.356355 g / cm^3
# Si number density = 23.617300 Si / 1000 Ang^3
#
#
#
# Elastic Constant Matrix: (Units=GPa)
#
#
# Indices 1 2 3 4 5 6 
#
# 1 191.2798 7.4460 54.8001 0.0000 -17.8429 0.0000
# 2 7.4460 58.6071 -1.2083 0.0000 -4.5089 0.0000
# 3 54.8001 -1.2083 62.3562 0.0000 -7.2453 0.0000
# 4 0.0000 0.0000 0.0000 16.2551 0.0000 -3.7822
# 5 -17.8429 -4.5089 -7.2453 0.0000 26.0066 0.0000
# 6 0.0000 0.0000 0.0000 -3.7822 0.0000 13.8872
#
#
#
# Elastic Compliance Matrix: (Units=1/GPa)
#
#
# Indices 1 2 3 4 5 6 
#
# 1 0.007290 -0.000807 -0.006053 0.000000 0.003175 0.000000
# 2 -0.000807 0.017413 0.001377 0.000000 0.002849 0.000000
# 3 -0.006053 0.001377 0.021629 0.000000 0.002111 0.000000
# 4 0.000000 0.000000 0.000000 0.065681 0.000000 0.017888
# 5 0.003175 0.002849 0.002111 0.000000 0.041713 0.000000
# 6 0.000000 0.000000 0.000000 0.017888 0.000000 0.076881
#
#
# Mechanical properties :
#
#
# Convention : Reuss Voigt Hill
#
# Bulk Modulus (GPa) = 28.27544 48.25766 38.26655
# Shear Modulus (GPa) = 19.73483 27.97678 23.85580
#
# Velocity S-wave (km/s) = 2.89383 3.44552 3.18165
# Velocity P-wave (km/s) = 4.81290 6.02547 5.45300
#
# Compressibility (1/GPa) = 0.03536639
#
# Stress axis : x y z
#
# Youngs Moduli (GPa) = 137.18022 57.42881 46.23528
#
# Poissons Ratio (x) = 0.04633 0.27986
# Poissons Ratio (y) = 0.11066 -0.06368
# Poissons Ratio (z) = 0.83036 -0.07910
#
# Static dielectric constant tensor:
#      x y z
#    x 1.941770 0.000000 0.003070 
#    y 0.000000 1.964030 0.000000 
#    z 0.003070 0.000000 1.875490 
# 
# From -- ./inp_files/231067.got.cif
#   From: 2010.05.17/outbox.cif.g08.bks.cpg/sg12_116_cif.got.tgz:231067.got - 2010.06.03 13:09:07.
