data_PCOD9193029
_publ_section_title
;
Structure prediction by ZEFSAII (Michael W. Deem and Ramdas Pophale) SiO2 
 PCOD9193029
Probable space group: C 2/M
;
_chemical_formula_sum "Si O2"
_cell_formula_units_Z 56
_cell_length_a 10.366736
_cell_length_b 17.974569
_cell_length_c 22.275883
_cell_angle_alpha 90.000000
_cell_angle_beta 53.493623
_cell_angle_gamma 90.000000
_cell_volume 3336.402237
_symmetry_space_group_name_H-M "C 2/M"
_symmetry_group_IT_number 12
_symmetry_cell_setting 'monoclinic'
loop_
_space_group_symop_operation_xyz
x,y,z
-x,y,-z
-x,-y,-z
x,-y,z
1/2+x,1/2+y,z
1/2-x,1/2+y,-z
1/2-x,1/2-y,-z
1/2+x,1/2-y,z
loop_
_atom_site_type_symbol
_atom_site_label
_atom_site_fract_x
_atom_site_fract_y
_atom_site_fract_z
Si Si1 0.341950 0.821181 0.852509
Si Si2 0.212691 0.913199 0.707557
Si Si3 0.318675 0.590818 0.540435
Si Si4 0.471591 0.317669 0.143198
Si Si5 0.974233 0.413060 0.298901
Si Si6 0.315041 0.090758 0.550522
Si Si7 0.342887 0.415932 0.001157
O O1 0.437274 0.752691 0.854641
O O2 0.178936 0.800332 0.860184
O O3 0.455804 0.865168 0.774666
O O4 0.287449 0.874900 0.921791
O O5 0.102709 0.865693 0.781978
O O6 0.392794 0.910695 0.684941
O O7 0.222942 0.886013 0.636279
O O8 0.162971 0.000000 0.722632
O O9 0.500000 0.615073 0.500000
O O10 0.314730 0.500000 0.541989
O O11 0.261981 0.614901 0.490427
O O12 0.193066 0.613671 0.626522
O O13 0.599107 0.366963 0.070794
O O14 0.959997 0.500000 0.284899
O O15 0.500000 0.114408 0.500000
O O16 0.314821 0.000000 0.552002
O O17 0.296204 0.500000 0.997455
O O18 0.500000 0.421030 0.000000
#
# Coordination Sequence:
#
# PCOD9193029 Si02
#       7
#     8   8   8   8   8   8   8
#     4  10  20  34  53  75 103 136 167 200 245 298
#     4   9  16  28  50  75  96 126 171 215 248 283
#     4   9  16  26  42  69 100 126 157 204 259 301
#     4  10  20  34  52  75 105 136 165 201 245 297
#     4   9  16  29  50  73  97 128 170 212 247 290
#     4   9  14  24  44  69  94 121 161 210 252 292
#     4   9  17  32  57  84 102 124 167 212 244 282
#
# _framework density 16.784548000000001
#
# number of rings (size 3 to 8) (size 9 to 14) (size 15 to 20)
#    0.000    2.714    1.429    1.286    0.000    3.429 
#    2.571    0.000    0.000    5.143    0.000    0.000 
#    0.000    0.000    0.000    0.000    0.000    0.000 
#
# Total GULP energy -156003.940450 kJ/mol
# GULP energy per Si atom -5571.569302 kJ/mol
# Density = 1.674635 g / cm^3
# Si number density = 16.784548 Si / 1000 Ang^3
#
#
#
# Elastic Constant Matrix: (Units=GPa)
#
#
# Indices 1 2 3 4 5 6 
#
# 1 87.3119 47.9319 70.8437 0.0000 -1.8567 0.0000
# 2 47.9319 78.7556 63.6335 0.0000 -1.1730 0.0000
# 3 70.8437 63.6335 166.4033 0.0000 -4.2950 0.0000
# 4 0.0000 0.0000 0.0000 -6.3166 0.0000 4.0829
# 5 -1.8567 -1.1730 -4.2950 0.0000 19.4663 0.0000
# 6 0.0000 0.0000 0.0000 4.0829 0.0000 21.4865
#
#
#
# Elastic Compliance Matrix: (Units=1/GPa)
#
#
# Indices 1 2 3 4 5 6 
#
# 1 0.020338 -0.007791 -0.005674 0.000000 0.000219 0.000000
# 2 -0.007791 0.021363 -0.004866 0.000000 -0.000529 0.000000
# 3 -0.005674 -0.004866 0.010323 0.000000 0.001443 0.000000
# 4 0.000000 0.000000 0.000000 -0.140996 0.000000 0.026792
# 5 0.000219 -0.000529 0.001443 0.000000 0.051678 0.000000
# 6 0.000000 0.000000 0.000000 0.026792 0.000000 0.041450
#
#
# Mechanical properties :
#
#
# Convention : Reuss Voigt Hill
#
# Bulk Modulus (GPa) = 65.09126 77.47656 71.28391
# Shear Modulus (GPa) = 108.83868 16.93136 62.88502
#
# Velocity S-wave (km/s) = 8.06135 3.17952 6.12759
# Velocity P-wave (km/s) = 11.20320 7.72909 9.62420
#
# Compressibility (1/GPa) = 0.01536305
#
# Stress axis : x y z
#
# Youngs Moduli (GPa) = 49.16796 46.81001 96.86860
#
# Poissons Ratio (x) = 0.36467 0.54963
# Poissons Ratio (y) = 0.38304 0.47139
# Poissons Ratio (z) = 0.27898 0.22779
#
# Static dielectric constant tensor:
#      x y z
#    x 1.555260 0.000000 0.000760 
#    y 0.000000 1.556870 0.000000 
#    z 0.000760 0.000000 1.563030 
# 
# From -- ./inp_files/263960.got.cif
#   From: 2010.05.17/outbox.cif.g08.bks.cpg/sg12_132_cif.got.tgz:263960.got - 2010.06.03 13:09:07.
