data_PCOD9193997
_publ_section_title
;
Structure prediction by ZEFSAII (Michael W. Deem and Ramdas Pophale) SiO2 
 PCOD9193997
Probable space group: C 2/M
;
_chemical_formula_sum "Si O2"
_cell_formula_units_Z 48
_cell_length_a 28.238612
_cell_length_b 7.868207
_cell_length_c 12.576252
_cell_angle_alpha 90.000000
_cell_angle_beta 72.851164
_cell_angle_gamma 90.000000
_cell_volume 2670.054675
_symmetry_space_group_name_H-M "C 2/M"
_symmetry_group_IT_number 12
_symmetry_cell_setting 'monoclinic'
loop_
_space_group_symop_operation_xyz
x,y,z
-x,y,-z
-x,-y,-z
x,-y,z
1/2+x,1/2+y,z
1/2-x,1/2+y,-z
1/2-x,1/2-y,-z
1/2+x,1/2-y,z
loop_
_atom_site_type_symbol
_atom_site_label
_atom_site_fract_x
_atom_site_fract_y
_atom_site_fract_z
Si Si1 0.938311 0.500000 0.421135
Si Si2 0.189496 0.804693 0.780527
Si Si3 0.703741 0.297990 0.364181
Si Si4 0.876576 0.193183 0.765496
Si Si5 0.553881 0.000000 0.328251
Si Si6 0.633693 0.704575 0.604743
Si Si7 0.805918 0.307530 0.987535
O O1 0.937920 0.500000 0.549697
O O2 0.910087 0.330777 0.399760
O O3 0.995308 0.500000 0.347475
O O4 0.244840 0.790447 0.696419
O O5 0.151984 0.757053 0.711593
O O6 0.186328 0.702450 0.891585
O O7 0.180320 0.000000 0.815403
O O8 0.713355 0.500000 0.353475
O O9 0.662730 0.260504 0.301422
O O10 0.679091 0.258476 0.493597
O O11 0.919565 0.332121 0.734716
O O12 0.893827 0.000000 0.734269
O O13 0.845383 0.200822 0.894821
O O14 0.623093 0.500000 0.602549
O O15 0.811364 0.500000 0.945792
O O16 0.750000 0.250000 0.000000
#
# Coordination Sequence:
#
# PCOD9193997 Si02
#       7
#     4   8   8   8   4   8   8
#     4  11  24  40  69  87 125 153 210 257 306 358
#     4  11  23  35  55  86 123 166 205 238 298 361
#     4  10  20  34  54  85 121 163 198 235 297 361
#     4  11  22  39  60  86 127 158 195 251 302 356
#     4  11  24  42  63  99 111 165 204 253 316 355
#     4  10  23  40  58  87 123 161 201 252 301 362
#     4  12  23  36  56  86 123 164 207 244 292 359
#
# _framework density 17.977159
#
# number of rings (size 3 to 8) (size 9 to 14) (size 15 to 20)
#    0.000    1.167    4.167    2.500    4.667    0.667 
#    0.000    1.667    0.000    2.000    0.000    3.500 
#    0.000    0.000    0.000    0.000    0.000    0.000 
#
# Total GULP energy -134090.166001 kJ/mol
# GULP energy per Si atom -5587.090250 kJ/mol
# Density = 1.793624 g / cm^3
# Si number density = 17.977159 Si / 1000 Ang^3
#
#
#
# Elastic Constant Matrix: (Units=GPa)
#
#
# Indices 1 2 3 4 5 6 
#
# 1 56.3527 30.7834 34.8880 0.0000 -9.6490 0.0000
# 2 30.7834 66.7156 23.0543 0.0000 -5.2384 0.0000
# 3 34.8880 23.0543 86.8092 0.0000 3.3024 0.0000
# 4 0.0000 0.0000 0.0000 24.1128 0.0000 0.4581
# 5 -9.6490 -5.2384 3.3024 0.0000 27.7798 0.0000
# 6 0.0000 0.0000 0.0000 0.4581 0.0000 18.5033
#
#
#
# Elastic Compliance Matrix: (Units=1/GPa)
#
#
# Indices 1 2 3 4 5 6 
#
# 1 0.031424 -0.010127 -0.010329 0.000000 0.010233 0.000000
# 2 -0.010127 0.020144 -0.001296 0.000000 0.000435 0.000000
# 3 -0.010329 -0.001296 0.016234 0.000000 -0.005762 0.000000
# 4 0.000000 0.000000 0.000000 0.041491 0.000000 -0.001027
# 5 0.010233 0.000435 -0.005762 0.000000 0.040319 0.000000
# 6 0.000000 0.000000 0.000000 -0.001027 0.000000 0.054070
#
#
# Mechanical properties :
#
#
# Convention : Reuss Voigt Hill
#
# Bulk Modulus (GPa) = 41.15594 43.03656 42.09625
# Shear Modulus (GPa) = 19.58592 22.15596 20.87094
#
# Velocity S-wave (km/s) = 3.30432 3.51444 3.41100
# Velocity P-wave (km/s) = 6.12382 6.36081 6.24344
#
# Compressibility (1/GPa) = 0.02429783
#
# Stress axis : x y z
#
# Youngs Moduli (GPa) = 31.82269 49.64330 61.59845
#
# Poissons Ratio (x) = 0.50272 0.63625
# Poissons Ratio (y) = 0.32226 0.07985
# Poissons Ratio (z) = 0.32870 0.06436
#
# Static dielectric constant tensor:
#      x y z
#    x 1.582180 0.000000 0.012330 
#    y 0.000000 1.543450 0.000000 
#    z 0.012330 0.000000 1.630380 
# 
# From -- ./inp_files/172961.got.cif
#   From: 2010.05.17/outbox.cif.g08.bks.cpg/sg12_87_cif.got.tgz:172961.got - 2010.06.03 13:09:07.
