data_PCOD9193418
_publ_section_title
;
Structure prediction by ZEFSAII (Michael W. Deem and Ramdas Pophale) SiO2 
 PCOD9193418
Probable space group: C 2/M
;
_chemical_formula_sum "Si O2"
_cell_formula_units_Z 56
_cell_length_a 29.394586
_cell_length_b 7.770291
_cell_length_c 11.420474
_cell_angle_alpha 90.000000
_cell_angle_beta 71.971750
_cell_angle_gamma 90.000000
_cell_volume 2480.421303
_symmetry_space_group_name_H-M "C 2/M"
_symmetry_group_IT_number 12
_symmetry_cell_setting 'monoclinic'
loop_
_space_group_symop_operation_xyz
x,y,z
-x,y,-z
-x,-y,-z
x,-y,z
1/2+x,1/2+y,z
1/2-x,1/2+y,-z
1/2-x,1/2-y,-z
1/2+x,1/2-y,z
loop_
_atom_site_type_symbol
_atom_site_label
_atom_site_fract_x
_atom_site_fract_y
_atom_site_fract_z
Si Si1 0.276871 0.794244 0.859548
Si Si2 0.549027 0.797251 0.215790
Si Si3 0.844804 0.199232 0.455312
Si Si4 0.700140 0.296226 0.740934
Si Si5 0.443323 0.206530 0.262532
Si Si6 0.628520 0.299635 0.318290
Si Si7 0.102316 0.294277 0.944911
O O1 0.245068 0.725491 0.776430
O O2 0.329976 0.721252 0.810437
O O3 0.280341 0.000000 0.848975
O O4 0.250000 0.750000 0.000000
O O5 0.495094 0.729261 0.261541
O O6 0.579758 0.778001 0.308401
O O7 0.543378 0.000000 0.195070
O O8 0.580250 0.725250 0.082817
O O9 0.812052 0.277351 0.378059
O O10 0.898596 0.206796 0.361562
O O11 0.849515 0.278924 0.580105
O O12 0.829956 0.000000 0.481065
O O13 0.707916 0.500000 0.720000
O O14 0.652943 0.276390 0.859395
O O15 0.435308 0.233781 0.130412
O O16 0.439060 0.000000 0.286910
O O17 0.619186 0.500000 0.347069
O O18 0.109707 0.500000 0.950837
#
# Coordination Sequence:
#
# PCOD9193418 Si02
#       7
#     8   8   8   8   8   8   8
#     4  11  23  39  60  85 112 140 173 215 265 321
#     4  10  20  34  53  78 110 145 180 222 271 319
#     4   9  20  39  57  76 106 142 180 222 267 314
#     4   9  19  36  57  79 105 139 177 219 265 314
#     4   9  18  33  55  81 107 139 180 224 268 318
#     4  11  24  39  55  77 108 144 182 223 265 314
#     4   9  17  31  53  81 110 139 174 218 268 320
#
# _framework density 22.576809999999998
#
# number of rings (size 3 to 8) (size 9 to 14) (size 15 to 20)
#    0.000    2.286    0.000    2.143    0.000    8.571 
#    0.000    2.857    0.000    4.286    0.000    0.000 
#    0.000    0.000    0.000    0.000    0.000    0.000 
#
# Total GULP energy -156384.042512 kJ/mol
# GULP energy per Si atom -5585.144375 kJ/mol
# Density = 2.252542 g / cm^3
# Si number density = 22.576810 Si / 1000 Ang^3
#
#
#
# Elastic Constant Matrix: (Units=GPa)
#
#
# Indices 1 2 3 4 5 6 
#
# 1 115.6440 -3.2507 -0.9436 0.0000 9.5759 0.0000
# 2 -3.2507 34.4711 -4.3735 0.0000 3.4970 0.0000
# 3 -0.9436 -4.3735 52.3239 0.0000 13.3703 0.0000
# 4 0.0000 0.0000 0.0000 17.8323 0.0000 -0.6164
# 5 9.5759 3.4970 13.3703 0.0000 18.3610 0.0000
# 6 0.0000 0.0000 0.0000 -0.6164 0.0000 3.4170
#
#
#
# Elastic Compliance Matrix: (Units=1/GPa)
#
#
# Indices 1 2 3 4 5 6 
#
# 1 0.009264 0.001803 0.002015 0.000000 -0.006643 0.000000
# 2 0.001803 0.030950 0.005364 0.000000 -0.010741 0.000000
# 3 0.002015 0.005364 0.024727 0.000000 -0.020079 0.000000
# 4 0.000000 0.000000 0.000000 0.056430 0.000000 0.010180
# 5 -0.006643 -0.010741 -0.020079 0.000000 0.074595 0.000000
# 6 0.000000 0.000000 0.000000 0.010180 0.000000 0.294495
#
#
# Mechanical properties :
#
#
# Convention : Reuss Voigt Hill
#
# Bulk Modulus (GPa) = 12.00379 20.58926 16.29652
# Shear Modulus (GPa) = 10.00270 21.98916 15.99593
#
# Velocity S-wave (km/s) = 2.10716 3.12424 2.66468
# Velocity P-wave (km/s) = 3.35389 4.70679 4.08672
#
# Compressibility (1/GPa) = 0.08330706
#
# Stress axis : x y z
#
# Youngs Moduli (GPa) = 107.94007 32.30998 40.44132
#
# Poissons Ratio (x) = -0.05826 -0.08150
# Poissons Ratio (y) = -0.19464 -0.21694
# Poissons Ratio (z) = -0.21752 -0.17332
#
# Static dielectric constant tensor:
#      x y z
#    x 1.833240 0.000000 0.047320 
#    y 0.000000 1.843820 0.000000 
#    z 0.047320 0.000000 1.861740 
# 
# From -- ./inp_files/180713.got.cif
#   From: 2010.05.17/outbox.cif.g08.bks.cpg/sg12_91_cif.got.tgz:180713.got - 2010.06.03 13:09:07.
