data_PCOD9193909
_publ_section_title
;
Structure prediction by ZEFSAII (Michael W. Deem and Ramdas Pophale) SiO2 
 PCOD9193909
Probable space group: C 2/M
;
_chemical_formula_sum "Si O2"
_cell_formula_units_Z 64
_cell_length_a 16.047905
_cell_length_b 17.615491
_cell_length_c 14.768632
_cell_angle_alpha 90.000000
_cell_angle_beta 49.829491
_cell_angle_gamma 90.000000
_cell_volume 3190.212175
_symmetry_space_group_name_H-M "C 2/M"
_symmetry_group_IT_number 12
_symmetry_cell_setting 'monoclinic'
loop_
_space_group_symop_operation_xyz
x,y,z
-x,y,-z
-x,-y,-z
x,-y,z
1/2+x,1/2+y,z
1/2-x,1/2+y,-z
1/2-x,1/2-y,-z
1/2+x,1/2-y,z
loop_
_atom_site_type_symbol
_atom_site_label
_atom_site_fract_x
_atom_site_fract_y
_atom_site_fract_z
Si Si1 0.969757 0.794727 0.420909
Si Si2 0.206024 0.163415 0.205246
Si Si3 0.352554 0.151493 0.440444
Si Si4 0.250026 0.839552 0.979203
Si Si5 0.908431 0.588191 0.733722
Si Si6 0.701608 0.588930 0.400061
Si Si7 0.766256 0.090089 0.302954
Si Si8 0.377006 0.301868 0.097784
O O1 0.884869 0.738715 0.432965
O O2 0.908837 0.873687 0.483120
O O3 0.000000 0.763129 0.500000
O O4 0.083068 0.803051 0.289031
O O5 0.232315 0.125561 0.090335
O O6 0.206906 0.108067 0.290293
O O7 0.291811 0.231870 0.163668
O O8 0.467332 0.108516 0.371198
O O9 0.299989 0.131571 0.381602
O O10 0.270990 0.121105 0.574311
O O11 0.250000 0.750000 0.000000
O O12 0.359199 0.864969 0.851918
O O13 0.157365 0.849438 0.968033
O O14 0.897407 0.500000 0.763628
O O15 0.834651 0.602184 0.696579
O O16 0.706920 0.500000 0.413799
O O17 0.860462 0.142135 0.194086
O O18 0.789976 0.000000 0.289516
O O19 0.500000 0.274623 0.000000
#
# Coordination Sequence:
#
# PCOD9193909 Si02
#       8
#     8   8   8   8   8   8   8   8
#     4  10  21  39  64  88 116 157 207 252 296 357
#     4  10  22  40  61  83 111 161 210 244 288 354
#     4  12  21  37  61  90 122 153 195 250 308 357
#     4   9  19  37  57  80 111 152 200 243 290 355
#     4  10  20  34  56  86 118 151 192 249 310 366
#     4  11  25  40  57  90 130 162 199 249 300 355
#     4  10  20  34  54  82 117 156 193 233 300 376
#     4  10  21  37  59  88 117 143 190 259 312 352
#
# _framework density 20.061361000000002
#
# number of rings (size 3 to 8) (size 9 to 14) (size 15 to 20)
#    0.000    1.750    0.000    6.375    0.000    8.000 
#    0.000    0.000    0.000    1.875    0.000    0.000 
#    0.000    0.000    0.000    0.000    0.000    0.000 
#
# Total GULP energy -178738.890975 kJ/mol
# GULP energy per Si atom -5585.590343 kJ/mol
# Density = 2.001570 g / cm^3
# Si number density = 20.061361 Si / 1000 Ang^3
#
#
#
# Elastic Constant Matrix: (Units=GPa)
#
#
# Indices 1 2 3 4 5 6 
#
# 1 42.1119 15.4307 14.4935 0.0000 -0.7323 0.0000
# 2 15.4307 61.5659 11.4808 0.0000 2.7950 0.0000
# 3 14.4935 11.4808 77.7729 0.0000 10.4006 0.0000
# 4 0.0000 0.0000 0.0000 14.4296 0.0000 -2.5082
# 5 -0.7323 2.7950 10.4006 0.0000 36.6279 0.0000
# 6 0.0000 0.0000 0.0000 -2.5082 0.0000 17.2393
#
#
#
# Elastic Compliance Matrix: (Units=1/GPa)
#
#
# Indices 1 2 3 4 5 6 
#
# 1 0.027614 -0.006179 -0.004543 0.000000 0.002314 0.000000
# 2 -0.006179 0.018098 -0.001371 0.000000 -0.001115 0.000000
# 3 -0.004543 -0.001371 0.014454 0.000000 -0.004090 0.000000
# 4 0.000000 0.000000 0.000000 0.071100 0.000000 0.010344
# 5 0.002314 -0.001115 -0.004090 0.000000 0.028594 0.000000
# 6 0.000000 0.000000 0.000000 0.010344 0.000000 0.059512
#
#
# Mechanical properties :
#
#
# Convention : Reuss Voigt Hill
#
# Bulk Modulus (GPa) = 27.79363 29.36231 28.57797
# Shear Modulus (GPa) = 19.56548 22.99574 21.28061
#
# Velocity S-wave (km/s) = 3.12634 3.38933 3.26049
# Velocity P-wave (km/s) = 5.18810 5.47584 5.33391
#
# Compressibility (1/GPa) = 0.03597946
#
# Stress axis : x y z
#
# Youngs Moduli (GPa) = 36.21319 55.25553 69.18483
#
# Poissons Ratio (x) = 0.34142 0.31433
# Poissons Ratio (y) = 0.22376 0.09485
# Poissons Ratio (z) = 0.16453 0.07575
#
# Static dielectric constant tensor:
#      x y z
#    x 1.730640 0.000000 0.017110 
#    y 0.000000 1.712020 0.000000 
#    z 0.017110 0.000000 1.718990 
# 
# From -- ./inp_files/216778.got.cif
#   From: 2010.05.17/outbox.cif.g08.bks.cpg/sg12_109_cif.got.tgz:216778.got - 2010.06.03 13:09:07.
