data_PCOD9193310
_publ_section_title
;
Structure prediction by ZEFSAII (Michael W. Deem and Ramdas Pophale) SiO2 
 PCOD9193310
Probable space group: C 2/M
;
_chemical_formula_sum "Si O2"
_cell_formula_units_Z 64
_cell_length_a 20.442509
_cell_length_b 7.404333
_cell_length_c 35.939457
_cell_angle_alpha 90.000000
_cell_angle_beta 147.930550
_cell_angle_gamma 90.000000
_cell_volume 2888.302495
_symmetry_space_group_name_H-M "C 2/M"
_symmetry_group_IT_number 12
_symmetry_cell_setting 'monoclinic'
loop_
_space_group_symop_operation_xyz
x,y,z
-x,y,-z
-x,-y,-z
x,-y,z
1/2+x,1/2+y,z
1/2-x,1/2+y,-z
1/2-x,1/2-y,-z
1/2+x,1/2-y,z
loop_
_atom_site_type_symbol
_atom_site_label
_atom_site_fract_x
_atom_site_fract_y
_atom_site_fract_z
Si Si1 0.308600 0.279373 0.210819
Si Si2 0.358599 0.219963 0.939139
Si Si3 0.385977 0.785038 0.823806
Si Si4 0.354161 0.784062 0.019879
Si Si5 0.681538 0.283743 0.292601
Si Si6 0.459538 0.779841 0.438730
Si Si7 0.704363 0.784599 0.519451
Si Si8 0.580369 0.721040 0.321972
O O1 0.311118 0.500000 0.212335
O O2 0.231143 0.222421 0.137146
O O3 0.232774 0.218390 0.210510
O O4 0.449361 0.219646 0.275014
O O5 0.356219 0.000000 0.937150
O O6 0.500000 0.273190 0.000000
O O7 0.322594 0.280875 0.963173
O O8 0.513505 0.713680 0.902401
O O9 0.375090 0.755014 0.774762
O O10 0.388150 0.000000 0.830679
O O11 0.366092 0.000000 0.022415
O O12 0.250000 0.750000 0.000000
O O13 0.687315 0.500000 0.298745
O O14 0.822357 0.216229 0.363205
O O15 0.603932 0.220939 0.290859
O O16 0.500000 0.729836 0.500000
O O17 0.567360 0.717943 0.462967
O O18 0.455500 0.000000 0.435947
O O19 0.750000 0.750000 0.500000
O O20 0.805467 0.718135 0.597681
O O21 0.699446 0.000000 0.522134
O O22 0.579737 0.500000 0.322111
#
# Coordination Sequence:
#
# PCOD9193310 Si02
#       8
#     8   8   8   8   8   8   8   8
#     4   9  17  30  50  75 102 131 170 216 256 298
#     4   9  15  29  52  74  95 128 174 213 244 293
#     4  10  21  36  52  76 111 141 165 207 269 318
#     4  10  21  35  54  80 107 136 172 216 262 307
#     4  10  20  34  55  79 103 136 179 217 254 309
#     4   9  16  32  55  75  99 135 176 217 257 300
#     4  10  20  34  53  77 105 135 172 218 265 308
#     4   9  18  32  51  76 101 132 177 220 252 297
#
# _framework density 22.158344
#
# number of rings (size 3 to 8) (size 9 to 14) (size 15 to 20)
#    0.000    2.500    2.500    0.000    3.500    0.500 
#    0.000    0.625    0.000    2.625    0.000    0.000 
#    0.000    0.000    0.000    0.000    0.000    0.000 
#
# Total GULP energy -178790.961190 kJ/mol
# GULP energy per Si atom -5587.217537 kJ/mol
# Density = 2.210791 g / cm^3
# Si number density = 22.158344 Si / 1000 Ang^3
#
#
#
# Elastic Constant Matrix: (Units=GPa)
#
#
# Indices 1 2 3 4 5 6 
#
# 1 159.8989 -1.9175 20.3666 -0.0008 0.7440 0.0008
# 2 -1.9175 72.1906 -0.2687 -0.0007 4.6684 -0.0008
# 3 20.3666 -0.2687 47.8063 -0.0004 -0.2138 0.0009
# 4 -0.0008 -0.0007 -0.0004 2.6474 0.0002 -8.0062
# 5 0.7440 4.6684 -0.2138 0.0002 45.5124 -0.0007
# 6 0.0008 -0.0008 0.0009 -8.0062 -0.0007 15.5312
#
#
#
# Elastic Compliance Matrix: (Units=1/GPa)
#
#
# Indices 1 2 3 4 5 6 
#
# 1 0.006616 0.000174 -0.002818 -0.000002 -0.000139 -0.000001
# 2 0.000174 0.013950 -0.000002 -0.000011 -0.001434 -0.000005
# 3 -0.002818 -0.000002 0.022119 0.000002 0.000150 0.000000
# 4 -0.000002 -0.000011 0.000002 -0.675775 -0.000001 -0.348357
# 5 -0.000139 -0.001434 0.000150 -0.000001 0.022122 0.000000
# 6 -0.000001 -0.000005 0.000000 -0.348357 0.000000 -0.115189
#
#
# Mechanical properties :
#
#
# Convention : Reuss Voigt Hill
#
# Bulk Modulus (GPa) = 26.74369 35.13964 30.94166
# Shear Modulus (GPa) = -7.05814 30.18589 11.56388
#
# Velocity S-wave (km/s) = -1.78668 3.69491 2.28694
# Velocity P-wave (km/s) = 2.79986 5.83918 4.57904
#
# Compressibility (1/GPa) = 0.03739200
#
# Stress axis : x y z
#
# Youngs Moduli (GPa) = 151.15721 71.68688 45.21011
#
# Poissons Ratio (x) = -0.01249 0.12740
# Poissons Ratio (y) = -0.02634 0.00010
# Poissons Ratio (z) = 0.42597 0.00016
#
# Static dielectric constant tensor:
#      x y z
#    x 1.794710 0.000000 0.011860 
#    y 0.000000 1.902300 0.000000 
#    z 0.011860 0.000000 1.767710 
# 
# From -- ./inp_files/361061.got.cif
#   From: 2010.05.17/outbox.cif.g08.bks.cpg/sg12_181_cif.got.tgz:361061.got - 2010.06.03 13:09:07.
