data_PCOD9193445
_publ_section_title
;
Structure prediction by ZEFSAII (Michael W. Deem and Ramdas Pophale) SiO2 
 PCOD9193445
Probable space group: C 2/M
;
_chemical_formula_sum "Si O2"
_cell_formula_units_Z 52
_cell_length_a 8.726475
_cell_length_b 29.542164
_cell_length_c 15.107431
_cell_angle_alpha 90.000000
_cell_angle_beta 135.500816
_cell_angle_gamma 90.000000
_cell_volume 2729.777684
_symmetry_space_group_name_H-M "C 2/M"
_symmetry_group_IT_number 12
_symmetry_cell_setting 'monoclinic'
loop_
_space_group_symop_operation_xyz
x,y,z
-x,y,-z
-x,-y,-z
x,-y,z
1/2+x,1/2+y,z
1/2-x,1/2+y,-z
1/2-x,1/2-y,-z
1/2+x,1/2-y,z
loop_
_atom_site_type_symbol
_atom_site_label
_atom_site_fract_x
_atom_site_fract_y
_atom_site_fract_z
Si Si1 0.598335 0.696877 0.356023
Si Si2 0.902344 0.119921 0.055676
Si Si3 0.500000 0.258889 0.500000
Si Si4 0.446271 0.407309 0.703624
Si Si5 0.248079 0.289339 0.072073
Si Si6 0.450019 0.071957 0.881505
Si Si7 0.660084 0.500000 0.434280
Si Si8 0.661046 0.000000 0.302309
O O1 0.569633 0.710043 0.446547
O O2 0.798815 0.725197 0.398509
O O3 0.631725 0.642605 0.358644
O O4 0.383873 0.716009 0.218168
O O5 0.886480 0.170809 0.083107
O O6 0.043253 0.092093 0.185487
O O7 0.649510 0.105651 0.953393
O O8 0.000000 0.115466 0.000000
O O9 0.705302 0.408584 0.785347
O O10 0.332523 0.452425 0.617004
O O11 0.250000 0.250000 0.000000
O O12 0.000000 0.300130 0.000000
O O13 0.450439 0.041511 0.794234
O O14 0.500000 0.050505 0.000000
O O15 0.413225 0.500000 0.372276
O O16 0.824337 0.500000 0.585748
#
# Coordination Sequence:
#
# PCOD9193445 Si02
#       8
#     8   8   4   8   8   8   4   4
#     4  10  21  38  57  84 113 149 189 229 277 332
#     4  10  20  34  53  79 108 143 183 224 280 338
#     4  10  22  38  58  80 112 152 192 226 270 334
#     4   9  19  37  58  79 111 143 185 236 280 332
#     4  11  21  36  58  85 115 144 181 234 290 342
#     4   9  17  32  54  80 106 137 175 226 282 331
#     4   9  18  34  54  81 107 143 186 232 280 327
#     4   9  17  30  54  81 104 132 184 231 272 334
#
# _framework density 19.049171000000001
#
# number of rings (size 3 to 8) (size 9 to 14) (size 15 to 20)
#    0.000    2.308    0.000    3.923    0.000    5.538 
#    0.000    9.231    0.000    1.385    0.000    0.000 
#    0.000    0.000    0.000    0.000    0.000    0.000 
#
# Total GULP energy -144739.330336 kJ/mol
# GULP energy per Si atom -5566.897321 kJ/mol
# Density = 1.900581 g / cm^3
# Si number density = 19.049171 Si / 1000 Ang^3
#
#
#
# Elastic Constant Matrix: (Units=GPa)
#
#
# Indices 1 2 3 4 5 6 
#
# 1 67.1732 17.5788 9.5411 0.0000 -20.6432 0.0000
# 2 17.5788 92.3113 36.9051 0.0000 -23.3262 0.0000
# 3 9.5411 36.9051 88.7555 0.0000 -15.7595 0.0000
# 4 0.0000 0.0000 0.0000 20.8650 0.0000 -7.0784
# 5 -20.6432 -23.3262 -15.7595 0.0000 31.8943 0.0000
# 6 0.0000 0.0000 0.0000 -7.0784 0.0000 23.3182
#
#
#
# Elastic Compliance Matrix: (Units=1/GPa)
#
#
# Indices 1 2 3 4 5 6 
#
# 1 0.018622 -0.000744 0.000385 0.000000 0.011699 0.000000
# 2 -0.000744 0.014889 -0.004673 0.000000 0.008099 0.000000
# 3 0.000385 -0.004673 0.013818 0.000000 0.003659 0.000000
# 4 0.000000 0.000000 0.000000 0.053429 0.000000 0.016219
# 5 0.011699 0.008099 0.003659 0.000000 0.046657 0.000000
# 6 0.000000 0.000000 0.000000 0.016219 0.000000 0.047808
#
#
# Mechanical properties :
#
#
# Convention : Reuss Voigt Hill
#
# Bulk Modulus (GPa) = 26.83437 41.80999 34.32218
# Shear Modulus (GPa) = 22.96626 27.49651 25.23138
#
# Velocity S-wave (km/s) = 3.47599 3.80340 3.64337
# Velocity P-wave (km/s) = 5.49795 6.42525 5.97960
#
# Compressibility (1/GPa) = 0.03726563
#
# Stress axis : x y z
#
# Youngs Moduli (GPa) = 53.69946 67.16221 72.36753
#
# Poissons Ratio (x) = 0.04995 -0.02784
# Poissons Ratio (y) = 0.03994 0.33818
# Poissons Ratio (z) = -0.02066 0.31385
#
# Static dielectric constant tensor:
#      x y z
#    x 1.646710 0.000000 -0.014990 
#    y 0.000000 1.694780 0.000000 
#    z -0.014990 0.000000 1.727170 
# 
# From -- ./inp_files/201392.got.cif
#   From: 2010.05.17/outbox.cif.g08.bks.cpg/sg12_101_cif.got.tgz:201392.got - 2010.06.03 13:09:07.
