data_PCOD9193428
_publ_section_title
;
Structure prediction by ZEFSAII (Michael W. Deem and Ramdas Pophale) SiO2 
 PCOD9193428
Probable space group: C 2/M
;
_chemical_formula_sum "Si O2"
_cell_formula_units_Z 48
_cell_length_a 19.274016
_cell_length_b 9.153792
_cell_length_c 15.211390
_cell_angle_alpha 90.000000
_cell_angle_beta 99.433532
_cell_angle_gamma 90.000000
_cell_volume 2647.456660
_symmetry_space_group_name_H-M "C 2/M"
_symmetry_group_IT_number 12
_symmetry_cell_setting 'monoclinic'
loop_
_space_group_symop_operation_xyz
x,y,z
-x,y,-z
-x,-y,-z
x,-y,z
1/2+x,1/2+y,z
1/2-x,1/2+y,-z
1/2-x,1/2-y,-z
1/2+x,1/2-y,z
loop_
_atom_site_type_symbol
_atom_site_label
_atom_site_fract_x
_atom_site_fract_y
_atom_site_fract_z
Si Si1 0.560079 0.172470 0.265228
Si Si2 0.322856 0.328121 0.371185
Si Si3 0.699516 0.329831 0.249651
Si Si4 0.423829 0.172403 0.522707
Si Si5 0.788122 0.329143 0.088120
Si Si6 0.088066 0.172756 0.789888
O O1 0.626188 0.245606 0.231694
O O2 0.573563 0.190912 0.372422
O O3 0.487371 0.251105 0.226935
O O4 0.555468 0.000000 0.246069
O O5 0.309020 0.500000 0.378751
O O6 0.251577 0.244736 0.331003
O O7 0.362595 0.261981 0.462920
O O8 0.375253 0.308503 0.298351
O O9 0.688810 0.500000 0.268835
O O10 0.738777 0.320109 0.164227
O O11 0.500000 0.216681 0.500000
O O12 0.414339 0.000000 0.500505
O O13 0.800352 0.500000 0.071642
O O14 0.860036 0.248651 0.129909
O O15 0.750000 0.250000 0.000000
O O16 0.082338 0.000000 0.805242
#
# Coordination Sequence:
#
# PCOD9193428 Si02
#       6
#     8   8   8   8   8   8
#     4  11  22  36  56  82 114 151 189 232 280 326
#     4  10  20  34  55  81 109 147 194 236 274 324
#     4  10  22  39  58  81 114 149 182 226 282 334
#     4  10  20  34  53  78 111 150 193 236 277 323
#     4  10  21  39  64  89 112 142 180 224 275 334
#     4  10  20  35  57  84 114 147 185 228 276 331
#
# _framework density 18.130609
#
# number of rings (size 3 to 8) (size 9 to 14) (size 15 to 20)
#    0.000    1.833    1.667    2.500    0.000    5.667 
#    0.000    0.833    0.000    5.000    0.000    0.000 
#    0.000    0.000    0.000    0.000    0.000    0.000 
#
# Total GULP energy -134103.843892 kJ/mol
# GULP energy per Si atom -5587.660162 kJ/mol
# Density = 1.808934 g / cm^3
# Si number density = 18.130609 Si / 1000 Ang^3
#
#
#
# Elastic Constant Matrix: (Units=GPa)
#
#
# Indices 1 2 3 4 5 6 
#
# 1 134.6843 98.8314 36.7421 0.0000 31.0547 0.0000
# 2 98.8314 152.1027 60.2386 0.0000 31.3043 0.0000
# 3 36.7421 60.2386 53.5849 0.0000 33.2909 0.0000
# 4 0.0000 0.0000 0.0000 30.4890 0.0000 6.6186
# 5 31.0547 31.3043 33.2909 0.0000 28.9835 0.0000
# 6 0.0000 0.0000 0.0000 6.6186 0.0000 37.6652
#
#
#
# Elastic Compliance Matrix: (Units=1/GPa)
#
#
# Indices 1 2 3 4 5 6 
#
# 1 0.019723 -0.015704 0.023469 0.000000 -0.031129 0.000000
# 2 -0.015704 0.025023 -0.038496 0.000000 0.034016 0.000000
# 3 0.023469 -0.038496 0.124434 0.000000 -0.126495 0.000000
# 4 0.000000 0.000000 0.000000 0.034099 0.000000 -0.005992
# 5 -0.031129 0.034016 -0.126495 0.000000 0.176410 0.000000
# 6 0.000000 0.000000 0.000000 -0.005992 0.000000 0.027603
#
#
# Mechanical properties :
#
#
# Convention : Reuss Voigt Hill
#
# Bulk Modulus (GPa) = 9.28341 81.33290 45.30815
# Shear Modulus (GPa) = 9.90766 29.06485 19.48625
#
# Velocity S-wave (km/s) = 2.34018 4.00819 3.28193
# Velocity P-wave (km/s) = 3.52610 8.14725 6.27738
#
# Compressibility (1/GPa) = 0.10771909
#
# Stress axis : x y z
#
# Youngs Moduli (GPa) = 50.70210 39.96270 8.03637
#
# Poissons Ratio (x) = 0.62756 -0.18861
# Poissons Ratio (y) = 0.79620 0.30937
# Poissons Ratio (z) = -1.18994 1.53842
#
# Static dielectric constant tensor:
#      x y z
#    x 1.599900 0.000000 -0.019150 
#    y 0.000000 1.604080 0.000000 
#    z -0.019150 0.000000 1.600160 
# 
# From -- ./inp_files/221622.got.cif
#   From: 2010.05.17/outbox.cif.g08.bks.cpg/sg12_111_cif.got.tgz:221622.got - 2010.06.03 13:09:07.
