data_PCOD9193093
_publ_section_title
;
Structure prediction by ZEFSAII (Michael W. Deem and Ramdas Pophale) SiO2 
 PCOD9193093
Probable space group: C 2/M
;
_chemical_formula_sum "Si O2"
_cell_formula_units_Z 64
_cell_length_a 15.983938
_cell_length_b 13.653112
_cell_length_c 17.018818
_cell_angle_alpha 90.000000
_cell_angle_beta 53.874549
_cell_angle_gamma 90.000000
_cell_volume 2999.922357
_symmetry_space_group_name_H-M "C 2/M"
_symmetry_group_IT_number 12
_symmetry_cell_setting 'monoclinic'
loop_
_space_group_symop_operation_xyz
x,y,z
-x,y,-z
-x,-y,-z
x,-y,z
1/2+x,1/2+y,z
1/2-x,1/2+y,-z
1/2-x,1/2-y,-z
1/2+x,1/2-y,z
loop_
_atom_site_type_symbol
_atom_site_label
_atom_site_fract_x
_atom_site_fract_y
_atom_site_fract_z
Si Si1 0.643993 0.212972 0.018168
Si Si2 0.671158 0.697669 0.742675
Si Si3 0.100743 0.615113 0.199453
Si Si4 0.650354 0.390266 0.912372
Si Si5 0.199454 0.609628 0.829921
Si Si6 0.883020 0.297642 0.553623
Si Si7 0.584453 0.390384 0.360375
Si Si8 0.434105 0.744553 0.363150
O O1 0.584169 0.160236 0.121474
O O2 0.750000 0.250000 0.000000
O O3 0.602055 0.308926 0.996600
O O4 0.665011 0.136970 0.936393
O O5 0.626063 0.627021 0.834346
O O6 0.669207 0.803099 0.788103
O O7 0.786652 0.660065 0.655029
O O8 0.616343 0.716190 0.690630
O O9 0.075000 0.500000 0.216405
O O10 0.223573 0.624106 0.151373
O O11 0.029313 0.680483 0.295079
O O12 0.626179 0.500000 0.950940
O O13 0.164660 0.500000 0.827055
O O14 0.323885 0.611909 0.754570
O O15 0.889249 0.187895 0.586916
O O16 0.864577 0.291872 0.470493
O O17 0.000000 0.338940 0.500000
O O18 0.579649 0.500000 0.393241
O O19 0.482454 0.352403 0.374739
#
# Coordination Sequence:
#
# PCOD9193093 Si02
#       8
#     8   8   8   8   8   8   8   8
#     4   9  16  30  54  81 105 131 176 225 265 304
#     4  10  20  34  52  77 108 140 173 213 266 321
#     4  10  20  35  55  78 105 139 179 221 262 307
#     4   9  18  34  55  77 105 140 176 216 262 313
#     4   9  17  32  54  77 101 133 177 224 265 308
#     4   9  18  34  56  77 101 135 177 221 262 305
#     4   9  18  33  55  80 104 133 173 221 268 312
#     4  11  21  33  51  76 110 141 173 215 265 318
#
# _framework density 21.333884999999999
#
# number of rings (size 3 to 8) (size 9 to 14) (size 15 to 20)
#    0.000    2.500    0.000    4.500    0.000    3.750 
#    0.000    3.750    0.000   14.250    0.000    0.000 
#    0.000    0.000    0.000    0.000    0.000    0.000 
#
# Total GULP energy -178493.425140 kJ/mol
# GULP energy per Si atom -5577.919536 kJ/mol
# Density = 2.128533 g / cm^3
# Si number density = 21.333885 Si / 1000 Ang^3
#
#
#
# Elastic Constant Matrix: (Units=GPa)
#
#
# Indices 1 2 3 4 5 6 
#
# 1 53.1751 -6.4033 17.4107 0.0000 9.0119 0.0000
# 2 -6.4033 40.1835 -5.0331 0.0000 -5.6916 0.0000
# 3 17.4107 -5.0331 96.6060 0.0000 14.5084 0.0000
# 4 0.0000 0.0000 0.0000 13.7701 0.0000 -2.8163
# 5 9.0119 -5.6916 14.5084 0.0000 36.9362 0.0000
# 6 0.0000 0.0000 0.0000 -2.8163 0.0000 5.3701
#
#
#
# Elastic Compliance Matrix: (Units=1/GPa)
#
#
# Indices 1 2 3 4 5 6 
#
# 1 0.020694 0.002421 -0.003083 0.000000 -0.003465 0.000000
# 2 0.002421 0.025780 0.000424 0.000000 0.003215 0.000000
# 3 -0.003083 0.000424 0.011484 0.000000 -0.003693 0.000000
# 4 0.000000 0.000000 0.000000 0.081346 0.000000 0.042661
# 5 -0.003465 0.003215 -0.003693 0.000000 0.029865 0.000000
# 6 0.000000 0.000000 0.000000 0.042661 0.000000 0.208591
#
#
# Mechanical properties :
#
#
# Convention : Reuss Voigt Hill
#
# Bulk Modulus (GPa) = 17.39706 22.43481 19.91593
# Shear Modulus (GPa) = 12.58187 23.48129 18.03158
#
# Velocity S-wave (km/s) = 2.43113 3.32121 2.91040
# Velocity P-wave (km/s) = 4.00661 5.02456 4.54418
#
# Compressibility (1/GPa) = 0.05748098
#
# Stress axis : x y z
#
# Youngs Moduli (GPa) = 48.32324 38.78955 87.07992
#
# Poissons Ratio (x) = -0.09390 0.26847
# Poissons Ratio (y) = -0.11697 -0.03692
# Poissons Ratio (z) = 0.14898 -0.01645
#
# Static dielectric constant tensor:
#      x y z
#    x 1.827230 0.000000 -0.038490 
#    y 0.000000 1.758330 0.000000 
#    z -0.038490 0.000000 1.783880 
# 
# From -- ./inp_files/225246.got.cif
#   From: 2010.05.17/outbox.cif.g08.bks.cpg/sg12_113_cif.got.tgz:225246.got - 2010.06.03 13:09:07.
