data_PCOD9193133
_publ_section_title
;
Structure prediction by ZEFSAII (Michael W. Deem and Ramdas Pophale) SiO2 
 PCOD9193133
Probable space group: C 2/M
;
_chemical_formula_sum "Si O2"
_cell_formula_units_Z 40
_cell_length_a 15.033028
_cell_length_b 11.675859
_cell_length_c 12.382352
_cell_angle_alpha 90.000000
_cell_angle_beta 115.901989
_cell_angle_gamma 90.000000
_cell_volume 1955.060478
_symmetry_space_group_name_H-M "C 2/M"
_symmetry_group_IT_number 12
_symmetry_cell_setting 'monoclinic'
loop_
_space_group_symop_operation_xyz
x,y,z
-x,y,-z
-x,-y,-z
x,-y,z
1/2+x,1/2+y,z
1/2-x,1/2+y,-z
1/2-x,1/2-y,-z
1/2+x,1/2-y,z
loop_
_atom_site_type_symbol
_atom_site_label
_atom_site_fract_x
_atom_site_fract_y
_atom_site_fract_z
Si Si1 0.066297 0.132962 0.706801
Si Si2 0.253461 0.190950 0.679329
Si Si3 0.880818 0.624422 0.936886
Si Si4 0.600075 0.372383 0.981026
Si Si5 0.649614 0.370961 0.407740
O O1 0.155803 0.199607 0.699920
O O2 0.957935 0.179136 0.619808
O O3 0.076930 0.000000 0.674404
O O4 0.074943 0.132874 0.840651
O O5 0.334748 0.126416 0.792958
O O6 0.301455 0.308602 0.666489
O O7 0.219827 0.134611 0.548799
O O8 0.849601 0.500000 0.969290
O O9 0.849032 0.749088 0.966841
O O10 0.000000 0.624708 0.000000
O O11 0.646261 0.500000 0.024836
O O12 0.500000 0.372105 0.000000
O O13 0.628197 0.500000 0.365412
#
# Coordination Sequence:
#
# PCOD9193133 Si02
#       5
#     8   8   8   8   8
#     4  10  20  37  62  88 114 149 197 248 295 348
#     4  11  22  36  59  86 117 153 196 242 295 355
#     4  10  20  34  52  78 116 156 189 229 290 355
#     4   9  18  34  56  81 111 149 194 242 287 338
#     4  10  21  38  61  87 115 150 196 249 298 348
#
# _framework density 20.459724000000001
#
# number of rings (size 3 to 8) (size 9 to 14) (size 15 to 20)
#    0.000    2.000    0.000    4.800    0.000    4.800 
#    0.000    1.000    0.000   12.000    0.000    0.000 
#    0.000    0.000    0.000    0.000    0.000    0.000 
#
# Total GULP energy -111459.469005 kJ/mol
# GULP energy per Si atom -5572.973450 kJ/mol
# Density = 2.041316 g / cm^3
# Si number density = 20.459724 Si / 1000 Ang^3
#
#
#
# Elastic Constant Matrix: (Units=GPa)
#
#
# Indices 1 2 3 4 5 6 
#
# 1 121.3864 24.5439 32.5846 0.0000 0.4863 0.0000
# 2 24.5439 139.8294 29.2820 0.0000 3.8444 0.0000
# 3 32.5846 29.2820 72.9154 0.0000 18.0367 0.0000
# 4 0.0000 0.0000 0.0000 6.7063 0.0000 5.5261
# 5 0.4863 3.8444 18.0367 0.0000 29.5233 0.0000
# 6 0.0000 0.0000 0.0000 5.5261 0.0000 35.3963
#
#
#
# Elastic Compliance Matrix: (Units=1/GPa)
#
#
# Indices 1 2 3 4 5 6 
#
# 1 0.009645 -0.000788 -0.004688 0.000000 0.002808 0.000000
# 2 -0.000788 0.007901 -0.003027 0.000000 0.000833 0.000000
# 3 -0.004688 -0.003027 0.019919 0.000000 -0.011697 0.000000
# 4 0.000000 0.000000 0.000000 0.171128 0.000000 -0.026717
# 5 0.002808 0.000833 -0.011697 0.000000 0.040863 0.000000
# 6 0.000000 0.000000 0.000000 -0.026717 0.000000 0.032423
#
#
# Mechanical properties :
#
#
# Convention : Reuss Voigt Hill
#
# Bulk Modulus (GPa) = 48.88079 56.32803 52.60441
# Shear Modulus (GPa) = 16.35573 30.83990 23.59782
#
# Velocity S-wave (km/s) = 2.83045 3.88667 3.39983
# Velocity P-wave (km/s) = 5.88431 6.90887 6.41707
#
# Compressibility (1/GPa) = 0.02045793
#
# Stress axis : x y z
#
# Youngs Moduli (GPa) = 103.68327 126.56827 50.20447
#
# Poissons Ratio (x) = 0.09978 0.23536
# Poissons Ratio (y) = 0.08174 0.15195
# Poissons Ratio (z) = 0.48607 0.38309
#
# Static dielectric constant tensor:
#      x y z
#    x 1.720670 0.000000 0.017420 
#    y 0.000000 1.792220 0.000000 
#    z 0.017420 0.000000 1.729540 
# 
# From -- ./inp_files/141102.got.cif
#   From: 2010.05.17/outbox.cif.g08.bks.cpg/sg12_71_cif.got.tgz:141102.got - 2010.06.03 13:09:07.
