data_PCOD9193968
_publ_section_title
;
Structure prediction by ZEFSAII (Michael W. Deem and Ramdas Pophale) SiO2 
 PCOD9193968
Probable space group: C 2/M
;
_chemical_formula_sum "Si O2"
_cell_formula_units_Z 50
_cell_length_a 19.623740
_cell_length_b 7.739148
_cell_length_c 17.415524
_cell_angle_alpha 90.000000
_cell_angle_beta 125.647683
_cell_angle_gamma 90.000000
_cell_volume 2149.299116
_symmetry_space_group_name_H-M "C 2/M"
_symmetry_group_IT_number 12
_symmetry_cell_setting 'monoclinic'
loop_
_space_group_symop_operation_xyz
x,y,z
-x,y,-z
-x,-y,-z
x,-y,z
1/2+x,1/2+y,z
1/2-x,1/2+y,-z
1/2-x,1/2-y,-z
1/2+x,1/2-y,z
loop_
_atom_site_type_symbol
_atom_site_label
_atom_site_fract_x
_atom_site_fract_y
_atom_site_fract_z
Si Si1 0.079799 0.701848 0.857043
Si Si2 0.000000 0.500000 0.500000
Si Si3 0.573553 0.694560 0.459275
Si Si4 0.105676 0.295008 0.706826
Si Si5 0.093054 0.711649 0.034565
Si Si6 0.607298 0.704102 0.313598
Si Si7 0.220643 0.706205 0.249080
O O1 0.099158 0.500000 0.874453
O O2 0.123156 0.758594 0.806650
O O3 0.979280 0.717313 0.776941
O O4 0.105438 0.777391 0.955827
O O5 0.066814 0.347145 0.515588
O O6 0.599735 0.500000 0.500615
O O7 0.475843 0.687739 0.368888
O O8 0.619647 0.752342 0.410953
O O9 0.077780 0.500000 0.682863
O O10 0.188019 0.270685 0.712165
O O11 0.095642 0.500000 0.035285
O O12 0.158367 0.771519 0.141216
O O13 0.000000 0.759968 0.000000
O O14 0.593184 0.500000 0.305140
O O15 0.683196 0.744950 0.306864
O O16 0.221552 0.500000 0.246192
#
# Coordination Sequence:
#
# PCOD9193968 Si02
#       7
#     8   2   8   8   8   8   8
#     4   9  17  32  54  72 107 153 200 250 298 344
#     4  12  22  40  72 102 120 154 184 234 288 362
#     4  10  22  40  65  97 125 151 190 237 288 350
#     4  10  20  36  55  83 117 157 200 244 296 353
#     4   9  16  29  48  76 107 149 204 258 300 341
#     4  10  20  34  54  84 114 148 195 244 285 347
#     4  11  21  32  54  79 112 159 206 246 299 352
#
# _framework density 23.263396
#
# number of rings (size 3 to 8) (size 9 to 14) (size 15 to 20)
#    0.000    2.080    2.400    1.680    2.240    1.280 
#    0.000    2.400    0.000    0.960    0.000    0.000 
#    0.000    0.000    0.000    0.000    0.000    0.000 
#
# Total GULP energy -139444.129868 kJ/mol
# GULP energy per Si atom -5577.765195 kJ/mol
# Density = 2.321045 g / cm^3
# Si number density = 23.263396 Si / 1000 Ang^3
#
#
#
# Elastic Constant Matrix: (Units=GPa)
#
#
# Indices 1 2 3 4 5 6 
#
# 1 152.3694 6.3102 44.4223 0.0000 -32.6659 0.0000
# 2 6.3102 72.0378 29.6487 0.0000 -19.4452 0.0000
# 3 44.4223 29.6487 69.9013 0.0000 -21.0924 0.0000
# 4 0.0000 0.0000 0.0000 5.0923 0.0000 -2.4304
# 5 -32.6659 -19.4452 -21.0924 0.0000 32.8007 0.0000
# 6 0.0000 0.0000 0.0000 -2.4304 0.0000 24.4105
#
#
#
# Elastic Compliance Matrix: (Units=1/GPa)
#
#
# Indices 1 2 3 4 5 6 
#
# 1 0.009733 0.003553 -0.005127 0.000000 0.008503 0.000000
# 2 0.003553 0.019382 -0.007375 0.000000 0.010286 0.000000
# 3 -0.005127 -0.007375 0.022125 0.000000 0.004750 0.000000
# 4 0.000000 0.000000 0.000000 0.206171 0.000000 0.020527
# 5 0.008503 0.010286 0.004750 0.000000 0.048107 0.000000
# 6 0.000000 0.000000 0.000000 0.020527 0.000000 0.043010
#
#
# Mechanical properties :
#
#
# Convention : Reuss Voigt Hill
#
# Bulk Modulus (GPa) = 29.99162 50.56342 40.27752
# Shear Modulus (GPa) = 13.24360 26.72253 19.98307
#
# Velocity S-wave (km/s) = 2.38857 3.39292 2.93404
# Velocity P-wave (km/s) = 4.53069 6.09357 5.36930
#
# Compressibility (1/GPa) = 0.03334265
#
# Stress axis : x y z
#
# Youngs Moduli (GPa) = 102.73886 51.59384 45.19726
#
# Poissons Ratio (x) = -0.18329 0.23171
# Poissons Ratio (y) = -0.36499 0.33333
# Poissons Ratio (z) = 0.52672 0.38050
#
# Static dielectric constant tensor:
#      x y z
#    x 1.815420 0.000000 0.436930 
#    y 0.000000 1.868340 0.000000 
#    z 0.436930 0.000000 -4.393200 
# 
# From -- ./inp_files/274210.got.cif
#   From: 2010.05.17/outbox.cif.g08.bks.cpg/sg12_138_cif.got.tgz:274210.got - 2010.06.03 13:09:07.
