data_PCOD9193660
_publ_section_title
;
Structure prediction by ZEFSAII (Michael W. Deem and Ramdas Pophale) SiO2 
 PCOD9193660
Probable space group: C 2/M
;
_chemical_formula_sum "Si O2"
_cell_formula_units_Z 44
_cell_length_a 9.738316
_cell_length_b 7.315443
_cell_length_c 27.719497
_cell_angle_alpha 90.000000
_cell_angle_beta 58.691702
_cell_angle_gamma 90.000000
_cell_volume 1687.185104
_symmetry_space_group_name_H-M "C 2/M"
_symmetry_group_IT_number 12
_symmetry_cell_setting 'monoclinic'
loop_
_space_group_symop_operation_xyz
x,y,z
-x,y,-z
-x,-y,-z
x,-y,z
1/2+x,1/2+y,z
1/2-x,1/2+y,-z
1/2-x,1/2-y,-z
1/2+x,1/2-y,z
loop_
_atom_site_type_symbol
_atom_site_label
_atom_site_fract_x
_atom_site_fract_y
_atom_site_fract_z
Si Si1 0.000000 0.750716 0.000000
Si Si2 0.357354 0.274017 0.923171
Si Si3 0.981599 0.210143 0.728374
Si Si4 0.514825 0.278400 0.380747
Si Si5 0.335748 0.210726 0.550137
Si Si6 0.627382 0.279204 0.797158
O O1 0.821270 0.803074 0.052591
O O2 0.072480 0.698289 0.039306
O O3 0.347001 0.500000 0.928478
O O4 0.482338 0.227142 0.858567
O O5 0.970329 0.288956 0.676734
O O6 0.801178 0.215301 0.782297
O O7 0.095112 0.290548 0.748704
O O8 0.030497 0.000000 0.713203
O O9 0.518790 0.500000 0.380046
O O10 0.646195 0.216953 0.395128
O O11 0.338626 0.214971 0.431056
O O12 0.500000 0.296220 0.500000
O O13 0.334093 0.000000 0.535336
O O14 0.629844 0.500000 0.795547
#
# Coordination Sequence:
#
# PCOD9193660 Si02
#       6
#     4   8   8   8   8   8
#     4  10  20  34  54  78 106 138 174 216 266 318
#     4  10  20  35  54  78 106 138 176 218 265 317
#     4  10  21  37  55  79 109 141 180 224 268 318
#     4  10  21  36  55  80 110 142 179 223 268 318
#     4  10  21  37  57  82 111 143 180 222 268 319
#     4  10  21  37  57  80 109 143 180 223 270 320
#
# _framework density 26.078939999999999
#
# number of rings (size 3 to 8) (size 9 to 14) (size 15 to 20)
#    0.000    2.000    0.000    3.273    0.000    4.000 
#    0.000    4.545    0.000    0.000    0.000    0.000 
#    0.000    0.000    0.000    0.000    0.000    0.000 
#
# Total GULP energy -122790.007609 kJ/mol
# GULP energy per Si atom -5581.363982 kJ/mol
# Density = 2.601958 g / cm^3
# Si number density = 26.078940 Si / 1000 Ang^3
#
#
#
# Elastic Constant Matrix: (Units=GPa)
#
#
# Indices 1 2 3 4 5 6 
#
# 1 156.2125 -0.8360 -0.9882 0.0000 -12.1127 0.0000
# 2 -0.8360 134.0416 8.2282 0.0000 1.9464 0.0000
# 3 -0.9882 8.2282 89.6291 0.0000 -7.8061 0.0000
# 4 0.0000 0.0000 0.0000 23.5563 0.0000 10.6744
# 5 -12.1127 1.9464 -7.8061 0.0000 52.5240 0.0000
# 6 0.0000 0.0000 0.0000 10.6744 0.0000 1.0099
#
#
#
# Elastic Compliance Matrix: (Units=1/GPa)
#
#
# Indices 1 2 3 4 5 6 
#
# 1 0.006522 0.000006 0.000205 0.000000 0.001534 0.000000
# 2 0.000006 0.007510 -0.000723 0.000000 -0.000384 0.000000
# 3 0.000205 -0.000723 0.011379 0.000000 0.001765 0.000000
# 4 0.000000 0.000000 0.000000 -0.011203 0.000000 0.118405
# 5 0.001534 -0.000384 0.001765 0.000000 0.019669 0.000000
# 6 0.000000 0.000000 0.000000 0.118405 0.000000 -0.261296
#
#
# Mechanical properties :
#
#
# Convention : Reuss Voigt Hill
#
# Bulk Modulus (GPa) = 41.00464 43.63237 42.31850
# Shear Modulus (GPa) = -22.90795 40.31666 8.70436
#
# Velocity S-wave (km/s) = -2.96701 3.93612 1.82892
# Velocity P-wave (km/s) = 2.00496 6.11756 4.55217
#
# Compressibility (1/GPa) = 0.02438748
#
# Stress axis : x y z
#
# Youngs Moduli (GPa) = 153.33116 133.14935 87.87767
#
# Poissons Ratio (x) = -0.00077 -0.01801
# Poissons Ratio (y) = -0.00089 0.06353
# Poissons Ratio (z) = -0.03143 0.09625
#
# Static dielectric constant tensor:
#      x y z
#    x 1.931140 0.000000 -0.001730 
#    y 0.000000 2.049600 0.000000 
#    z -0.001730 0.000000 2.072340 
# 
# From -- ./inp_files/299340.got.cif
#   From: 2010.05.17/outbox.cif.g08.bks.cpg/sg12_150_cif.got.tgz:299340.got - 2010.06.03 13:09:07.
