data_PCOD9193291
_publ_section_title
;
Structure prediction by ZEFSAII (Michael W. Deem and Ramdas Pophale) SiO2 
 PCOD9193291
Probable space group: C 2/M
;
_chemical_formula_sum "Si O2"
_cell_formula_units_Z 56
_cell_length_a 8.344429
_cell_length_b 11.556954
_cell_length_c 31.754416
_cell_angle_alpha 90.000000
_cell_angle_beta 65.108289
_cell_angle_gamma 90.000000
_cell_volume 2777.804384
_symmetry_space_group_name_H-M "C 2/M"
_symmetry_group_IT_number 12
_symmetry_cell_setting 'monoclinic'
loop_
_space_group_symop_operation_xyz
x,y,z
-x,y,-z
-x,-y,-z
x,-y,z
1/2+x,1/2+y,z
1/2-x,1/2+y,-z
1/2-x,1/2-y,-z
1/2+x,1/2-y,z
loop_
_atom_site_type_symbol
_atom_site_label
_atom_site_fract_x
_atom_site_fract_y
_atom_site_fract_z
Si Si1 0.570331 0.688876 0.034671
Si Si2 0.135578 0.632483 0.583252
Si Si3 0.729760 0.871221 0.907388
Si Si4 0.340218 0.130158 0.551300
Si Si5 0.261164 0.698828 0.258667
Si Si6 0.348321 0.629253 0.800654
Si Si7 0.129055 0.625879 0.684429
O O1 0.422862 0.782339 0.063654
O O2 0.625523 0.626770 0.071472
O O3 0.500000 0.627701 0.000000
O O4 0.750000 0.750000 0.000000
O O5 0.202947 0.500000 0.564291
O O6 0.229990 0.751410 0.557297
O O7 0.142036 0.639391 0.632895
O O8 0.939268 0.635870 0.585384
O O9 0.815345 0.840606 0.853060
O O10 0.652323 0.000000 0.912611
O O11 0.500000 0.131212 0.500000
O O12 0.254713 0.000000 0.557280
O O13 0.443814 0.632079 0.233020
O O14 0.245481 0.783434 0.220452
O O15 0.276792 0.775410 0.299213
O O16 0.078403 0.630691 0.281145
O O17 0.279445 0.500000 0.801356
O O18 0.203123 0.500000 0.687782
#
# Coordination Sequence:
#
# PCOD9193291 Si02
#       7
#     8   8   8   8   8   8   8
#     4   9  19  34  52  75 101 130 168 207 248 303
#     4  10  21  36  55  80 109 142 182 225 271 324
#     4  10  20  35  54  75 103 135 166 208 256 299
#     4  10  21  37  56  80 110 143 181 225 273 325
#     4  10  20  34  54  76 104 137 170 212 258 304
#     4  10  20  34  53  77 102 133 172 208 251 306
#     4  10  20  35  53  76 106 138 174 216 262 311
#
# _framework density 20.159808000000002
#
# number of rings (size 3 to 8) (size 9 to 14) (size 15 to 20)
#    0.000    2.143    0.000    3.000    0.000    3.714 
#    0.000    5.714    0.000   12.000    0.000    0.000 
#    0.000    0.000    0.000    0.000    0.000    0.000 
#
# Total GULP energy -156034.298372 kJ/mol
# GULP energy per Si atom -5572.653513 kJ/mol
# Density = 2.011392 g / cm^3
# Si number density = 20.159808 Si / 1000 Ang^3
#
#
#
# Elastic Constant Matrix: (Units=GPa)
#
#
# Indices 1 2 3 4 5 6 
#
# 1 42.5790 23.2994 -5.2552 0.0000 12.3897 0.0000
# 2 23.2994 125.9115 23.3744 0.0000 -4.5361 0.0000
# 3 -5.2552 23.3744 63.0279 0.0000 19.2725 0.0000
# 4 0.0000 0.0000 0.0000 21.9592 0.0000 6.5051
# 5 12.3897 -4.5361 19.2725 0.0000 33.6224 0.0000
# 6 0.0000 0.0000 0.0000 6.5051 0.0000 2.2318
#
#
#
# Elastic Compliance Matrix: (Units=1/GPa)
#
#
# Indices 1 2 3 4 5 6 
#
# 1 0.037822 -0.010488 0.014232 0.000000 -0.023510 0.000001
# 2 -0.010488 0.011811 -0.008395 0.000000 0.010270 0.000000
# 3 0.014232 -0.008395 0.026816 0.000000 -0.021748 0.000000
# 4 0.000000 0.000000 0.000000 0.333493 0.000000 -0.972042
# 5 -0.023510 0.010270 -0.021748 0.000000 0.052257 -0.000001
# 6 0.000001 0.000000 0.000000 -0.972042 -0.000001 3.281307
#
#
# Mechanical properties :
#
#
# Convention : Reuss Voigt Hill
#
# Bulk Modulus (GPa) = 14.89262 34.92841 24.91051
# Shear Modulus (GPa) = 1.32444 24.23600 12.78022
#
# Velocity S-wave (km/s) = 0.81142 3.47103 2.52056
# Velocity P-wave (km/s) = 2.87770 5.78165 4.56665
#
# Compressibility (1/GPa) = 0.06714733
#
# Stress axis : x y z
#
# Youngs Moduli (GPa) = 26.43949 84.66459 37.29096
#
# Poissons Ratio (x) = 0.88795 -0.53072
# Poissons Ratio (y) = 0.27729 0.31307
# Poissons Ratio (z) = -0.37628 0.71078
#
# Static dielectric constant tensor:
#      x y z
#    x 1.692090 0.000000 0.027170 
#    y 0.000000 1.735530 0.000000 
#    z 0.027170 0.000000 1.710210 
# 
# From -- ./inp_files/355773.got.cif
#   From: 2010.05.17/outbox.cif.g08.bks.cpg/sg12_178_cif.got.tgz:355773.got - 2010.06.03 13:09:07.
