data_PCOD9193174
_publ_section_title
;
Structure prediction by ZEFSAII (Michael W. Deem and Ramdas Pophale) SiO2 
 PCOD9193174
Probable space group: C 2/M
;
_chemical_formula_sum "Si O2"
_cell_formula_units_Z 42
_cell_length_a 30.082801
_cell_length_b 7.424245
_cell_length_c 14.153939
_cell_angle_alpha 90.000000
_cell_angle_beta 38.482225
_cell_angle_gamma 90.000000
_cell_volume 1967.107151
_symmetry_space_group_name_H-M "C 2/M"
_symmetry_group_IT_number 12
_symmetry_cell_setting 'monoclinic'
loop_
_space_group_symop_operation_xyz
x,y,z
-x,y,-z
-x,-y,-z
x,-y,z
1/2+x,1/2+y,z
1/2-x,1/2+y,-z
1/2-x,1/2-y,-z
1/2+x,1/2-y,z
loop_
_atom_site_type_symbol
_atom_site_label
_atom_site_fract_x
_atom_site_fract_y
_atom_site_fract_z
Si Si1 0.722794 0.714273 0.149822
Si Si2 0.424135 0.284454 0.513795
Si Si3 0.000000 0.500000 0.500000
Si Si4 0.578877 0.289153 0.858510
Si Si5 0.200027 0.282255 0.792739
Si Si6 0.157811 0.782935 0.543631
O O1 0.718758 0.500000 0.168844
O O2 0.642502 0.776339 0.307603
O O3 0.776600 0.780035 0.141866
O O4 0.750000 0.750000 0.000000
O O5 0.436677 0.500000 0.502394
O O6 0.395098 0.249794 0.456458
O O7 0.488233 0.159474 0.438990
O O8 0.569601 0.500000 0.850475
O O9 0.624653 0.276308 0.877436
O O10 0.625586 0.212148 0.694536
O O11 0.500000 0.210806 0.000000
O O12 0.199824 0.500000 0.793304
O O13 0.263596 0.218431 0.617153
O O14 0.164662 0.000000 0.538798
#
# Coordination Sequence:
#
# PCOD9193174 Si02
#       6
#     8   8   2   8   8   8
#     4   9  19  36  58  81 113 148 187 241 290 334
#     4   9  20  39  57  82 118 155 189 240 289 335
#     4  12  22  36  60  90 114 148 208 234 272 362
#     4  10  20  34  52  81 113 142 178 225 280 341
#     4   9  18  35  56  79 104 143 187 226 280 334
#     4   8  16  36  59  74 107 149 181 225 282 333
#
# _framework density 21.351151999999999
#
# number of rings (size 3 to 8) (size 9 to 14) (size 15 to 20)
#    0.000    2.857    0.000    3.143    1.333    1.143 
#   10.286    0.000    0.000    0.000    0.000    0.000 
#    0.000    0.000    0.000    0.000    0.000    0.000 
#
# Total GULP energy -116914.870137 kJ/mol
# GULP energy per Si atom -5567.374768 kJ/mol
# Density = 2.130256 g / cm^3
# Si number density = 21.351152 Si / 1000 Ang^3
#
#
#
# Elastic Constant Matrix: (Units=GPa)
#
#
# Indices 1 2 3 4 5 6 
#
# 1 97.4047 7.1509 50.8793 0.0001 -5.6935 0.0001
# 2 7.1509 83.8802 -4.0510 -0.0025 -5.2620 0.0044
# 3 50.8793 -4.0510 75.5280 -0.0002 17.5775 0.0017
# 4 0.0001 -0.0025 -0.0002 -16.4131 0.0002 25.2849
# 5 -5.6935 -5.2620 17.5775 0.0002 26.6659 -0.0002
# 6 0.0001 0.0044 0.0017 25.2849 -0.0002 -11.4893
#
#
#
# Elastic Compliance Matrix: (Units=1/GPa)
#
#
# Indices 1 2 3 4 5 6 
#
# 1 0.020410 -0.001608 -0.017453 0.000002 0.015545 0.000001
# 2 -0.001608 0.012199 0.001485 -0.000002 0.001085 0.000000
# 3 -0.017453 0.001485 0.030565 -0.000003 -0.023581 -0.000001
# 4 0.000002 -0.000002 -0.000003 0.025489 0.000002 0.056095
# 5 0.015545 0.001085 -0.023581 0.000002 0.056578 0.000001
# 6 0.000001 0.000000 -0.000001 0.056095 0.000001 0.036413
#
#
# Mechanical properties :
#
#
# Convention : Reuss Voigt Hill
#
# Bulk Modulus (GPa) = 35.68703 40.53014 38.10858
# Shear Modulus (GPa) = 22.10966 13.27495 17.69230
#
# Velocity S-wave (km/s) = 3.22145 2.49618 2.88172
# Velocity P-wave (km/s) = 5.53061 5.22798 5.38142
#
# Compressibility (1/GPa) = 0.02802139
#
# Stress axis : x y z
#
# Youngs Moduli (GPa) = 48.99649 81.97659 32.71730
#
# Poissons Ratio (x) = 0.13179 0.57101
# Poissons Ratio (y) = 0.07877 -0.04858
# Poissons Ratio (z) = 0.85513 -0.12171
#
# Static dielectric constant tensor:
#      x y z
#    x 1.789880 0.000000 0.007640 
#    y 0.000000 1.819310 0.000000 
#    z 0.007640 0.000000 1.847410 
# 
# From -- ./inp_files/248029.got.cif
#   From: 2010.05.17/outbox.cif.g08.bks.cpg/sg12_125_cif.got.tgz:248029.got - 2010.06.03 13:09:07.
