data_PCOD9193307
_publ_section_title
;
Structure prediction by ZEFSAII (Michael W. Deem and Ramdas Pophale) SiO2 
 PCOD9193307
Probable space group: C 2/M
;
_chemical_formula_sum "Si O2"
_cell_formula_units_Z 64
_cell_length_a 15.133778
_cell_length_b 7.550676
_cell_length_c 30.424596
_cell_angle_alpha 90.000000
_cell_angle_beta 120.859447
_cell_angle_gamma 90.000000
_cell_volume 2984.433961
_symmetry_space_group_name_H-M "C 2/M"
_symmetry_group_IT_number 12
_symmetry_cell_setting 'monoclinic'
loop_
_space_group_symop_operation_xyz
x,y,z
-x,y,-z
-x,-y,-z
x,-y,z
1/2+x,1/2+y,z
1/2-x,1/2+y,-z
1/2-x,1/2-y,-z
1/2+x,1/2-y,z
loop_
_atom_site_type_symbol
_atom_site_label
_atom_site_fract_x
_atom_site_fract_y
_atom_site_fract_z
Si Si1 0.298066 0.206050 0.748879
Si Si2 0.315609 0.286912 0.113069
Si Si3 0.405171 0.786024 0.691641
Si Si4 0.666820 0.785400 0.421799
Si Si5 0.588227 0.709983 0.054313
Si Si6 0.138116 0.211228 0.777104
Si Si7 0.465527 0.284854 0.863131
Si Si8 0.398581 0.290716 0.499068
O O1 0.326310 0.282055 0.708648
O O2 0.207765 0.285897 0.755532
O O3 0.398886 0.216655 0.805414
O O4 0.271922 0.000000 0.734842
O O5 0.318254 0.500000 0.114920
O O6 0.203960 0.235336 0.067220
O O7 0.330109 0.219339 0.166838
O O8 0.415720 0.230679 0.111552
O O9 0.380713 0.724367 0.636317
O O10 0.519254 0.739737 0.736488
O O11 0.398438 0.000000 0.689559
O O12 0.602439 0.731244 0.448433
O O13 0.785455 0.720859 0.456226
O O14 0.668924 0.000000 0.422600
O O15 0.569782 0.500000 0.053204
O O16 0.579227 0.778992 0.101863
O O17 0.500000 0.783000 0.000000
O O18 0.156789 0.000000 0.783641
O O19 0.459923 0.500000 0.859625
O O20 0.500000 0.218915 0.500000
O O21 0.396159 0.500000 0.488560
#
# Coordination Sequence:
#
# PCOD9193307 Si02
#       8
#     8   8   8   8   8   8   8   8
#     4  10  20  34  53  77 104 137 176 214 257 311
#     4  10  20  35  55  79 104 134 173 216 264 313
#     4  10  21  35  52  77 110 143 175 215 263 313
#     4   9  19  35  52  77 112 142 174 220 266 312
#     4  10  22  38  55  78 106 137 175 219 267 320
#     4  10  20  34  53  78 106 137 176 219 260 312
#     4  10  20  35  55  76 104 137 170 214 264 314
#     4   9  18  34  58  82 104 140 185 222 264 314
#
# _framework density 21.444603000000001
#
# number of rings (size 3 to 8) (size 9 to 14) (size 15 to 20)
#    0.000    2.250    2.500    0.000    0.000    4.000 
#    0.000    2.500    0.000    0.000    0.000    0.000 
#    0.000    0.000    0.000    0.000    0.000    0.000 
#
# Total GULP energy -178645.855341 kJ/mol
# GULP energy per Si atom -5582.682979 kJ/mol
# Density = 2.139579 g / cm^3
# Si number density = 21.444603 Si / 1000 Ang^3
#
#
#
# Elastic Constant Matrix: (Units=GPa)
#
#
# Indices 1 2 3 4 5 6 
#
# 1 96.3046 0.7461 -18.3707 0.0000 -2.7476 0.0000
# 2 0.7461 45.4142 -7.4572 0.0000 -1.0877 0.0000
# 3 -18.3707 -7.4572 28.7857 0.0000 1.7910 0.0000
# 4 0.0000 0.0000 0.0000 13.1290 0.0000 5.2935
# 5 -2.7476 -1.0877 1.7910 0.0000 18.0200 0.0000
# 6 0.0000 0.0000 0.0000 5.2935 0.0000 7.6417
#
#
#
# Elastic Compliance Matrix: (Units=1/GPa)
#
#
# Indices 1 2 3 4 5 6 
#
# 1 0.011897 0.001114 0.007812 0.000000 0.001105 0.000000
# 2 0.001114 0.023114 0.006642 0.000000 0.000905 0.000000
# 3 0.007812 0.006642 0.041604 0.000000 -0.002543 0.000000
# 4 0.000000 0.000000 0.000000 0.105685 0.000000 -0.073210
# 5 0.001105 0.000905 -0.002543 0.000000 0.055970 0.000000
# 6 0.000000 0.000000 0.000000 -0.073210 0.000000 0.181576
#
#
# Mechanical properties :
#
#
# Convention : Reuss Voigt Hill
#
# Bulk Modulus (GPa) = 9.28064 13.37123 11.32593
# Shear Modulus (GPa) = 11.77508 20.79721 16.28615
#
# Velocity S-wave (km/s) = 2.34582 3.11756 2.75881
# Velocity P-wave (km/s) = 3.41676 4.38265 3.92950
#
# Compressibility (1/GPa) = 0.10775124
#
# Stress axis : x y z
#
# Youngs Moduli (GPa) = 84.05598 43.26459 24.03605
#
# Poissons Ratio (x) = -0.04819 -0.18778
# Poissons Ratio (y) = -0.09362 -0.15965
# Poissons Ratio (z) = -0.65666 -0.28738
#
# Static dielectric constant tensor:
#      x y z
#    x 1.779420 0.000000 -0.016570 
#    y 0.000000 1.819190 0.000000 
#    z -0.016570 0.000000 1.747150 
# 
# From -- ./inp_files/359866.got.cif
#   From: 2010.05.17/outbox.cif.g08.bks.cpg/sg12_180_cif.got.tgz:359866.got - 2010.06.03 13:09:07.
