data_PCOD9193684
_publ_section_title
;
Structure prediction by ZEFSAII (Michael W. Deem and Ramdas Pophale) SiO2 
 PCOD9193684
Probable space group: C 2/M
;
_chemical_formula_sum "Si O2"
_cell_formula_units_Z 64
_cell_length_a 31.788693
_cell_length_b 8.826136
_cell_length_c 25.546950
_cell_angle_alpha 90.000000
_cell_angle_beta 30.868649
_cell_angle_gamma 90.000000
_cell_volume 3677.565128
_symmetry_space_group_name_H-M "C 2/M"
_symmetry_group_IT_number 12
_symmetry_cell_setting 'monoclinic'
loop_
_space_group_symop_operation_xyz
x,y,z
-x,y,-z
-x,-y,-z
x,-y,z
1/2+x,1/2+y,z
1/2-x,1/2+y,-z
1/2-x,1/2-y,-z
1/2+x,1/2-y,z
loop_
_atom_site_type_symbol
_atom_site_label
_atom_site_fract_x
_atom_site_fract_y
_atom_site_fract_z
Si Si1 0.490228 0.819212 0.775458
Si Si2 0.255801 0.317903 0.732883
Si Si3 0.173898 0.681964 0.550063
Si Si4 0.545120 0.181317 0.307212
Si Si5 0.629193 0.317655 0.486403
Si Si6 0.205021 0.818379 0.189879
Si Si7 0.122174 0.180832 0.015665
Si Si8 0.916260 0.182315 0.062435
O O1 0.587003 0.781641 0.670812
O O2 0.457130 0.783912 0.752541
O O3 0.439417 0.734084 0.873780
O O4 0.482421 0.000000 0.791780
O O5 0.248924 0.500000 0.739412
O O6 0.316468 0.272440 0.621598
O O7 0.289314 0.275113 0.754639
O O8 0.165401 0.248768 0.824301
O O9 0.179906 0.500000 0.540348
O O10 0.250000 0.750000 0.500000
O O11 0.167246 0.750301 0.498974
O O12 0.463099 0.254948 0.418612
O O13 0.626204 0.245482 0.247250
O O14 0.540738 0.000000 0.317354
O O15 0.627337 0.500000 0.491628
O O16 0.200907 0.000000 0.190636
O O17 0.289221 0.759323 0.074288
O O18 0.132666 0.000000 0.006081
O O19 0.087771 0.222528 0.994787
O O20 0.913108 0.000000 0.069548
O O21 0.000000 0.235017 0.000000
#
# Coordination Sequence:
#
# PCOD9193684 Si02
#       8
#     8   8   8   8   8   8   8   8
#     4   9  20  37  54  74 104 138 172 214 260 310
#     4   9  20  36  54  78 106 138 176 215 258 313
#     4  10  21  37  56  80 109 141 179 220 263 312
#     4  10  21  37  55  78 106 137 177 219 262 314
#     4  10  20  36  56  79 108 140 176 217 262 312
#     4  10  20  36  56  77 105 140 175 215 264 313
#     4  10  20  34  54  79 105 135 174 217 260 311
#     4   9  19  35  53  76 106 137 171 214 261 308
#
# _framework density 17.402819000000001
#
# number of rings (size 3 to 8) (size 9 to 14) (size 15 to 20)
#    0.000    2.375    0.000    2.625    0.000    7.250 
#    0.000    5.000    0.000    0.000    0.000    0.000 
#    0.000    0.000    0.000    0.000    0.000    0.000 
#
# Total GULP energy -178600.057772 kJ/mol
# GULP energy per Si atom -5581.251805 kJ/mol
# Density = 1.736321 g / cm^3
# Si number density = 17.402819 Si / 1000 Ang^3
#
#
#
# Elastic Constant Matrix: (Units=GPa)
#
#
# Indices 1 2 3 4 5 6 
#
# 1 116.0615 48.6580 99.7466 0.0106 -32.3336 -0.0024
# 2 48.6580 51.1173 63.0020 0.0047 -3.7264 -0.0042
# 3 99.7466 63.0020 168.3226 0.0001 -0.0939 -0.0068
# 4 0.0106 0.0047 0.0001 34.3851 -0.0002 -5.0129
# 5 -32.3336 -3.7264 -0.0939 -0.0002 30.9564 0.0012
# 6 -0.0024 -0.0042 -0.0068 -5.0129 0.0012 26.7821
#
#
#
# Elastic Compliance Matrix: (Units=1/GPa)
#
#
# Indices 1 2 3 4 5 6 
#
# 1 0.047093 -0.012991 -0.023018 -0.000014 0.047555 -0.000008
# 2 -0.012991 0.040490 -0.007461 -0.000001 -0.008718 0.000003
# 3 -0.023018 -0.007461 0.022360 0.000009 -0.024872 0.000005
# 4 -0.000014 -0.000001 0.000009 0.029898 -0.000014 0.005596
# 5 0.047555 -0.008718 -0.024872 -0.000014 0.080849 -0.000010
# 6 -0.000008 0.000003 0.000005 0.005596 -0.000010 0.038386
#
#
# Mechanical properties :
#
#
# Convention : Reuss Voigt Hill
#
# Bulk Modulus (GPa) = 43.47481 84.25718 63.86600
# Shear Modulus (GPa) = 14.13688 26.69771 20.41730
#
# Velocity S-wave (km/s) = 2.85324 3.92101 3.42894
# Velocity P-wave (km/s) = 5.99085 8.30783 7.24260
#
# Compressibility (1/GPa) = 0.02300182
#
# Stress axis : x y z
#
# Youngs Moduli (GPa) = 21.23444 24.69770 44.72239
#
# Poissons Ratio (x) = 0.32085 1.02942
# Poissons Ratio (y) = 0.27586 0.33369
# Poissons Ratio (z) = 0.48878 0.18428
#
# Static dielectric constant tensor:
#      x y z
#    x 1.574790 0.000000 0.005510 
#    y 0.000000 1.581900 0.000000 
#    z 0.005510 0.000000 1.563320 
# 
# From -- ./inp_files/249918.got.cif
#   From: 2010.05.17/outbox.cif.g08.bks.cpg/sg12_125_cif.got.tgz:249918.got - 2010.06.03 13:09:07.
