data_PCOD9193904
_publ_section_title
;
Structure prediction by ZEFSAII (Michael W. Deem and Ramdas Pophale) SiO2 
 PCOD9193904
Probable space group: C 2/M
;
_chemical_formula_sum "Si O2"
_cell_formula_units_Z 56
_cell_length_a 14.945885
_cell_length_b 8.467121
_cell_length_c 30.237462
_cell_angle_alpha 90.000000
_cell_angle_beta 126.556361
_cell_angle_gamma 90.000000
_cell_volume 3073.725056
_symmetry_space_group_name_H-M "C 2/M"
_symmetry_group_IT_number 12
_symmetry_cell_setting 'monoclinic'
loop_
_space_group_symop_operation_xyz
x,y,z
-x,y,-z
-x,-y,-z
x,-y,z
1/2+x,1/2+y,z
1/2-x,1/2+y,-z
1/2-x,1/2-y,-z
1/2+x,1/2-y,z
loop_
_atom_site_type_symbol
_atom_site_label
_atom_site_fract_x
_atom_site_fract_y
_atom_site_fract_z
Si Si1 0.049537 0.308481 0.561352
Si Si2 0.421700 0.808989 0.855429
Si Si3 0.333095 0.689425 0.061813
Si Si4 0.299652 0.311771 0.644869
Si Si5 0.344525 0.189213 0.561321
Si Si6 0.291288 0.309564 0.150118
Si Si7 0.464723 0.188381 0.767822
O O1 0.056808 0.500000 0.559494
O O2 0.172349 0.251483 0.609182
O O3 0.000000 0.250346 0.500000
O O4 0.961736 0.272632 0.573278
O O5 0.541221 0.751213 0.908331
O O6 0.314964 0.753950 0.852498
O O7 0.421274 0.758405 0.803633
O O8 0.421170 0.000000 0.856285
O O9 0.335172 0.500000 0.062201
O O10 0.292080 0.741928 0.098780
O O11 0.250000 0.750000 0.000000
O O12 0.300272 0.500000 0.651174
O O13 0.336509 0.269769 0.606250
O O14 0.379685 0.238000 0.704858
O O15 0.250000 0.250000 0.500000
O O16 0.334194 0.000000 0.562681
O O17 0.288380 0.500000 0.149657
O O18 0.411594 0.256471 0.203565
O O19 0.473902 0.000000 0.771772
#
# Coordination Sequence:
#
# PCOD9193904 Si02
#       7
#     8   8   8   8   8   8   8
#     4   9  18  35  56  77 105 140 174 210 264 326
#     4   9  19  37  59  80 108 145 186 232 277 321
#     4  10  20  34  54  82 117 152 189 228 273 326
#     4  11  22  38  58  79 107 144 181 221 269 327
#     4  11  21  36  57  81 108 138 175 217 266 323
#     4   9  19  37  59  81 108 148 188 226 274 328
#     4  10  21  37  56  81 110 138 176 230 279 324
#
# _framework density 18.218937
#
# number of rings (size 3 to 8) (size 9 to 14) (size 15 to 20)
#    0.000    2.143    1.429    1.714    0.000    3.429 
#    0.000    9.286    0.000    0.000    0.000    0.000 
#    0.000    0.000    0.000    0.000    0.000    0.000 
#
# Total GULP energy -156247.335415 kJ/mol
# GULP energy per Si atom -5580.261979 kJ/mol
# Density = 1.817747 g / cm^3
# Si number density = 18.218937 Si / 1000 Ang^3
#
#
#
# Elastic Constant Matrix: (Units=GPa)
#
#
# Indices 1 2 3 4 5 6 
#
# 1 150.6199 15.4183 78.0671 0.0000 22.7420 0.0000
# 2 15.4183 7.7944 6.0334 0.0000 2.7893 0.0000
# 3 78.0671 6.0334 161.0225 0.0000 18.8134 0.0000
# 4 0.0000 0.0000 0.0000 31.0513 0.0000 1.4842
# 5 22.7420 2.7893 18.8134 0.0000 16.6077 0.0000
# 6 0.0000 0.0000 0.0000 1.4842 0.0000 21.5864
#
#
#
# Elastic Compliance Matrix: (Units=1/GPa)
#
#
# Indices 1 2 3 4 5 6 
#
# 1 0.011812 -0.017105 -0.004070 0.000000 -0.008691 0.000000
# 2 -0.017105 0.162381 0.003064 0.000000 -0.007320 0.000000
# 3 -0.004070 0.003064 0.008619 0.000000 -0.004704 0.000000
# 4 0.000000 0.000000 0.000000 0.032311 0.000000 -0.002222
# 5 -0.008691 -0.007320 -0.004704 0.000000 0.078673 0.000000
# 6 0.000000 0.000000 0.000000 -0.002222 0.000000 0.046478
#
#
# Mechanical properties :
#
#
# Convention : Reuss Voigt Hill
#
# Bulk Modulus (GPa) = 6.82180 57.60827 32.21503
# Shear Modulus (GPa) = 11.75475 28.51029 20.13252
#
# Velocity S-wave (km/s) = 2.54282 3.96014 3.32781
# Velocity P-wave (km/s) = 3.51763 7.25251 5.69968
#
# Compressibility (1/GPa) = 0.14658897
#
# Stress axis : x y z
#
# Youngs Moduli (GPa) = 84.65813 6.15834 116.02913
#
# Poissons Ratio (x) = 0.10534 0.47229
# Poissons Ratio (y) = 1.44808 -0.35549
# Poissons Ratio (z) = 0.34459 -0.01887
#
# Static dielectric constant tensor:
#      x y z
#    x 1.627260 0.000000 -0.001700 
#    y 0.000000 1.628820 0.000000 
#    z -0.001700 0.000000 1.595630 
# 
# From -- ./inp_files/338175.got.cif
#   From: 2010.05.17/outbox.cif.g08.bks.cpg/sg12_170_cif.got.tgz:338175.got - 2010.06.03 13:09:07.
