data_PCOD9193578
_publ_section_title
;
Structure prediction by ZEFSAII (Michael W. Deem and Ramdas Pophale) SiO2 
 PCOD9193578
Probable space group: C 2/M
;
_chemical_formula_sum "Si O2"
_cell_formula_units_Z 56
_cell_length_a 21.506436
_cell_length_b 24.912493
_cell_length_c 12.937084
_cell_angle_alpha 90.000000
_cell_angle_beta 157.471297
_cell_angle_gamma 90.000000
_cell_volume 2655.746212
_symmetry_space_group_name_H-M "C 2/M"
_symmetry_group_IT_number 12
_symmetry_cell_setting 'monoclinic'
loop_
_space_group_symop_operation_xyz
x,y,z
-x,y,-z
-x,-y,-z
x,-y,z
1/2+x,1/2+y,z
1/2-x,1/2+y,-z
1/2-x,1/2-y,-z
1/2+x,1/2-y,z
loop_
_atom_site_type_symbol
_atom_site_label
_atom_site_fract_x
_atom_site_fract_y
_atom_site_fract_z
Si Si1 0.823486 0.657961 0.348925
Si Si2 0.156487 0.875517 0.291643
Si Si3 0.874771 0.778031 0.614118
Si Si4 0.234185 0.269085 0.169366
Si Si5 0.021602 0.436879 0.155277
Si Si6 0.829811 0.626634 0.031217
Si Si7 0.696863 0.059871 0.817989
O O1 0.729237 0.662872 0.312625
O O2 0.807823 0.710962 0.256371
O O3 0.753157 0.605559 0.185355
O O4 0.009015 0.647035 0.662030
O O5 0.105100 0.837581 0.307527
O O6 0.300481 0.915484 0.541179
O O7 0.000000 0.902262 0.000000
O O8 0.750000 0.750000 0.500000
O O9 0.801903 0.781455 0.387581
O O10 0.041244 0.743890 0.872713
O O11 0.267829 0.320026 0.148777
O O12 0.005281 0.500000 0.154343
O O13 0.893980 0.402558 0.026266
O O14 0.000000 0.428826 0.000000
O O15 0.759592 0.582802 0.002122
O O16 0.500000 0.056611 0.500000
O O17 0.760433 0.000000 0.898415
#
# Coordination Sequence:
#
# PCOD9193578 Si02
#       7
#     8   8   8   8   8   8   8
#     4  10  20  34  53  86 118 146 191 240 282 339
#     4  11  20  34  53  82 118 153 188 231 283 356
#     4  12  20  33  53  81 120 163 189 222 280 354
#     4  12  21  34  55  87 119 157 187 236 289 346
#     4  10  21  37  55  82 115 147 191 246 288 336
#     4  10  20  36  58  85 113 150 192 238 291 348
#     4   9  19  37  61  83 109 149 197 248 293 336
#
# _framework density 21.086352000000002
#
# number of rings (size 3 to 8) (size 9 to 14) (size 15 to 20)
#    0.000    1.429    4.286    2.571    0.000    4.286 
#    0.000    0.000    0.000    0.000    0.000    1.000 
#    0.000    0.000    0.000    0.000    0.000    0.000 
#
# Total GULP energy -156362.152695 kJ/mol
# GULP energy per Si atom -5584.362596 kJ/mol
# Density = 2.103836 g / cm^3
# Si number density = 21.086352 Si / 1000 Ang^3
#
#
#
# Elastic Constant Matrix: (Units=GPa)
#
#
# Indices 1 2 3 4 5 6 
#
# 1 46.0585 39.9890 12.4525 0.0000 -20.3930 0.0000
# 2 39.9890 161.6907 24.2113 0.0000 -30.8489 0.0000
# 3 12.4525 24.2113 66.9767 0.0000 -21.8678 0.0000
# 4 0.0000 0.0000 0.0000 27.4400 0.0000 -8.0300
# 5 -20.3930 -30.8489 -21.8678 0.0000 25.2504 0.0000
# 6 0.0000 0.0000 0.0000 -8.0300 0.0000 32.6403
#
#
#
# Elastic Compliance Matrix: (Units=1/GPa)
#
#
# Indices 1 2 3 4 5 6 
#
# 1 0.036691 -0.004385 0.003750 0.000000 0.027523 0.000000
# 2 -0.004385 0.008597 -0.000027 0.000000 0.006938 0.000000
# 3 0.003750 -0.000027 0.021222 0.000000 0.021374 0.000000
# 4 0.000000 0.000000 0.000000 0.039270 0.000000 0.009661
# 5 0.027523 0.006938 0.021374 0.000000 0.088820 0.000000
# 6 0.000000 0.000000 0.000000 0.009661 0.000000 0.033014
#
#
# Mechanical properties :
#
#
# Convention : Reuss Voigt Hill
#
# Bulk Modulus (GPa) = 15.34084 47.55905 31.44994
# Shear Modulus (GPa) = 19.94685 30.27101 25.10893
#
# Velocity S-wave (km/s) = 3.07898 3.79301 3.45449
# Velocity P-wave (km/s) = 4.46444 6.46420 5.55505
#
# Compressibility (1/GPa) = 0.06518550
#
# Stress axis : x y z
#
# Youngs Moduli (GPa) = 27.25464 116.32163 47.12132
#
# Poissons Ratio (x) = 0.51003 -0.17669
# Poissons Ratio (y) = 0.11950 0.00128
# Poissons Ratio (z) = -0.10220 0.00316
#
# Static dielectric constant tensor:
#      x y z
#    x 1.783130 0.000000 0.009180 
#    y 0.000000 1.792230 0.000000 
#    z 0.009180 0.000000 1.764450 
# 
# From -- ./inp_files/170521.got.cif
#   From: 2010.05.17/outbox.cif.g08.bks.cpg/sg12_86_cif.got.tgz:170521.got - 2010.06.03 13:09:07.
