data_PCOD9193184
_publ_section_title
;
Structure prediction by ZEFSAII (Michael W. Deem and Ramdas Pophale) SiO2 
 PCOD9193184
Probable space group: C 2/M
;
_chemical_formula_sum "Si O2"
_cell_formula_units_Z 56
_cell_length_a 17.183609
_cell_length_b 12.680792
_cell_length_c 20.858958
_cell_angle_alpha 90.000000
_cell_angle_beta 47.545567
_cell_angle_gamma 90.000000
_cell_volume 3353.516873
_symmetry_space_group_name_H-M "C 2/M"
_symmetry_group_IT_number 12
_symmetry_cell_setting 'monoclinic'
loop_
_space_group_symop_operation_xyz
x,y,z
-x,y,-z
-x,-y,-z
x,-y,z
1/2+x,1/2+y,z
1/2-x,1/2+y,-z
1/2-x,1/2-y,-z
1/2+x,1/2-y,z
loop_
_atom_site_type_symbol
_atom_site_label
_atom_site_fract_x
_atom_site_fract_y
_atom_site_fract_z
Si Si1 0.294320 0.119068 0.281375
Si Si2 0.797257 0.714677 0.905596
Si Si3 0.314296 0.385759 0.795217
Si Si4 0.461401 0.713158 0.209150
Si Si5 0.433186 0.622491 0.357118
Si Si6 0.817620 0.000000 0.076010
Si Si7 0.539640 0.500000 0.876388
Si Si8 0.105318 0.128413 0.479101
O O1 0.234818 0.114651 0.247204
O O2 0.389913 0.197370 0.218798
O O3 0.209325 0.155407 0.381518
O O4 0.328639 0.000000 0.279437
O O5 0.767790 0.796873 0.866152
O O6 0.751942 0.602175 0.906598
O O7 0.923084 0.735954 0.843609
O O8 0.750000 0.750000 0.000000
O O9 0.297259 0.500000 0.836172
O O10 0.439263 0.375292 0.714346
O O11 0.407761 0.685317 0.307274
O O12 0.461337 0.605590 0.167348
O O13 0.400613 0.500000 0.368789
O O14 0.394702 0.664025 0.447093
O O15 0.863860 0.000000 0.124396
O O16 0.927192 0.000000 0.975333
O O17 0.000000 0.163854 0.500000
O O18 0.099668 0.000000 0.484029
#
# Coordination Sequence:
#
# PCOD9193184 Si02
#       8
#     8   8   8   8   8   4   4   8
#     4  10  20  34  52  83 116 143 173 227 281 330
#     4  11  23  37  58  82 109 144 183 230 287 331
#     4   9  18  33  55  79 108 138 181 224 270 326
#     4  11  22  36  57  81 113 144 189 232 278 326
#     4   9  16  29  53  80 101 137 183 224 264 310
#     4  11  24  40  60  82 111 147 190 235 282 342
#     4  11  22  42  62  82 104 147 201 239 267 326
#     4   9  15  28  52  81 110 140 178 220 272 329
#
# _framework density 16.698886000000002
#
# number of rings (size 3 to 8) (size 9 to 14) (size 15 to 20)
#    0.000    2.000    3.571    0.857    3.000    0.571 
#    0.000    0.000    0.000    1.714    0.000    0.500 
#    0.000    0.000    0.000    0.000    0.000    0.000 
#
# Total GULP energy -155878.327170 kJ/mol
# GULP energy per Si atom -5567.083113 kJ/mol
# Density = 1.666088 g / cm^3
# Si number density = 16.698886 Si / 1000 Ang^3
#
#
#
# Elastic Constant Matrix: (Units=GPa)
#
#
# Indices 1 2 3 4 5 6 
#
# 1 62.2161 43.5481 9.7772 0.0000 4.3204 0.0000
# 2 43.5481 106.6783 39.7654 0.0000 -2.8658 0.0000
# 3 9.7772 39.7654 75.1499 0.0000 15.4744 0.0000
# 4 0.0000 0.0000 0.0000 15.5568 0.0000 0.3294
# 5 4.3204 -2.8658 15.4744 0.0000 22.8960 0.0000
# 6 0.0000 0.0000 0.0000 0.3294 0.0000 23.6329
#
#
#
# Elastic Compliance Matrix: (Units=1/GPa)
#
#
# Indices 1 2 3 4 5 6 
#
# 1 0.024471 -0.012220 0.005284 0.000000 -0.009718 0.000000
# 2 -0.012220 0.018691 -0.010754 0.000000 0.011913 0.000000
# 3 0.005284 -0.010754 0.021830 0.000000 -0.017097 0.000000
# 4 0.000000 0.000000 0.000000 0.064300 0.000000 -0.000896
# 5 -0.009718 0.011913 -0.017097 0.000000 0.058556 0.000000
# 6 0.000000 0.000000 0.000000 -0.000896 0.000000 0.042326
#
#
# Mechanical properties :
#
#
# Convention : Reuss Voigt Hill
#
# Bulk Modulus (GPa) = 33.77013 47.80284 40.78648
# Shear Modulus (GPa) = 18.15380 22.48071 20.31726
#
# Velocity S-wave (km/s) = 3.30074 3.67310 3.49188
# Velocity P-wave (km/s) = 5.89859 6.83208 6.38243
#
# Compressibility (1/GPa) = 0.02961197
#
# Stress axis : x y z
#
# Youngs Moduli (GPa) = 40.86470 53.50176 45.80840
#
# Poissons Ratio (x) = 0.65380 -0.24203
# Poissons Ratio (y) = 0.49937 0.49260
# Poissons Ratio (z) = -0.21591 0.57533
#
# Static dielectric constant tensor:
#      x y z
#    x 1.585880 0.000000 0.024070 
#    y 0.000000 1.561840 0.000000 
#    z 0.024070 0.000000 1.562860 
# 
# From -- ./inp_files/315299.got.cif
#   From: 2010.05.17/outbox.cif.g08.bks.cpg/sg12_158_cif.got.tgz:315299.got - 2010.06.03 13:09:07.
