data_PCOD9193941
_publ_section_title
;
Structure prediction by ZEFSAII (Michael W. Deem and Ramdas Pophale) SiO2 
 PCOD9193941
Probable space group: C 2/M
;
_chemical_formula_sum "Si O2"
_cell_formula_units_Z 56
_cell_length_a 18.819500
_cell_length_b 9.516169
_cell_length_c 16.924724
_cell_angle_alpha 90.000000
_cell_angle_beta 121.572482
_cell_angle_gamma 90.000000
_cell_volume 2582.381818
_symmetry_space_group_name_H-M "C 2/M"
_symmetry_group_IT_number 12
_symmetry_cell_setting 'monoclinic'
loop_
_space_group_symop_operation_xyz
x,y,z
-x,y,-z
-x,-y,-z
x,-y,z
1/2+x,1/2+y,z
1/2-x,1/2+y,-z
1/2-x,1/2-y,-z
1/2+x,1/2-y,z
loop_
_atom_site_type_symbol
_atom_site_label
_atom_site_fract_x
_atom_site_fract_y
_atom_site_fract_z
Si Si1 0.642332 0.336339 0.107253
Si Si2 0.557311 0.753670 0.600438
Si Si3 0.583373 0.661101 0.369692
Si Si4 0.338179 0.332344 0.055005
Si Si5 0.876437 0.668925 0.749160
Si Si6 0.298485 0.661504 0.426816
Si Si7 0.841241 0.653380 0.198231
O O1 0.622589 0.500000 0.112274
O O2 0.609855 0.236568 0.157213
O O3 0.743785 0.323386 0.163147
O O4 0.615800 0.303411 0.001373
O O5 0.500000 0.825176 0.500000
O O6 0.494340 0.662296 0.616034
O O7 0.627699 0.669302 0.594365
O O8 0.606148 0.846338 0.691514
O O9 0.600231 0.500000 0.354724
O O10 0.568074 0.762086 0.286941
O O11 0.659976 0.720314 0.468683
O O12 0.326736 0.500000 0.052726
O O13 0.373450 0.271294 0.156715
O O14 0.250000 0.250000 0.000000
O O15 0.881662 0.500000 0.754974
O O16 0.784039 0.716546 0.664181
O O17 0.279888 0.500000 0.435176
O O18 0.846554 0.500000 0.162283
#
# Coordination Sequence:
#
# PCOD9193941 Si02
#       7
#     8   8   8   8   8   8   8
#     4   9  18  34  54  80 111 143 183 228 279 334
#     4  10  20  36  57  82 114 150 194 236 279 326
#     4  10  21  36  54  76 110 152 190 232 279 334
#     4   9  18  32  53  82 114 145 181 231 286 339
#     4  11  21  33  54  81 111 145 184 234 283 333
#     4   9  18  34  54  79 106 141 192 239 280 328
#     4  10  20  34  54  83 116 148 185 233 285 337
#
# _framework density 21.685407000000001
#
# number of rings (size 3 to 8) (size 9 to 14) (size 15 to 20)
#    0.000    2.286    1.429    2.571    0.000    6.571 
#    0.000    2.857    0.000    0.857    0.000    5.000 
#    0.000    0.000    0.000    0.000    0.000    0.000 
#
# Total GULP energy -156102.099655 kJ/mol
# GULP energy per Si atom -5575.074988 kJ/mol
# Density = 2.163605 g / cm^3
# Si number density = 21.685407 Si / 1000 Ang^3
#
#
#
# Elastic Constant Matrix: (Units=GPa)
#
#
# Indices 1 2 3 4 5 6 
#
# 1 55.5212 22.8705 16.9407 0.0000 -19.2494 0.0000
# 2 22.8705 94.8115 45.0671 0.0000 -36.5197 0.0000
# 3 16.9407 45.0671 101.1894 0.0000 -33.4947 0.0000
# 4 0.0000 0.0000 0.0000 22.4440 0.0000 -14.6370
# 5 -19.2494 -36.5197 -33.4947 0.0000 45.9766 0.0000
# 6 0.0000 0.0000 0.0000 -14.6370 0.0000 8.1948
#
#
#
# Elastic Compliance Matrix: (Units=1/GPa)
#
#
# Indices 1 2 3 4 5 6 
#
# 1 0.021468 -0.002407 -0.000237 0.000000 0.006904 0.000000
# 2 -0.002407 0.016566 -0.003891 0.000000 0.009316 0.000000
# 3 -0.000237 -0.003891 0.013967 0.000000 0.006985 0.000000
# 4 0.000000 0.000000 0.000000 -0.270294 0.000000 -0.482783
# 5 0.006904 0.009316 0.006985 0.000000 0.037129 0.000000
# 6 0.000000 0.000000 0.000000 -0.482783 0.000000 -0.740288
#
#
# Mechanical properties :
#
#
# Convention : Reuss Voigt Hill
#
# Bulk Modulus (GPa) = 25.68602 46.80873 36.24738
# Shear Modulus (GPa) = -5.58407 26.43266 10.42429
#
# Velocity S-wave (km/s) = -1.60643 3.49508 2.19488
# Velocity P-wave (km/s) = 2.90340 6.15790 4.81401
#
# Compressibility (1/GPa) = 0.03893168
#
# Stress axis : x y z
#
# Youngs Moduli (GPa) = 46.57990 60.36532 71.59488
#
# Poissons Ratio (x) = 0.14528 0.01697
# Poissons Ratio (y) = 0.11210 0.27861
# Poissons Ratio (z) = 0.01104 0.23491
#
# Static dielectric constant tensor:
#      x y z
#    x 1.814890 0.000000 0.028480 
#    y 0.000000 1.769850 0.000000 
#    z 0.028480 0.000000 1.864650 
# 
# From -- ./inp_files/281748.got.cif
#   From: 2010.05.17/outbox.cif.g08.bks.cpg/sg12_141_cif.got.tgz:281748.got - 2010.06.03 13:09:07.
