data_PCOD9193861
_publ_section_title
;
Structure prediction by ZEFSAII (Michael W. Deem and Ramdas Pophale) SiO2 
 PCOD9193861
Probable space group: C 2/M
;
_chemical_formula_sum "Si O2"
_cell_formula_units_Z 48
_cell_length_a 14.712043
_cell_length_b 27.943451
_cell_length_c 5.420136
_cell_angle_alpha 90.000000
_cell_angle_beta 108.296457
_cell_angle_gamma 90.000000
_cell_volume 2115.597144
_symmetry_space_group_name_H-M "C 2/M"
_symmetry_group_IT_number 12
_symmetry_cell_setting 'monoclinic'
loop_
_space_group_symop_operation_xyz
x,y,z
-x,y,-z
-x,-y,-z
x,-y,z
1/2+x,1/2+y,z
1/2-x,1/2+y,-z
1/2-x,1/2-y,-z
1/2+x,1/2-y,z
loop_
_atom_site_type_symbol
_atom_site_label
_atom_site_fract_x
_atom_site_fract_y
_atom_site_fract_z
Si Si1 0.082353 0.842515 0.770873
Si Si2 0.248814 0.430746 0.535076
Si Si3 0.466688 0.946360 0.721441
Si Si4 0.836583 0.759280 0.879690
Si Si5 0.367002 0.553142 0.129180
Si Si6 0.236188 0.674277 0.394828
O O1 0.073482 0.897412 0.858251
O O2 0.190229 0.841191 0.756076
O O3 0.000000 0.837007 0.500000
O O4 0.085173 0.793999 0.933593
O O5 0.146188 0.451829 0.383903
O O6 0.318310 0.442010 0.360874
O O7 0.222469 0.374494 0.527839
O O8 0.293187 0.445886 0.834772
O O9 0.500000 0.921746 0.500000
O O10 0.512819 0.000000 0.761311
O O11 0.500000 0.921895 0.000000
O O12 0.851619 0.705837 0.783453
O O13 0.795864 0.791087 0.622995
O O14 0.750000 0.750000 0.000000
O O15 0.414044 0.500000 0.163495
#
# Coordination Sequence:
#
# PCOD9193861 Si02
#       6
#     8   8   8   8   8   8
#     4  10  21  36  58  87 121 160 200 248 303 356
#     4  11  21  38  62  85 117 159 201 251 297 367
#     4  10  20  34  54  81 112 150 190 238 297 350
#     4   9  17  36  60  83 108 146 193 245 295 360
#     4  11  22  37  58  90 120 160 211 249 294 355
#     4   9  19  35  62  84 110 152 198 244 296 356
#
# _framework density 22.688628999999999
#
# number of rings (size 3 to 8) (size 9 to 14) (size 15 to 20)
#    0.000    2.000    1.667    2.500    0.000    2.333 
#    0.000    0.000   11.000    3.000    0.000    0.000 
#    0.000    0.000    0.000    0.000    0.000    0.000 
#
# Total GULP energy -133613.876066 kJ/mol
# GULP energy per Si atom -5567.244836 kJ/mol
# Density = 2.263699 g / cm^3
# Si number density = 22.688629 Si / 1000 Ang^3
#
#
#
# Elastic Constant Matrix: (Units=GPa)
#
#
# Indices 1 2 3 4 5 6 
#
# 1 43.0725 -0.0812 2.3597 0.0000 -10.4965 0.0000
# 2 -0.0812 192.3615 30.0131 0.0000 18.2097 0.0000
# 3 2.3597 30.0131 128.0542 0.0000 4.9273 0.0000
# 4 0.0000 0.0000 0.0000 49.4577 0.0000 6.7949
# 5 -10.4965 18.2097 4.9273 0.0000 37.5461 0.0000
# 6 0.0000 0.0000 0.0000 6.7949 0.0000 -7.0987
#
#
#
# Elastic Compliance Matrix: (Units=1/GPa)
#
#
# Indices 1 2 3 4 5 6 
#
# 1 0.025044 -0.000592 -0.000606 0.000000 0.007368 0.000000
# 2 -0.000592 0.005647 -0.001207 0.000000 -0.002746 0.000000
# 3 -0.000606 -0.001207 0.008128 0.000000 -0.000651 0.000000
# 4 0.000000 0.000000 0.000000 0.017869 0.000000 0.017105
# 5 0.007368 -0.002746 -0.000651 0.000000 0.030111 0.000000
# 6 0.000000 0.000000 0.000000 0.017105 0.000000 -0.124497
#
#
# Mechanical properties :
#
#
# Convention : Reuss Voigt Hill
#
# Bulk Modulus (GPa) = 29.40454 47.56347 38.48400
# Shear Modulus (GPa) = -232.00564 38.06078 -96.97243
#
# Velocity S-wave (km/s) = -10.12316 4.10021 -6.54472
# Velocity P-wave (km/s) = 11.11979 6.58974 6.33344
#
# Compressibility (1/GPa) = 0.03400836
#
# Stress axis : x y z
#
# Youngs Moduli (GPa) = 39.92917 177.10032 123.02742
#
# Poissons Ratio (x) = 0.10491 0.07458
# Poissons Ratio (y) = 0.02365 0.14848
# Poissons Ratio (z) = 0.02420 0.21373
#
# Static dielectric constant tensor:
#      x y z
#    x 4.544460 0.000000 -0.358270 
#    y 0.000000 1.965970 0.000000 
#    z -0.358270 0.000000 1.884450 
# 
# From -- ./inp_files/22394.got.cif
#   From: 2010.05.17/outbox.cif.g08.bks.cpg/sg12_12_cif.got.tgz:22394.got - 2010.06.03 13:09:07.
