data_PCOD9193450
_publ_section_title
;
Structure prediction by ZEFSAII (Michael W. Deem and Ramdas Pophale) SiO2 
 PCOD9193450
Probable space group: C 2/M
;
_chemical_formula_sum "Si O2"
_cell_formula_units_Z 64
_cell_length_a 16.608443
_cell_length_b 8.997360
_cell_length_c 19.186990
_cell_angle_alpha 90.000000
_cell_angle_beta 90.126148
_cell_angle_gamma 90.000000
_cell_volume 2867.146040
_symmetry_space_group_name_H-M "C 2/M"
_symmetry_group_IT_number 12
_symmetry_cell_setting 'monoclinic'
loop_
_space_group_symop_operation_xyz
x,y,z
-x,y,-z
-x,-y,-z
x,-y,z
1/2+x,1/2+y,z
1/2-x,1/2+y,-z
1/2-x,1/2-y,-z
1/2+x,1/2-y,z
loop_
_atom_site_type_symbol
_atom_site_label
_atom_site_fract_x
_atom_site_fract_y
_atom_site_fract_z
Si Si1 0.570366 0.178240 0.658138
Si Si2 0.837547 0.825196 0.721595
Si Si3 0.919165 0.175623 0.581789
Si Si4 0.326455 0.823868 0.464504
Si Si5 0.170443 0.322653 0.033767
Si Si6 0.921876 0.175385 0.082699
Si Si7 0.010677 0.323712 0.203123
Si Si8 0.741814 0.326203 0.828499
O O1 0.498973 0.267644 0.620143
O O2 0.650461 0.215520 0.614933
O O3 0.560183 0.208232 0.740082
O O4 0.556956 0.000000 0.649653
O O5 0.848278 0.801129 0.639169
O O6 0.757949 0.771437 0.760781
O O7 0.910139 0.736626 0.758629
O O8 0.848799 0.000000 0.733335
O O9 0.899589 0.268780 0.513430
O O10 0.923888 0.000000 0.566383
O O11 0.250000 0.750000 0.500000
O O12 0.316891 0.000000 0.468082
O O13 0.170367 0.500000 0.022895
O O14 0.096977 0.250654 0.991522
O O15 0.250000 0.250000 0.000000
O O16 0.186014 0.296626 0.115520
O O17 0.990595 0.246456 0.130366
O O18 0.840424 0.198713 0.129097
O O19 0.933487 0.000000 0.073654
O O20 0.016489 0.500000 0.192840
O O21 0.744622 0.500000 0.809745
#
# Coordination Sequence:
#
# PCOD9193450 Si02
#       8
#     8   8   8   8   8   8   8   8
#     4   9  20  38  58  79 104 139 180 218 260 314
#     4  10  21  36  55  79 108 140 176 219 262 312
#     4  10  21  37  57  81 107 139 179 217 259 315
#     4  11  23  38  56  81 112 141 174 218 265 311
#     4   9  17  31  51  76 105 138 177 218 262 313
#     4  10  20  34  53  79 109 139 176 220 264 314
#     4  10  20  36  57  78 105 140 176 218 267 315
#     4   9  19  34  53  78 107 139 176 219 264 313
#
# _framework density 22.321849
#
# number of rings (size 3 to 8) (size 9 to 14) (size 15 to 20)
#    0.000    2.250    0.000    3.375    0.000    8.500 
#    0.000    4.375    0.000    3.750    0.000    0.000 
#    0.000    0.000    0.000    0.000    0.000    0.000 
#
# Total GULP energy -178826.720416 kJ/mol
# GULP energy per Si atom -5588.335013 kJ/mol
# Density = 2.227104 g / cm^3
# Si number density = 22.321849 Si / 1000 Ang^3
#
#
#
# Elastic Constant Matrix: (Units=GPa)
#
#
# Indices 1 2 3 4 5 6 
#
# 1 53.1133 11.5724 15.5290 0.0000 -6.1726 0.0000
# 2 11.5724 41.2688 43.3632 0.0000 -8.2476 0.0000
# 3 15.5290 43.3632 99.3372 0.0000 -11.1165 0.0000
# 4 0.0000 0.0000 0.0000 27.4397 0.0000 1.5835
# 5 -6.1726 -8.2476 -11.1165 0.0000 42.7797 0.0000
# 6 0.0000 0.0000 0.0000 1.5835 0.0000 24.6960
#
#
#
# Elastic Compliance Matrix: (Units=1/GPa)
#
#
# Indices 1 2 3 4 5 6 
#
# 1 0.020275 -0.004072 -0.001187 0.000000 0.001832 0.000000
# 2 -0.004072 0.046144 -0.019133 0.000000 0.003337 0.000000
# 3 -0.001187 -0.019133 0.018717 0.000000 0.001004 0.000000
# 4 0.000000 0.000000 0.000000 0.036579 0.000000 -0.002345
# 5 0.001832 0.003337 0.001004 0.000000 0.024544 0.000000
# 6 0.000000 0.000000 0.000000 -0.002345 0.000000 0.040643
#
#
# Mechanical properties :
#
#
# Convention : Reuss Voigt Hill
#
# Bulk Modulus (GPa) = 27.50925 37.18316 32.34620
# Shear Modulus (GPa) = 20.17734 27.20007 23.68871
#
# Velocity S-wave (km/s) = 3.00980 3.49455 3.26119
# Velocity P-wave (km/s) = 4.94259 5.74251 5.35750
#
# Compressibility (1/GPa) = 0.03635141
#
# Stress axis : x y z
#
# Youngs Moduli (GPa) = 49.32220 21.67120 53.42841
#
# Poissons Ratio (x) = 0.08825 0.06341
# Poissons Ratio (y) = 0.20085 1.02225
# Poissons Ratio (z) = 0.05854 0.41464
#
# Static dielectric constant tensor:
#      x y z
#    x 1.897850 0.000000 -0.032880 
#    y 0.000000 1.732530 0.000000 
#    z -0.032880 0.000000 1.856870 
# 
# From -- ./inp_files/314044.got.cif
#   From: 2010.05.17/outbox.cif.g08.bks.cpg/sg12_158_cif.got.tgz:314044.got - 2010.06.03 13:09:07.
