data_PCOD9193753
_publ_section_title
;
Structure prediction by ZEFSAII (Michael W. Deem and Ramdas Pophale) SiO2 
 PCOD9193753
Probable space group: C 2/M
;
_chemical_formula_sum "Si O2"
_cell_formula_units_Z 64
_cell_length_a 20.329638
_cell_length_b 9.059980
_cell_length_c 24.086973
_cell_angle_alpha 90.000000
_cell_angle_beta 122.706571
_cell_angle_gamma 90.000000
_cell_volume 3733.075859
_symmetry_space_group_name_H-M "C 2/M"
_symmetry_group_IT_number 12
_symmetry_cell_setting 'monoclinic'
loop_
_space_group_symop_operation_xyz
x,y,z
-x,y,-z
-x,-y,-z
x,-y,z
1/2+x,1/2+y,z
1/2-x,1/2+y,-z
1/2-x,1/2-y,-z
1/2+x,1/2-y,z
loop_
_atom_site_type_symbol
_atom_site_label
_atom_site_fract_x
_atom_site_fract_y
_atom_site_fract_z
Si Si1 0.193983 0.177287 0.685369
Si Si2 0.091722 0.825379 0.032353
Si Si3 0.719958 0.677284 0.570143
Si Si4 0.126073 0.323836 0.428815
Si Si5 0.036570 0.176722 0.678648
Si Si6 0.619649 0.825556 0.816341
Si Si7 0.780209 0.174121 0.822816
Si Si8 0.335174 0.823249 0.040568
O O1 0.207328 0.223213 0.627992
O O2 0.108564 0.219644 0.670524
O O3 0.257828 0.242222 0.756594
O O4 0.198333 0.000000 0.689364
O O5 0.142485 0.778535 0.109039
O O6 0.109461 0.000000 0.031448
O O7 0.118394 0.735033 0.991156
O O8 0.000000 0.809575 0.000000
O O9 0.707766 0.500000 0.560718
O O10 0.807310 0.707674 0.587260
O O11 0.660723 0.757919 0.501556
O O12 0.117626 0.500000 0.429143
O O13 0.044086 0.250175 0.376405
O O14 0.062359 0.233490 0.751103
O O15 0.029739 0.000000 0.674931
O O16 0.706971 0.804955 0.831323
O O17 0.622822 0.783575 0.882229
O O18 0.601079 0.000000 0.803078
O O19 0.785932 0.000000 0.813348
O O20 0.326982 0.000000 0.035901
O O21 0.250000 0.750000 0.000000
#
# Coordination Sequence:
#
# PCOD9193753 Si02
#       8
#     8   8   8   8   8   8   8   8
#     4   9  19  35  55  79 103 135 177 219 262 309
#     4  10  21  38  56  77 112 148 182 227 280 328
#     4   9  19  37  57  76 104 141 178 215 256 307
#     4  10  20  35  56  79 107 141 174 213 261 310
#     4  10  20  34  54  80 108 137 173 217 264 314
#     4   9  18  34  54  77 106 138 176 222 268 315
#     4   9  17  33  54  76 105 141 175 216 269 320
#     4  11  21  35  58  83 108 141 186 230 274 329
#
# _framework density 17.144038999999999
#
# number of rings (size 3 to 8) (size 9 to 14) (size 15 to 20)
#    0.000    2.375    1.250    1.125    0.000    3.750 
#    2.250    2.500    0.000    0.000    0.000    0.000 
#    0.000    0.000    0.000    0.000    0.000    0.000 
#
# Total GULP energy -178526.043515 kJ/mol
# GULP energy per Si atom -5578.938860 kJ/mol
# Density = 1.710502 g / cm^3
# Si number density = 17.144039 Si / 1000 Ang^3
#
#
#
# Elastic Constant Matrix: (Units=GPa)
#
#
# Indices 1 2 3 4 5 6 
#
# 1 79.9408 47.5314 95.1831 0.0000 -9.2000 0.0000
# 2 47.5314 44.8664 66.1924 0.0000 -3.0785 0.0000
# 3 95.1831 66.1924 181.4284 0.0000 -5.2497 0.0000
# 4 0.0000 0.0000 0.0000 35.5278 0.0000 -1.2627
# 5 -9.2000 -3.0785 -5.2497 0.0000 29.4184 0.0000
# 6 0.0000 0.0000 0.0000 -1.2627 0.0000 23.3543
#
#
#
# Elastic Compliance Matrix: (Units=1/GPa)
#
#
# Indices 1 2 3 4 5 6 
#
# 1 0.047694 -0.028954 -0.014188 0.000000 0.009354 0.000000
# 2 -0.028954 0.065955 -0.008982 0.000000 -0.003756 0.000000
# 3 -0.014188 -0.008982 0.016160 0.000000 -0.002493 0.000000
# 4 0.000000 0.000000 0.000000 0.028201 0.000000 0.001525
# 5 0.009354 -0.003756 -0.002493 0.000000 0.036080 0.000000
# 6 0.000000 0.000000 0.000000 0.001525 0.000000 0.042901
#
#
# Mechanical properties :
#
#
# Convention : Reuss Voigt Hill
#
# Bulk Modulus (GPa) = 39.11936 80.44994 59.78465
# Shear Modulus (GPa) = 14.29560 24.14868 19.22214
#
# Velocity S-wave (km/s) = 2.89078 3.75717 3.35209
# Velocity P-wave (km/s) = 5.83179 8.11477 7.06609
#
# Compressibility (1/GPa) = 0.02556279
#
# Stress axis : x y z
#
# Youngs Moduli (GPa) = 20.96706 15.16179 61.88190
#
# Poissons Ratio (x) = 0.43899 0.87795
# Poissons Ratio (y) = 0.60708 0.55581
# Poissons Ratio (z) = 0.29747 0.13618
#
# Static dielectric constant tensor:
#      x y z
#    x 1.568150 0.000000 -0.004640 
#    y 0.000000 1.574350 0.000000 
#    z -0.004640 0.000000 1.559380 
# 
# From -- ./inp_files/346198.got.cif
#   From: 2010.05.17/outbox.cif.g08.bks.cpg/sg12_174_cif.got.tgz:346198.got - 2010.06.03 13:09:07.
