data_PCOD9193608
_publ_section_title
;
Structure prediction by ZEFSAII (Michael W. Deem and Ramdas Pophale) SiO2 
 PCOD9193608
Probable space group: C 2/M
;
_chemical_formula_sum "Si O2"
_cell_formula_units_Z 64
_cell_length_a 14.607532
_cell_length_b 9.300814
_cell_length_c 24.433391
_cell_angle_alpha 90.000000
_cell_angle_beta 89.719977
_cell_angle_gamma 90.000000
_cell_volume 3319.528211
_symmetry_space_group_name_H-M "C 2/M"
_symmetry_group_IT_number 12
_symmetry_cell_setting 'monoclinic'
loop_
_space_group_symop_operation_xyz
x,y,z
-x,y,-z
-x,-y,-z
x,-y,z
1/2+x,1/2+y,z
1/2-x,1/2+y,-z
1/2-x,1/2-y,-z
1/2+x,1/2-y,z
loop_
_atom_site_type_symbol
_atom_site_label
_atom_site_fract_x
_atom_site_fract_y
_atom_site_fract_z
Si Si1 0.305858 0.829295 0.734216
Si Si2 0.550253 0.671734 0.200021
Si Si3 0.500867 0.827669 0.089225
Si Si4 0.368128 0.839677 0.401100
Si Si5 0.904613 0.830080 0.296034
Si Si6 0.892296 0.161863 0.508668
Si Si7 0.846909 0.328296 0.003174
Si Si8 0.843820 0.836974 0.628595
O O1 0.354167 0.745790 0.783439
O O2 0.197456 0.799631 0.727298
O O3 0.354474 0.767864 0.679407
O O4 0.318331 0.000000 0.739313
O O5 0.560276 0.500000 0.195639
O O6 0.512871 0.740098 0.144521
O O7 0.478276 0.702329 0.249153
O O8 0.408450 0.790491 0.056101
O O9 0.499736 0.000000 0.099373
O O10 0.586789 0.797936 0.048712
O O11 0.419592 0.752302 0.353251
O O12 0.359894 0.758851 0.458879
O O13 0.264962 0.850113 0.379368
O O14 0.405965 0.000000 0.408326
O O15 0.906811 0.000000 0.308116
O O16 0.878681 0.217888 0.570058
O O17 0.000000 0.149247 0.500000
O O18 0.851115 0.000000 0.506628
O O19 0.832386 0.500000 0.004524
O O20 0.750000 0.250000 0.000000
O O21 0.880195 0.000000 0.638802
#
# Coordination Sequence:
#
# PCOD9193608 Si02
#       8
#     8   8   8   8   8   8   8   8
#     4  10  21  38  59  82 109 146 188 232 285 341
#     4  11  23  38  59  85 115 152 192 237 280 327
#     4   9  20  39  58  84 122 159 194 232 280 333
#     4  10  20  34  54  77 101 130 173 229 277 325
#     4   9  21  40  58  77 108 149 188 225 279 347
#     4  10  21  34  50  73 102 137 172 212 272 342
#     4   9  19  37  62  89 121 160 196 234 280 327
#     4   9  19  36  54  74 102 137 176 220 274 337
#
# _framework density 19.279848000000001
#
# number of rings (size 3 to 8) (size 9 to 14) (size 15 to 20)
#    0.000    2.375    0.000    2.250    1.750    4.750 
#    0.000    5.000    0.000    0.000    0.000    0.000 
#    0.000    0.000    0.000    0.000    0.000    0.000 
#
# Total GULP energy -178592.477791 kJ/mol
# GULP energy per Si atom -5581.014931 kJ/mol
# Density = 1.923597 g / cm^3
# Si number density = 19.279848 Si / 1000 Ang^3
#
#
#
# Elastic Constant Matrix: (Units=GPa)
#
#
# Indices 1 2 3 4 5 6 
#
# 1 86.3109 37.6599 29.7070 0.0000 13.9948 0.0000
# 2 37.6599 63.9058 51.1500 0.0000 13.7620 0.0000
# 3 29.7070 51.1500 86.4386 0.0000 19.8183 0.0000
# 4 0.0000 0.0000 0.0000 41.8900 0.0000 -11.0141
# 5 13.9948 13.7620 19.8183 0.0000 19.2642 0.0000
# 6 0.0000 0.0000 0.0000 -11.0141 0.0000 26.6559
#
#
#
# Elastic Compliance Matrix: (Units=1/GPa)
#
#
# Indices 1 2 3 4 5 6 
#
# 1 0.016215 -0.009279 0.001438 0.000000 -0.006630 0.000000
# 2 -0.009279 0.035289 -0.017613 0.000000 -0.000349 0.000000
# 3 0.001438 -0.017613 0.024671 0.000000 -0.013843 0.000000
# 4 0.000000 0.000000 0.000000 0.026782 0.000000 0.011066
# 5 -0.006630 -0.000349 -0.013843 0.000000 0.071217 0.000000
# 6 0.000000 0.000000 0.000000 0.011066 0.000000 0.042087
#
#
# Mechanical properties :
#
#
# Convention : Reuss Voigt Hill
#
# Bulk Modulus (GPa) = 39.57681 52.63213 46.10447
# Shear Modulus (GPa) = 18.14290 25.43792 21.79041
#
# Velocity S-wave (km/s) = 3.07095 3.63630 3.36552
# Velocity P-wave (km/s) = 5.75729 6.70735 6.25040
#
# Compressibility (1/GPa) = 0.02526732
#
# Stress axis : x y z
#
# Youngs Moduli (GPa) = 61.67279 28.33783 40.53346
#
# Poissons Ratio (x) = 0.26294 -0.05830
# Poissons Ratio (y) = 0.57224 0.71392
# Poissons Ratio (z) = -0.08870 0.49911
#
# Static dielectric constant tensor:
#      x y z
#    x 1.696880 0.000000 0.006870 
#    y 0.000000 1.681400 0.000000 
#    z 0.006870 0.000000 1.671580 
# 
# From -- ./inp_files/338823.got.cif
#   From: 2010.05.17/outbox.cif.g08.bks.cpg/sg12_170_cif.got.tgz:338823.got - 2010.06.03 13:09:07.
