data_PCOD9193877
_publ_section_title
;
Structure prediction by ZEFSAII (Michael W. Deem and Ramdas Pophale) SiO2 
 PCOD9193877
Probable space group: C 2/M
;
_chemical_formula_sum "Si O2"
_cell_formula_units_Z 56
_cell_length_a 21.597157
_cell_length_b 9.424693
_cell_length_c 15.407924
_cell_angle_alpha 90.000000
_cell_angle_beta 87.883929
_cell_angle_gamma 90.000000
_cell_volume 3134.091479
_symmetry_space_group_name_H-M "C 2/M"
_symmetry_group_IT_number 12
_symmetry_cell_setting 'monoclinic'
loop_
_space_group_symop_operation_xyz
x,y,z
-x,y,-z
-x,-y,-z
x,-y,z
1/2+x,1/2+y,z
1/2-x,1/2+y,-z
1/2-x,1/2-y,-z
1/2+x,1/2-y,z
loop_
_atom_site_type_symbol
_atom_site_label
_atom_site_fract_x
_atom_site_fract_y
_atom_site_fract_z
Si Si1 0.166270 0.167126 0.931185
Si Si2 0.688464 0.667938 0.475489
Si Si3 0.867981 0.834769 0.706520
Si Si4 0.716347 0.664648 0.121545
Si Si5 0.055383 0.829473 0.566266
Si Si6 0.960205 0.669332 0.087098
Si Si7 0.006777 0.331054 0.277743
O O1 0.224662 0.233807 0.878552
O O2 0.103917 0.247481 0.911006
O O3 0.161098 0.000000 0.915686
O O4 0.181079 0.189650 0.032616
O O5 0.697565 0.500000 0.490095
O O6 0.750000 0.750000 0.500000
O O7 0.674970 0.689617 0.374372
O O8 0.623552 0.707768 0.526087
O O9 0.829353 0.814960 0.796066
O O10 0.926473 0.732593 0.702506
O O11 0.889294 0.000000 0.700759
O O12 0.737179 0.500000 0.120097
O O13 0.000000 0.796493 0.500000
O O14 0.040847 0.747343 0.655653
O O15 0.053516 0.000000 0.579382
O O16 0.949018 0.500000 0.082524
O O17 0.993771 0.698033 0.176811
O O18 0.000000 0.709549 0.000000
O O19 0.004340 0.500000 0.290996
#
# Coordination Sequence:
#
# PCOD9193877 Si02
#       7
#     8   8   8   8   8   8   8
#     4  10  20  34  54  82 112 146 188 234 285 340
#     4  10  22  39  60  85 114 150 187 234 291 345
#     4  10  20  38  60  81 109 148 192 232 283 349
#     4   9  19  35  57  81 109 147 188 233 285 342
#     4  10  20  40  64  84 115 156 195 235 289 355
#     4  10  22  39  56  78 115 155 189 233 289 343
#     4  11  23  36  58  90 115 146 194 244 291 338
#
# _framework density 17.868019
#
# number of rings (size 3 to 8) (size 9 to 14) (size 15 to 20)
#    0.000    2.000    1.429    1.714    0.000    5.143 
#    0.000    4.286    0.000    0.000    0.000    0.000 
#    0.000    0.000    0.000    0.000    0.000    0.000 
#
# Total GULP energy -156315.784924 kJ/mol
# GULP energy per Si atom -5582.706604 kJ/mol
# Density = 1.782735 g / cm^3
# Si number density = 17.868019 Si / 1000 Ang^3
#
#
#
# Elastic Constant Matrix: (Units=GPa)
#
#
# Indices 1 2 3 4 5 6 
#
# 1 109.8802 49.9163 33.3862 0.0000 8.9404 0.0000
# 2 49.9163 40.0197 39.0030 0.0000 5.8176 0.0000
# 3 33.3862 39.0030 81.2456 0.0000 -9.9461 0.0000
# 4 0.0000 0.0000 0.0000 28.2031 0.0000 4.5533
# 5 8.9404 5.8176 -9.9461 0.0000 17.5095 0.0000
# 6 0.0000 0.0000 0.0000 4.5533 0.0000 32.1310
#
#
#
# Elastic Compliance Matrix: (Units=1/GPa)
#
#
# Indices 1 2 3 4 5 6 
#
# 1 0.024448 -0.043129 0.011697 0.000000 0.008491 0.000000
# 2 -0.043129 0.145483 -0.059476 0.000000 -0.060100 0.000000
# 3 0.011697 -0.059476 0.040562 0.000000 0.036829 0.000000
# 4 0.000000 0.000000 0.000000 0.036287 0.000000 -0.005142
# 5 0.008491 -0.060100 0.036829 0.000000 0.093665 0.000000
# 6 0.000000 0.000000 0.000000 -0.005142 0.000000 0.031851
#
#
# Mechanical properties :
#
#
# Convention : Reuss Voigt Hill
#
# Bulk Modulus (GPa) = 34.86782 52.86183 43.86482
# Shear Modulus (GPa) = 8.87041 22.82471 15.84756
#
# Velocity S-wave (km/s) = 2.23051 3.57796 2.98136
# Velocity P-wave (km/s) = 5.11762 6.83505 6.03771
#
# Compressibility (1/GPa) = 0.02867974
#
# Stress axis : x y z
#
# Youngs Moduli (GPa) = 40.90276 6.87364 24.65339
#
# Poissons Ratio (x) = 0.29645 -0.28838
# Poissons Ratio (y) = 1.76408 1.46628
# Poissons Ratio (z) = -0.47846 0.40882
#
# Static dielectric constant tensor:
#      x y z
#    x 1.580940 0.000000 -0.006360 
#    y 0.000000 1.595290 0.000000 
#    z -0.006360 0.000000 1.608760 
# 
# From -- ./inp_files/230862.got.cif
#   From: 2010.05.17/outbox.cif.g08.bks.cpg/sg12_116_cif.got.tgz:230862.got - 2010.06.03 13:09:07.
