data_PCOD9193404
_publ_section_title
;
Structure prediction by ZEFSAII (Michael W. Deem and Ramdas Pophale) SiO2 
 PCOD9193404
Probable space group: C 2/M
;
_chemical_formula_sum "Si O2"
_cell_formula_units_Z 64
_cell_length_a 32.936878
_cell_length_b 8.641134
_cell_length_c 16.046822
_cell_angle_alpha 90.000000
_cell_angle_beta 126.776714
_cell_angle_gamma 90.000000
_cell_volume 3658.146015
_symmetry_space_group_name_H-M "C 2/M"
_symmetry_group_IT_number 12
_symmetry_cell_setting 'monoclinic'
loop_
_space_group_symop_operation_xyz
x,y,z
-x,y,-z
-x,-y,-z
x,-y,z
1/2+x,1/2+y,z
1/2-x,1/2+y,-z
1/2-x,1/2-y,-z
1/2+x,1/2-y,z
loop_
_atom_site_type_symbol
_atom_site_label
_atom_site_fract_x
_atom_site_fract_y
_atom_site_fract_z
Si Si1 0.135500 0.687322 0.519189
Si Si2 0.882904 0.313292 0.022990
Si Si3 0.221192 0.185083 0.044518
Si Si4 0.527426 0.811836 0.450691
Si Si5 0.846651 0.685247 0.794508
Si Si6 0.257403 0.812950 0.272379
Si Si7 0.097855 0.815874 0.298815
Si Si8 0.007818 0.312729 0.775130
O O1 0.135163 0.500000 0.513702
O O2 0.086119 0.734372 0.512200
O O3 0.188232 0.735749 0.625301
O O4 0.126759 0.751952 0.416031
O O5 0.880364 0.500000 0.025464
O O6 0.937964 0.263691 0.122662
O O7 0.836337 0.245072 0.018244
O O8 0.873449 0.270180 0.914899
O O9 0.248499 0.232399 0.164952
O O10 0.221134 0.000000 0.040891
O O11 0.250000 0.250000 0.000000
O O12 0.500000 0.754279 0.500000
O O13 0.499421 0.767377 0.330600
O O14 0.526731 0.000000 0.452822
O O15 0.847372 0.500000 0.788840
O O16 0.789023 0.743539 0.732383
O O17 0.875017 0.756654 0.750863
O O18 0.254565 0.000000 0.272965
O O19 0.040325 0.753922 0.235111
O O20 0.097715 0.000000 0.300794
O O21 0.004976 0.500000 0.775900
#
# Coordination Sequence:
#
# PCOD9193404 Si02
#       8
#     8   8   8   8   8   8   8   8
#     4   9  18  34  54  75 101 133 171 214 256 299
#     4   9  19  35  55  77 101 134 175 217 259 303
#     4  10  20  34  53  78 109 141 174 213 255 303
#     4   8  14  26  48  76 100 125 161 204 246 290
#     4  10  20  35  54  75 101 132 169 213 260 309
#     4   9  19  35  54  76 102 134 174 217 257 300
#     4  11  22  35  52  75 104 135 168 207 255 311
#     4   9  18  34  54  75 102 135 172 212 252 300
#
# _framework density 17.495201000000002
#
# number of rings (size 3 to 8) (size 9 to 14) (size 15 to 20)
#    0.000    2.625    0.000    2.625    0.000    4.000 
#    0.000    6.250    0.000    6.000    0.000    0.000 
#    0.000    0.000    0.000    0.000    0.000    0.000 
#
# Total GULP energy -178494.999640 kJ/mol
# GULP energy per Si atom -5577.968739 kJ/mol
# Density = 1.745538 g / cm^3
# Si number density = 17.495201 Si / 1000 Ang^3
#
#
#
# Elastic Constant Matrix: (Units=GPa)
#
#
# Indices 1 2 3 4 5 6 
#
# 1 196.3289 42.8415 126.3073 0.0000 -4.7548 0.0000
# 2 42.8415 25.0819 33.9562 0.0000 2.6049 0.0000
# 3 126.3073 33.9562 127.4657 0.0000 25.7332 0.0000
# 4 0.0000 0.0000 0.0000 17.0876 0.0000 2.8656
# 5 -4.7548 2.6049 25.7332 0.0000 35.7471 0.0000
# 6 0.0000 0.0000 0.0000 2.8656 0.0000 29.2906
#
#
#
# Elastic Compliance Matrix: (Units=1/GPa)
#
#
# Indices 1 2 3 4 5 6 
#
# 1 0.025252 -0.008150 -0.027670 0.000000 0.023872 0.000000
# 2 -0.008150 0.067377 -0.010136 0.000000 0.001302 0.000000
# 3 -0.027670 -0.010136 0.045115 0.000000 -0.035419 0.000000
# 4 0.000000 0.000000 0.000000 0.059498 0.000000 -0.005821
# 5 0.023872 0.001302 -0.035419 0.000000 0.056551 0.000000
# 6 0.000000 0.000000 0.000000 -0.005821 0.000000 0.034710
#
#
# Mechanical properties :
#
#
# Convention : Reuss Voigt Hill
#
# Bulk Modulus (GPa) = 21.81931 83.89851 52.85891
# Shear Modulus (GPa) = 12.63606 26.14314 19.38960
#
# Velocity S-wave (km/s) = 2.69040 3.86982 3.33270
# Velocity P-wave (km/s) = 4.70635 8.24782 6.71477
#
# Compressibility (1/GPa) = 0.04583096
#
# Stress axis : x y z
#
# Youngs Moduli (GPa) = 39.60121 14.84183 22.16576
#
# Poissons Ratio (x) = 0.12097 0.61333
# Poissons Ratio (y) = 0.32276 0.22466
# Poissons Ratio (z) = 1.09578 0.15043
#
# Static dielectric constant tensor:
#      x y z
#    x 1.566500 0.000000 0.004320 
#    y 0.000000 1.593820 0.000000 
#    z 0.004320 0.000000 1.588360 
# 
# From -- ./inp_files/249214.got.cif
#   From: 2010.05.17/outbox.cif.g08.bks.cpg/sg12_125_cif.got.tgz:249214.got - 2010.06.03 13:09:07.
