data_PCOD9193201
_publ_section_title
;
Structure prediction by ZEFSAII (Michael W. Deem and Ramdas Pophale) SiO2 
 PCOD9193201
Probable space group: C 2/M
;
_chemical_formula_sum "Si O2"
_cell_formula_units_Z 40
_cell_length_a 29.039594
_cell_length_b 13.912542
_cell_length_c 14.532799
_cell_angle_alpha 90.000000
_cell_angle_beta 160.964460
_cell_angle_gamma 90.000000
_cell_volume 1915.004448
_symmetry_space_group_name_H-M "C 2/M"
_symmetry_group_IT_number 12
_symmetry_cell_setting 'monoclinic'
loop_
_space_group_symop_operation_xyz
x,y,z
-x,y,-z
-x,-y,-z
x,-y,z
1/2+x,1/2+y,z
1/2-x,1/2+y,-z
1/2-x,1/2-y,-z
1/2+x,1/2-y,z
loop_
_atom_site_type_symbol
_atom_site_label
_atom_site_fract_x
_atom_site_fract_y
_atom_site_fract_z
Si Si1 0.973471 0.391339 0.718442
Si Si2 0.843634 0.896938 0.160607
Si Si3 0.699516 0.612047 0.332411
Si Si4 0.413157 0.196465 0.240283
Si Si5 0.127225 0.323091 0.174947
O O1 0.979067 0.500000 0.695890
O O2 0.985671 0.325315 0.653010
O O3 0.835664 0.381143 0.522080
O O4 0.104802 0.369074 0.033827
O O5 0.847671 0.802649 0.105836
O O6 0.000000 0.900391 0.500000
O O7 0.815948 0.000000 0.063326
O O8 0.719608 0.875409 0.999701
O O9 0.651077 0.500000 0.236611
O O10 0.740392 0.640257 0.515256
O O11 0.614391 0.707359 0.141606
O O12 0.500000 0.191177 0.500000
O O13 0.000000 0.357038 0.000000
#
# Coordination Sequence:
#
# PCOD9193201 Si02
#       5
#     8   8   8   8   8
#     4  10  20  34  53  75 101 135 174 215 261 312
#     4   9  19  36  55  75 104 141 177 220 275 323
#     4   9  18  33  54  78 103 132 168 213 261 310
#     4  10  21  36  55  79 107 141 185 228 262 309
#     4   9  18  33  52  75 104 135 168 207 257 318
#
# _framework density 20.88768
#
# number of rings (size 3 to 8) (size 9 to 14) (size 15 to 20)
#    0.000    2.600    0.000    1.200    0.000    9.200 
#    0.000    3.000    0.000    4.800    0.000    0.000 
#    0.000    0.000    0.000    0.000    0.000    0.000 
#
# Total GULP energy -111360.257597 kJ/mol
# GULP energy per Si atom -5568.012880 kJ/mol
# Density = 2.084014 g / cm^3
# Si number density = 20.887680 Si / 1000 Ang^3
#
#
#
# Elastic Constant Matrix: (Units=GPa)
#
#
# Indices 1 2 3 4 5 6 
#
# 1 92.8327 24.6609 7.3283 0.0000 2.1109 0.0000
# 2 24.6609 95.0411 0.5756 0.0000 13.6500 0.0000
# 3 7.3283 0.5756 45.1867 0.0000 13.8287 0.0000
# 4 0.0000 0.0000 0.0000 150.9380 0.0000 137.8009
# 5 2.1109 13.6500 13.8287 0.0000 13.9160 0.0000
# 6 0.0000 0.0000 0.0000 137.8009 0.0000 152.1850
#
#
#
# Elastic Compliance Matrix: (Units=1/GPa)
#
#
# Indices 1 2 3 4 5 6 
#
# 1 0.011960 -0.003880 -0.003592 0.000000 0.005562 0.000000
# 2 -0.003880 0.014367 0.006580 0.000000 -0.020043 0.000000
# 3 -0.003592 0.006580 0.035117 0.000000 -0.040806 0.000000
# 4 0.000000 0.000000 0.000000 0.038224 0.000000 -0.034611
# 5 0.005562 -0.020043 -0.040806 0.000000 0.131226 0.000000
# 6 0.000000 0.000000 0.000000 -0.034611 0.000000 0.037911
#
#
# Mechanical properties :
#
#
# Convention : Reuss Voigt Hill
#
# Bulk Modulus (GPa) = 16.76177 33.13222 24.94699
# Shear Modulus (GPa) = 17.21310 76.77420 46.99365
#
# Velocity S-wave (km/s) = 2.87379 6.06923 4.74838
# Velocity P-wave (km/s) = 4.36506 8.06291 6.48322
#
# Compressibility (1/GPa) = 0.05965958
#
# Stress axis : x y z
#
# Youngs Moduli (GPa) = 83.61204 69.60207 28.47598
#
# Poissons Ratio (x) = 0.27008 0.10230
# Poissons Ratio (y) = 0.32445 -0.18738
# Poissons Ratio (z) = 0.30036 -0.45799
#
# Static dielectric constant tensor:
#      x y z
#    x 1.726240 0.000000 -0.003370 
#    y 0.000000 1.790570 0.000000 
#    z -0.003370 0.000000 1.840190 
# 
# From -- ./inp_files/129305.got.cif
#   From: 2010.05.17/outbox.cif.g08.bks.cpg/sg12_65_cif.got.tgz:129305.got - 2010.06.03 13:09:07.
