data_PCOD9193951
_publ_section_title
;
Structure prediction by ZEFSAII (Michael W. Deem and Ramdas Pophale) SiO2 
 PCOD9193951
Probable space group: C 2/M
;
_chemical_formula_sum "Si O2"
_cell_formula_units_Z 56
_cell_length_a 30.600079
_cell_length_b 14.482015
_cell_length_c 11.519584
_cell_angle_alpha 90.000000
_cell_angle_beta 31.556261
_cell_angle_gamma 90.000000
_cell_volume 2671.582421
_symmetry_space_group_name_H-M "C 2/M"
_symmetry_group_IT_number 12
_symmetry_cell_setting 'monoclinic'
loop_
_space_group_symop_operation_xyz
x,y,z
-x,y,-z
-x,-y,-z
x,-y,z
1/2+x,1/2+y,z
1/2-x,1/2+y,-z
1/2-x,1/2-y,-z
1/2+x,1/2-y,z
loop_
_atom_site_type_symbol
_atom_site_label
_atom_site_fract_x
_atom_site_fract_y
_atom_site_fract_z
Si Si1 0.157186 0.271947 0.596444
Si Si2 0.550698 0.607929 0.268698
Si Si3 0.597353 0.106632 0.135474
Si Si4 0.223095 0.607622 0.644957
Si Si5 0.665142 0.194671 0.212827
Si Si6 0.755627 0.897654 0.196055
Si Si7 0.028553 0.256211 0.694591
O O1 0.160051 0.338716 0.700954
O O2 0.194348 0.171355 0.542329
O O3 0.223306 0.321476 0.359249
O O4 0.069802 0.265523 0.726882
O O5 0.500000 0.635525 0.500000
O O6 0.532656 0.500000 0.290598
O O7 0.526750 0.667737 0.210705
O O8 0.649963 0.619087 0.059083
O O9 0.617254 0.162561 0.207040
O O10 0.523777 0.155660 0.230182
O O11 0.577326 0.000000 0.205424
O O12 0.679920 0.109646 0.868609
O O13 0.235929 0.500000 0.585071
O O14 0.694665 0.108417 0.223966
O O15 0.605955 0.252657 0.430727
O O16 0.750000 0.250000 0.000000
O O17 0.751960 0.000000 0.256749
#
# Coordination Sequence:
#
# PCOD9193951 Si02
#       7
#     8   8   8   8   8   8   8
#     4  10  22  39  61  84 108 146 190 233 281 335
#     4  10  20  34  54  83 118 152 185 226 279 335
#     4  11  23  37  56  84 117 151 187 231 284 339
#     4  10  22  41  62  83 109 143 188 238 283 333
#     4  11  21  35  56  81 114 153 191 231 277 331
#     4  10  20  35  57  82 111 148 189 231 274 330
#     4  11  22  36  56  82 116 150 183 227 280 339
#
# _framework density 20.961359999999999
#
# number of rings (size 3 to 8) (size 9 to 14) (size 15 to 20)
#    0.000    1.571    0.000    6.429    0.000    5.143 
#    0.000    5.000    0.000    0.000    0.000    8.000 
#    0.000    0.000    0.000    0.000    0.000    0.000 
#
# Total GULP energy -156423.630907 kJ/mol
# GULP energy per Si atom -5586.558247 kJ/mol
# Density = 2.091365 g / cm^3
# Si number density = 20.961360 Si / 1000 Ang^3
#
#
#
# Elastic Constant Matrix: (Units=GPa)
#
#
# Indices 1 2 3 4 5 6 
#
# 1 126.1660 25.0944 -9.8537 0.0000 -16.2281 0.0000
# 2 25.0944 97.7165 -10.0739 0.0000 -8.8341 0.0000
# 3 -9.8537 -10.0739 29.4045 0.0000 -1.3081 0.0000
# 4 0.0000 0.0000 0.0000 21.9604 0.0000 4.8229
# 5 -16.2281 -8.8341 -1.3081 0.0000 33.8002 0.0000
# 6 0.0000 0.0000 0.0000 4.8229 0.0000 18.7472
#
#
#
# Elastic Compliance Matrix: (Units=1/GPa)
#
#
# Indices 1 2 3 4 5 6 
#
# 1 0.008974 -0.001677 0.002610 0.000000 0.003971 0.000000
# 2 -0.001677 0.011217 0.003382 0.000000 0.002258 0.000000
# 3 0.002610 0.003382 0.036199 0.000000 0.003538 0.000000
# 4 0.000000 0.000000 0.000000 0.048263 0.000000 -0.012416
# 5 0.003971 0.002258 0.003538 0.000000 0.032219 0.000000
# 6 0.000000 0.000000 0.000000 -0.012416 0.000000 0.056535
#
#
# Mechanical properties :
#
#
# Convention : Reuss Voigt Hill
#
# Bulk Modulus (GPa) = 15.38012 29.29118 22.33565
# Shear Modulus (GPa) = 24.21871 31.44289 27.83080
#
# Velocity S-wave (km/s) = 3.40280 3.87724 3.64774
# Velocity P-wave (km/s) = 4.77410 5.83508 5.33105
#
# Compressibility (1/GPa) = 0.06501900
#
# Stress axis : x y z
#
# Youngs Moduli (GPa) = 111.43088 89.15070 27.62524
#
# Poissons Ratio (x) = 0.14947 -0.07209
# Poissons Ratio (y) = 0.18682 -0.09342
# Poissons Ratio (z) = -0.29079 -0.30146
#
# Static dielectric constant tensor:
#      x y z
#    x 1.770170 0.000000 0.025560 
#    y 0.000000 1.757040 0.000000 
#    z 0.025560 0.000000 1.766510 
# 
# From -- ./inp_files/189636.got.cif
#   From: 2010.05.17/outbox.cif.g08.bks.cpg/sg12_95_cif.got.tgz:189636.got - 2010.06.03 13:09:07.
