data_PCOD9193026
_publ_section_title
;
Structure prediction by ZEFSAII (Michael W. Deem and Ramdas Pophale) SiO2 
 PCOD9193026
Probable space group: C 2/M
;
_chemical_formula_sum "Si O2"
_cell_formula_units_Z 64
_cell_length_a 19.498776
_cell_length_b 7.459650
_cell_length_c 22.282662
_cell_angle_alpha 90.000000
_cell_angle_beta 57.482537
_cell_angle_gamma 90.000000
_cell_volume 2732.987909
_symmetry_space_group_name_H-M "C 2/M"
_symmetry_group_IT_number 12
_symmetry_cell_setting 'monoclinic'
loop_
_space_group_symop_operation_xyz
x,y,z
-x,y,-z
-x,-y,-z
x,-y,z
1/2+x,1/2+y,z
1/2-x,1/2+y,-z
1/2-x,1/2-y,-z
1/2+x,1/2-y,z
loop_
_atom_site_type_symbol
_atom_site_label
_atom_site_fract_x
_atom_site_fract_y
_atom_site_fract_z
Si Si1 0.032539 0.715422 0.421220
Si Si2 0.157405 0.208452 0.274593
Si Si3 0.776978 0.713189 0.919980
Si Si4 0.386603 0.721372 0.234594
Si Si5 0.742445 0.295486 0.609157
Si Si6 0.822729 0.800039 0.144372
Si Si7 0.133997 0.718541 0.546929
Si Si8 0.052997 0.207691 0.216133
O O1 0.036382 0.500000 0.421550
O O2 0.119242 0.779353 0.357891
O O3 0.000000 0.778843 0.500000
O O4 0.959820 0.769227 0.411049
O O5 0.239620 0.309069 0.222272
O O6 0.089459 0.284004 0.260719
O O7 0.172498 0.000000 0.253207
O O8 0.780788 0.500000 0.908322
O O9 0.710894 0.782603 0.901910
O O10 0.867727 0.783192 0.864154
O O11 0.750000 0.750000 0.000000
O O12 0.385295 0.500000 0.234679
O O13 0.308930 0.782384 0.311073
O O14 0.381600 0.781011 0.167292
O O15 0.470499 0.781517 0.226463
O O16 0.763565 0.500000 0.615771
O O17 0.820200 0.221547 0.535917
O O18 0.677515 0.294201 0.584736
O O19 0.853418 0.000000 0.115682
O O20 0.140405 0.500000 0.545646
O O21 0.034668 0.000000 0.236978
#
# Coordination Sequence:
#
# PCOD9193026 Si02
#       8
#     8   8   8   8   8   8   8   8
#     4  10  21  33  48  68  93 131 178 224 266 309
#     4  10  20  34  52  75 104 137 173 217 270 321
#     4  10  20  36  59  85 110 142 175 208 250 301
#     4   9  17  31  55  80 102 133 175 218 258 301
#     4   9  17  30  50  70  93 129 166 208 261 313
#     4   9  19  35  57  82 107 137 177 216 254 307
#     4   9  18  31  45  67  94 125 170 216 262 311
#     4   9  18  34  56  82 108 138 174 211 255 310
#
# _framework density 23.417593
#
# number of rings (size 3 to 8) (size 9 to 14) (size 15 to 20)
#    0.000    2.625    0.000    1.500    1.750    2.750 
#    0.000    2.500    0.000    3.750    0.000    0.000 
#    0.000    0.000    0.000    0.000    0.000    0.000 
#
# Total GULP energy -178580.798858 kJ/mol
# GULP energy per Si atom -5580.649964 kJ/mol
# Density = 2.336429 g / cm^3
# Si number density = 23.417593 Si / 1000 Ang^3
#
#
#
# Elastic Constant Matrix: (Units=GPa)
#
#
# Indices 1 2 3 4 5 6 
#
# 1 76.9883 -2.5467 -1.9766 0.0001 13.3326 0.0010
# 2 -2.5467 81.7934 -13.8651 0.0004 3.2840 0.0010
# 3 -1.9766 -13.8651 99.3668 -0.0001 16.6808 0.0001
# 4 0.0001 0.0004 -0.0001 11.7950 0.0001 -5.8861
# 5 13.3326 3.2840 16.6808 0.0001 31.0446 -0.0004
# 6 0.0010 0.0010 0.0001 -5.8861 -0.0004 5.5899
#
#
#
# Elastic Compliance Matrix: (Units=1/GPa)
#
#
# Indices 1 2 3 4 5 6 
#
# 1 0.014296 0.001005 0.001619 -0.000003 -0.007116 -0.000007
# 2 0.001005 0.012770 0.002309 -0.000004 -0.003023 -0.000006
# 3 0.001619 0.002309 0.011624 -0.000001 -0.007186 -0.000003
# 4 -0.000003 -0.000004 -0.000001 0.178669 0.000004 0.188138
# 5 -0.007116 -0.003023 -0.007186 0.000004 0.039449 0.000009
# 6 -0.000007 -0.000006 -0.000003 0.188138 0.000009 0.377002
#
#
# Mechanical properties :
#
#
# Convention : Reuss Voigt Hill
#
# Bulk Modulus (GPa) = 20.59366 24.59687 22.59527
# Shear Modulus (GPa) = 7.81093 28.12170 17.96632
#
# Velocity S-wave (km/s) = 1.82832 3.46913 2.77287
# Velocity P-wave (km/s) = 3.64283 5.15489 4.46335
#
# Compressibility (1/GPa) = 0.04855863
#
# Stress axis : x y z
#
# Youngs Moduli (GPa) = 69.94892 78.30796 86.02558
#
# Poissons Ratio (x) = -0.07872 -0.13930
# Poissons Ratio (y) = -0.07032 -0.19867
# Poissons Ratio (z) = -0.11326 -0.18085
#
# Static dielectric constant tensor:
#      x y z
#    x 1.923110 0.000000 0.049010 
#    y 0.000000 1.963480 0.000000 
#    z 0.049010 0.000000 1.868830 
# 
# From -- ./inp_files/319969.got.cif
#   From: 2010.05.17/outbox.cif.g08.bks.cpg/sg12_160_cif.got.tgz:319969.got - 2010.06.03 13:09:07.
