data_PCOD9193744
_publ_section_title
;
Structure prediction by ZEFSAII (Michael W. Deem and Ramdas Pophale) SiO2 
 PCOD9193744
Probable space group: C 2/M
;
_chemical_formula_sum "Si O2"
_cell_formula_units_Z 64
_cell_length_a 16.656311
_cell_length_b 9.285833
_cell_length_c 24.349701
_cell_angle_alpha 90.000000
_cell_angle_beta 53.861092
_cell_angle_gamma 90.000000
_cell_volume 3041.473488
_symmetry_space_group_name_H-M "C 2/M"
_symmetry_group_IT_number 12
_symmetry_cell_setting 'monoclinic'
loop_
_space_group_symop_operation_xyz
x,y,z
-x,y,-z
-x,-y,-z
x,-y,z
1/2+x,1/2+y,z
1/2-x,1/2+y,-z
1/2-x,1/2-y,-z
1/2+x,1/2-y,z
loop_
_atom_site_type_symbol
_atom_site_label
_atom_site_fract_x
_atom_site_fract_y
_atom_site_fract_z
Si Si1 0.091824 0.330392 0.284146
Si Si2 0.987201 0.333962 0.091995
Si Si3 0.466594 0.165418 0.224240
Si Si4 0.382085 0.669216 0.539898
Si Si5 0.085615 0.828381 0.593128
Si Si6 0.213536 0.172540 0.850131
Si Si7 0.794414 0.671213 0.035046
Si Si8 0.706790 0.669590 0.656250
O O1 0.086649 0.500000 0.299422
O O2 0.206450 0.288931 0.229385
O O3 0.041801 0.308821 0.243991
O O4 0.021163 0.243666 0.353353
O O5 0.953579 0.500000 0.096519
O O6 0.015141 0.319744 0.145063
O O7 0.896692 0.227093 0.118472
O O8 0.085790 0.310533 0.016924
O O9 0.370882 0.265865 0.269329
O O10 0.432480 0.000000 0.243472
O O11 0.500000 0.684714 0.500000
O O12 0.357095 0.500000 0.554676
O O13 0.365930 0.719706 0.483504
O O14 0.313434 0.756311 0.609122
O O15 0.153527 0.799893 0.618755
O O16 0.071351 0.000000 0.594786
O O17 0.242029 0.252896 0.894948
O O18 0.217645 0.000000 0.855662
O O19 0.773446 0.500000 0.042710
O O20 0.750000 0.750000 0.000000
O O21 0.716793 0.500000 0.659749
#
# Coordination Sequence:
#
# PCOD9193744 Si02
#       8
#     8   8   8   8   8   8   8   8
#     4   9  19  36  57  80 107 142 183 225 270 323
#     4  10  22  39  58  82 113 149 187 227 276 334
#     4   9  18  36  59  78 103 142 183 222 268 324
#     4  10  21  36  53  75 105 141 179 218 265 325
#     4   9  19  35  55  79 105 136 179 226 268 318
#     4  11  23  38  57  85 119 151 186 228 276 331
#     4  11  23  40  62  86 113 147 190 236 280 330
#     4  10  20  34  54  80 107 135 174 224 271 318
#
# _framework density 21.042431000000001
#
# number of rings (size 3 to 8) (size 9 to 14) (size 15 to 20)
#    0.000    2.125    0.000    2.625    0.000    8.250 
#    0.000    6.250    0.000    0.000    0.000    0.000 
#    0.000    0.000    0.000    0.000    0.000    0.000 
#
# Total GULP energy -178824.575748 kJ/mol
# GULP energy per Si atom -5588.267992 kJ/mol
# Density = 2.099454 g / cm^3
# Si number density = 21.042431 Si / 1000 Ang^3
#
#
#
# Elastic Constant Matrix: (Units=GPa)
#
#
# Indices 1 2 3 4 5 6 
#
# 1 37.3609 17.8650 -8.6277 0.0000 -7.2746 0.0000
# 2 17.8650 46.3398 34.5302 0.0000 -19.9866 0.0001
# 3 -8.6277 34.5302 95.1526 0.0000 -19.5698 0.0000
# 4 0.0000 0.0000 0.0000 35.2818 0.0000 -5.4535
# 5 -7.2746 -19.9866 -19.5698 0.0000 27.0527 0.0000
# 6 0.0000 0.0001 0.0000 -5.4535 0.0000 25.9472
#
#
#
# Elastic Compliance Matrix: (Units=1/GPa)
#
#
# Indices 1 2 3 4 5 6 
#
# 1 0.042591 -0.025511 0.013626 0.000000 0.002462 0.000000
# 2 -0.025511 0.052876 -0.017478 0.000000 0.019561 0.000000
# 3 0.013626 -0.017478 0.019014 0.000000 0.004506 0.000000
# 4 0.000000 0.000000 0.000000 0.029295 0.000000 0.006157
# 5 0.002462 0.019561 0.004506 0.000000 0.055338 0.000000
# 6 0.000000 0.000000 0.000000 0.006157 0.000000 0.039834
#
#
# Mechanical properties :
#
#
# Convention : Reuss Voigt Hill
#
# Bulk Modulus (GPa) = 17.93603 29.59871 23.76737
# Shear Modulus (GPa) = 15.80977 26.66204 21.23591
#
# Velocity S-wave (km/s) = 2.74401 3.56344 3.18023
# Velocity P-wave (km/s) = 4.31065 5.57024 4.98043
#
# Compressibility (1/GPa) = 0.05575370
#
# Stress axis : x y z
#
# Youngs Moduli (GPa) = 23.47922 18.91226 52.59149
#
# Poissons Ratio (x) = 0.48248 -0.71662
# Poissons Ratio (y) = 0.59899 0.91922
# Poissons Ratio (z) = -0.31993 0.33056
#
# Static dielectric constant tensor:
#      x y z
#    x 1.817360 0.000000 0.010670 
#    y 0.000000 1.699430 0.000000 
#    z 0.010670 0.000000 1.715720 
# 
# From -- ./inp_files/378002.got.cif
#   From: 2010.05.17/outbox.cif.g08.bks.cpg/sg12_190_cif.got.tgz:378002.got - 2010.06.03 13:09:07.
