data_PCOD9193896
_publ_section_title
;
Structure prediction by ZEFSAII (Michael W. Deem and Ramdas Pophale) SiO2 
 PCOD9193896
Probable space group: C 2/M
;
_chemical_formula_sum "Si O2"
_cell_formula_units_Z 48
_cell_length_a 25.331387
_cell_length_b 8.992581
_cell_length_c 11.300593
_cell_angle_alpha 90.000000
_cell_angle_beta 70.686181
_cell_angle_gamma 90.000000
_cell_volume 2429.339866
_symmetry_space_group_name_H-M "C 2/M"
_symmetry_group_IT_number 12
_symmetry_cell_setting 'monoclinic'
loop_
_space_group_symop_operation_xyz
x,y,z
-x,y,-z
-x,-y,-z
x,-y,z
1/2+x,1/2+y,z
1/2-x,1/2+y,-z
1/2-x,1/2-y,-z
1/2+x,1/2-y,z
loop_
_atom_site_type_symbol
_atom_site_label
_atom_site_fract_x
_atom_site_fract_y
_atom_site_fract_z
Si Si1 0.568126 0.177324 0.192789
Si Si2 0.865261 0.677165 0.095556
Si Si3 0.170033 0.177960 0.494331
Si Si4 0.034278 0.168343 0.850980
Si Si5 0.727923 0.677429 0.700350
Si Si6 0.436074 0.678894 0.561642
O O1 0.507834 0.247562 0.204563
O O2 0.586849 0.249458 0.301218
O O3 0.563313 0.000000 0.205668
O O4 0.609845 0.210964 0.052849
O O5 0.862950 0.500000 0.110840
O O6 0.909829 0.745480 0.155358
O O7 0.805665 0.749635 0.167257
O O8 0.211066 0.257399 0.370943
O O9 0.192258 0.216420 0.608087
O O10 0.105955 0.216962 0.513721
O O11 0.176036 0.000000 0.477240
O O12 0.046384 0.000000 0.800488
O O13 0.000000 0.158839 0.000000
O O14 0.729662 0.500000 0.710833
O O15 0.500000 0.729718 0.500000
O O16 0.436797 0.500000 0.572949
#
# Coordination Sequence:
#
# PCOD9193896 Si02
#       6
#     8   8   8   8   8   8
#     4  10  21  36  53  80 116 151 188 232 282 338
#     4  10  20  34  54  82 116 149 185 233 288 336
#     4   9  20  39  58  82 115 148 186 235 285 333
#     4   9  17  30  50  76 108 146 186 228 273 326
#     4  10  20  35  60  88 112 145 190 235 283 338
#     4  10  22  39  60  83 112 152 191 231 282 340
#
# _framework density 19.758454
#
# number of rings (size 3 to 8) (size 9 to 14) (size 15 to 20)
#    0.000    2.333    0.000    2.000    2.333    5.667 
#    0.000    0.833    0.000    0.000    0.000    0.000 
#    0.000    0.000    0.000    0.000    0.000    0.000 
#
# Total GULP energy -134017.997056 kJ/mol
# GULP energy per Si atom -5584.083211 kJ/mol
# Density = 1.971348 g / cm^3
# Si number density = 19.758454 Si / 1000 Ang^3
#
#
#
# Elastic Constant Matrix: (Units=GPa)
#
#
# Indices 1 2 3 4 5 6 
#
# 1 82.0589 21.2773 25.4592 0.0000 -11.3005 0.0000
# 2 21.2773 30.6935 24.8424 0.0000 -10.7235 0.0000
# 3 25.4592 24.8424 62.5189 0.0000 -16.5987 0.0000
# 4 0.0000 0.0000 0.0000 25.0956 0.0000 -2.5225
# 5 -11.3005 -10.7235 -16.5987 0.0000 33.0000 0.0000
# 6 0.0000 0.0000 0.0000 -2.5225 0.0000 26.0340
#
#
#
# Elastic Compliance Matrix: (Units=1/GPa)
#
#
# Indices 1 2 3 4 5 6 
#
# 1 0.015264 -0.007928 -0.002726 0.000000 0.001280 0.000000
# 2 -0.007928 0.053559 -0.016335 0.000000 0.006473 0.000000
# 3 -0.002726 -0.016335 0.025320 0.000000 0.006494 0.000000
# 4 0.000000 0.000000 0.000000 0.040240 0.000000 0.003899
# 5 0.001280 0.006473 0.006494 0.000000 0.036111 0.000000
# 6 0.000000 0.000000 0.000000 0.003899 0.000000 0.038789
#
#
# Mechanical properties :
#
#
# Convention : Reuss Voigt Hill
#
# Bulk Modulus (GPa) = 24.89712 35.38101 30.13906
# Shear Modulus (GPa) = 18.07348 23.73875 20.90611
#
# Velocity S-wave (km/s) = 3.02772 3.46995 3.25635
# Velocity P-wave (km/s) = 4.98506 5.83093 5.42451
#
# Compressibility (1/GPa) = 0.04016529
#
# Stress axis : x y z
#
# Youngs Moduli (GPa) = 65.51373 18.67115 39.49409
#
# Poissons Ratio (x) = 0.14802 0.10766
# Poissons Ratio (y) = 0.51939 0.64513
# Poissons Ratio (z) = 0.17858 0.30499
#
# Static dielectric constant tensor:
#      x y z
#    x 1.700510 0.000000 -0.006250 
#    y 0.000000 1.651710 0.000000 
#    z -0.006250 0.000000 1.713490 
# 
# From -- ./inp_files/172934.got.cif
#   From: 2010.05.17/outbox.cif.g08.bks.cpg/sg12_87_cif.got.tgz:172934.got - 2010.06.03 13:09:07.
