data_PCOD9193222
_publ_section_title
;
Structure prediction by ZEFSAII (Michael W. Deem and Ramdas Pophale) SiO2 
 PCOD9193222
Probable space group: C 2/M
;
_chemical_formula_sum "Si O2"
_cell_formula_units_Z 64
_cell_length_a 14.824206
_cell_length_b 7.483952
_cell_length_c 26.100636
_cell_angle_alpha 90.000000
_cell_angle_beta 117.912480
_cell_angle_gamma 90.000000
_cell_volume 2558.824692
_symmetry_space_group_name_H-M "C 2/M"
_symmetry_group_IT_number 12
_symmetry_cell_setting 'monoclinic'
loop_
_space_group_symop_operation_xyz
x,y,z
-x,y,-z
-x,-y,-z
x,-y,z
1/2+x,1/2+y,z
1/2-x,1/2+y,-z
1/2-x,1/2-y,-z
1/2+x,1/2-y,z
loop_
_atom_site_type_symbol
_atom_site_label
_atom_site_fract_x
_atom_site_fract_y
_atom_site_fract_z
Si Si1 0.687900 0.218471 0.416039
Si Si2 0.804607 0.283711 0.201087
Si Si3 0.698545 0.711964 0.918660
Si Si4 0.484991 0.204374 0.707563
Si Si5 0.580742 0.295948 0.981297
Si Si6 0.842518 0.795331 0.757356
Si Si7 0.953370 0.291066 0.538707
Si Si8 0.834802 0.214984 0.369264
O O1 0.599540 0.280895 0.352856
O O2 0.646336 0.284721 0.459686
O O3 0.790238 0.271552 0.413473
O O4 0.688039 0.000000 0.417403
O O5 0.804100 0.500000 0.205341
O O6 0.817056 0.239643 0.145283
O O7 0.904013 0.212539 0.257444
O O8 0.700671 0.221399 0.200742
O O9 0.707060 0.500000 0.930772
O O10 0.807597 0.794508 0.962751
O O11 0.608535 0.780194 0.932408
O O12 0.431902 0.203928 0.749427
O O13 0.498604 0.000000 0.695082
O O14 0.544548 0.500000 0.963090
O O15 0.500000 0.214090 0.000000
O O16 0.742873 0.787874 0.693624
O O17 0.874647 0.000000 0.772913
O O18 0.934118 0.500000 0.523993
O O19 0.049434 0.278063 0.603117
O O20 0.000000 0.205159 0.500000
O O21 0.831057 0.000000 0.365417
#
# Coordination Sequence:
#
# PCOD9193222 Si02
#       8
#     8   8   8   8   8   8   8   8
#     4   8  16  33  53  72 100 135 167 204 256 309
#     4  10  21  36  54  76 110 148 171 204 262 315
#     4  10  21  35  54  82 110 137 176 221 257 300
#     4   9  18  34  54  75 102 138 174 208 253 307
#     4   9  19  38  60  78 103 141 179 216 262 310
#     4  10  20  35  55  78 103 135 175 213 253 306
#     4  10  20  34  53  76 101 132 171 212 255 308
#     4  10  20  35  54  74 101 136 170 210 259 308
#
# _framework density 25.011482000000001
#
# number of rings (size 3 to 8) (size 9 to 14) (size 15 to 20)
#    0.000    2.500    0.000    2.625    0.000    6.000 
#    0.000    9.375    0.000    0.000    0.000    0.000 
#    0.000    0.000    0.000    0.000    0.000    0.000 
#
# Total GULP energy -178779.328333 kJ/mol
# GULP energy per Si atom -5586.854010 kJ/mol
# Density = 2.495455 g / cm^3
# Si number density = 25.011482 Si / 1000 Ang^3
#
#
#
# Elastic Constant Matrix: (Units=GPa)
#
#
# Indices 1 2 3 4 5 6 
#
# 1 173.5712 -2.3100 18.5952 0.0000 -50.4039 0.0000
# 2 -2.3100 95.2467 -7.1515 0.0000 -4.2345 0.0000
# 3 18.5952 -7.1515 43.7773 0.0000 -30.3558 0.0000
# 4 0.0000 0.0000 0.0000 18.2097 0.0000 -0.3367
# 5 -50.4039 -4.2345 -30.3558 0.0000 41.4420 0.0000
# 6 0.0000 0.0000 0.0000 -0.3367 0.0000 8.7368
#
#
#
# Elastic Compliance Matrix: (Units=1/GPa)
#
#
# Indices 1 2 3 4 5 6 
#
# 1 0.010665 0.001919 0.009986 0.000000 0.020481 0.000000
# 2 0.001919 0.011465 0.007089 0.000000 0.008698 0.000000
# 3 0.009986 0.007089 0.058290 0.000000 0.055566 0.000000
# 4 0.000000 0.000000 0.000000 0.054955 0.000000 0.002118
# 5 0.020481 0.008698 0.055566 0.000000 0.090631 0.000000
# 6 0.000000 0.000000 0.000000 0.002118 0.000000 0.114540
#
#
# Mechanical properties :
#
#
# Convention : Reuss Voigt Hill
#
# Bulk Modulus (GPa) = 8.44549 36.76250 22.60399
# Shear Modulus (GPa) = 14.61875 33.90846 24.26360
#
# Velocity S-wave (km/s) = 2.42023 3.68600 3.11802
# Velocity P-wave (km/s) = 3.34574 5.73111 4.69253
#
# Compressibility (1/GPa) = 0.11840644
#
# Stress axis : x y z
#
# Youngs Moduli (GPa) = 93.76697 87.22510 17.15571
#
# Poissons Ratio (x) = -0.16738 -0.17131
# Poissons Ratio (y) = -0.17994 -0.12162
# Poissons Ratio (z) = -0.93632 -0.61836
#
# Static dielectric constant tensor:
#      x y z
#    x 1.983030 0.000000 -0.055000 
#    y 0.000000 1.950840 0.000000 
#    z -0.055000 0.000000 2.022570 
# 
# From -- ./inp_files/359929.got.cif
#   From: 2010.05.17/outbox.cif.g08.bks.cpg/sg12_180_cif.got.tgz:359929.got - 2010.06.03 13:09:07.
