data_PCOD9193839
_publ_section_title
;
Structure prediction by ZEFSAII (Michael W. Deem and Ramdas Pophale) SiO2 
 PCOD9193839
Probable space group: C 2/M
;
_chemical_formula_sum "Si O2"
_cell_formula_units_Z 56
_cell_length_a 30.872875
_cell_length_b 9.840619
_cell_length_c 21.439693
_cell_angle_alpha 90.000000
_cell_angle_beta 26.857076
_cell_angle_gamma 90.000000
_cell_volume 2942.605601
_symmetry_space_group_name_H-M "C 2/M"
_symmetry_group_IT_number 12
_symmetry_cell_setting 'monoclinic'
loop_
_space_group_symop_operation_xyz
x,y,z
-x,y,-z
-x,-y,-z
x,-y,z
1/2+x,1/2+y,z
1/2-x,1/2+y,-z
1/2-x,1/2-y,-z
1/2+x,1/2-y,z
loop_
_atom_site_type_symbol
_atom_site_label
_atom_site_fract_x
_atom_site_fract_y
_atom_site_fract_z
Si Si1 0.962716 0.657673 0.977062
Si Si2 0.993413 0.347141 0.676721
Si Si3 0.446027 0.654239 0.503813
Si Si4 0.883363 0.841486 0.285993
Si Si5 0.257161 0.835601 0.188264
Si Si6 0.201089 0.661937 0.008096
Si Si7 0.823403 0.654006 0.475629
O O1 0.974304 0.500000 0.941573
O O2 0.028766 0.757837 0.853230
O O3 0.851991 0.694239 0.106642
O O4 0.000000 0.665369 0.000000
O O5 0.976911 0.500000 0.674137
O O6 0.991144 0.239782 0.624685
O O7 0.099578 0.339332 0.568867
O O8 0.913162 0.323931 0.832697
O O9 0.500000 0.649117 0.500000
O O10 0.435574 0.500000 0.493175
O O11 0.340485 0.713707 0.653937
O O12 0.851529 0.769915 0.390793
O O13 0.788355 0.829207 0.364557
O O14 0.905054 0.000000 0.266115
O O15 0.248000 0.000000 0.197568
O O16 0.271023 0.793652 0.097942
O O17 0.224071 0.500000 0.984684
O O18 0.250000 0.750000 0.000000
O O19 0.831242 0.500000 0.437884
#
# Coordination Sequence:
#
# PCOD9193839 Si02
#       7
#     8   8   8   8   8   8   8
#     4  10  21  36  56  79 108 151 194 225 266 334
#     4  10  21  36  57  83 110 144 183 226 280 335
#     4  10  21  37  58  83 112 146 185 232 281 330
#     4  10  20  34  54  81 111 141 179 230 279 320
#     4   9  19  37  58  81 111 149 189 227 275 331
#     4  10  20  36  59  82 109 143 183 231 279 333
#     4   9  19  36  56  78 107 144 181 221 275 334
#
# _framework density 19.030753000000001
#
# number of rings (size 3 to 8) (size 9 to 14) (size 15 to 20)
#    0.000    2.286    0.000    2.143    2.000    5.714 
#    0.000    3.571    0.000    0.000    0.000    0.000 
#    0.000    0.000    0.000    0.000    0.000    0.000 
#
# Total GULP energy -156119.716338 kJ/mol
# GULP energy per Si atom -5575.704155 kJ/mol
# Density = 1.898744 g / cm^3
# Si number density = 19.030753 Si / 1000 Ang^3
#
#
#
# Elastic Constant Matrix: (Units=GPa)
#
#
# Indices 1 2 3 4 5 6 
#
# 1 39.7297 8.2496 -5.0752 -0.0009 -8.7516 0.0005
# 2 8.2496 59.4404 24.6212 0.0025 3.7602 -0.0010
# 3 -5.0752 24.6212 66.2945 0.0016 -3.4235 -0.0004
# 4 -0.0009 0.0025 0.0016 18.5800 -0.0005 -1.3682
# 5 -8.7516 3.7602 -3.4235 -0.0005 29.1108 0.0001
# 6 0.0005 -0.0010 -0.0004 -1.3682 0.0001 20.7516
#
#
#
# Elastic Compliance Matrix: (Units=1/GPa)
#
#
# Indices 1 2 3 4 5 6 
#
# 1 0.029619 -0.007013 0.005412 0.000002 0.010447 -0.000001
# 2 -0.007013 0.021895 -0.008978 -0.000003 -0.005992 0.000001
# 3 0.005412 -0.008978 0.019093 0.000000 0.005032 0.000000
# 4 0.000002 -0.000003 0.000000 0.054084 0.000002 0.003566
# 5 0.010447 -0.005992 0.005032 0.000002 0.038858 0.000000
# 6 -0.000001 0.000001 0.000000 0.003566 0.000000 0.048424
#
#
# Mechanical properties :
#
#
# Convention : Reuss Voigt Hill
#
# Bulk Modulus (GPa) = 20.22354 24.56174 22.39264
# Shear Modulus (GPa) = 20.03099 22.86643 21.44871
#
# Velocity S-wave (km/s) = 3.24784 3.47010 3.36081
# Velocity P-wave (km/s) = 4.97136 5.38422 5.18190
#
# Compressibility (1/GPa) = 0.04944732
#
# Stress axis : x y z
#
# Youngs Moduli (GPa) = 33.76241 45.67307 52.37624
#
# Poissons Ratio (x) = 0.32031 -0.28344
# Poissons Ratio (y) = 0.23678 0.47023
# Poissons Ratio (z) = -0.18271 0.41005
#
# Static dielectric constant tensor:
#      x y z
#    x 1.679700 0.000000 -0.023440 
#    y 0.000000 1.654400 0.000000 
#    z -0.023440 0.000000 1.668160 
# 
# From -- ./inp_files/329563.got.cif
#   From: 2010.05.17/outbox.cif.g08.bks.cpg/sg12_165_cif.got.tgz:329563.got - 2010.06.03 13:09:07.
