data_PCOD9193272
_publ_section_title
;
Structure prediction by ZEFSAII (Michael W. Deem and Ramdas Pophale) SiO2 
 PCOD9193272
Probable space group: C 2/M
;
_chemical_formula_sum "Si O2"
_cell_formula_units_Z 56
_cell_length_a 21.022480
_cell_length_b 15.798280
_cell_length_c 8.201611
_cell_angle_alpha 90.000000
_cell_angle_beta 100.346433
_cell_angle_gamma 90.000000
_cell_volume 2679.619746
_symmetry_space_group_name_H-M "C 2/M"
_symmetry_group_IT_number 12
_symmetry_cell_setting 'monoclinic'
loop_
_space_group_symop_operation_xyz
x,y,z
-x,y,-z
-x,-y,-z
x,-y,z
1/2+x,1/2+y,z
1/2-x,1/2+y,-z
1/2-x,1/2-y,-z
1/2+x,1/2-y,z
loop_
_atom_site_type_symbol
_atom_site_label
_atom_site_fract_x
_atom_site_fract_y
_atom_site_fract_z
Si Si1 0.824329 0.403125 0.685281
Si Si2 0.100809 0.754087 0.752723
Si Si3 0.094574 0.093607 0.495147
Si Si4 0.076881 0.404375 0.530457
Si Si5 0.166795 0.238345 0.116814
Si Si6 0.725979 0.594790 0.344748
Si Si7 0.027239 0.176428 0.177543
O O1 0.813216 0.500000 0.734793
O O2 0.895816 0.396184 0.640023
O O3 0.813437 0.330906 0.811863
O O4 0.779612 0.387394 0.506178
O O5 0.102578 0.832708 0.630007
O O6 0.106979 0.667535 0.657188
O O7 0.028934 0.757977 0.799447
O O8 0.153043 0.763971 0.918954
O O9 0.159657 0.092075 0.417491
O O10 0.039185 0.117324 0.338988
O O11 0.085217 0.000000 0.561239
O O12 0.093458 0.500000 0.591972
O O13 0.000000 0.394659 0.500000
O O14 0.215591 0.167294 0.206528
O O15 0.096446 0.216949 0.165762
O O16 0.736972 0.500000 0.281976
O O17 0.000000 0.133077 0.000000
#
# Coordination Sequence:
#
# PCOD9193272 Si02
#       7
#     8   8   8   8   8   8   8
#     4  10  20  36  58  78  99 134 178 218 257 307
#     4  11  21  33  51  78 112 140 168 213 263 311
#     4  10  20  34  53  76 105 140 175 214 259 305
#     4  10  20  35  56  79 103 134 171 213 262 311
#     4  10  20  34  54  77 105 140 174 213 258 309
#     4   9  19  37  57  75  99 136 180 219 254 302
#     4   9  19  34  52  76 106 141 178 214 252 299
#
# _framework density 20.898488
#
# number of rings (size 3 to 8) (size 9 to 14) (size 15 to 20)
#    0.000    2.143    0.000    4.286    0.000    2.571 
#    0.000    5.714    0.000   10.286    0.000    0.000 
#    0.000    0.000    0.000    0.000    0.000    0.000 
#
# Total GULP energy -156354.776384 kJ/mol
# GULP energy per Si atom -5584.099157 kJ/mol
# Density = 2.085092 g / cm^3
# Si number density = 20.898488 Si / 1000 Ang^3
#
#
#
# Elastic Constant Matrix: (Units=GPa)
#
#
# Indices 1 2 3 4 5 6 
#
# 1 33.0547 5.8746 2.9334 0.0000 10.7568 0.0000
# 2 5.8746 170.8106 118.9759 0.0000 5.5502 0.0000
# 3 2.9334 118.9759 139.0825 0.0000 7.6836 0.0000
# 4 0.0000 0.0000 0.0000 -3.5328 0.0000 3.8564
# 5 10.7568 5.5502 7.6836 0.0000 22.1995 0.0000
# 6 0.0000 0.0000 0.0000 3.8564 0.0000 14.5672
#
#
#
# Elastic Compliance Matrix: (Units=1/GPa)
#
#
# Indices 1 2 3 4 5 6 
#
# 1 0.036203 -0.002027 0.001949 0.000000 -0.017710 0.000000
# 2 -0.002027 0.014609 -0.012547 0.000000 0.001672 0.000000
# 3 0.001949 -0.012547 0.018107 0.000000 -0.004075 0.000000
# 4 0.000000 0.000000 0.000000 -0.219601 0.000000 0.058136
# 5 -0.017710 0.001672 -0.004075 0.000000 0.054620 0.000000
# 6 0.000000 0.000000 0.000000 0.058136 0.000000 0.053257
#
#
# Mechanical properties :
#
#
# Convention : Reuss Voigt Hill
#
# Bulk Modulus (GPa) = 22.89933 66.50175 44.70054
# Shear Modulus (GPa) = -1667.14116 20.99105 -823.07506
#
# Velocity S-wave (km/s) = -28.27481 3.17271 -19.86704
# Velocity P-wave (km/s) = 32.48033 6.73141 22.46842
#
# Compressibility (1/GPa) = 0.04366941
#
# Stress axis : x y z
#
# Youngs Moduli (GPa) = 27.62170 68.45059 55.22769
#
# Poissons Ratio (x) = 0.13876 -0.10763
# Poissons Ratio (y) = 0.05599 0.69293
# Poissons Ratio (z) = -0.05383 0.85883
#
# Static dielectric constant tensor:
#      x y z
#    x 1.828460 0.000000 0.006190 
#    y 0.000000 1.735890 0.000000 
#    z 0.006190 0.000000 1.719880 
# 
# From -- ./inp_files/104710.got.cif
#   From: 2010.05.17/outbox.cif.g08.bks.cpg/sg12_53_cif.got.tgz:104710.got - 2010.06.03 13:09:07.
