data_PCOD9193118
_publ_section_title
;
Structure prediction by ZEFSAII (Michael W. Deem and Ramdas Pophale) SiO2 
 PCOD9193118
Probable space group: C 2/M
;
_chemical_formula_sum "Si O2"
_cell_formula_units_Z 44
_cell_length_a 8.915451
_cell_length_b 10.307197
_cell_length_c 24.023576
_cell_angle_alpha 90.000000
_cell_angle_beta 109.400779
_cell_angle_gamma 90.000000
_cell_volume 2082.253946
_symmetry_space_group_name_H-M "C 2/M"
_symmetry_group_IT_number 12
_symmetry_cell_setting 'monoclinic'
loop_
_space_group_symop_operation_xyz
x,y,z
-x,y,-z
-x,-y,-z
x,-y,z
1/2+x,1/2+y,z
1/2-x,1/2+y,-z
1/2-x,1/2-y,-z
1/2+x,1/2-y,z
loop_
_atom_site_type_symbol
_atom_site_label
_atom_site_fract_x
_atom_site_fract_y
_atom_site_fract_z
Si Si1 0.514745 0.143686 0.639578
Si Si2 0.116803 0.850531 0.462325
Si Si3 0.500000 0.207801 0.000000
Si Si4 0.187918 0.146284 0.799875
Si Si5 0.843515 0.855576 0.081639
Si Si6 0.643298 0.274648 0.280592
O O1 0.468916 0.268466 0.596842
O O2 0.412808 0.163127 0.683392
O O3 0.702333 0.154328 0.675699
O O4 0.479867 0.000000 0.611186
O O5 0.250000 0.750000 0.500000
O O6 0.000000 0.863346 0.500000
O O7 0.164927 0.000000 0.452608
O O8 0.336098 0.138230 0.963985
O O9 0.548964 0.287741 0.951132
O O10 0.167428 0.207230 0.858580
O O11 0.301943 0.221071 0.772232
O O12 0.015886 0.144413 0.749237
O O13 0.248514 0.000000 0.814921
O O14 0.908014 0.000000 0.098078
#
# Coordination Sequence:
#
# PCOD9193118 Si02
#       6
#     8   8   4   8   8   8
#     4  11  23  39  61  88 118 153 193 238 289 344
#     4  11  25  43  64  91 122 156 196 240 287 341
#     4  10  20  34  52  78 110 140 184 236 284 338
#     4  10  20  36  56  79 110 148 188 232 284 341
#     4  10  20  34  54  78 107 145 186 231 284 339
#     4  10  22  37  57  84 115 148 190 236 285 340
#
# _framework density 21.130949999999999
#
# number of rings (size 3 to 8) (size 9 to 14) (size 15 to 20)
#    0.000    1.636    0.000    4.364    0.000    8.727 
#    0.000    0.000    0.000   17.455    0.000    0.000 
#    0.000    0.000    0.000    0.000    0.000    0.000 
#
# Total GULP energy -122699.511670 kJ/mol
# GULP energy per Si atom -5577.250530 kJ/mol
# Density = 2.108286 g / cm^3
# Si number density = 21.130950 Si / 1000 Ang^3
#
#
#
# Elastic Constant Matrix: (Units=GPa)
#
#
# Indices 1 2 3 4 5 6 
#
# 1 90.1470 21.8752 5.6670 0.0000 -10.1987 0.0000
# 2 21.8752 114.5511 19.7895 0.0000 -9.5314 0.0000
# 3 5.6670 19.7895 74.3986 0.0000 -12.1127 0.0000
# 4 0.0000 0.0000 0.0000 10.6975 0.0000 -5.4307
# 5 -10.1987 -9.5314 -12.1127 0.0000 40.2737 0.0000
# 6 0.0000 0.0000 0.0000 -5.4307 0.0000 -106.8016
#
#
#
# Elastic Compliance Matrix: (Units=1/GPa)
#
#
# Indices 1 2 3 4 5 6 
#
# 1 0.011878 -0.002067 0.000058 0.000000 0.002536 0.000000
# 2 -0.002067 0.009598 -0.002220 0.000000 0.001080 0.000000
# 3 0.000058 -0.002220 0.014662 0.000000 0.003899 0.000000
# 4 0.000000 0.000000 0.000000 0.091128 0.000000 -0.004634
# 5 0.002536 0.001080 0.003899 0.000000 0.026901 0.000000
# 6 0.000000 0.000000 0.000000 -0.004634 0.000000 -0.009128
#
#
# Mechanical properties :
#
#
# Convention : Reuss Voigt Hill
#
# Bulk Modulus (GPa) = 36.12721 41.52891 38.82806
# Shear Modulus (GPa) = 30.72709 4.28491 17.50600
#
# Velocity S-wave (km/s) = 3.81744 1.42555 2.88141
# Velocity P-wave (km/s) = 6.04685 4.73343 5.43000
#
# Compressibility (1/GPa) = 0.02767997
#
# Stress axis : x y z
#
# Youngs Moduli (GPa) = 84.18991 104.18996 68.20401
#
# Poissons Ratio (x) = 0.21539 -0.00396
# Poissons Ratio (y) = 0.17404 0.15139
# Poissons Ratio (z) = -0.00488 0.23126
#
# Static dielectric constant tensor:
#      x y z
#    x 1.736940 0.000000 -0.000950 
#    y 0.000000 1.784110 0.000000 
#    z -0.000950 0.000000 1.797170 
# 
# From -- ./inp_files/332096.got.cif
#   From: 2010.05.17/outbox.cif.g08.bks.cpg/sg12_167_cif.got.tgz:332096.got - 2010.06.03 13:09:07.
