data_PCOD9193079
_publ_section_title
;
Structure prediction by ZEFSAII (Michael W. Deem and Ramdas Pophale) SiO2 
 PCOD9193079
Probable space group: C 2/M
;
_chemical_formula_sum "Si O2"
_cell_formula_units_Z 56
_cell_length_a 26.458441
_cell_length_b 9.711308
_cell_length_c 16.930624
_cell_angle_alpha 90.000000
_cell_angle_beta 137.906223
_cell_angle_gamma 90.000000
_cell_volume 2916.177697
_symmetry_space_group_name_H-M "C 2/M"
_symmetry_group_IT_number 12
_symmetry_cell_setting 'monoclinic'
loop_
_space_group_symop_operation_xyz
x,y,z
-x,y,-z
-x,-y,-z
x,-y,z
1/2+x,1/2+y,z
1/2-x,1/2+y,-z
1/2-x,1/2-y,-z
1/2+x,1/2-y,z
loop_
_atom_site_type_symbol
_atom_site_label
_atom_site_fract_x
_atom_site_fract_y
_atom_site_fract_z
Si Si1 0.785762 0.161757 0.677970
Si Si2 0.961313 0.342080 0.320689
Si Si3 0.769371 0.840222 0.843486
Si Si4 0.084340 0.165292 0.880993
Si Si5 0.123762 0.843661 0.662881
Si Si6 0.881271 0.226897 0.522919
Si Si7 0.426338 0.345083 0.748056
O O1 0.796926 0.173831 0.784914
O O2 0.703891 0.222346 0.563948
O O3 0.857055 0.223687 0.713915
O O4 0.780953 0.000000 0.652170
O O5 0.936917 0.500000 0.298074
O O6 0.921415 0.258273 0.203391
O O7 0.938637 0.253814 0.370588
O O8 0.051237 0.336915 0.409671
O O9 0.702033 0.732205 0.775574
O O10 0.743094 0.000000 0.821557
O O11 0.838088 0.817175 0.982583
O O12 0.011454 0.209906 0.848579
O O13 0.075733 0.000000 0.853866
O O14 0.118528 0.846981 0.561693
O O15 0.118737 0.000000 0.686867
O O16 0.904867 0.151020 0.630443
O O17 0.431778 0.500000 0.786602
#
# Coordination Sequence:
#
# PCOD9193079 Si02
#       7
#     8   8   8   8   8   8   8
#     4   9  17  30  51  79 108 139 177 219 260 306
#     4  11  23  37  56  80 107 141 180 223 271 322
#     4   9  19  36  56  79 109 143 180 222 266 315
#     4   9  19  36  56  79 109 143 180 222 266 315
#     4  11  23  37  56  80 107 141 180 223 271 322
#     4  10  20  34  52  76 110 144 178 214 262 320
#     4   9  17  30  51  79 108 139 177 219 260 306
#
# _framework density 19.203219000000001
#
# number of rings (size 3 to 8) (size 9 to 14) (size 15 to 20)
#    0.000    2.286    0.000    2.571    0.000    6.286 
#    0.000    2.857    0.000    7.714    0.000    8.000 
#    0.000    0.000    0.000    0.000    0.000    0.000 
#
# Total GULP energy -156012.308900 kJ/mol
# GULP energy per Si atom -5571.868175 kJ/mol
# Density = 1.915951 g / cm^3
# Si number density = 19.203219 Si / 1000 Ang^3
#
#
#
# Elastic Constant Matrix: (Units=GPa)
#
#
# Indices 1 2 3 4 5 6 
#
# 1 82.8012 33.2211 16.6208 0.0000 19.1973 0.0000
# 2 33.2211 99.7609 37.1352 0.0000 6.6460 0.0000
# 3 16.6208 37.1352 99.1683 0.0000 9.4282 0.0000
# 4 0.0000 0.0000 0.0000 0.5590 0.0000 -2.3344
# 5 19.1973 6.6460 9.4282 0.0000 12.8128 0.0000
# 6 0.0000 0.0000 0.0000 -2.3344 0.0000 19.2897
#
#
#
# Elastic Compliance Matrix: (Units=1/GPa)
#
#
# Indices 1 2 3 4 5 6 
#
# 1 0.020801 -0.005477 0.001352 0.000000 -0.029320 0.000000
# 2 -0.005477 0.013201 -0.004467 0.000000 0.004646 0.000000
# 3 0.001352 -0.004467 0.012368 0.000000 -0.008809 0.000000
# 4 0.000000 0.000000 0.000000 3.616175 0.000000 0.437614
# 5 -0.029320 0.004646 -0.008809 0.000000 0.126050 0.000000
# 6 0.000000 0.000000 0.000000 0.437614 0.000000 0.104799
#
#
# Mechanical properties :
#
#
# Convention : Reuss Voigt Hill
#
# Bulk Modulus (GPa) = 34.26314 50.63163 42.44739
# Shear Modulus (GPa) = 1.27541 19.51586 10.39563
#
# Velocity S-wave (km/s) = 0.81585 3.19137 2.32921
# Velocity P-wave (km/s) = 4.33227 6.32481 5.42088
#
# Compressibility (1/GPa) = 0.02918588
#
# Stress axis : x y z
#
# Youngs Moduli (GPa) = 48.07492 75.75081 80.85670
#
# Poissons Ratio (x) = 0.41488 -0.10933
# Poissons Ratio (y) = 0.26330 0.36120
# Poissons Ratio (z) = -0.06500 0.33839
#
# Static dielectric constant tensor:
#      x y z
#    x 1.723110 0.000000 0.015840 
#    y 0.000000 1.659520 0.000000 
#    z 0.015840 0.000000 1.660360 
# 
# From -- ./inp_files/292505.got.cif
#   From: 2010.05.17/outbox.cif.g08.bks.cpg/sg12_147_cif.got.tgz:292505.got - 2010.06.03 13:09:07.
