data_PCOD9193713
_publ_section_title
;
Structure prediction by ZEFSAII (Michael W. Deem and Ramdas Pophale) SiO2 
 PCOD9193713
Probable space group: C 2/M
;
_chemical_formula_sum "Si O2"
_cell_formula_units_Z 64
_cell_length_a 15.212941
_cell_length_b 8.027251
_cell_length_c 22.879412
_cell_angle_alpha 90.000000
_cell_angle_beta 79.476603
_cell_angle_gamma 90.000000
_cell_volume 2746.996454
_symmetry_space_group_name_H-M "C 2/M"
_symmetry_group_IT_number 12
_symmetry_cell_setting 'monoclinic'
loop_
_space_group_symop_operation_xyz
x,y,z
-x,y,-z
-x,-y,-z
x,-y,z
1/2+x,1/2+y,z
1/2-x,1/2+y,-z
1/2-x,1/2-y,-z
1/2+x,1/2-y,z
loop_
_atom_site_type_symbol
_atom_site_label
_atom_site_fract_x
_atom_site_fract_y
_atom_site_fract_z
Si Si1 0.053626 0.198525 0.701528
Si Si2 0.206800 0.701151 0.758354
Si Si3 0.960659 0.699842 0.914234
Si Si4 0.133815 0.307829 0.452185
Si Si5 0.624285 0.303291 0.327316
Si Si6 0.799995 0.799826 0.866450
Si Si7 0.634775 0.203365 0.955016
Si Si8 0.162119 0.300833 0.574116
O O1 0.108540 0.241356 0.752745
O O2 0.107820 0.267010 0.639142
O O3 0.952961 0.263991 0.705546
O O4 0.050957 0.000000 0.696781
O O5 0.201964 0.500000 0.759961
O O6 0.277350 0.761292 0.700378
O O7 0.252816 0.756858 0.812695
O O8 0.961882 0.500000 0.915084
O O9 0.901785 0.751874 0.866371
O O10 0.062572 0.752612 0.913796
O O11 0.905419 0.759461 0.978396
O O12 0.107524 0.500000 0.450926
O O13 0.099817 0.221904 0.397747
O O14 0.111748 0.247945 0.520384
O O15 0.241853 0.288223 0.436308
O O16 0.630426 0.500000 0.315949
O O17 0.733200 0.738463 0.925811
O O18 0.797759 0.000000 0.865902
O O19 0.636078 0.000000 0.956487
O O20 0.178880 0.500000 0.567617
#
# Coordination Sequence:
#
# PCOD9193713 Si02
#       8
#     8   8   8   8   8   8   8   8
#     4  11  23  38  58  82 106 140 187 229 271 328
#     4  10  22  40  57  75 106 147 183 224 280 326
#     4   9  17  32  54  79 109 145 180 217 269 323
#     4  10  20  34  57  86 111 141 180 218 264 331
#     4  10  22  39  57  78 109 145 179 226 282 327
#     4  10  20  34  54  79 107 141 183 226 271 321
#     4   8  16  32  53  78 111 146 178 217 267 327
#     4  10  20  35  56  83 115 143 171 219 279 326
#
# _framework density 23.298172999999998
#
# number of rings (size 3 to 8) (size 9 to 14) (size 15 to 20)
#    0.000    2.250    1.250    2.250    0.000    4.500 
#    0.000    4.375    0.000    0.000    0.000    0.000 
#    0.000    0.000    0.000    0.000    0.000    0.000 
#
# Total GULP energy -178701.488993 kJ/mol
# GULP energy per Si atom -5584.421531 kJ/mol
# Density = 2.324515 g / cm^3
# Si number density = 23.298173 Si / 1000 Ang^3
#
#
#
# Elastic Constant Matrix: (Units=GPa)
#
#
# Indices 1 2 3 4 5 6 
#
# 1 107.8921 1.5166 13.2741 0.0000 35.2324 0.0000
# 2 1.5166 15.1309 -2.1898 0.0000 -2.0311 0.0000
# 3 13.2741 -2.1898 48.8540 0.0000 26.1717 0.0000
# 4 0.0000 0.0000 0.0000 15.1685 0.0000 7.9136
# 5 35.2324 -2.0311 26.1717 0.0000 37.3353 0.0000
# 6 0.0000 0.0000 0.0000 7.9136 0.0000 17.0641
#
#
#
# Elastic Compliance Matrix: (Units=1/GPa)
#
#
# Indices 1 2 3 4 5 6 
#
# 1 0.014346 -0.003009 0.005296 0.000000 -0.017414 0.000000
# 2 -0.003009 0.067292 0.000563 0.000000 0.006106 0.000000
# 3 0.005296 0.000563 0.034776 0.000000 -0.029345 0.000000
# 4 0.000000 0.000000 0.000000 0.086968 0.000000 -0.040332
# 5 -0.017414 0.006106 -0.029345 0.000000 0.064120 0.000000
# 6 0.000000 0.000000 0.000000 -0.040332 0.000000 0.077307
#
#
# Mechanical properties :
#
#
# Convention : Reuss Voigt Hill
#
# Bulk Modulus (GPa) = 8.18908 21.89766 15.04337
# Shear Modulus (GPa) = 13.16436 24.53198 18.84817
#
# Velocity S-wave (km/s) = 2.37963 3.24845 2.84737
# Velocity P-wave (km/s) = 3.32757 4.84656 4.15704
#
# Compressibility (1/GPa) = 0.12211380
#
# Stress axis : x y z
#
# Youngs Moduli (GPa) = 69.70657 14.86052 28.75577
#
# Poissons Ratio (x) = 0.04472 -0.15230
# Poissons Ratio (y) = 0.20975 -0.01618
# Poissons Ratio (z) = -0.36918 -0.00836
#
# Static dielectric constant tensor:
#      x y z
#    x 1.892210 0.000000 0.008980 
#    y 0.000000 1.835410 0.000000 
#    z 0.008980 0.000000 1.922110 
# 
# From -- ./inp_files/338915.got.cif
#   From: 2010.05.17/outbox.cif.g08.bks.cpg/sg12_170_cif.got.tgz:338915.got - 2010.06.03 13:09:07.
