data_PCOD9193795
_publ_section_title
;
Structure prediction by ZEFSAII (Michael W. Deem and Ramdas Pophale) SiO2 
 PCOD9193795
Probable space group: C 2/M
;
_chemical_formula_sum "Si O2"
_cell_formula_units_Z 36
_cell_length_a 14.575863
_cell_length_b 10.424927
_cell_length_c 12.237430
_cell_angle_alpha 90.000000
_cell_angle_beta 71.249500
_cell_angle_gamma 90.000000
_cell_volume 1760.816785
_symmetry_space_group_name_H-M "C 2/M"
_symmetry_group_IT_number 12
_symmetry_cell_setting 'monoclinic'
loop_
_space_group_symop_operation_xyz
x,y,z
-x,y,-z
-x,-y,-z
x,-y,z
1/2+x,1/2+y,z
1/2-x,1/2+y,-z
1/2-x,1/2-y,-z
1/2+x,1/2-y,z
loop_
_atom_site_type_symbol
_atom_site_label
_atom_site_fract_x
_atom_site_fract_y
_atom_site_fract_z
Si Si1 0.677083 0.138438 0.055174
Si Si2 0.719991 0.851481 0.420277
Si Si3 0.925411 0.146276 0.252180
Si Si4 0.000000 0.738902 0.000000
Si Si5 0.448377 0.147425 0.677671
O O1 0.628033 0.149643 0.192466
O O2 0.725435 0.000000 0.027823
O O3 0.750000 0.250000 0.000000
O O4 0.588860 0.152362 0.004701
O O5 0.750000 0.750000 0.500000
O O6 0.808961 0.843996 0.299913
O O7 0.616679 0.824429 0.403602
O O8 0.718397 0.000000 0.459887
O O9 0.966563 0.178421 0.116836
O O10 0.971647 0.249048 0.318440
O O11 0.951051 0.000000 0.272709
O O12 0.485347 0.000000 0.656438
#
# Coordination Sequence:
#
# PCOD9193795 Si02
#       5
#     8   8   8   4   8
#     4  10  20  34  54  80 112 149 186 226 272 327
#     4  10  22  40  59  81 111 147 187 231 278 329
#     4  10  21  37  59  86 114 145 185 231 275 325
#     4  10  20  36  58  84 116 150 182 222 278 336
#     4   9  20  38  56  78 111 147 183 226 279 333
#
# _framework density 20.445058
#
# number of rings (size 3 to 8) (size 9 to 14) (size 15 to 20)
#    0.000    2.222    0.000    2.000    0.000    9.778 
#    0.000    6.667    0.000    0.000    0.000    0.000 
#    0.000    0.000    0.000    0.000    0.000    0.000 
#
# Total GULP energy -100533.217964 kJ/mol
# GULP energy per Si atom -5585.178776 kJ/mol
# Density = 2.039852 g / cm^3
# Si number density = 20.445058 Si / 1000 Ang^3
#
#
#
# Elastic Constant Matrix: (Units=GPa)
#
#
# Indices 1 2 3 4 5 6 
#
# 1 88.0153 42.8232 24.9114 0.0000 15.4419 0.0000
# 2 42.8232 104.3544 34.1047 0.0000 8.4061 0.0000
# 3 24.9114 34.1047 56.3198 0.0000 5.8109 0.0000
# 4 0.0000 0.0000 0.0000 22.8542 0.0000 -4.2236
# 5 15.4419 8.4061 5.8109 0.0000 37.7747 0.0000
# 6 0.0000 0.0000 0.0000 -4.2236 0.0000 32.3738
#
#
#
# Elastic Compliance Matrix: (Units=1/GPa)
#
#
# Indices 1 2 3 4 5 6 
#
# 1 0.015535 -0.004871 -0.003433 0.000000 -0.004738 0.000000
# 2 -0.004871 0.013567 -0.006051 0.000000 -0.000097 0.000000
# 3 -0.003433 -0.006051 0.023020 0.000000 -0.000791 0.000000
# 4 0.000000 0.000000 0.000000 0.044837 0.000000 0.005849
# 5 -0.004738 -0.000097 -0.000791 0.000000 0.028553 0.000000
# 6 0.000000 0.000000 0.000000 0.005849 0.000000 0.031652
#
#
# Mechanical properties :
#
#
# Convention : Reuss Voigt Hill
#
# Bulk Modulus (GPa) = 42.71315 50.26311 46.48813
# Shear Modulus (GPa) = 25.81617 28.39057 27.10337
#
# Velocity S-wave (km/s) = 3.55732 3.73047 3.64492
# Velocity P-wave (km/s) = 6.14896 6.57214 6.36407
#
# Compressibility (1/GPa) = 0.02341199
#
# Stress axis : x y z
#
# Youngs Moduli (GPa) = 64.37233 73.70776 43.44079
#
# Poissons Ratio (x) = 0.35906 0.14911
# Poissons Ratio (y) = 0.31358 0.26286
# Poissons Ratio (z) = 0.22096 0.44600
#
# Static dielectric constant tensor:
#      x y z
#    x 1.709200 0.000000 -0.012190 
#    y 0.000000 1.710650 0.000000 
#    z -0.012190 0.000000 1.758890 
# 
# From -- ./inp_files/140133.got.cif
#   From: 2010.05.17/outbox.cif.g08.bks.cpg/sg12_71_cif.got.tgz:140133.got - 2010.06.03 13:09:07.
