data_PCOD9193147
_publ_section_title
;
Structure prediction by ZEFSAII (Michael W. Deem and Ramdas Pophale) SiO2 
 PCOD9193147
Probable space group: C 2/M
;
_chemical_formula_sum "Si O2"
_cell_formula_units_Z 56
_cell_length_a 25.519991
_cell_length_b 9.454707
_cell_length_c 12.578279
_cell_angle_alpha 90.000000
_cell_angle_beta 102.627519
_cell_angle_gamma 90.000000
_cell_volume 2961.528487
_symmetry_space_group_name_H-M "C 2/M"
_symmetry_group_IT_number 12
_symmetry_cell_setting 'monoclinic'
loop_
_space_group_symop_operation_xyz
x,y,z
-x,y,-z
-x,-y,-z
x,-y,z
1/2+x,1/2+y,z
1/2-x,1/2+y,-z
1/2-x,1/2-y,-z
1/2+x,1/2-y,z
loop_
_atom_site_type_symbol
_atom_site_label
_atom_site_fract_x
_atom_site_fract_y
_atom_site_fract_z
Si Si1 0.107968 0.167539 0.794657
Si Si2 0.701371 0.839943 0.929012
Si Si3 0.734555 0.167626 0.335954
Si Si4 0.150071 0.342913 0.133497
Si Si5 0.670386 0.833589 0.523236
Si Si6 0.940307 0.166142 0.989228
Si Si7 0.941774 0.330318 0.424558
O O1 0.164944 0.249378 0.832181
O O2 0.078695 0.180143 0.896609
O O3 0.073183 0.242778 0.687768
O O4 0.115993 0.000000 0.777351
O O5 0.715766 0.000000 0.898760
O O6 0.750000 0.750000 0.000000
O O7 0.664524 0.857465 0.016852
O O8 0.702349 0.213427 0.217359
O O9 0.693043 0.193214 0.414989
O O10 0.789440 0.247061 0.384070
O O11 0.745373 0.000000 0.334194
O O12 0.138667 0.500000 0.172718
O O13 0.099435 0.242426 0.109959
O O14 0.608086 0.801163 0.517193
O O15 0.677638 0.000000 0.547454
O O16 0.939895 0.000000 0.965115
O O17 0.000000 0.222880 0.000000
O O18 0.941550 0.500000 0.401956
O O19 0.000000 0.295526 0.500000
#
# Coordination Sequence:
#
# PCOD9193147 Si02
#       7
#     8   8   8   8   8   8   8
#     4  10  21  37  56  79 108 143 183 226 272 323
#     4  10  20  34  52  79 112 144 177 215 267 327
#     4   9  18  34  54  78 108 138 175 226 274 322
#     4   9  19  33  51  78 107 135 173 217 263 319
#     4   9  19  35  54  77 105 141 181 221 275 332
#     4   9  19  36  55  77 107 141 176 219 268 321
#     4  10  22  39  57  80 111 147 187 232 280 335
#
# _framework density 18.909154999999998
#
# number of rings (size 3 to 8) (size 9 to 14) (size 15 to 20)
#    0.000    2.571    0.000    0.857    2.000    4.000 
#    0.000    1.429    0.000    0.000    0.000    0.000 
#    0.000    0.000    0.000    0.000    0.000    0.000 
#
# Total GULP energy -156055.440224 kJ/mol
# GULP energy per Si atom -5573.408579 kJ/mol
# Density = 1.886612 g / cm^3
# Si number density = 18.909155 Si / 1000 Ang^3
#
#
#
# Elastic Constant Matrix: (Units=GPa)
#
#
# Indices 1 2 3 4 5 6 
#
# 1 89.6752 45.1731 32.4554 0.0000 30.3095 0.0000
# 2 45.1731 80.5805 55.0366 0.0000 23.1937 0.0000
# 3 32.4554 55.0366 110.0300 0.0000 32.7007 0.0000
# 4 0.0000 0.0000 0.0000 1.0653 0.0000 23.8497
# 5 30.3095 23.1937 32.7007 0.0000 34.7377 0.0000
# 6 0.0000 0.0000 0.0000 23.8497 0.0000 15.3175
#
#
#
# Elastic Compliance Matrix: (Units=1/GPa)
#
#
# Indices 1 2 3 4 5 6 
#
# 1 0.019071 -0.008679 0.002692 0.000000 -0.013380 0.000000
# 2 -0.008679 0.023487 -0.009411 0.000000 0.000750 0.000000
# 3 0.002692 -0.009411 0.016429 0.000000 -0.011531 0.000000
# 4 0.000000 0.000000 0.000000 -0.027724 0.000000 0.043168
# 5 -0.013380 0.000750 -0.011531 0.000000 0.050815 0.000000
# 6 0.000000 0.000000 0.000000 0.043168 0.000000 -0.001928
#
#
# Mechanical properties :
#
#
# Convention : Reuss Voigt Hill
#
# Bulk Modulus (GPa) = 35.47186 60.62399 48.04793
# Shear Modulus (GPa) = 41.54823 20.06547 30.80685
#
# Velocity S-wave (km/s) = 4.69257 3.26107 4.04072
# Velocity P-wave (km/s) = 6.93975 6.80512 6.87277
#
# Compressibility (1/GPa) = 0.02819136
#
# Stress axis : x y z
#
# Youngs Moduli (GPa) = 52.43540 42.57624 60.86951
#
# Poissons Ratio (x) = 0.36951 -0.16387
# Poissons Ratio (y) = 0.45508 0.57285
# Poissons Ratio (z) = -0.14116 0.40069
#
# Static dielectric constant tensor:
#      x y z
#    x 1.682020 0.000000 -0.021730 
#    y 0.000000 1.671990 0.000000 
#    z -0.021730 0.000000 1.651060 
# 
# From -- ./inp_files/239000.got.cif
#   From: 2010.05.17/outbox.cif.g08.bks.cpg/sg12_120_cif.got.tgz:239000.got - 2010.06.03 13:09:07.
