data_PCOD9193299
_publ_section_title
;
Structure prediction by ZEFSAII (Michael W. Deem and Ramdas Pophale) SiO2 
 PCOD9193299
Probable space group: C 2/M
;
_chemical_formula_sum "Si O2"
_cell_formula_units_Z 44
_cell_length_a 8.368900
_cell_length_b 12.403635
_cell_length_c 24.873019
_cell_angle_alpha 90.000000
_cell_angle_beta 114.567822
_cell_angle_gamma 90.000000
_cell_volume 2348.194780
_symmetry_space_group_name_H-M "C 2/M"
_symmetry_group_IT_number 12
_symmetry_cell_setting 'monoclinic'
loop_
_space_group_symop_operation_xyz
x,y,z
-x,y,-z
-x,-y,-z
x,-y,z
1/2+x,1/2+y,z
1/2-x,1/2+y,-z
1/2-x,1/2-y,-z
1/2+x,1/2-y,z
loop_
_atom_site_type_symbol
_atom_site_label
_atom_site_fract_x
_atom_site_fract_y
_atom_site_fract_z
Si Si1 0.008610 0.378932 0.791250
Si Si2 0.723202 0.194761 0.724962
Si Si3 0.636443 0.305072 0.363316
Si Si4 0.381721 0.877734 0.070033
Si Si5 0.578777 0.379472 0.570457
Si Si6 0.500000 0.711160 0.000000
O O1 0.933118 0.500000 0.775840
O O2 0.862870 0.288185 0.759135
O O3 0.166764 0.368570 0.770308
O O4 0.079117 0.364358 0.861432
O O5 0.542627 0.248876 0.680658
O O6 0.793951 0.136486 0.680958
O O7 0.577723 0.369596 0.407700
O O8 0.777571 0.212890 0.398509
O O9 0.483668 0.789737 0.049128
O O10 0.430889 0.000000 0.061870
O O11 0.176156 0.857968 0.029705
O O12 0.500000 0.366598 0.500000
O O13 0.656654 0.500000 0.586052
#
# Coordination Sequence:
#
# PCOD9193299 Si02
#       6
#     8   8   8   8   8   4
#     4  10  20  35  54  75 104 136 169 212 255 300
#     4   9  19  34  52  76 101 133 172 207 252 304
#     4   9  19  34  53  76 104 132 168 212 249 300
#     4  10  20  34  53  77 103 136 172 208 256 304
#     4  10  20  35  55  77 103 136 170 208 256 302
#     4  10  20  34  54  76 106 136 168 216 252 300
#
# _framework density 18.7378
#
# number of rings (size 3 to 8) (size 9 to 14) (size 15 to 20)
#    0.000    2.364    0.000    2.182    0.000    7.273 
#    0.000    5.455    0.000   25.091    0.000    0.000 
#    0.000    0.000    0.000    0.000    0.000    0.000 
#
# Total GULP energy -122587.754696 kJ/mol
# GULP energy per Si atom -5572.170668 kJ/mol
# Density = 1.869515 g / cm^3
# Si number density = 18.737800 Si / 1000 Ang^3
#
#
#
# Elastic Constant Matrix: (Units=GPa)
#
#
# Indices 1 2 3 4 5 6 
#
# 1 58.5082 8.5890 21.4405 0.0000 -13.9907 0.0000
# 2 8.5890 73.7525 32.9793 0.0000 1.4603 0.0000
# 3 21.4405 32.9793 97.9206 0.0000 -26.9782 0.0000
# 4 0.0000 0.0000 0.0000 87.9119 0.0000 -32.0018
# 5 -13.9907 1.4603 -26.9782 0.0000 35.0242 0.0000
# 6 0.0000 0.0000 0.0000 -32.0018 0.0000 34.7670
#
#
#
# Elastic Compliance Matrix: (Units=1/GPa)
#
#
# Indices 1 2 3 4 5 6 
#
# 1 0.019567 -0.001488 -0.002047 0.000000 0.006301 0.000000
# 2 -0.001488 0.017174 -0.007387 0.000000 -0.007001 0.000000
# 3 -0.002047 -0.007387 0.016512 0.000000 0.012209 0.000000
# 4 0.000000 0.000000 0.000000 0.017107 0.000000 0.015746
# 5 0.006301 -0.007001 0.012209 0.000000 0.040765 0.000000
# 6 0.000000 0.000000 0.000000 0.015746 0.000000 0.043257
#
#
# Mechanical properties :
#
#
# Convention : Reuss Voigt Hill
#
# Bulk Modulus (GPa) = 31.83811 39.57767 35.70789
# Shear Modulus (GPa) = 26.78142 42.68544 34.73343
#
# Velocity S-wave (km/s) = 3.78467 4.77806 4.31008
# Velocity P-wave (km/s) = 6.01054 7.18383 6.62322
#
# Compressibility (1/GPa) = 0.03140890
#
# Stress axis : x y z
#
# Youngs Moduli (GPa) = 51.10638 58.22761 60.56103
#
# Poissons Ratio (x) = 0.08665 0.12397
# Poissons Ratio (y) = 0.07605 0.44737
# Poissons Ratio (z) = 0.10462 0.43013
#
# Static dielectric constant tensor:
#      x y z
#    x 1.650250 0.000000 -0.049100 
#    y 0.000000 1.646340 0.000000 
#    z -0.049100 0.000000 1.647940 
# 
# From -- ./inp_files/332087.got.cif
#   From: 2010.05.17/outbox.cif.g08.bks.cpg/sg12_167_cif.got.tgz:332087.got - 2010.06.03 13:09:07.
