data_PCOD9193364
_publ_section_title
;
Structure prediction by ZEFSAII (Michael W. Deem and Ramdas Pophale) SiO2 
 PCOD9193364
Probable space group: C 2/M
;
_chemical_formula_sum "Si O2"
_cell_formula_units_Z 48
_cell_length_a 20.791332
_cell_length_b 8.650391
_cell_length_c 16.122476
_cell_angle_alpha 90.000000
_cell_angle_beta 70.931254
_cell_angle_gamma 90.000000
_cell_volume 2740.564843
_symmetry_space_group_name_H-M "C 2/M"
_symmetry_group_IT_number 12
_symmetry_cell_setting 'monoclinic'
loop_
_space_group_symop_operation_xyz
x,y,z
-x,y,-z
-x,-y,-z
x,-y,z
1/2+x,1/2+y,z
1/2-x,1/2+y,-z
1/2-x,1/2-y,-z
1/2+x,1/2-y,z
loop_
_atom_site_type_symbol
_atom_site_label
_atom_site_fract_x
_atom_site_fract_y
_atom_site_fract_z
Si Si1 0.130886 0.185705 0.263690
Si Si2 0.182006 0.685682 0.069489
Si Si3 0.035372 0.687887 0.068864
Si Si4 0.511540 0.814563 0.729941
Si Si5 0.651688 0.315173 0.601342
Si Si6 0.291390 0.313532 0.601989
O O1 0.170113 0.251597 0.167173
O O2 0.168033 0.232674 0.332911
O O3 0.053846 0.246987 0.290075
O O4 0.130213 0.000000 0.259761
O O5 0.184121 0.500000 0.070924
O O6 0.114276 0.732767 0.046628
O O7 0.250000 0.750000 0.000000
O O8 0.033984 0.500000 0.067039
O O9 0.997361 0.733846 0.169754
O O10 0.000000 0.745155 0.000000
O O11 0.582041 0.757222 0.662816
O O12 0.508119 0.000000 0.728433
O O13 0.646929 0.500000 0.606967
O O14 0.668516 0.269884 0.499011
O O15 0.716542 0.258631 0.626775
O O16 0.284594 0.500000 0.604976
#
# Coordination Sequence:
#
# PCOD9193364 Si02
#       6
#     8   8   8   8   8   8
#     4  10  20  36  56  76 103 139 178 219 262 310
#     4  10  20  34  53  78 106 136 172 215 263 313
#     4   8  16  32  52  72  96 130 170 208 247 297
#     4  10  20  34  53  78 107 137 173 216 262 315
#     4  10  20  35  55  78 105 136 173 218 265 315
#     4   9  20  37  55  76 103 138 177 216 263 317
#
# _framework density 17.514638999999999
#
# number of rings (size 3 to 8) (size 9 to 14) (size 15 to 20)
#    0.000    2.500    0.000    3.000    0.000    4.000 
#    0.000    6.667    0.000   17.000    0.000    0.000 
#    0.000    0.000    0.000    0.000    0.000    0.000 
#
# Total GULP energy -133902.905417 kJ/mol
# GULP energy per Si atom -5579.287726 kJ/mol
# Density = 1.747477 g / cm^3
# Si number density = 17.514639 Si / 1000 Ang^3
#
#
#
# Elastic Constant Matrix: (Units=GPa)
#
#
# Indices 1 2 3 4 5 6 
#
# 1 179.3120 52.9319 134.2370 0.0000 0.7292 0.0000
# 2 52.9319 45.1724 42.7365 0.0000 -0.9822 0.0000
# 3 134.2370 42.7365 119.7091 0.0000 1.2040 0.0000
# 4 0.0000 0.0000 0.0000 28.7018 0.0000 -5.0732
# 5 0.7292 -0.9822 1.2040 0.0000 44.2878 0.0000
# 6 0.0000 0.0000 0.0000 -5.0732 0.0000 33.6045
#
#
#
# Elastic Compliance Matrix: (Units=1/GPa)
#
#
# Indices 1 2 3 4 5 6 
#
# 1 0.035788 -0.005978 -0.038001 0.000000 0.000311 0.000000
# 2 -0.005978 0.034476 -0.005615 0.000000 0.001016 0.000000
# 3 -0.038001 -0.005615 0.052980 0.000000 -0.000939 0.000000
# 4 0.000000 0.000000 0.000000 0.035796 0.000000 0.005404
# 5 0.000311 0.001016 -0.000939 0.000000 0.022623 0.000000
# 6 0.000000 0.000000 0.000000 0.005404 0.000000 0.030574
#
#
# Mechanical properties :
#
#
# Convention : Reuss Voigt Hill
#
# Bulk Modulus (GPa) = 41.56687 89.33380 65.45034
# Shear Modulus (GPa) = 15.65220 28.93803 22.29511
#
# Velocity S-wave (km/s) = 2.99266 4.06916 3.57170
# Velocity P-wave (km/s) = 5.97709 8.55531 7.37967
#
# Compressibility (1/GPa) = 0.02405762
#
# Stress axis : x y z
#
# Youngs Moduli (GPa) = 27.94212 29.00530 18.87499
#
# Poissons Ratio (x) = 0.17338 0.71726
# Poissons Ratio (y) = 0.16702 0.10599
# Poissons Ratio (z) = 1.06182 0.16288
#
# Static dielectric constant tensor:
#      x y z
#    x 1.570930 0.000000 0.013560 
#    y 0.000000 1.595260 0.000000 
#    z 0.013560 0.000000 1.581920 
# 
# From -- ./inp_files/229890.got.cif
#   From: 2010.05.17/outbox.cif.g08.bks.cpg/sg12_115_cif.got.tgz:229890.got - 2010.06.03 13:09:07.
