data_PCOD9193685
_publ_section_title
;
Structure prediction by ZEFSAII (Michael W. Deem and Ramdas Pophale) SiO2 
 PCOD9193685
Probable space group: C 2/M
;
_chemical_formula_sum "Si O2"
_cell_formula_units_Z 64
_cell_length_a 14.938221
_cell_length_b 7.686300
_cell_length_c 25.303838
_cell_angle_alpha 90.000000
_cell_angle_beta 61.022532
_cell_angle_gamma 90.000000
_cell_volume 2541.654386
_symmetry_space_group_name_H-M "C 2/M"
_symmetry_group_IT_number 12
_symmetry_cell_setting 'monoclinic'
loop_
_space_group_symop_operation_xyz
x,y,z
-x,y,-z
-x,-y,-z
x,-y,z
1/2+x,1/2+y,z
1/2-x,1/2+y,-z
1/2-x,1/2-y,-z
1/2+x,1/2-y,z
loop_
_atom_site_type_symbol
_atom_site_label
_atom_site_fract_x
_atom_site_fract_y
_atom_site_fract_z
Si Si1 0.283782 0.713225 0.172098
Si Si2 0.262342 0.202911 0.418109
Si Si3 0.081830 0.799021 0.546149
Si Si4 0.431662 0.791283 0.733709
Si Si5 0.367654 0.801756 0.638611
Si Si6 0.614495 0.286929 0.079511
Si Si7 0.345976 0.702030 0.044924
Si Si8 0.061888 0.207753 0.789125
O O1 0.284311 0.500000 0.170081
O O2 0.165925 0.766729 0.203542
O O3 0.347885 0.776827 0.103380
O O4 0.333878 0.767979 0.213111
O O5 0.168216 0.269939 0.481461
O O6 0.364665 0.288799 0.411385
O O7 0.222708 0.221794 0.370047
O O8 0.276192 0.000000 0.425563
O O9 0.974018 0.704551 0.575891
O O10 0.062398 0.000000 0.538473
O O11 0.404097 0.721079 0.683706
O O12 0.532709 0.750897 0.737750
O O13 0.431811 0.000000 0.728610
O O14 0.335650 0.000000 0.657313
O O15 0.619366 0.500000 0.078192
O O16 0.725259 0.215803 0.064687
O O17 0.527802 0.230973 0.145306
O O18 0.597241 0.229834 0.023433
O O19 0.375723 0.500000 0.041062
O O20 0.062791 0.000000 0.791724
#
# Coordination Sequence:
#
# PCOD9193685 Si02
#       8
#     8   8   8   8   8   8   8   8
#     4   9  18  34  55  75 100 139 180 217 269 330
#     4  10  21  38  61  90 122 153 188 230 280 340
#     4  10  21  38  61  89 121 155 189 230 281 337
#     4  10  22  40  56  75 106 144 187 227 269 325
#     4  11  23  37  57  84 115 153 197 243 284 332
#     4   9  17  28  47  78 106 128 168 221 270 324
#     4   9  16  29  51  73 100 139 171 208 269 334
#     4  10  20  34  54  79 105 135 177 230 278 324
#
# _framework density 25.18045
#
# number of rings (size 3 to 8) (size 9 to 14) (size 15 to 20)
#    0.000    2.250    1.250    1.500    0.000    5.500 
#    0.000    5.000    0.000    0.000    0.000    4.375 
#    0.000    0.000    0.000    0.000    0.000    0.000 
#
# Total GULP energy -178828.357790 kJ/mol
# GULP energy per Si atom -5588.386181 kJ/mol
# Density = 2.512314 g / cm^3
# Si number density = 25.180450 Si / 1000 Ang^3
#
#
#
# Elastic Constant Matrix: (Units=GPa)
#
#
# Indices 1 2 3 4 5 6 
#
# 1 138.5199 0.3296 35.1612 0.0000 31.2182 0.0000
# 2 0.3296 48.2186 -2.7165 0.0000 2.2448 0.0001
# 3 35.1612 -2.7165 74.3568 0.0000 29.5912 0.0000
# 4 0.0000 0.0000 0.0000 10.6242 0.0000 8.7288
# 5 31.2182 2.2448 29.5912 0.0000 49.7968 0.0000
# 6 0.0000 0.0001 0.0000 8.7288 0.0000 16.0642
#
#
#
# Elastic Compliance Matrix: (Units=1/GPa)
#
#
# Indices 1 2 3 4 5 6 
#
# 1 0.008765 -0.000020 -0.002566 0.000000 -0.003969 0.000000
# 2 -0.000020 0.020908 0.001497 0.000000 -0.001820 0.000000
# 3 -0.002566 0.001497 0.018472 0.000000 -0.009436 0.000000
# 4 0.000000 0.000000 0.000000 0.170032 0.000000 -0.092390
# 5 -0.003969 -0.001820 -0.009436 0.000000 0.028259 0.000000
# 6 0.000000 0.000000 0.000000 -0.092390 0.000000 0.112452
#
#
# Mechanical properties :
#
#
# Convention : Reuss Voigt Hill
#
# Bulk Modulus (GPa) = 21.75389 36.29376 29.02382
# Shear Modulus (GPa) = 13.28421 30.51845 21.90133
#
# Velocity S-wave (km/s) = 2.29936 3.48514 2.95239
# Velocity P-wave (km/s) = 3.96325 5.53531 4.81389
#
# Compressibility (1/GPa) = 0.04596879
#
# Stress axis : x y z
#
# Youngs Moduli (GPa) = 114.08889 47.82834 54.13693
#
# Poissons Ratio (x) = 0.00094 0.13891
# Poissons Ratio (y) = 0.00225 -0.08107
# Poissons Ratio (z) = 0.29273 -0.07162
#
# Static dielectric constant tensor:
#      x y z
#    x 1.953370 0.000000 0.037420 
#    y 0.000000 1.962790 0.000000 
#    z 0.037420 0.000000 2.071050 
# 
# From -- ./inp_files/359733.got.cif
#   From: 2010.05.17/outbox.cif.g08.bks.cpg/sg12_180_cif.got.tgz:359733.got - 2010.06.03 13:09:07.
