data_PCOD9193255
_publ_section_title
;
Structure prediction by ZEFSAII (Michael W. Deem and Ramdas Pophale) SiO2 
 PCOD9193255
Probable space group: C 2/M
;
_chemical_formula_sum "Si O2"
_cell_formula_units_Z 48
_cell_length_a 25.153877
_cell_length_b 9.574400
_cell_length_c 12.422218
_cell_angle_alpha 90.000000
_cell_angle_beta 130.258403
_cell_angle_gamma 90.000000
_cell_volume 2283.066472
_symmetry_space_group_name_H-M "C 2/M"
_symmetry_group_IT_number 12
_symmetry_cell_setting 'monoclinic'
loop_
_space_group_symop_operation_xyz
x,y,z
-x,y,-z
-x,-y,-z
x,-y,z
1/2+x,1/2+y,z
1/2-x,1/2+y,-z
1/2-x,1/2-y,-z
1/2+x,1/2-y,z
loop_
_atom_site_type_symbol
_atom_site_label
_atom_site_fract_x
_atom_site_fract_y
_atom_site_fract_z
Si Si1 0.817359 0.343101 0.110420
Si Si2 0.349742 0.341385 0.572254
Si Si3 0.126314 0.657302 0.056951
Si Si4 0.239823 0.841308 0.326962
Si Si5 0.936719 0.839600 0.339078
Si Si6 0.495041 0.339028 0.170563
O O1 0.799830 0.500000 0.123161
O O2 0.870969 0.262525 0.257616
O O3 0.750000 0.250000 0.000000
O O4 0.855273 0.354438 0.044862
O O5 0.358187 0.500000 0.539774
O O6 0.312710 0.237483 0.441126
O O7 0.298808 0.349722 0.608035
O O8 0.424926 0.293770 0.713188
O O9 0.122599 0.500000 0.097532
O O10 0.188319 0.747355 0.189012
O O11 0.054139 0.742121 0.965815
O O12 0.247133 0.000000 0.296983
O O13 0.965122 0.838711 0.253577
O O14 0.000000 0.799546 0.500000
O O15 0.916550 0.000000 0.337847
O O16 0.492957 0.500000 0.129552
#
# Coordination Sequence:
#
# PCOD9193255 Si02
#       6
#     8   8   8   8   8   8
#     4  10  21  36  54  76 103 135 170 210 254 302
#     4   9  19  35  53  75 104 137 173 213 257 304
#     4  10  21  36  53  75 104 135 169 211 257 304
#     4  10  20  34  53  76 103 136 174 214 255 303
#     4   9  18  33  53  77 104 134 169 208 252 304
#     4   9  18  34  54  74 101 136 171 209 253 303
#
# _framework density 21.024355
#
# number of rings (size 3 to 8) (size 9 to 14) (size 15 to 20)
#    0.000    2.500    0.000    1.500    0.000    5.667 
#    0.000    6.667    0.000    0.000    0.000    0.000 
#    0.000    0.000    0.000    0.000    0.000    0.000 
#
# Total GULP energy -134019.982441 kJ/mol
# GULP energy per Si atom -5584.165935 kJ/mol
# Density = 2.097650 g / cm^3
# Si number density = 21.024355 Si / 1000 Ang^3
#
#
#
# Elastic Constant Matrix: (Units=GPa)
#
#
# Indices 1 2 3 4 5 6 
#
# 1 32.8124 9.3209 0.3968 0.0000 7.1622 0.0000
# 2 9.3209 166.9328 111.1318 0.0000 30.6663 0.0000
# 3 0.3968 111.1318 137.9406 0.0000 28.3860 0.0000
# 4 0.0000 0.0000 0.0000 39.7401 0.0000 10.2487
# 5 7.1622 30.6663 28.3860 0.0000 37.6255 0.0000
# 6 0.0000 0.0000 0.0000 10.2487 0.0000 17.4083
#
#
#
# Elastic Compliance Matrix: (Units=1/GPa)
#
#
# Indices 1 2 3 4 5 6 
#
# 1 0.032749 -0.003152 0.003787 0.000000 -0.006522 0.000000
# 2 -0.003152 0.013551 -0.010368 0.000000 -0.002622 0.000000
# 3 0.003787 -0.010368 0.016574 0.000000 -0.004775 0.000000
# 4 0.000000 0.000000 0.000000 0.029668 0.000000 -0.017466
# 5 -0.006522 -0.002622 -0.004775 0.000000 0.033558 0.000000
# 6 0.000000 0.000000 0.000000 -0.017466 0.000000 0.067727
#
#
# Mechanical properties :
#
#
# Convention : Reuss Voigt Hill
#
# Bulk Modulus (GPa) = 23.03688 64.37608 43.70648
# Shear Modulus (GPa) = 21.95266 33.41054 27.68160
#
# Velocity S-wave (km/s) = 3.23484 3.99072 3.63250
# Velocity P-wave (km/s) = 4.99333 7.20560 6.19895
#
# Compressibility (1/GPa) = 0.04340865
#
# Stress axis : x y z
#
# Youngs Moduli (GPa) = 30.53489 73.79733 60.33394
#
# Poissons Ratio (x) = 0.23257 -0.22849
# Poissons Ratio (y) = 0.09623 0.62557
# Poissons Ratio (z) = -0.11564 0.76516
#
# Static dielectric constant tensor:
#      x y z
#    x 1.788020 0.000000 -0.031540 
#    y 0.000000 1.765950 0.000000 
#    z -0.031540 0.000000 1.719140 
# 
# From -- ./inp_files/229878.got.cif
#   From: 2010.05.17/outbox.cif.g08.bks.cpg/sg12_115_cif.got.tgz:229878.got - 2010.06.03 13:09:07.
