data_PCOD9193248
_publ_section_title
;
Structure prediction by ZEFSAII (Michael W. Deem and Ramdas Pophale) SiO2 
 PCOD9193248
Probable space group: C 2/M
;
_chemical_formula_sum "Si O2"
_cell_formula_units_Z 64
_cell_length_a 14.461934
_cell_length_b 8.683992
_cell_length_c 30.043669
_cell_angle_alpha 90.000000
_cell_angle_beta 73.110137
_cell_angle_gamma 90.000000
_cell_volume 3610.351018
_symmetry_space_group_name_H-M "C 2/M"
_symmetry_group_IT_number 12
_symmetry_cell_setting 'monoclinic'
loop_
_space_group_symop_operation_xyz
x,y,z
-x,y,-z
-x,-y,-z
x,-y,z
1/2+x,1/2+y,z
1/2-x,1/2+y,-z
1/2-x,1/2-y,-z
1/2+x,1/2-y,z
loop_
_atom_site_type_symbol
_atom_site_label
_atom_site_fract_x
_atom_site_fract_y
_atom_site_fract_z
Si Si1 0.983235 0.685885 0.757072
Si Si2 0.794866 0.815927 0.425749
Si Si3 0.722241 0.185192 0.254473
Si Si4 0.397666 0.814145 0.494481
Si Si5 0.585232 0.316038 0.826836
Si Si6 0.542450 0.183977 0.929210
Si Si7 0.352529 0.315182 0.001337
Si Si8 0.175383 0.683658 0.676164
O O1 0.983659 0.500000 0.762569
O O2 0.008007 0.762835 0.800656
O O3 0.070653 0.726501 0.711352
O O4 0.880382 0.732414 0.751348
O O5 0.690835 0.768481 0.460807
O O6 0.873743 0.752135 0.449352
O O7 0.809015 0.754190 0.374346
O O8 0.798606 0.000000 0.424949
O O9 0.810263 0.224473 0.208889
O O10 0.747146 0.258094 0.298535
O O11 0.721788 0.000000 0.259624
O O12 0.500000 0.763760 0.500000
O O13 0.398089 0.000000 0.491466
O O14 0.580977 0.500000 0.833437
O O15 0.567993 0.233248 0.875834
O O16 0.438508 0.252716 0.957833
O O17 0.540272 0.000000 0.934197
O O18 0.618605 0.254267 0.953721
O O19 0.352258 0.500000 0.001052
O O20 0.250000 0.250000 0.000000
O O21 0.179594 0.500000 0.672554
#
# Coordination Sequence:
#
# PCOD9193248 Si02
#       8
#     8   8   8   8   8   8   8   8
#     4   9  19  36  55  76 103 139 178 217 262 316
#     4  10  20  34  53  76 103 133 168 211 257 306
#     4   9  19  36  56  76 103 137 176 218 261 309
#     4   9  19  36  55  74  99 133 171 210 254 306
#     4  10  20  35  55  80 108 139 176 223 271 316
#     4  11  22  38  58  82 113 149 186 226 271 323
#     4  11  22  39  60  84 113 145 184 229 276 327
#     4  10  20  34  53  76 105 137 172 213 259 312
#
# _framework density 17.726807999999998
#
# number of rings (size 3 to 8) (size 9 to 14) (size 15 to 20)
#    0.000    2.125    0.000    4.125    0.000    4.250 
#    0.000    8.750    0.000    0.000    0.000    0.000 
#    0.000    0.000    0.000    0.000    0.000    0.000 
#
# Total GULP energy -178677.789517 kJ/mol
# GULP energy per Si atom -5583.680922 kJ/mol
# Density = 1.768646 g / cm^3
# Si number density = 17.726808 Si / 1000 Ang^3
#
#
#
# Elastic Constant Matrix: (Units=GPa)
#
#
# Indices 1 2 3 4 5 6 
#
# 1 162.7563 50.4694 73.5626 0.0000 28.4794 0.0000
# 2 50.4694 79.5900 56.6895 0.0000 9.3329 0.0000
# 3 73.5626 56.6895 156.5630 0.0000 20.2342 0.0000
# 4 0.0000 0.0000 0.0000 36.0726 0.0000 6.0073
# 5 28.4794 9.3329 20.2342 0.0000 11.6262 0.0000
# 6 0.0000 0.0000 0.0000 6.0073 0.0000 27.3209
#
#
#
# Elastic Compliance Matrix: (Units=1/GPa)
#
#
# Indices 1 2 3 4 5 6 
#
# 1 0.012242 -0.004095 -0.001056 0.000000 -0.024862 0.000000
# 2 -0.004095 0.018430 -0.005333 0.000000 0.004519 0.000000
# 3 -0.001056 -0.005333 0.010227 0.000000 -0.010932 0.000000
# 4 0.000000 0.000000 0.000000 0.028776 0.000000 -0.006327
# 5 -0.024862 0.004519 -0.010932 0.000000 0.162313 0.000000
# 6 0.000000 0.000000 0.000000 -0.006327 0.000000 0.037993
#
#
# Mechanical properties :
#
#
# Convention : Reuss Voigt Hill
#
# Bulk Modulus (GPa) = 50.17433 84.48359 67.32896
# Shear Modulus (GPa) = 16.80148 29.54980 23.17564
#
# Velocity S-wave (km/s) = 3.08198 4.08727 3.61969
# Velocity P-wave (km/s) = 6.40550 8.36878 7.45208
#
# Compressibility (1/GPa) = 0.01993051
#
# Stress axis : x y z
#
# Youngs Moduli (GPa) = 81.68786 54.25952 97.77872
#
# Poissons Ratio (x) = 0.22220 0.10324
# Poissons Ratio (y) = 0.33453 0.52146
# Poissons Ratio (z) = 0.08625 0.28937
#
# Static dielectric constant tensor:
#      x y z
#    x 1.592500 0.000000 -0.010790 
#    y 0.000000 1.595600 0.000000 
#    z -0.010790 0.000000 1.573480 
# 
# From -- ./inp_files/359828.got.cif
#   From: 2010.05.17/outbox.cif.g08.bks.cpg/sg12_180_cif.got.tgz:359828.got - 2010.06.03 13:09:07.
