data_PCOD9193225
_publ_section_title
;
Structure prediction by ZEFSAII (Michael W. Deem and Ramdas Pophale) SiO2 
 PCOD9193225
Probable space group: C 2/M
;
_chemical_formula_sum "Si O2"
_cell_formula_units_Z 56
_cell_length_a 19.629131
_cell_length_b 7.970323
_cell_length_c 20.353038
_cell_angle_alpha 90.000000
_cell_angle_beta 122.213107
_cell_angle_gamma 90.000000
_cell_volume 2694.096655
_symmetry_space_group_name_H-M "C 2/M"
_symmetry_group_IT_number 12
_symmetry_cell_setting 'monoclinic'
loop_
_space_group_symop_operation_xyz
x,y,z
-x,y,-z
-x,-y,-z
x,-y,z
1/2+x,1/2+y,z
1/2-x,1/2+y,-z
1/2-x,1/2-y,-z
1/2+x,1/2-y,z
loop_
_atom_site_type_symbol
_atom_site_label
_atom_site_fract_x
_atom_site_fract_y
_atom_site_fract_z
Si Si1 0.997349 0.298302 0.681782
Si Si2 0.491025 0.797389 0.831379
Si Si3 0.689794 0.795248 0.268487
Si Si4 0.247808 0.808303 0.923949
Si Si5 0.170458 0.201584 0.755884
Si Si6 0.180297 0.297985 0.414362
Si Si7 0.078176 0.804026 0.001331
O O1 0.997504 0.500000 0.679565
O O2 0.078757 0.237896 0.690049
O O3 0.001974 0.249333 0.761156
O O4 0.909758 0.239218 0.612265
O O5 0.399287 0.747855 0.802504
O O6 0.554367 0.716258 0.912822
O O7 0.498032 0.000000 0.839944
O O8 0.762630 0.735267 0.260754
O O9 0.696749 0.740420 0.347996
O O10 0.690575 0.000000 0.269258
O O11 0.190878 0.727315 0.839268
O O12 0.223739 0.000000 0.916055
O O13 0.250000 0.750000 0.000000
O O14 0.338745 0.790018 0.943447
O O15 0.179837 0.000000 0.763154
O O16 0.177056 0.500000 0.410125
O O17 0.250000 0.250000 0.500000
O O18 0.089332 0.000000 0.022877
O O19 0.000000 0.738726 0.000000
#
# Coordination Sequence:
#
# PCOD9193225 Si02
#       7
#     8   8   8   8   8   8   8
#     4   9  19  34  53  77 103 132 164 203 254 305
#     4   9  17  33  55  72  92 131 179 219 257 306
#     4   8  16  33  55  77 101 132 172 214 254 299
#     4  11  23  37  54  76 104 140 181 224 269 316
#     4  10  20  34  53  76 101 133 175 216 252 301
#     4   9  18  35  58  81 105 132 164 203 246 298
#     4  11  23  35  48  72 105 137 174 223 271 312
#
# _framework density 20.786187999999999
#
# number of rings (size 3 to 8) (size 9 to 14) (size 15 to 20)
#    0.000    2.429    0.000    4.286    0.000    6.857 
#    0.000    4.286    0.000    4.286    0.000    0.000 
#    0.000    0.000    0.000    0.000    0.000    0.000 
#
# Total GULP energy -156298.859379 kJ/mol
# GULP energy per Si atom -5582.102121 kJ/mol
# Density = 2.073888 g / cm^3
# Si number density = 20.786188 Si / 1000 Ang^3
#
#
#
# Elastic Constant Matrix: (Units=GPa)
#
#
# Indices 1 2 3 4 5 6 
#
# 1 116.7209 0.3083 27.7509 0.0000 22.5921 0.0000
# 2 0.3083 12.6965 -0.0122 0.0000 -4.3329 0.0000
# 3 27.7509 -0.0122 91.6138 0.0000 25.5073 0.0000
# 4 0.0000 0.0000 0.0000 21.7019 0.0000 2.3512
# 5 22.5921 -4.3329 25.5073 0.0000 25.8947 0.0000
# 6 0.0000 0.0000 0.0000 2.3512 0.0000 24.1196
#
#
#
# Elastic Compliance Matrix: (Units=1/GPa)
#
#
# Indices 1 2 3 4 5 6 
#
# 1 0.010486 -0.003349 -0.000653 0.000000 -0.009067 0.000000
# 2 -0.003349 0.086546 -0.005263 0.000000 0.022588 0.000000
# 3 -0.000653 -0.005263 0.015431 0.000000 -0.015512 0.000000
# 4 0.000000 0.000000 0.000000 0.046571 0.000000 -0.004540
# 5 -0.009067 0.022588 -0.015512 0.000000 0.065587 0.000000
# 6 0.000000 0.000000 0.000000 -0.004540 0.000000 0.041903
#
#
# Mechanical properties :
#
#
# Convention : Reuss Voigt Hill
#
# Bulk Modulus (GPa) = 10.64575 30.79170 20.71872
# Shear Modulus (GPa) = 15.80450 27.20885 21.50667
#
# Velocity S-wave (km/s) = 2.76041 3.62192 3.22011
# Velocity P-wave (km/s) = 3.91056 5.68654 4.88002
#
# Compressibility (1/GPa) = 0.09393422
#
# Stress axis : x y z
#
# Youngs Moduli (GPa) = 95.36225 11.55448 64.80416
#
# Poissons Ratio (x) = 0.03870 0.04229
# Poissons Ratio (y) = 0.31940 0.34106
# Poissons Ratio (z) = 0.06223 0.06081
#
# Static dielectric constant tensor:
#      x y z
#    x 1.782280 0.000000 -0.010070 
#    y 0.000000 1.751160 0.000000 
#    z -0.010070 0.000000 1.747760 
# 
# From -- ./inp_files/313746.got.cif
#   From: 2010.05.17/outbox.cif.g08.bks.cpg/sg12_157_cif.got.tgz:313746.got - 2010.06.03 13:09:07.
