data_PCOD9193952
_publ_section_title
;
Structure prediction by ZEFSAII (Michael W. Deem and Ramdas Pophale) SiO2 
 PCOD9193952
Probable space group: C 2/M
;
_chemical_formula_sum "Si O2"
_cell_formula_units_Z 56
_cell_length_a 30.298688
_cell_length_b 9.340380
_cell_length_c 11.975927
_cell_angle_alpha 90.000000
_cell_angle_beta 61.097587
_cell_angle_gamma 90.000000
_cell_volume 2967.057513
_symmetry_space_group_name_H-M "C 2/M"
_symmetry_group_IT_number 12
_symmetry_cell_setting 'monoclinic'
loop_
_space_group_symop_operation_xyz
x,y,z
-x,y,-z
-x,-y,-z
x,-y,z
1/2+x,1/2+y,z
1/2-x,1/2+y,-z
1/2-x,1/2-y,-z
1/2+x,1/2-y,z
loop_
_atom_site_type_symbol
_atom_site_label
_atom_site_fract_x
_atom_site_fract_y
_atom_site_fract_z
Si Si1 0.616113 0.667835 0.008444
Si Si2 0.357440 0.842416 0.222722
Si Si3 0.083015 0.665818 0.630224
Si Si4 0.659840 0.830615 0.359185
Si Si5 0.257620 0.662669 0.603442
Si Si6 0.804229 0.330016 0.935875
Si Si7 0.502015 0.671216 0.128416
O O1 0.626167 0.500000 0.011160
O O2 0.657785 0.759886 0.021755
O O3 0.557976 0.698340 0.108589
O O4 0.619690 0.713716 0.874792
O O5 0.371053 0.828561 0.336151
O O6 0.297968 0.841738 0.276158
O O7 0.377365 0.000000 0.162874
O O8 0.066956 0.500000 0.641152
O O9 0.106924 0.711477 0.482564
O O10 0.039098 0.755106 0.742427
O O11 0.703394 0.740676 0.364819
O O12 0.667790 0.813180 0.217868
O O13 0.666363 0.000000 0.376634
O O14 0.273748 0.500000 0.560252
O O15 0.250000 0.750000 0.500000
O O16 0.796739 0.500000 0.965494
O O17 0.750000 0.250000 0.000000
O O18 0.493918 0.500000 0.136751
O O19 0.500000 0.719835 0.000000
#
# Coordination Sequence:
#
# PCOD9193952 Si02
#       7
#     8   8   8   8   8   8   8
#     4  11  23  39  61  87 121 158 199 249 298 355
#     4  10  20  34  54  83 118 152 193 243 293 354
#     4  10  20  36  58  85 117 151 193 244 297 354
#     4  10  22  41  59  83 118 156 197 248 301 352
#     4  11  21  33  52  81 117 153 190 237 290 355
#     4  11  24  43  67  90 120 158 203 250 296 356
#     4  10  21  38  58  87 123 158 198 245 299 357
#
# _framework density 18.873916999999999
#
# number of rings (size 3 to 8) (size 9 to 14) (size 15 to 20)
#    0.000    1.571    2.857    2.143    0.000    6.571 
#    0.000    0.714    0.000    4.286    0.000    0.000 
#    0.000    0.000    0.000    0.000    0.000    0.000 
#
# Total GULP energy -156225.725304 kJ/mol
# GULP energy per Si atom -5579.490189 kJ/mol
# Density = 1.883096 g / cm^3
# Si number density = 18.873917 Si / 1000 Ang^3
#
#
#
# Elastic Constant Matrix: (Units=GPa)
#
#
# Indices 1 2 3 4 5 6 
#
# 1 66.1316 38.8436 28.8933 0.0000 -9.7887 0.0000
# 2 38.8436 62.8614 43.8570 0.0000 -5.1223 0.0000
# 3 28.8933 43.8570 105.4626 0.0000 -14.6681 0.0000
# 4 0.0000 0.0000 0.0000 28.7324 0.0000 -4.1333
# 5 -9.7887 -5.1223 -14.6681 0.0000 30.0620 0.0000
# 6 0.0000 0.0000 0.0000 -4.1333 0.0000 28.4557
#
#
#
# Elastic Compliance Matrix: (Units=1/GPa)
#
#
# Indices 1 2 3 4 5 6 
#
# 1 0.024605 -0.014915 0.000239 0.000000 0.005587 0.000000
# 2 -0.014915 0.031468 -0.009580 0.000000 -0.004169 0.000000
# 3 0.000239 -0.009580 0.014144 0.000000 0.005347 0.000000
# 4 0.000000 0.000000 0.000000 0.035547 0.000000 0.005163
# 5 0.005587 -0.004169 0.005347 0.000000 0.036982 0.000000
# 6 0.000000 0.000000 0.000000 0.005163 0.000000 0.035892
#
#
# Mechanical properties :
#
#
# Convention : Reuss Voigt Hill
#
# Bulk Modulus (GPa) = 46.07321 50.84927 48.46124
# Shear Modulus (GPa) = 21.33236 25.64079 23.48658
#
# Velocity S-wave (km/s) = 3.36558 3.68982 3.53142
# Velocity P-wave (km/s) = 6.29022 6.71961 6.50845
#
# Compressibility (1/GPa) = 0.02170459
#
# Stress axis : x y z
#
# Youngs Moduli (GPa) = 40.64261 31.77802 70.70096
#
# Poissons Ratio (x) = 0.47397 -0.01687
# Poissons Ratio (y) = 0.60619 0.67730
# Poissons Ratio (z) = -0.00970 0.30443
#
# Static dielectric constant tensor:
#      x y z
#    x 1.640710 0.000000 -0.011760 
#    y 0.000000 1.658160 0.000000 
#    z -0.011760 0.000000 1.688150 
# 
# From -- ./inp_files/181012.got.cif
#   From: 2010.05.17/outbox.cif.g08.bks.cpg/sg12_91_cif.got.tgz:181012.got - 2010.06.03 13:09:07.
