data_PCOD9193604
_publ_section_title
;
Structure prediction by ZEFSAII (Michael W. Deem and Ramdas Pophale) SiO2 
 PCOD9193604
Probable space group: C 2/M
;
_chemical_formula_sum "Si O2"
_cell_formula_units_Z 56
_cell_length_a 19.822527
_cell_length_b 8.898205
_cell_length_c 30.858455
_cell_angle_alpha 90.000000
_cell_angle_beta 36.910833
_cell_angle_gamma 90.000000
_cell_volume 3268.889641
_symmetry_space_group_name_H-M "C 2/M"
_symmetry_group_IT_number 12
_symmetry_cell_setting 'monoclinic'
loop_
_space_group_symop_operation_xyz
x,y,z
-x,y,-z
-x,-y,-z
x,-y,z
1/2+x,1/2+y,z
1/2-x,1/2+y,-z
1/2-x,1/2-y,-z
1/2+x,1/2-y,z
loop_
_atom_site_type_symbol
_atom_site_label
_atom_site_fract_x
_atom_site_fract_y
_atom_site_fract_z
Si Si1 0.219985 0.181093 0.061299
Si Si2 0.670634 0.319399 0.227142
Si Si3 0.372384 0.182993 0.063665
Si Si4 0.767982 0.680670 0.345622
Si Si5 0.882171 0.321717 0.653346
Si Si6 0.575454 0.327629 0.505079
Si Si7 0.987365 0.180267 0.774000
O O1 0.310682 0.227701 0.051033
O O2 0.098237 0.222907 0.143316
O O3 0.222513 0.000000 0.057304
O O4 0.250000 0.250000 0.000000
O O5 0.672167 0.500000 0.232895
O O6 0.791037 0.273139 0.145017
O O7 0.643627 0.239289 0.285730
O O8 0.578786 0.288049 0.236835
O O9 0.373961 0.000000 0.063227
O O10 0.500000 0.236750 0.000000
O O11 0.762266 0.500000 0.345524
O O12 0.704544 0.749541 0.336643
O O13 0.696148 0.724376 0.425450
O O14 0.894620 0.737217 0.283447
O O15 0.872550 0.500000 0.656507
O O16 0.006636 0.270966 0.574223
O O17 0.500000 0.328894 0.500000
O O18 0.582293 0.500000 0.517151
O O19 0.004373 0.000000 0.767308
#
# Coordination Sequence:
#
# PCOD9193604 Si02
#       7
#     8   8   8   8   8   8   8
#     4   9  18  32  50  74 102 131 164 204 249 295
#     4   9  18  34  53  72 101 138 169 204 252 298
#     4   8  15  30  52  74  95 125 167 206 240 288
#     4  10  20  34  54  77 100 130 170 212 252 299
#     4  11  21  32  51  78 105 132 166 207 249 300
#     4   8  16  32  51  72  99 129 164 208 253 296
#     4   9  19  35  52  72 103 138 170 209 254 298
#
# _framework density 17.131198999999999
#
# number of rings (size 3 to 8) (size 9 to 14) (size 15 to 20)
#    0.000    2.857    0.000    4.286    0.000    5.429 
#    0.000    4.286    0.000    0.857    0.000    0.000 
#    0.000    0.000    0.000    0.000    0.000    0.000 
#
# Total GULP energy -156062.905946 kJ/mol
# GULP energy per Si atom -5573.675212 kJ/mol
# Density = 1.709221 g / cm^3
# Si number density = 17.131199 Si / 1000 Ang^3
#
#
#
# Elastic Constant Matrix: (Units=GPa)
#
#
# Indices 1 2 3 4 5 6 
#
# 1 68.7139 43.5597 99.3944 0.0000 -4.4515 0.0002
# 2 43.5597 53.7582 68.7140 -0.0001 2.2205 0.0006
# 3 99.3944 68.7140 197.4698 0.0000 -2.7361 0.0000
# 4 0.0000 -0.0001 0.0000 25.2400 0.0000 0.0661
# 5 -4.4515 2.2205 -2.7361 0.0000 33.5158 0.0000
# 6 0.0002 0.0006 0.0000 0.0661 0.0000 23.1229
#
#
#
# Elastic Compliance Matrix: (Units=1/GPa)
#
#
# Indices 1 2 3 4 5 6 
#
# 1 0.064526 -0.020232 -0.025330 0.000000 0.007843 0.000000
# 2 -0.020232 0.040188 -0.003879 0.000000 -0.005666 -0.000001
# 3 -0.025330 -0.003879 0.019142 0.000000 -0.001545 0.000000
# 4 0.000000 0.000000 0.000000 0.039620 0.000000 -0.000113
# 5 0.007843 -0.005666 -0.001545 0.000000 0.031128 0.000000
# 6 0.000000 -0.000001 0.000000 -0.000113 0.000000 0.043248
#
#
# Mechanical properties :
#
#
# Convention : Reuss Voigt Hill
#
# Bulk Modulus (GPa) = 40.04145 82.58644 61.31395
# Shear Modulus (GPa) = 14.49027 23.59399 19.04213
#
# Velocity S-wave (km/s) = 2.91149 3.71516 3.33760
# Velocity P-wave (km/s) = 5.89292 8.16799 7.12189
#
# Compressibility (1/GPa) = 0.02497412
#
# Stress axis : x y z
#
# Youngs Moduli (GPa) = 15.49753 24.88281 52.24127
#
# Poissons Ratio (x) = 0.50344 1.32326
# Poissons Ratio (y) = 0.31355 0.20265
# Poissons Ratio (z) = 0.39255 0.09652
#
# Static dielectric constant tensor:
#      x y z
#    x 1.556500 0.000000 -0.013340 
#    y 0.000000 1.571250 0.000000 
#    z -0.013340 0.000000 1.589390 
# 
# From -- ./inp_files/342280.got.cif
#   From: 2010.05.17/outbox.cif.g08.bks.cpg/sg12_172_cif.got.tgz:342280.got - 2010.06.03 13:09:07.
