data_PCOD9193400
_publ_section_title
;
Structure prediction by ZEFSAII (Michael W. Deem and Ramdas Pophale) SiO2 
 PCOD9193400
Probable space group: C 2/M
;
_chemical_formula_sum "Si O2"
_cell_formula_units_Z 40
_cell_length_a 15.098103
_cell_length_b 8.413441
_cell_length_c 20.567862
_cell_angle_alpha 90.000000
_cell_angle_beta 123.707390
_cell_angle_gamma 90.000000
_cell_volume 2173.437732
_symmetry_space_group_name_H-M "C 2/M"
_symmetry_group_IT_number 12
_symmetry_cell_setting 'monoclinic'
loop_
_space_group_symop_operation_xyz
x,y,z
-x,y,-z
-x,-y,-z
x,-y,z
1/2+x,1/2+y,z
1/2-x,1/2+y,-z
1/2-x,1/2-y,-z
1/2+x,1/2-y,z
loop_
_atom_site_type_symbol
_atom_site_label
_atom_site_fract_x
_atom_site_fract_y
_atom_site_fract_z
Si Si1 0.147935 0.310063 0.499804
Si Si2 0.089562 0.808297 0.617895
Si Si3 0.340380 0.691918 0.086152
Si Si4 0.778529 0.191162 0.203074
Si Si5 0.957581 0.191868 0.911620
O O1 0.148785 0.500000 0.498760
O O2 0.250000 0.250000 0.500000
O O3 0.143896 0.253047 0.573451
O O4 0.032896 0.249261 0.427221
O O5 0.156209 0.753157 0.707687
O O6 0.088320 0.000000 0.614587
O O7 0.336083 0.500000 0.084701
O O8 0.322947 0.750567 0.152064
O O9 0.453653 0.740135 0.103862
O O10 0.250000 0.750000 0.000000
O O11 0.655682 0.238708 0.152920
O O12 0.786382 0.000000 0.206146
O O13 0.949421 0.000000 0.909665
O O14 0.000000 0.242527 0.000000
#
# Coordination Sequence:
#
# PCOD9193400 Si02
#       5
#     8   8   8   8   8
#     4  11  22  39  64  91 118 153 191 233 290 352
#     4  10  21  39  59  87 122 154 194 242 289 346
#     4  10  20  35  53  76 106 144 188 234 283 332
#     4  10  22  37  56  82 114 149 189 237 287 337
#     4  10  20  34  53  78 108 146 193 239 284 334
#
# _framework density 18.404024
#
# number of rings (size 3 to 8) (size 9 to 14) (size 15 to 20)
#    0.000    1.800    2.000    3.600    0.000    4.400 
#    0.000    2.000    0.000    0.000    0.000    0.000 
#    0.000    0.000    0.000    0.000    0.000    0.000 
#
# Total GULP energy -111644.779825 kJ/mol
# GULP energy per Si atom -5582.238991 kJ/mol
# Density = 1.836214 g / cm^3
# Si number density = 18.404024 Si / 1000 Ang^3
#
#
#
# Elastic Constant Matrix: (Units=GPa)
#
#
# Indices 1 2 3 4 5 6 
#
# 1 201.0651 34.8344 110.5307 0.0000 -2.4459 0.0000
# 2 34.8344 51.1492 28.8148 0.0000 -3.2363 0.0000
# 3 110.5307 28.8148 198.3901 0.0000 -7.6210 0.0000
# 4 0.0000 0.0000 0.0000 26.6780 0.0000 6.4816
# 5 -2.4459 -3.2363 -7.6210 0.0000 17.3738 0.0000
# 6 0.0000 0.0000 0.0000 6.4816 0.0000 30.1928
#
#
#
# Elastic Compliance Matrix: (Units=1/GPa)
#
#
# Indices 1 2 3 4 5 6 
#
# 1 0.007601 -0.003093 -0.003831 0.000000 -0.001187 0.000000
# 2 -0.003093 0.022673 -0.001449 0.000000 0.003152 0.000000
# 3 -0.003831 -0.001449 0.007480 0.000000 0.002472 0.000000
# 4 0.000000 0.000000 0.000000 0.039547 0.000000 -0.008490
# 5 -0.001187 0.003152 0.002472 0.000000 0.059063 0.000000
# 6 0.000000 0.000000 0.000000 -0.008490 0.000000 0.034943
#
#
# Mechanical properties :
#
#
# Convention : Reuss Voigt Hill
#
# Bulk Modulus (GPa) = 47.60050 88.77382 68.18716
# Shear Modulus (GPa) = 25.63373 33.27721 29.45547
#
# Velocity S-wave (km/s) = 3.73612 4.25685 4.00495
# Velocity P-wave (km/s) = 6.67321 8.51480 7.64963
#
# Compressibility (1/GPa) = 0.02100818
#
# Stress axis : x y z
#
# Youngs Moduli (GPa) = 131.56006 44.10559 133.68266
#
# Poissons Ratio (x) = 0.13644 0.51216
# Poissons Ratio (y) = 0.40697 0.19364
# Poissons Ratio (z) = 0.50403 0.06389
#
# Static dielectric constant tensor:
#      x y z
#    x 1.616570 0.000000 -0.020740 
#    y 0.000000 1.642650 0.000000 
#    z -0.020740 0.000000 1.619100 
# 
# From -- ./inp_files/250237.got.cif
#   From: 2010.05.17/outbox.cif.g08.bks.cpg/sg12_126_cif.got.tgz:250237.got - 2010.06.03 13:09:07.
