data_PCOD9193772
_publ_section_title
;
Structure prediction by ZEFSAII (Michael W. Deem and Ramdas Pophale) SiO2 
 PCOD9193772
Probable space group: C 2/M
;
_chemical_formula_sum "Si O2"
_cell_formula_units_Z 58
_cell_length_a 29.184553
_cell_length_b 9.659424
_cell_length_c 24.903143
_cell_angle_alpha 90.000000
_cell_angle_beta 24.933604
_cell_angle_gamma 90.000000
_cell_volume 2959.550738
_symmetry_space_group_name_H-M "C 2/M"
_symmetry_group_IT_number 12
_symmetry_cell_setting 'monoclinic'
loop_
_space_group_symop_operation_xyz
x,y,z
-x,y,-z
-x,-y,-z
x,-y,z
1/2+x,1/2+y,z
1/2-x,1/2+y,-z
1/2-x,1/2-y,-z
1/2+x,1/2-y,z
loop_
_atom_site_type_symbol
_atom_site_label
_atom_site_fract_x
_atom_site_fract_y
_atom_site_fract_z
Si Si1 0.283670 0.839645 0.514820
Si Si2 0.458849 0.159943 0.741164
Si Si3 0.500000 0.000000 0.000000
Si Si4 0.207037 0.840413 0.709349
Si Si5 0.353700 0.661209 0.762591
Si Si6 0.726142 0.840109 0.248450
Si Si7 0.964137 0.236192 0.960875
Si Si8 0.889505 0.661019 0.930804
O O1 0.250000 0.750000 0.500000
O O2 0.413249 0.840584 0.383376
O O3 0.235947 0.778779 0.621062
O O4 0.246897 0.000000 0.547452
O O5 0.431233 0.256349 0.720467
O O6 0.402363 0.211369 0.856260
O O7 0.424084 0.000000 0.767502
O O8 0.466755 0.120768 0.991135
O O9 0.266963 0.782351 0.698085
O O10 0.077603 0.835261 0.854449
O O11 0.242252 0.000000 0.669353
O O12 0.382376 0.500000 0.724996
O O13 0.340415 0.742830 0.720800
O O14 0.234302 0.666521 0.917296
O O15 0.688353 0.000000 0.287622
O O16 0.852276 0.838557 0.095214
O O17 0.958774 0.261632 0.902526
O O18 0.924233 0.500000 0.893168
#
# Coordination Sequence:
#
# PCOD9193772 Si02
#       8
#     8   8   2   8   8   8   8   8
#     4  10  22  40  59  83 110 145 185 230 272 321
#     4  10  20  37  57  77 105 142 182 225 267 323
#     4  12  20  28  50  84 124 150 182 220 282 332
#     4  10  20  35  54  77 109 147 189 227 269 324
#     4  10  21  35  56  80 110 138 174 225 280 331
#     4  10  20  34  54  80 109 145 182 221 270 330
#     4  11  19  31  51  82 117 149 179 222 274 327
#     4   9  18  31  50  78 109 141 178 216 268 326
#
# _framework density 19.597569
#
# number of rings (size 3 to 8) (size 9 to 14) (size 15 to 20)
#    0.000    1.931    2.069    2.069    0.966    1.655 
#    1.241    4.138    0.000    4.138    0.000    0.000 
#    0.000    0.000    0.000    0.000    0.000    0.000 
#
# Total GULP energy -161530.190254 kJ/mol
# GULP energy per Si atom -5570.006560 kJ/mol
# Density = 1.955296 g / cm^3
# Si number density = 19.597569 Si / 1000 Ang^3
#
#
#
# Elastic Constant Matrix: (Units=GPa)
#
#
# Indices 1 2 3 4 5 6 
#
# 1 180.9716 73.2191 15.9279 0.0005 17.0318 0.0001
# 2 73.2191 89.8072 8.1636 0.0035 5.9266 0.0000
# 3 15.9279 8.1636 11.3122 0.0025 10.5861 0.0003
# 4 0.0005 0.0035 0.0025 9.5752 -0.0001 1.8209
# 5 17.0318 5.9266 10.5861 -0.0001 25.8981 -0.0001
# 6 0.0001 0.0000 0.0003 1.8209 -0.0001 22.5987
#
#
#
# Elastic Compliance Matrix: (Units=1/GPa)
#
#
# Indices 1 2 3 4 5 6 
#
# 1 0.008895 -0.006581 -0.006008 0.000004 -0.001888 0.000000
# 2 -0.006581 0.016812 -0.005371 -0.000005 0.002676 0.000001
# 3 -0.006008 -0.005371 0.155289 -0.000039 -0.058295 0.000000
# 4 0.000004 -0.000005 -0.000039 0.106062 0.000015 -0.008546
# 5 -0.001888 0.002676 -0.058295 0.000015 0.063071 0.000000
# 6 0.000000 0.000001 0.000000 -0.008546 0.000000 0.044939
#
#
# Mechanical properties :
#
#
# Convention : Reuss Voigt Hill
#
# Bulk Modulus (GPa) = 6.89294 52.96803 29.93049
# Shear Modulus (GPa) = 10.43088 23.93309 17.18199
#
# Velocity S-wave (km/s) = 2.30957 3.49840 2.96419
# Velocity P-wave (km/s) = 3.26144 6.58824 5.19817
#
# Compressibility (1/GPa) = 0.14507588
#
# Stress axis : x y z
#
# Youngs Moduli (GPa) = 112.42445 59.48076 6.43962
#
# Poissons Ratio (x) = 0.39145 0.03869
# Poissons Ratio (y) = 0.73989 0.03458
# Poissons Ratio (z) = 0.67547 0.31944
#
# Static dielectric constant tensor:
#      x y z
#    x 1.701310 0.000000 0.031930 
#    y 0.000000 1.681290 0.000000 
#    z 0.031930 0.000000 1.704630 
# 
# From -- ./inp_files/351394.got.cif
#   From: 2010.05.17/outbox.cif.g08.bks.cpg/sg12_176_cif.got.tgz:351394.got - 2010.06.03 13:09:07.
