data_PCOD9193414
_publ_section_title
;
Structure prediction by ZEFSAII (Michael W. Deem and Ramdas Pophale) SiO2 
 PCOD9193414
Probable space group: C 2/M
;
_chemical_formula_sum "Si O2"
_cell_formula_units_Z 64
_cell_length_a 20.535078
_cell_length_b 9.232227
_cell_length_c 23.575444
_cell_angle_alpha 90.000000
_cell_angle_beta 44.773420
_cell_angle_gamma 90.000000
_cell_volume 3147.918338
_symmetry_space_group_name_H-M "C 2/M"
_symmetry_group_IT_number 12
_symmetry_cell_setting 'monoclinic'
loop_
_space_group_symop_operation_xyz
x,y,z
-x,y,-z
-x,-y,-z
x,-y,z
1/2+x,1/2+y,z
1/2-x,1/2+y,-z
1/2-x,1/2-y,-z
1/2+x,1/2-y,z
loop_
_atom_site_type_symbol
_atom_site_label
_atom_site_fract_x
_atom_site_fract_y
_atom_site_fract_z
Si Si1 0.086551 0.337281 0.721088
Si Si2 0.111756 0.330601 0.092379
Si Si3 0.569434 0.665535 0.510044
Si Si4 0.012095 0.826785 0.059009
Si Si5 0.012402 0.666903 0.334120
Si Si6 0.806987 0.175922 0.189698
Si Si7 0.800469 0.323966 0.849678
Si Si8 0.237286 0.327810 0.349524
O O1 0.121572 0.500000 0.712724
O O2 0.063552 0.329031 0.668705
O O3 0.162331 0.220440 0.690566
O O4 0.987466 0.322940 0.813485
O O5 0.131311 0.500000 0.069066
O O6 0.183695 0.271986 0.095554
O O7 0.092030 0.246730 0.046407
O O8 0.500000 0.668462 0.500000
O O9 0.594387 0.500000 0.507331
O O10 0.518791 0.736519 0.594713
O O11 0.659491 0.752686 0.434836
O O12 0.910243 0.781628 0.143922
O O13 0.023835 0.000000 0.056867
O O14 0.000000 0.794116 0.000000
O O15 0.023754 0.500000 0.346074
O O16 0.107680 0.708922 0.243992
O O17 0.780132 0.225522 0.143089
O O18 0.736836 0.217680 0.283120
O O19 0.807284 0.000000 0.187084
O O20 0.795205 0.500000 0.857753
O O21 0.226693 0.500000 0.358355
#
# Coordination Sequence:
#
# PCOD9193414 Si02
#       8
#     8   8   8   8   8   8   8   8
#     4   9  18  33  53  78 105 133 166 214 271 315
#     4   9  17  32  55  79 104 137 172 213 262 311
#     4  11  24  38  50  70 104 140 171 215 277 323
#     4  10  20  34  53  78 110 143 172 211 262 313
#     4   9  18  34  55  76 100 134 177 219 262 314
#     4   9  17  31  52  79 104 132 177 221 257 307
#     4   8  15  30  54  79 102 133 177 223 261 301
#     4  11  21  33  55  79  99 134 181 222 257 305
#
# _framework density 20.330895000000002
#
# number of rings (size 3 to 8) (size 9 to 14) (size 15 to 20)
#    0.000    2.500    1.250    3.000    0.000    3.250 
#    0.000    2.500    0.000    2.250    0.000    0.000 
#    0.000    0.000    0.000    0.000    0.000    0.000 
#
# Total GULP energy -178492.249820 kJ/mol
# GULP energy per Si atom -5577.882807 kJ/mol
# Density = 2.028462 g / cm^3
# Si number density = 20.330895 Si / 1000 Ang^3
#
#
#
# Elastic Constant Matrix: (Units=GPa)
#
#
# Indices 1 2 3 4 5 6 
#
# 1 111.0704 22.7069 16.4154 0.0000 20.5983 -0.0001
# 2 22.7069 43.9149 25.9044 0.0000 14.8429 -0.0001
# 3 16.4154 25.9044 60.6356 0.0000 17.4456 0.0000
# 4 0.0000 0.0000 0.0000 14.7472 0.0000 8.8327
# 5 20.5983 14.8429 17.4456 0.0000 32.6773 0.0000
# 6 -0.0001 -0.0001 0.0000 8.8327 0.0000 23.5426
#
#
#
# Elastic Compliance Matrix: (Units=1/GPa)
#
#
# Indices 1 2 3 4 5 6 
#
# 1 0.010722 -0.003977 0.000261 0.000000 -0.005092 0.000000
# 2 -0.003977 0.033865 -0.011444 0.000000 -0.006766 0.000000
# 3 0.000261 -0.011444 0.023467 0.000000 -0.007495 0.000000
# 4 0.000000 0.000000 0.000000 0.087464 0.000000 -0.032815
# 5 -0.005092 -0.006766 -0.007495 0.000000 0.040886 0.000000
# 6 0.000000 0.000000 0.000000 -0.032815 0.000000 0.054788
#
#
# Mechanical properties :
#
#
# Convention : Reuss Voigt Hill
#
# Bulk Modulus (GPa) = 26.50168 38.40824 32.45496
# Shear Modulus (GPa) = 17.00160 24.23303 20.61732
#
# Velocity S-wave (km/s) = 2.89493 3.45618 3.18793
# Velocity P-wave (km/s) = 4.92317 5.90419 5.43586
#
# Compressibility (1/GPa) = 0.03773345
#
# Stress axis : x y z
#
# Youngs Moduli (GPa) = 93.26594 29.52877 42.61345
#
# Poissons Ratio (x) = 0.11744 -0.01114
# Poissons Ratio (y) = 0.37094 0.48769
# Poissons Ratio (z) = -0.02438 0.33794
#
# Static dielectric constant tensor:
#      x y z
#    x 1.748020 0.000000 0.001360 
#    y 0.000000 1.687370 0.000000 
#    z 0.001360 0.000000 1.754510 
# 
# From -- ./inp_files/346016.got.cif
#   From: 2010.05.17/outbox.cif.g08.bks.cpg/sg12_174_cif.got.tgz:346016.got - 2010.06.03 13:09:07.
