data_PCOD9193180
_publ_section_title
;
Structure prediction by ZEFSAII (Michael W. Deem and Ramdas Pophale) SiO2 
 PCOD9193180
Probable space group: C 2/M
;
_chemical_formula_sum "Si O2"
_cell_formula_units_Z 64
_cell_length_a 7.337320
_cell_length_b 27.595784
_cell_length_c 26.462453
_cell_angle_alpha 90.000000
_cell_angle_beta 35.489357
_cell_angle_gamma 90.000000
_cell_volume 3110.650458
_symmetry_space_group_name_H-M "C 2/M"
_symmetry_group_IT_number 12
_symmetry_cell_setting 'monoclinic'
loop_
_space_group_symop_operation_xyz
x,y,z
-x,y,-z
-x,-y,-z
x,-y,z
1/2+x,1/2+y,z
1/2-x,1/2+y,-z
1/2-x,1/2-y,-z
1/2+x,1/2-y,z
loop_
_atom_site_type_symbol
_atom_site_label
_atom_site_fract_x
_atom_site_fract_y
_atom_site_fract_z
Si Si1 0.270933 0.872890 0.334341
Si Si2 0.767022 0.359890 0.674070
Si Si3 0.637903 0.555766 0.284963
Si Si4 0.149698 0.646702 0.021797
Si Si5 0.876539 0.552654 0.910743
Si Si6 0.789801 0.807591 0.497809
Si Si7 0.634318 0.710170 0.168718
Si Si8 0.259237 0.180242 0.840636
O O1 0.501006 0.873714 0.331234
O O2 0.164500 0.924395 0.336204
O O3 0.461429 0.851532 0.243805
O O4 0.987091 0.836291 0.411181
O O5 0.587056 0.406968 0.694345
O O6 0.531777 0.318447 0.748265
O O7 0.970152 0.334950 0.584003
O O8 0.529296 0.500000 0.308236
O O9 0.970081 0.556395 0.179316
O O10 0.033737 0.599614 0.077731
O O11 0.993783 0.693448 0.082825
O O12 0.523756 0.653952 0.932516
O O13 0.000000 0.642343 0.000000
O O14 0.988045 0.500000 0.905861
O O15 0.500000 0.551771 0.000000
O O16 0.750000 0.750000 0.500000
O O17 0.000000 0.812537 0.500000
O O18 0.611993 0.767599 0.173132
O O19 0.457168 0.691536 0.159077
#
# Coordination Sequence:
#
# PCOD9193180 Si02
#       8
#     8   8   8   8   8   8   8   8
#     4  10  23  41  60  92 127 160 205 263 309 369
#     4  10  22  41  63  90 128 162 207 262 309 374
#     4  11  24  42  68  93 120 169 213 259 324 371
#     4  10  20  35  53  80 117 153 197 246 302 371
#     4  10  21  38  58  85 116 153 211 264 311 370
#     4  10  22  39  64  97 129 168 209 252 313 372
#     4  10  20  34  52  82 117 159 199 244 301 370
#     4  10  21  33  54  82 117 160 200 240 307 366
#
# _framework density 20.574475
#
# number of rings (size 3 to 8) (size 9 to 14) (size 15 to 20)
#    0.000    1.875    1.250    1.875    3.500    1.750 
#    0.000    1.250    0.000    2.250    0.000    0.000 
#    0.000    0.000    0.000    0.000    0.000    0.000 
#
# Total GULP energy -178634.925560 kJ/mol
# GULP energy per Si atom -5582.341424 kJ/mol
# Density = 2.052765 g / cm^3
# Si number density = 20.574475 Si / 1000 Ang^3
#
#
#
# Elastic Constant Matrix: (Units=GPa)
#
#
# Indices 1 2 3 4 5 6 
#
# 1 56.5332 27.3728 20.4542 0.0000 4.2632 0.0000
# 2 27.3728 134.8948 41.0463 0.0000 10.4758 0.0000
# 3 20.4542 41.0463 111.7303 -0.0001 5.6238 0.0000
# 4 0.0000 0.0000 -0.0001 28.8662 0.0000 7.4809
# 5 4.2632 10.4758 5.6238 0.0000 4.3168 0.0000
# 6 0.0000 0.0000 0.0000 7.4809 0.0000 29.1049
#
#
#
# Elastic Compliance Matrix: (Units=1/GPa)
#
#
# Indices 1 2 3 4 5 6 
#
# 1 0.020612 -0.002643 -0.002248 0.000000 -0.011013 0.000000
# 2 -0.002643 0.010116 -0.002277 0.000000 -0.018971 0.000000
# 3 -0.002248 -0.002277 0.010497 0.000000 -0.005928 0.000000
# 4 0.000000 0.000000 0.000000 0.037115 0.000000 -0.009540
# 5 -0.011013 -0.018971 -0.005928 0.000000 0.296288 0.000000
# 6 0.000000 0.000000 0.000000 -0.009540 0.000000 0.036811
#
#
# Mechanical properties :
#
#
# Convention : Reuss Voigt Hill
#
# Bulk Modulus (GPa) = 37.19242 53.43387 45.31314
# Shear Modulus (GPa) = 11.50117 26.74324 19.12220
#
# Velocity S-wave (km/s) = 2.36689 3.60922 3.05194
# Velocity P-wave (km/s) = 5.05824 6.58756 5.87289
#
# Compressibility (1/GPa) = 0.02688720
#
# Stress axis : x y z
#
# Youngs Moduli (GPa) = 48.51432 98.85504 95.26795
#
# Poissons Ratio (x) = 0.26131 0.21417
# Poissons Ratio (y) = 0.12824 0.21697
# Poissons Ratio (z) = 0.10906 0.22514
#
# Static dielectric constant tensor:
#      x y z
#    x 1.764910 0.000000 -0.008250 
#    y 0.000000 1.743910 0.000000 
#    z -0.008250 0.000000 1.759080 
# 
# From -- ./inp_files/373257.got.cif
#   From: 2010.05.17/outbox.cif.g08.bks.cpg/sg12_187_cif.got.tgz:373257.got - 2010.06.03 13:09:07.
