data_PCOD9193086
_publ_section_title
;
Structure prediction by ZEFSAII (Michael W. Deem and Ramdas Pophale) SiO2 
 PCOD9193086
Probable space group: C 2/M
;
_chemical_formula_sum "Si O2"
_cell_formula_units_Z 56
_cell_length_a 27.737948
_cell_length_b 7.461104
_cell_length_c 12.371987
_cell_angle_alpha 90.000000
_cell_angle_beta 123.165922
_cell_angle_gamma 90.000000
_cell_volume 2143.329541
_symmetry_space_group_name_H-M "C 2/M"
_symmetry_group_IT_number 12
_symmetry_cell_setting 'monoclinic'
loop_
_space_group_symop_operation_xyz
x,y,z
-x,y,-z
-x,-y,-z
x,-y,z
1/2+x,1/2+y,z
1/2-x,1/2+y,-z
1/2-x,1/2-y,-z
1/2+x,1/2-y,z
loop_
_atom_site_type_symbol
_atom_site_label
_atom_site_fract_x
_atom_site_fract_y
_atom_site_fract_z
Si Si1 0.114980 0.705453 0.542214
Si Si2 0.730944 0.797188 0.784474
Si Si3 0.912095 0.778722 0.878122
Si Si4 0.201670 0.804212 0.358165
Si Si5 0.066537 0.216780 0.700805
Si Si6 0.153320 0.781928 0.985305
Si Si7 0.530056 0.293089 0.257009
O O1 0.129740 0.500000 0.533016
O O2 0.171779 0.788717 0.668433
O O3 0.068982 0.712657 0.582796
O O4 0.087739 0.787324 0.401349
O O5 0.767320 0.813206 0.718639
O O6 0.781085 0.714218 0.920766
O O7 0.717451 0.000000 0.806227
O O8 0.857354 0.708591 0.741047
O O9 0.892143 0.728020 0.975122
O O10 0.962768 0.723743 0.856771
O O11 0.914562 0.000000 0.884336
O O12 0.250000 0.750000 0.500000
O O13 0.183194 0.000000 0.372006
O O14 0.017230 0.286761 0.720558
O O15 0.061082 0.000000 0.685554
O O16 0.125456 0.261005 0.836569
O O17 0.156914 0.000000 0.997259
O O18 0.512913 0.500000 0.221160
#
# Coordination Sequence:
#
# PCOD9193086 Si02
#       7
#     8   8   8   8   8   8   8
#     4  11  22  35  52  73  99 135 174 207 245 293
#     4   8  16  30  48  71  98 127 161 202 244 291
#     4   8  15  28  49  75 100 126 156 196 246 299
#     4   9  15  25  43  67  95 125 156 192 238 290
#     4  10  21  35  53  75 100 132 168 209 250 289
#     4   8  15  31  53  77 103 129 160 200 252 304
#     4  10  20  34  52  77 105 129 162 208 251 292
#
# _framework density 26.127576000000001
#
# number of rings (size 3 to 8) (size 9 to 14) (size 15 to 20)
#    0.000    2.857    0.000    3.429    0.000    3.429 
#    0.000    3.571    0.000    5.143    0.000    2.000 
#    0.000    0.000    0.000    0.000    0.000    0.000 
#
# Total GULP energy -156153.448716 kJ/mol
# GULP energy per Si atom -5576.908883 kJ/mol
# Density = 2.606811 g / cm^3
# Si number density = 26.127576 Si / 1000 Ang^3
#
#
#
# Elastic Constant Matrix: (Units=GPa)
#
#
# Indices 1 2 3 4 5 6 
#
# 1 92.4426 -3.1162 25.3795 0.0000 -9.7504 0.0000
# 2 -3.1162 76.2839 -3.4381 0.0000 0.3374 0.0000
# 3 25.3795 -3.4381 138.9806 0.0000 -16.0971 0.0000
# 4 0.0000 0.0000 0.0000 5.6784 0.0000 -0.6410
# 5 -9.7504 0.3374 -16.0971 0.0000 37.7191 0.0000
# 6 0.0000 0.0000 0.0000 -0.6410 0.0000 -19.8990
#
#
#
# Elastic Compliance Matrix: (Units=1/GPa)
#
#
# Indices 1 2 3 4 5 6 
#
# 1 0.011570 0.000380 -0.001849 0.000000 0.002198 0.000000
# 2 0.000380 0.013136 0.000267 0.000000 0.000094 0.000000
# 3 -0.001849 0.000267 0.007873 0.000000 0.002880 0.000000
# 4 0.000000 0.000000 0.000000 0.175469 0.000000 -0.005652
# 5 0.002198 0.000094 0.002880 0.000000 0.028308 0.000000
# 6 0.000000 0.000000 0.000000 -0.005652 0.000000 -0.050072
#
#
# Mechanical properties :
#
#
# Convention : Reuss Voigt Hill
#
# Bulk Modulus (GPa) = 33.14159 38.37305 35.75732
# Shear Modulus (GPa) = 25.15763 23.95850 24.55807
#
# Velocity S-wave (km/s) = 3.10639 3.03146 3.06915
# Velocity P-wave (km/s) = 5.05750 5.19342 5.12591
#
# Compressibility (1/GPa) = 0.03017356
#
# Stress axis : x y z
#
# Youngs Moduli (GPa) = 86.43223 76.12647 127.01681
#
# Poissons Ratio (x) = -0.02890 0.23482
# Poissons Ratio (y) = -0.03281 -0.03386
# Poissons Ratio (z) = 0.15979 -0.02029
#
# Static dielectric constant tensor:
#      x y z
#    x 2.192020 0.000000 0.213860 
#    y 0.000000 1.973320 0.000000 
#    z 0.213860 0.000000 2.268000 
# 
# From -- ./inp_files/187741.got.cif
#   From: 2010.05.17/outbox.cif.g08.bks.cpg/sg12_94_cif.got.tgz:187741.got - 2010.06.03 13:09:07.
