data_PCOD9193358
_publ_section_title
;
Structure prediction by ZEFSAII (Michael W. Deem and Ramdas Pophale) SiO2 
 PCOD9193358
Probable space group: C 2/M
;
_chemical_formula_sum "Si O2"
_cell_formula_units_Z 64
_cell_length_a 24.291160
_cell_length_b 7.760189
_cell_length_c 17.341529
_cell_angle_alpha 90.000000
_cell_angle_beta 81.541248
_cell_angle_gamma 90.000000
_cell_volume 3233.387900
_symmetry_space_group_name_H-M "C 2/M"
_symmetry_group_IT_number 12
_symmetry_cell_setting 'monoclinic'
loop_
_space_group_symop_operation_xyz
x,y,z
-x,y,-z
-x,-y,-z
x,-y,z
1/2+x,1/2+y,z
1/2-x,1/2+y,-z
1/2-x,1/2-y,-z
1/2+x,1/2-y,z
loop_
_atom_site_type_symbol
_atom_site_label
_atom_site_fract_x
_atom_site_fract_y
_atom_site_fract_z
Si Si1 0.100539 0.705364 0.684713
Si Si2 0.180827 0.708813 0.218092
Si Si3 0.441472 0.704503 0.726338
Si Si4 0.477212 0.200116 0.425788
Si Si5 0.481254 0.696716 0.162066
Si Si6 0.198658 0.207992 0.760751
Si Si7 0.883924 0.793664 0.086583
Si Si8 0.311878 0.795274 0.957972
O O1 0.089371 0.500000 0.693213
O O2 0.077342 0.768588 0.607446
O O3 0.064377 0.797591 0.758954
O O4 0.164201 0.737229 0.692981
O O5 0.181637 0.500000 0.217107
O O6 0.123592 0.765182 0.267790
O O7 0.238084 0.767688 0.245527
O O8 0.180694 0.773102 0.129829
O O9 0.453033 0.500000 0.722131
O O10 0.475515 0.787999 0.649620
O O11 0.465258 0.772168 0.804330
O O12 0.500000 0.280527 0.500000
O O13 0.464698 0.000000 0.445630
O O14 0.495766 0.500000 0.137682
O O15 0.445002 0.774308 0.099284
O O16 0.162575 0.269700 0.842365
O O17 0.198963 0.000000 0.763810
O O18 0.859479 0.761110 0.007600
O O19 0.887422 0.000000 0.095454
O O20 0.314392 0.000000 0.953461
O O21 0.250000 0.750000 0.000000
#
# Coordination Sequence:
#
# PCOD9193358 Si02
#       8
#     8   8   8   8   8   8   8   8
#     4   9  16  26  46  77 102 122 161 207 237 277
#     4  10  21  36  50  67  98 139 171 202 251 308
#     4  10  20  34  53  78 102 129 167 209 247 289
#     4   9  18  34  56  80 107 137 161 189 241 302
#     4   8  16  31  48  66  96 131 160 197 251 303
#     4   9  17  31  48  67  97 135 168 201 251 301
#     4   9  16  30  49  69  93 125 165 210 253 298
#     4  11  21  33  48  69  97 129 169 214 256 297
#
# _framework density 19.793481
#
# number of rings (size 3 to 8) (size 9 to 14) (size 15 to 20)
#    0.000    2.625    1.250    1.875    0.000    4.750 
#    0.000    0.625    0.000    4.500    0.000    0.000 
#    0.000    0.000    0.000    0.000    0.000    0.000 
#
# Total GULP energy -178308.134915 kJ/mol
# GULP energy per Si atom -5572.129216 kJ/mol
# Density = 1.974843 g / cm^3
# Si number density = 19.793481 Si / 1000 Ang^3
#
#
#
# Elastic Constant Matrix: (Units=GPa)
#
#
# Indices 1 2 3 4 5 6 
#
# 1 135.6719 -2.4281 46.6604 0.0000 36.1140 0.0000
# 2 -2.4281 35.3943 -4.9860 0.0000 3.4267 0.0000
# 3 46.6604 -4.9860 61.0026 0.0000 35.6302 0.0000
# 4 0.0000 0.0000 0.0000 11.7463 0.0000 4.3921
# 5 36.1140 3.4267 35.6302 0.0000 36.8090 0.0000
# 6 0.0000 0.0000 0.0000 4.3921 0.0000 14.0551
#
#
#
# Elastic Compliance Matrix: (Units=1/GPa)
#
#
# Indices 1 2 3 4 5 6 
#
# 1 0.010534 0.000689 -0.004434 0.000000 -0.006107 0.000000
# 2 0.000689 0.030838 0.009353 0.000000 -0.012601 0.000000
# 3 -0.004434 0.009353 0.042603 0.000000 -0.037759 0.000000
# 4 0.000000 0.000000 0.000000 0.096397 0.000000 -0.030123
# 5 -0.006107 -0.012601 -0.037759 0.000000 0.070882 0.000000
# 6 0.000000 0.000000 0.000000 -0.030123 0.000000 0.080562
#
#
# Mechanical properties :
#
#
# Convention : Reuss Voigt Hill
#
# Bulk Modulus (GPa) = 10.50515 34.50682 22.50598
# Shear Modulus (GPa) = 14.19134 25.37692 19.78413
#
# Velocity S-wave (km/s) = 2.68054 3.58451 3.16496
# Velocity P-wave (km/s) = 3.85996 5.88242 4.97504
#
# Compressibility (1/GPa) = 0.09519142
#
# Stress axis : x y z
#
# Youngs Moduli (GPa) = 94.93512 32.42762 23.47274
#
# Poissons Ratio (x) = -0.02235 0.10407
# Poissons Ratio (y) = -0.06544 -0.21954
# Poissons Ratio (z) = 0.42090 -0.30329
#
# Static dielectric constant tensor:
#      x y z
#    x 1.711580 0.000000 0.052230 
#    y 0.000000 1.802830 0.000000 
#    z 0.052230 0.000000 1.696730 
# 
# From -- ./inp_files/287610.got.cif
#   From: 2010.05.17/outbox.cif.g08.bks.cpg/sg12_144_cif.got.tgz:287610.got - 2010.06.03 13:09:07.
