data_PCOD9193003
_publ_section_title
;
Structure prediction by ZEFSAII (Michael W. Deem and Ramdas Pophale) SiO2 
 PCOD9193003
Probable space group: C 2/M
;
_chemical_formula_sum "Si O2"
_cell_formula_units_Z 56
_cell_length_a 16.875462
_cell_length_b 7.439406
_cell_length_c 19.908164
_cell_angle_alpha 90.000000
_cell_angle_beta 119.840267
_cell_angle_gamma 90.000000
_cell_volume 2167.966442
_symmetry_space_group_name_H-M "C 2/M"
_symmetry_group_IT_number 12
_symmetry_cell_setting 'monoclinic'
loop_
_space_group_symop_operation_xyz
x,y,z
-x,y,-z
-x,-y,-z
x,-y,z
1/2+x,1/2+y,z
1/2-x,1/2+y,-z
1/2-x,1/2-y,-z
1/2+x,1/2-y,z
loop_
_atom_site_type_symbol
_atom_site_label
_atom_site_fract_x
_atom_site_fract_y
_atom_site_fract_z
Si Si1 0.393722 0.785857 0.676757
Si Si2 0.782630 0.717669 0.759614
Si Si3 0.396826 0.714444 0.532095
Si Si4 0.721325 0.707437 0.094074
Si Si5 0.543564 0.796062 0.952198
Si Si6 0.428368 0.779720 0.183170
Si Si7 0.106008 0.780813 0.616817
O O1 0.337309 0.720392 0.717049
O O2 0.353730 0.753462 0.586006
O O3 0.498260 0.719845 0.730453
O O4 0.396030 0.000000 0.684507
O O5 0.785235 0.500000 0.762155
O O6 0.816446 0.781096 0.845806
O O7 0.678300 0.778409 0.702526
O O8 0.399607 0.500000 0.528403
O O9 0.361559 0.775299 0.444557
O O10 0.502094 0.780472 0.581055
O O11 0.725854 0.500000 0.075457
O O12 0.651561 0.800261 0.014274
O O13 0.823971 0.782400 0.142557
O O14 0.506598 0.000000 0.933361
O O15 0.500000 0.708357 0.000000
O O16 0.532925 0.722397 0.873308
O O17 0.425093 0.000000 0.182832
O O18 0.105295 0.000000 0.618097
#
# Coordination Sequence:
#
# PCOD9193003 Si02
#       7
#     8   8   8   8   8   8   8
#     4  10  20  34  52  75 103 134 170 213 257 303
#     4  10  20  35  54  74 100 138 179 212 249 307
#     4   9  17  32  53  75 102 135 171 214 260 305
#     4  11  22  35  53  78 107 134 165 213 261 297
#     4  10  20  37  60  80 102 137 174 204 244 304
#     4   9  19  35  53  75 104 136 170 208 252 301
#     4   8  16  32  53  75 100 135 177 214 251 302
#
# _framework density 25.830656000000001
#
# number of rings (size 3 to 8) (size 9 to 14) (size 15 to 20)
#    0.000    2.429    0.000    3.429    0.000    3.714 
#    0.000    4.286    0.000    0.000    0.000    0.000 
#    0.000    0.000    0.000    0.000    0.000    0.000 
#
# Total GULP energy -156567.678648 kJ/mol
# GULP energy per Si atom -5591.702809 kJ/mol
# Density = 2.577186 g / cm^3
# Si number density = 25.830656 Si / 1000 Ang^3
#
#
#
# Elastic Constant Matrix: (Units=GPa)
#
#
# Indices 1 2 3 4 5 6 
#
# 1 59.2484 -5.7764 -6.0317 0.0000 -16.0097 0.0000
# 2 -5.7764 83.8393 -9.1617 0.0000 5.1392 0.0000
# 3 -6.0317 -9.1617 123.7707 0.0000 -15.7613 0.0000
# 4 0.0000 0.0000 0.0000 11.8512 0.0000 -1.6483
# 5 -16.0097 5.1392 -15.7613 0.0000 47.2388 0.0000
# 6 0.0000 0.0000 0.0000 -1.6483 0.0000 4.1916
#
#
#
# Elastic Compliance Matrix: (Units=1/GPa)
#
#
# Indices 1 2 3 4 5 6 
#
# 1 0.019063 0.001093 0.001898 0.000000 0.006975 0.000000
# 2 0.001093 0.012138 0.000868 0.000000 -0.000661 0.000000
# 3 0.001898 0.000868 0.008675 0.000000 0.003443 0.000000
# 4 0.000000 0.000000 0.000000 0.089262 0.000000 0.035102
# 5 0.006975 -0.000661 0.003443 0.000000 0.024754 0.000000
# 6 0.000000 0.000000 0.000000 0.035102 0.000000 0.252379
#
#
# Mechanical properties :
#
#
# Convention : Reuss Voigt Hill
#
# Bulk Modulus (GPa) = 21.01130 24.99099 23.00115
# Shear Modulus (GPa) = 12.06516 31.84484 21.95500
#
# Velocity S-wave (km/s) = 2.16356 3.51498 2.91857
# Velocity P-wave (km/s) = 3.79384 5.11560 4.50348
#
# Compressibility (1/GPa) = 0.04759343
#
# Stress axis : x y z
#
# Youngs Moduli (GPa) = 52.45873 82.38450 115.27850
#
# Poissons Ratio (x) = -0.09007 -0.21881
# Poissons Ratio (y) = -0.05735 -0.10002
# Poissons Ratio (z) = -0.09957 -0.07148
#
# Static dielectric constant tensor:
#      x y z
#    x 2.107610 0.000000 -0.008110 
#    y 0.000000 2.007050 0.000000 
#    z -0.008110 0.000000 1.952450 
# 
# From -- ./inp_files/313683.got.cif
#   From: 2010.05.17/outbox.cif.g08.bks.cpg/sg12_157_cif.got.tgz:313683.got - 2010.06.03 13:09:07.
