data_PCOD9193422
_publ_section_title
;
Structure prediction by ZEFSAII (Michael W. Deem and Ramdas Pophale) SiO2 
 PCOD9193422
Probable space group: C 2/M
;
_chemical_formula_sum "Si O2"
_cell_formula_units_Z 56
_cell_length_a 33.110653
_cell_length_b 10.837726
_cell_length_c 10.778213
_cell_angle_alpha 90.000000
_cell_angle_beta 49.196848
_cell_angle_gamma 90.000000
_cell_volume 2927.690030
_symmetry_space_group_name_H-M "C 2/M"
_symmetry_group_IT_number 12
_symmetry_cell_setting 'monoclinic'
loop_
_space_group_symop_operation_xyz
x,y,z
-x,y,-z
-x,-y,-z
x,-y,z
1/2+x,1/2+y,z
1/2-x,1/2+y,-z
1/2-x,1/2-y,-z
1/2+x,1/2-y,z
loop_
_atom_site_type_symbol
_atom_site_label
_atom_site_fract_x
_atom_site_fract_y
_atom_site_fract_z
Si Si1 0.397318 0.862677 0.897111
Si Si2 0.682005 0.642514 0.562803
Si Si3 0.000251 0.363795 0.147030
Si Si4 0.400150 0.365520 0.717948
Si Si5 0.790600 0.732575 0.234067
Si Si6 0.774860 0.134074 0.020558
Si Si7 0.075083 0.142625 0.621693
O O1 0.439600 0.856891 0.923553
O O2 0.414349 0.753590 0.770035
O O3 0.400012 0.000000 0.835745
O O4 0.337909 0.839717 0.069128
O O5 0.678245 0.500000 0.606864
O O6 0.736072 0.661675 0.375110
O O7 0.687076 0.720121 0.678989
O O8 0.630206 0.671154 0.583953
O O9 0.979041 0.500000 0.229583
O O10 0.967177 0.247108 0.259975
O O11 0.000000 0.360834 0.000000
O O12 0.420468 0.500000 0.723917
O O13 0.336137 0.370427 0.855162
O O14 0.415932 0.353199 0.543731
O O15 0.775145 0.839751 0.167361
O O16 0.750020 0.000000 0.042726
O O17 0.750000 0.250000 0.000000
O O18 0.059995 0.000000 0.683539
#
# Coordination Sequence:
#
# PCOD9193422 Si02
#       7
#     8   8   8   8   8   8   8
#     4  10  21  37  59  84 110 145 188 228 273 330
#     4  10  20  35  56  82 113 147 184 228 276 330
#     4  10  22  40  59  82 113 146 182 228 277 325
#     4   9  20  37  55  79 112 145 180 227 278 324
#     4  10  20  35  56  82 113 146 183 228 279 329
#     4  10  20  34  53  78 110 148 186 226 273 325
#     4  10  21  38  59  84 112 145 186 227 272 327
#
# _framework density 19.127708999999999
#
# number of rings (size 3 to 8) (size 9 to 14) (size 15 to 20)
#    0.000    2.143    0.000    2.571    0.000    6.571 
#    0.000    7.857    0.000    0.000    0.000    0.000 
#    0.000    0.000    0.000    0.000    0.000    0.000 
#
# Total GULP energy -156154.955429 kJ/mol
# GULP energy per Si atom -5576.962694 kJ/mol
# Density = 1.908417 g / cm^3
# Si number density = 19.127709 Si / 1000 Ang^3
#
#
#
# Elastic Constant Matrix: (Units=GPa)
#
#
# Indices 1 2 3 4 5 6 
#
# 1 57.4417 45.6938 9.1126 0.0000 3.6809 0.0000
# 2 45.6938 134.9361 33.3853 0.0000 13.3068 0.0000
# 3 9.1126 33.3853 52.7857 0.0000 11.3067 0.0000
# 4 0.0000 0.0000 0.0000 -242.6319 0.0000 25.3986
# 5 3.6809 13.3068 11.3067 0.0000 19.4154 0.0000
# 6 0.0000 0.0000 0.0000 25.3986 0.0000 26.9933
#
#
#
# Elastic Compliance Matrix: (Units=1/GPa)
#
#
# Indices 1 2 3 4 5 6 
#
# 1 0.023895 -0.008416 0.001066 0.000000 0.000618 0.000000
# 2 -0.008416 0.011926 -0.005348 0.000000 -0.003464 0.000000
# 3 0.001066 -0.005348 0.024451 0.000000 -0.010776 0.000000
# 4 0.000000 0.000000 0.000000 -0.003752 0.000000 0.003530
# 5 0.000618 -0.003464 -0.010776 0.000000 0.060038 0.000000
# 6 0.000000 0.000000 0.000000 0.003530 0.000000 0.033725
#
#
# Mechanical properties :
#
#
# Convention : Reuss Voigt Hill
#
# Bulk Modulus (GPa) = 28.67367 46.83857 37.75612
# Shear Modulus (GPa) = 26.69452 -28.77986 -1.04267
#
# Velocity S-wave (km/s) = 3.73982 -3.88315 -0.73912
# Velocity P-wave (km/s) = 5.80272 2.10602 4.36502
#
# Compressibility (1/GPa) = 0.03487520
#
# Stress axis : x y z
#
# Youngs Moduli (GPa) = 41.84913 83.85302 40.89799
#
# Poissons Ratio (x) = 0.70573 -0.04358
# Poissons Ratio (y) = 0.35221 0.21871
# Poissons Ratio (z) = -0.04459 0.44842
#
# Static dielectric constant tensor:
#      x y z
#    x 1.656630 0.000000 0.007910 
#    y 0.000000 1.706600 0.000000 
#    z 0.007910 0.000000 1.639850 
# 
# From -- ./inp_files/110326.got.cif
#   From: 2010.05.17/outbox.cif.g08.bks.cpg/sg12_56_cif.got.tgz:110326.got - 2010.06.03 13:09:07.
