data_PCOD9193840
_publ_section_title
;
Structure prediction by ZEFSAII (Michael W. Deem and Ramdas Pophale) SiO2 
 PCOD9193840
Probable space group: C 2/M
;
_chemical_formula_sum "Si O2"
_cell_formula_units_Z 52
_cell_length_a 12.673500
_cell_length_b 11.988193
_cell_length_c 20.032173
_cell_angle_alpha 90.000000
_cell_angle_beta 116.825841
_cell_angle_gamma 90.000000
_cell_volume 2715.997355
_symmetry_space_group_name_H-M "C 2/M"
_symmetry_group_IT_number 12
_symmetry_cell_setting 'monoclinic'
loop_
_space_group_symop_operation_xyz
x,y,z
-x,y,-z
-x,-y,-z
x,-y,z
1/2+x,1/2+y,z
1/2-x,1/2+y,-z
1/2-x,1/2-y,-z
1/2+x,1/2-y,z
loop_
_atom_site_type_symbol
_atom_site_label
_atom_site_fract_x
_atom_site_fract_y
_atom_site_fract_z
Si Si1 0.055631 0.370987 0.762707
Si Si2 0.669195 0.215958 0.377692
Si Si3 0.607549 0.370982 0.482872
Si Si4 0.514191 0.690111 0.861250
Si Si5 0.744248 0.122112 0.029215
Si Si6 0.231422 0.128413 0.273388
Si Si7 0.500000 0.201719 0.000000
O O1 0.071485 0.500000 0.783487
O O2 0.168571 0.334772 0.750847
O O3 0.937349 0.352562 0.685531
O O4 0.040038 0.300008 0.824992
O O5 0.616411 0.295623 0.419952
O O6 0.770998 0.143753 0.441406
O O7 0.726374 0.292451 0.336181
O O8 0.500000 0.336112 0.500000
O O9 0.590167 0.500000 0.459551
O O10 0.635797 0.621770 0.893774
O O11 0.397691 0.634879 0.797472
O O12 0.491473 0.722499 0.931519
O O13 0.618842 0.129449 0.029929
O O14 0.745284 0.000000 0.992230
O O15 0.750000 0.250000 0.000000
O O16 0.257019 0.000000 0.299358
#
# Coordination Sequence:
#
# PCOD9193840 Si02
#       7
#     8   8   8   8   8   8   4
#     4  10  21  36  55  79 108 143 183 227 273 324
#     4  10  20  35  55  79 109 143 180 220 265 319
#     4  10  20  34  54  81 111 142 177 219 266 316
#     4  10  21  37  56  81 109 142 183 230 281 334
#     4  10  21  37  56  80 109 141 179 225 277 334
#     4  10  20  36  56  78 107 143 182 223 270 324
#     4  10  21  38  59  82 111 146 185 232 287 344
#
# _framework density 19.145821999999999
#
# number of rings (size 3 to 8) (size 9 to 14) (size 15 to 20)
#    0.000    2.000    0.000    3.462    0.000    3.077 
#    0.000   12.692    0.000   17.538    0.000    0.000 
#    0.000    0.000    0.000    0.000    0.000    0.000 
#
# Total GULP energy -144926.803265 kJ/mol
# GULP energy per Si atom -5574.107818 kJ/mol
# Density = 1.910224 g / cm^3
# Si number density = 19.145822 Si / 1000 Ang^3
#
#
#
# Elastic Constant Matrix: (Units=GPa)
#
#
# Indices 1 2 3 4 5 6 
#
# 1 104.9636 28.4113 13.4015 0.0000 -4.0036 0.0000
# 2 28.4113 79.5244 13.1926 0.0000 -12.9699 0.0000
# 3 13.4015 13.1926 56.6741 0.0000 -5.7495 0.0000
# 4 0.0000 0.0000 0.0000 4.6206 0.0000 -6.3935
# 5 -4.0036 -12.9699 -5.7495 0.0000 32.4809 0.0000
# 6 0.0000 0.0000 0.0000 -6.3935 0.0000 104.8487
#
#
#
# Elastic Compliance Matrix: (Units=1/GPa)
#
#
# Indices 1 2 3 4 5 6 
#
# 1 0.010709 -0.003608 -0.001736 0.000000 -0.000428 0.000000
# 2 -0.003608 0.015064 -0.002126 0.000000 0.005194 0.000000
# 3 -0.001736 -0.002126 0.018780 0.000000 0.002261 0.000000
# 4 0.000000 0.000000 0.000000 0.236368 0.000000 0.014413
# 5 -0.000428 0.005194 0.002261 0.000000 0.033209 0.000000
# 6 0.000000 0.000000 0.000000 0.014413 0.000000 0.010416
#
#
# Mechanical properties :
#
#
# Convention : Reuss Voigt Hill
#
# Bulk Modulus (GPa) = 33.77025 39.01921 36.39473
# Shear Modulus (GPa) = 14.31205 40.80048 27.55626
#
# Velocity S-wave (km/s) = 2.73706 4.62133 3.79790
# Velocity P-wave (km/s) = 5.25979 6.99284 6.18729
#
# Compressibility (1/GPa) = 0.02961187
#
# Stress axis : x y z
#
# Youngs Moduli (GPa) = 93.37975 66.38539 53.24925
#
# Poissons Ratio (x) = 0.23950 0.09243
# Poissons Ratio (y) = 0.33689 0.11323
# Poissons Ratio (z) = 0.16210 0.14117
#
# Static dielectric constant tensor:
#      x y z
#    x 1.658240 0.000000 0.007290 
#    y 0.000000 1.674040 0.000000 
#    z 0.007290 0.000000 1.646300 
# 
# From -- ./inp_files/304828.got.cif
#   From: 2010.05.17/outbox.cif.g08.bks.cpg/sg12_153_cif.got.tgz:304828.got - 2010.06.03 13:09:07.
