data_PCOD9193256
_publ_section_title
;
Structure prediction by ZEFSAII (Michael W. Deem and Ramdas Pophale) SiO2 
 PCOD9193256
Probable space group: C 2/M
;
_chemical_formula_sum "Si O2"
_cell_formula_units_Z 64
_cell_length_a 21.306660
_cell_length_b 23.647964
_cell_length_c 8.800953
_cell_angle_alpha 90.000000
_cell_angle_beta 65.602734
_cell_angle_gamma 90.000000
_cell_volume 4038.459925
_symmetry_space_group_name_H-M "C 2/M"
_symmetry_group_IT_number 12
_symmetry_cell_setting 'monoclinic'
loop_
_space_group_symop_operation_xyz
x,y,z
-x,y,-z
-x,-y,-z
x,-y,z
1/2+x,1/2+y,z
1/2-x,1/2+y,-z
1/2-x,1/2-y,-z
1/2+x,1/2-y,z
loop_
_atom_site_type_symbol
_atom_site_label
_atom_site_fract_x
_atom_site_fract_y
_atom_site_fract_z
Si Si1 0.638179 0.066234 0.043023
Si Si2 0.356804 0.725632 0.462073
Si Si3 0.500000 0.245151 0.818712
Si Si4 0.356804 0.725632 0.824319
Si Si5 0.768898 0.660923 0.549896
Si Si6 0.768898 0.339077 0.912307
Si Si7 0.138179 0.566234 0.680619
Si Si8 0.000000 0.381169 0.681827
O O1 0.631650 0.074350 0.868350
O O2 0.649350 0.000000 0.061853
O O3 0.699106 0.105284 0.045645
O O4 0.567837 0.086809 0.192216
O O5 0.430911 0.724950 0.309819
O O6 0.363170 0.719438 0.636830
O O7 0.303421 0.680241 0.448803
O O8 0.321982 0.787120 0.466815
O O9 0.430911 0.275050 0.828359
O O10 0.500000 0.181959 0.749361
O O11 0.500000 0.241802 0.000000
O O12 0.321982 0.787120 0.889221
O O13 0.303421 0.680241 0.944354
O O14 0.763030 0.654859 0.736970
O O15 0.800894 0.605284 0.443858
O O16 0.149350 0.500000 0.639447
O O17 0.067837 0.586809 0.672111
O O18 0.000000 0.377746 0.500000
#
# Coordination Sequence:
#
# PCOD9193256 Si02
#       8
#     8   8   8   8   8   8   8   8
#     4  11  23  37  53  74 103 141 181 219 260 306
#     4  10  20  34  53  76 105 136 171 214 262 313
#     4  12  22  33  53  78 107 140 174 213 260 313
#     4  10  20  34  53  76 105 136 171 214 262 313
#     4  10  20  34  53  76 103 136 174 216 261 308
#     4  10  20  34  53  76 103 136 174 216 261 308
#     4  11  23  37  53  74 103 141 181 219 260 306
#     4  12  23  35  50  73 104 141 181 219 258 303
#
# _framework density 15.847626
#
# number of rings (size 3 to 8) (size 9 to 14) (size 15 to 20)
#    0.000    1.250    2.500    4.875    0.000    5.500 
#    0.000    0.000    0.000    0.000    0.000    0.875 
#    0.000    7.000    0.000    0.000    0.000    0.000 
#
# Total GULP energy -178856.696284 kJ/mol
# GULP energy per Si atom -5589.271759 kJ/mol
# Density = 1.581156 g / cm^3
# Si number density = 15.847626 Si / 1000 Ang^3
#
#
#
# Elastic Constant Matrix: (Units=GPa)
#
#
# Indices 1 2 3 4 5 6 
#
# 1 150.8747 73.6561 79.9213 0.0000 -5.0777 0.0000
# 2 73.6561 91.2162 63.5278 0.0000 -7.3635 0.0000
# 3 79.9213 63.5278 123.4103 0.0000 -14.8897 0.0000
# 4 0.0000 0.0000 0.0000 22.5660 0.0000 3.5189
# 5 -5.0777 -7.3635 -14.8897 0.0000 24.8510 0.0000
# 6 0.0000 0.0000 0.0000 3.5189 0.0000 17.7258
#
#
#
# Elastic Compliance Matrix: (Units=1/GPa)
#
#
# Indices 1 2 3 4 5 6 
#
# 1 0.012467 -0.006916 -0.004801 0.000000 -0.002378 0.000000
# 2 -0.006916 0.020927 -0.006162 0.000000 0.001096 0.000000
# 3 -0.004801 -0.006162 0.015140 0.000000 0.006264 0.000000
# 4 0.000000 0.000000 0.000000 0.045730 0.000000 -0.009078
# 5 -0.002378 0.001096 0.006264 0.000000 0.043832 0.000000
# 6 0.000000 0.000000 0.000000 -0.009078 0.000000 0.058217
#
#
# Mechanical properties :
#
#
# Convention : Reuss Voigt Hill
#
# Bulk Modulus (GPa) = 78.26163 88.85683 83.55923
# Shear Modulus (GPa) = 21.15694 22.92165 22.03929
#
# Velocity S-wave (km/s) = 3.65776 3.80725 3.73325
# Velocity P-wave (km/s) = 8.20548 8.69012 8.45127
#
# Compressibility (1/GPa) = 0.01277765
#
# Stress axis : x y z
#
# Youngs Moduli (GPa) = 80.21033 47.78495 66.05071
#
# Poissons Ratio (x) = 0.33046 0.31710
# Poissons Ratio (y) = 0.55470 0.40699
# Poissons Ratio (z) = 0.38508 0.29444
#
# Static dielectric constant tensor:
#      x y z
#    x 1.517150 0.000000 0.003510 
#    y 0.000000 1.505450 0.000000 
#    z 0.003510 0.000000 1.521980 
# 
# From -- ./inp_files/89571.got.cif
#   From: 2010.05.17/outbox.cif.g08.bks.cpg/sg12_45_cif.got.tgz:89571.got - 2010.06.03 13:09:07.
