data_PCOD9193694
_publ_section_title
;
Structure prediction by ZEFSAII (Michael W. Deem and Ramdas Pophale) SiO2 
 PCOD9193694
Probable space group: C 2/M
;
_chemical_formula_sum "Si O2"
_cell_formula_units_Z 44
_cell_length_a 31.830074
_cell_length_b 12.899890
_cell_length_c 18.693541
_cell_angle_alpha 90.000000
_cell_angle_beta 18.365612
_cell_angle_gamma 90.000000
_cell_volume 2418.440184
_symmetry_space_group_name_H-M "C 2/M"
_symmetry_group_IT_number 12
_symmetry_cell_setting 'monoclinic'
loop_
_space_group_symop_operation_xyz
x,y,z
-x,y,-z
-x,-y,-z
x,-y,z
1/2+x,1/2+y,z
1/2-x,1/2+y,-z
1/2-x,1/2-y,-z
1/2+x,1/2-y,z
loop_
_atom_site_type_symbol
_atom_site_label
_atom_site_fract_x
_atom_site_fract_y
_atom_site_fract_z
Si Si1 0.500000 0.768064 0.500000
Si Si2 0.710048 0.118097 0.629416
Si Si3 0.239237 0.121252 0.149746
Si Si4 0.523264 0.121659 0.614285
Si Si5 0.738181 0.769660 0.735590
Si Si6 0.536654 0.692776 0.861015
O O1 0.629141 0.693761 0.290647
O O2 0.492279 0.837729 0.441636
O O3 0.732790 0.164547 0.671536
O O4 0.602862 0.193294 0.765117
O O5 0.848971 0.127632 0.362088
O O6 0.665367 0.000000 0.703946
O O7 0.247595 0.157478 0.218522
O O8 0.203332 0.000000 0.202762
O O9 0.383211 0.135722 0.880992
O O10 0.638709 0.190277 0.463582
O O11 0.557183 0.000000 0.560593
O O12 0.599348 0.706496 0.962651
O O13 0.500000 0.654302 0.000000
#
# Coordination Sequence:
#
# PCOD9193694 Si02
#       6
#     4   8   8   8   8   8
#     4  10  20  36  56  78 106 136 172 214 256 308
#     4  10  20  35  55  77 103 138 177 215 257 305
#     4  10  20  34  54  79 106 137 172 213 260 307
#     4  10  21  36  55  78 105 138 173 211 258 310
#     4  10  20  35  53  77 107 137 173 216 258 306
#     4   9  20  36  52  76 107 137 174 217 258 303
#
# _framework density 18.193545
#
# number of rings (size 3 to 8) (size 9 to 14) (size 15 to 20)
#    0.000    2.182    0.000    2.727    0.000    5.091 
#    0.000   10.909    0.000   12.000    0.000    0.000 
#    0.000    0.000    0.000    0.000    0.000    0.000 
#
# Total GULP energy -122848.562477 kJ/mol
# GULP energy per Si atom -5584.025567 kJ/mol
# Density = 1.815214 g / cm^3
# Si number density = 18.193545 Si / 1000 Ang^3
#
#
#
# Elastic Constant Matrix: (Units=GPa)
#
#
# Indices 1 2 3 4 5 6 
#
# 1 31.1201 21.4983 8.7434 0.0000 -8.0706 0.0000
# 2 21.4983 104.6961 34.5375 0.0000 -1.0207 0.0000
# 3 8.7434 34.5375 87.1664 -0.0001 2.8834 -0.0001
# 4 0.0000 0.0000 -0.0001 -24.7824 0.0000 -14.3821
# 5 -8.0706 -1.0207 2.8834 0.0000 26.1860 0.0000
# 6 0.0000 0.0000 -0.0001 -14.3821 0.0000 8.8959
#
#
#
# Elastic Compliance Matrix: (Units=1/GPa)
#
#
# Indices 1 2 3 4 5 6 
#
# 1 0.041230 -0.007871 -0.001432 0.000000 0.012558 0.000000
# 2 -0.007871 0.012512 -0.004119 0.000000 -0.001485 0.000000
# 3 -0.001432 -0.004119 0.013316 0.000000 -0.002068 0.000000
# 4 0.000000 0.000000 0.000000 -0.020818 0.000000 -0.033658
# 5 0.012558 -0.001485 -0.002068 0.000000 0.042229 0.000000
# 6 0.000000 0.000000 0.000000 -0.033658 0.000000 0.057997
#
#
# Mechanical properties :
#
#
# Convention : Reuss Voigt Hill
#
# Bulk Modulus (GPa) = 24.86708 39.17122 32.01915
# Shear Modulus (GPa) = 26.77867 12.60678 19.69272
#
# Velocity S-wave (km/s) = 3.84067 2.63520 3.29356
# Velocity P-wave (km/s) = 5.77628 5.55303 5.66575
#
# Compressibility (1/GPa) = 0.04021380
#
# Stress axis : x y z
#
# Youngs Moduli (GPa) = 24.25390 79.92301 75.09520
#
# Poissons Ratio (x) = 0.62910 0.10756
# Poissons Ratio (y) = 0.19091 0.30931
# Poissons Ratio (z) = 0.03474 0.32920
#
# Static dielectric constant tensor:
#      x y z
#    x 1.601770 0.000000 0.005520 
#    y 0.000000 1.598120 0.000000 
#    z 0.005520 0.000000 1.618400 
# 
# From -- ./inp_files/262033.got.cif
#   From: 2010.05.17/outbox.cif.g08.bks.cpg/sg12_132_cif.got.tgz:262033.got - 2010.06.03 13:09:07.
