data_PCOD9193070
_publ_section_title
;
Structure prediction by ZEFSAII (Michael W. Deem and Ramdas Pophale) SiO2 
 PCOD9193070
Probable space group: C 2/M
;
_chemical_formula_sum "Si O2"
_cell_formula_units_Z 56
_cell_length_a 28.424068
_cell_length_b 7.564482
_cell_length_c 17.934224
_cell_angle_alpha 90.000000
_cell_angle_beta 38.595362
_cell_angle_gamma 90.000000
_cell_volume 2405.496657
_symmetry_space_group_name_H-M "C 2/M"
_symmetry_group_IT_number 12
_symmetry_cell_setting 'monoclinic'
loop_
_space_group_symop_operation_xyz
x,y,z
-x,y,-z
-x,-y,-z
x,-y,z
1/2+x,1/2+y,z
1/2-x,1/2+y,-z
1/2-x,1/2-y,-z
1/2+x,1/2-y,z
loop_
_atom_site_type_symbol
_atom_site_label
_atom_site_fract_x
_atom_site_fract_y
_atom_site_fract_z
Si Si1 0.921685 0.217310 0.375808
Si Si2 0.217429 0.801931 0.370930
Si Si3 0.693262 0.711183 0.001962
Si Si4 0.489430 0.283915 0.134695
Si Si5 0.930534 0.213722 0.735306
Si Si6 0.819439 0.708339 0.738615
Si Si7 0.386528 0.291694 0.123945
O O1 0.838118 0.282039 0.499523
O O2 0.955294 0.275696 0.255144
O O3 0.983554 0.269445 0.361150
O O4 0.918735 0.000000 0.379585
O O5 0.169570 0.800102 0.353601
O O6 0.298440 0.728548 0.247792
O O7 0.233390 0.000000 0.376122
O O8 0.685798 0.500000 0.999819
O O9 0.741155 0.778079 0.872602
O O10 0.750000 0.750000 0.000000
O O11 0.614813 0.774444 0.133914
O O12 0.489929 0.500000 0.139817
O O13 0.433442 0.227414 0.137447
O O14 0.572656 0.226637 0.002620
O O15 0.885250 0.270701 0.718087
O O16 0.927590 0.000000 0.739181
O O17 0.810550 0.500000 0.735159
O O18 0.400417 0.500000 0.104812
#
# Coordination Sequence:
#
# PCOD9193070 Si02
#       7
#     8   8   8   8   8   8   8
#     4   9  19  34  54  79 110 147 186 221 262 322
#     4  11  23  36  51  78 113 150 185 220 266 324
#     4   8  15  27  47  73  96 124 167 218 269 310
#     4   8  16  34  61  88 109 136 179 224 269 324
#     4   9  17  32  54  77 102 139 183 229 269 316
#     4  10  20  34  52  76 107 144 182 229 276 319
#     4   9  18  35  62  89 109 135 176 227 275 322
#
# _framework density 23.280016
#
# number of rings (size 3 to 8) (size 9 to 14) (size 15 to 20)
#    0.000    2.857    0.000    1.714    2.000    1.714 
#    0.000    5.714    0.000    3.429    0.000    0.000 
#    0.000    0.000    0.000    0.000    0.000    0.000 
#
# Total GULP energy -156142.263142 kJ/mol
# GULP energy per Si atom -5576.509398 kJ/mol
# Density = 2.322703 g / cm^3
# Si number density = 23.280016 Si / 1000 Ang^3
#
#
#
# Elastic Constant Matrix: (Units=GPa)
#
#
# Indices 1 2 3 4 5 6 
#
# 1 69.9820 -5.0296 64.8143 -0.0063 -8.4396 0.0124
# 2 -5.0296 50.9745 -0.0369 -0.0068 -2.4436 0.0135
# 3 64.8143 -0.0369 184.6400 -0.0079 -15.9686 0.0154
# 4 -0.0063 -0.0068 -0.0079 9.6625 0.0072 -3.5769
# 5 -8.4396 -2.4436 -15.9686 0.0072 23.2297 -0.0095
# 6 0.0124 0.0135 0.0154 -3.5769 -0.0095 3.7437
#
#
#
# Elastic Compliance Matrix: (Units=1/GPa)
#
#
# Indices 1 2 3 4 5 6 
#
# 1 0.021598 0.002272 -0.007317 -0.000012 0.003056 -0.000054
# 2 0.002272 0.019963 -0.000575 -0.000020 0.002530 -0.000090
# 3 -0.007317 -0.000575 0.008239 -0.000001 0.002945 -0.000001
# 4 -0.000012 -0.000020 -0.000001 0.160128 0.000006 0.152993
# 5 0.003056 0.002530 0.002945 0.000006 0.046449 0.000092
# 6 -0.000054 -0.000090 -0.000001 0.152993 0.000092 0.413294
#
#
# Mechanical properties :
#
#
# Convention : Reuss Voigt Hill
#
# Bulk Modulus (GPa) = 25.93307 47.23244 36.58275
# Shear Modulus (GPa) = 7.20708 23.71709 15.46208
#
# Velocity S-wave (km/s) = 1.76140 3.19529 2.57996
# Velocity P-wave (km/s) = 3.91159 5.82632 4.96218
#
# Compressibility (1/GPa) = 0.03856081
#
# Stress axis : x y z
#
# Youngs Moduli (GPa) = 46.30140 50.09328 121.37554
#
# Poissons Ratio (x) = -0.11382 0.88806
# Poissons Ratio (y) = -0.10521 0.06977
# Poissons Ratio (z) = 0.33877 0.02879
#
# Static dielectric constant tensor:
#      x y z
#    x 1.865460 -0.000010 -0.011480 
#    y -0.000010 1.907540 0.000010 
#    z -0.011480 0.000010 1.914330 
# 
# From -- ./inp_files/295064.got.cif
#   From: 2010.05.17/outbox.cif.g08.bks.cpg/sg12_148_cif.got.tgz:295064.got - 2010.06.03 13:09:07.
