data_PCOD9193557
_publ_section_title
;
Structure prediction by ZEFSAII (Michael W. Deem and Ramdas Pophale) SiO2 
 PCOD9193557
Probable space group: C 2/M
;
_chemical_formula_sum "Si O2"
_cell_formula_units_Z 56
_cell_length_a 14.495948
_cell_length_b 22.489407
_cell_length_c 7.550094
_cell_angle_alpha 90.000000
_cell_angle_beta 90.887380
_cell_angle_gamma 90.000000
_cell_volume 2461.075269
_symmetry_space_group_name_H-M "C 2/M"
_symmetry_group_IT_number 12
_symmetry_cell_setting 'monoclinic'
loop_
_space_group_symop_operation_xyz
x,y,z
-x,y,-z
-x,-y,-z
x,-y,z
1/2+x,1/2+y,z
1/2-x,1/2+y,-z
1/2-x,1/2-y,-z
1/2+x,1/2-y,z
loop_
_atom_site_type_symbol
_atom_site_label
_atom_site_fract_x
_atom_site_fract_y
_atom_site_fract_z
Si Si1 0.956110 0.845906 0.172082
Si Si2 0.381097 0.067461 0.659773
Si Si3 0.146872 0.145019 0.373678
Si Si4 0.194568 0.432158 0.749092
Si Si5 0.321886 0.430479 0.269929
Si Si6 0.896677 0.749138 0.416857
Si Si7 0.458111 0.144548 0.182156
O O1 0.892820 0.902726 0.133506
O O2 0.893114 0.796706 0.259752
O O3 0.043769 0.860271 0.296903
O O4 0.000000 0.819582 0.000000
O O5 0.348377 0.067957 0.453007
O O6 0.286401 0.079134 0.763501
O O7 0.456830 0.116495 0.706049
O O8 0.414750 0.000000 0.696340
O O9 0.221713 0.114791 0.248707
O O10 0.153523 0.104024 0.548384
O O11 0.161335 0.214957 0.432043
O O12 0.223206 0.500000 0.788970
O O13 0.111006 0.409175 0.866796
O O14 0.335617 0.500000 0.293785
O O15 0.897519 0.687174 0.309970
O O16 0.000000 0.749003 0.500000
O O17 0.500000 0.170230 0.000000
#
# Coordination Sequence:
#
# PCOD9193557 Si02
#       7
#     8   8   8   8   8   8   8
#     4  10  20  34  53  82 117 146 179 231 292 346
#     4   9  19  37  58  80 108 146 194 238 274 325
#     4   9  19  36  60  83 108 146 192 238 279 326
#     4  10  21  38  61  86 112 148 194 237 276 329
#     4   9  18  34  57  81 107 147 195 236 277 331
#     4   9  19  38  61  80 105 146 194 236 274 327
#     4  12  24  36  55  84 119 155 185 227 288 341
#
# _framework density 22.754280000000001
#
# number of rings (size 3 to 8) (size 9 to 14) (size 15 to 20)
#    0.000    2.286    0.000    4.714    0.000    6.000 
#    0.000    5.714    0.000   15.429    0.000    0.000 
#    0.000    0.000    0.000    0.000    0.000    0.000 
#
# Total GULP energy -156057.864043 kJ/mol
# GULP energy per Si atom -5573.495144 kJ/mol
# Density = 2.270249 g / cm^3
# Si number density = 22.754280 Si / 1000 Ang^3
#
#
#
# Elastic Constant Matrix: (Units=GPa)
#
#
# Indices 1 2 3 4 5 6 
#
# 1 63.4417 61.9855 6.0770 0.0000 -4.9933 0.0000
# 2 61.9855 130.4982 12.5542 0.0000 2.0806 0.0000
# 3 6.0770 12.5542 41.9500 0.0000 4.3055 0.0000
# 4 0.0000 0.0000 0.0000 9.8981 0.0000 -5.8078
# 5 -4.9933 2.0806 4.3055 0.0000 28.0844 0.0000
# 6 0.0000 0.0000 0.0000 -5.8078 0.0000 31.4760
#
#
#
# Elastic Compliance Matrix: (Units=1/GPa)
#
#
# Indices 1 2 3 4 5 6 
#
# 1 0.030582 -0.014559 -0.000754 0.000000 0.006632 0.000000
# 2 -0.014559 0.014823 -0.001980 0.000000 -0.003383 0.000000
# 3 -0.000754 -0.001980 0.024930 0.000000 -0.003809 0.000000
# 4 0.000000 0.000000 0.000000 0.113295 0.000000 0.020905
# 5 0.006632 -0.003383 -0.003809 0.000000 0.037621 0.000000
# 6 0.000000 0.000000 0.000000 0.020905 0.000000 0.035627
#
#
# Mechanical properties :
#
#
# Convention : Reuss Voigt Hill
#
# Bulk Modulus (GPa) = 27.97213 44.12480 36.04847
# Shear Modulus (GPa) = 16.48096 24.24326 20.36211
#
# Velocity S-wave (km/s) = 2.69420 3.26765 2.99468
# Velocity P-wave (km/s) = 4.69022 5.80264 5.27583
#
# Compressibility (1/GPa) = 0.03574986
#
# Stress axis : x y z
#
# Youngs Moduli (GPa) = 32.69928 67.46342 40.11152
#
# Poissons Ratio (x) = 0.98222 0.03023
# Poissons Ratio (y) = 0.47608 0.07941
# Poissons Ratio (z) = 0.02465 0.13355
#
# Static dielectric constant tensor:
#      x y z
#    x 1.859460 0.000000 -0.054070 
#    y 0.000000 1.894370 0.000000 
#    z -0.054070 0.000000 1.936440 
# 
# From -- ./inp_files/64063.got.cif
#   From: 2010.05.17/outbox.cif.g08.bks.cpg/sg12_33_cif.got.tgz:64063.got - 2010.06.03 13:09:07.
