data_PCOD9193101
_publ_section_title
;
Structure prediction by ZEFSAII (Michael W. Deem and Ramdas Pophale) SiO2 
 PCOD9193101
Probable space group: C 2/M
;
_chemical_formula_sum "Si O2"
_cell_formula_units_Z 64
_cell_length_a 14.918617
_cell_length_b 7.624959
_cell_length_c 29.045096
_cell_angle_alpha 90.000000
_cell_angle_beta 115.223484
_cell_angle_gamma 90.000000
_cell_volume 2988.963851
_symmetry_space_group_name_H-M "C 2/M"
_symmetry_group_IT_number 12
_symmetry_cell_setting 'monoclinic'
loop_
_space_group_symop_operation_xyz
x,y,z
-x,y,-z
-x,-y,-z
x,-y,z
1/2+x,1/2+y,z
1/2-x,1/2+y,-z
1/2-x,1/2-y,-z
1/2+x,1/2-y,z
loop_
_atom_site_type_symbol
_atom_site_label
_atom_site_fract_x
_atom_site_fract_y
_atom_site_fract_z
Si Si1 0.978282 0.207866 0.370218
Si Si2 0.267263 0.705623 0.356961
Si Si3 0.686136 0.299743 0.125933
Si Si4 0.661421 0.209019 0.015947
Si Si5 0.948453 0.712628 0.714854
Si Si6 0.805873 0.209285 0.559234
Si Si7 0.470764 0.201259 0.091189
Si Si8 0.903101 0.715887 0.173799
O O1 0.872839 0.281324 0.364098
O O2 0.995733 0.233571 0.319700
O O3 0.080416 0.277217 0.415178
O O4 0.976082 0.000000 0.379881
O O5 0.269073 0.500000 0.344887
O O6 0.165077 0.778196 0.312773
O O7 0.250686 0.719795 0.408188
O O8 0.678247 0.500000 0.139825
O O9 0.681497 0.294922 0.069305
O O10 0.588230 0.204799 0.121368
O O11 0.792885 0.228842 0.163976
O O12 0.653925 0.000000 0.023798
O O13 0.750000 0.250000 0.000000
O O14 0.565763 0.272593 0.965910
O O15 0.945474 0.500000 0.714555
O O16 0.011593 0.770725 0.772531
O O17 0.750000 0.250000 0.500000
O O18 0.809851 0.000000 0.565937
O O19 0.423766 0.280869 0.126620
O O20 0.436358 0.000000 0.082496
O O21 0.902840 0.500000 0.172770
#
# Coordination Sequence:
#
# PCOD9193101 Si02
#       8
#     8   8   8   8   8   8   8   8
#     4   9  19  35  54  78 108 139 174 222 270 307
#     4   9  18  34  55  78 103 138 181 218 260 313
#     4  11  22  37  55  79 108 140 175 216 262 317
#     4  11  21  36  58  80 105 139 175 214 264 319
#     4   9  18  34  57  78 100 137 179 218 260 315
#     4  10  20  34  52  77 111 145 176 217 263 308
#     4  10  21  38  56  77 106 140 174 216 266 319
#     4   9  19  37  55  75 108 141 170 212 270 317
#
# _framework density 21.412102000000001
#
# number of rings (size 3 to 8) (size 9 to 14) (size 15 to 20)
#    0.000    2.250    1.250    1.500    0.000    5.000 
#    0.000    5.625    0.000    0.000    0.000    0.000 
#    0.000    0.000    0.000    0.000    0.000    0.000 
#
# Total GULP energy -178606.449814 kJ/mol
# GULP energy per Si atom -5581.451557 kJ/mol
# Density = 2.136337 g / cm^3
# Si number density = 21.412102 Si / 1000 Ang^3
#
#
#
# Elastic Constant Matrix: (Units=GPa)
#
#
# Indices 1 2 3 4 5 6 
#
# 1 136.4206 2.0684 35.3985 0.0000 27.6491 0.0000
# 2 2.0684 43.1469 -4.6722 0.0000 6.3155 0.0000
# 3 35.3985 -4.6722 104.8074 0.0000 25.9971 0.0000
# 4 0.0000 0.0000 0.0000 16.3162 0.0000 -3.2536
# 5 27.6491 6.3155 25.9971 0.0000 16.4019 0.0000
# 6 0.0000 0.0000 0.0000 -3.2536 0.0000 16.4794
#
#
#
# Elastic Compliance Matrix: (Units=1/GPa)
#
#
# Indices 1 2 3 4 5 6 
#
# 1 0.011665 0.003288 0.002304 0.000000 -0.024582 0.000000
# 2 0.003288 0.027718 0.006834 0.000000 -0.027049 0.000000
# 3 0.002304 0.006834 0.017606 0.000000 -0.034421 0.000000
# 4 0.000000 0.000000 0.000000 0.063800 0.000000 0.012596
# 5 -0.024582 -0.027049 -0.034421 0.000000 0.167380 0.000000
# 6 0.000000 0.000000 0.000000 0.012596 0.000000 0.063169
#
#
# Mechanical properties :
#
#
# Convention : Reuss Voigt Hill
#
# Bulk Modulus (GPa) = 12.21850 38.88492 25.55171
# Shear Modulus (GPa) = 14.13370 26.61153 20.37262
#
# Velocity S-wave (km/s) = 2.57199 3.52920 3.08791
# Velocity P-wave (km/s) = 3.81299 5.89972 4.96717
#
# Compressibility (1/GPa) = 0.08184310
#
# Stress axis : x y z
#
# Youngs Moduli (GPa) = 85.72908 36.07728 56.79961
#
# Poissons Ratio (x) = -0.11864 -0.13089
# Poissons Ratio (y) = -0.28192 -0.38819
# Poissons Ratio (z) = -0.19755 -0.24656
#
# Static dielectric constant tensor:
#      x y z
#    x 1.785670 0.000000 0.042180 
#    y 0.000000 1.806550 0.000000 
#    z 0.042180 0.000000 1.766150 
# 
# From -- ./inp_files/338868.got.cif
#   From: 2010.05.17/outbox.cif.g08.bks.cpg/sg12_170_cif.got.tgz:338868.got - 2010.06.03 13:09:07.
