data_PCOD9193726
_publ_section_title
;
Structure prediction by ZEFSAII (Michael W. Deem and Ramdas Pophale) SiO2 
 PCOD9193726
Probable space group: C 2/M
;
_chemical_formula_sum "Si O2"
_cell_formula_units_Z 64
_cell_length_a 30.037220
_cell_length_b 14.303583
_cell_length_c 8.221604
_cell_angle_alpha 90.000000
_cell_angle_beta 123.150874
_cell_angle_gamma 90.000000
_cell_volume 2957.384034
_symmetry_space_group_name_H-M "C 2/M"
_symmetry_group_IT_number 12
_symmetry_cell_setting 'monoclinic'
loop_
_space_group_symop_operation_xyz
x,y,z
-x,y,-z
-x,-y,-z
x,-y,z
1/2+x,1/2+y,z
1/2-x,1/2+y,-z
1/2-x,1/2-y,-z
1/2+x,1/2-y,z
loop_
_atom_site_type_symbol
_atom_site_label
_atom_site_fract_x
_atom_site_fract_y
_atom_site_fract_z
Si Si1 0.301344 0.757923 0.386806
Si Si2 0.952127 0.610843 0.531740
Si Si3 0.850609 0.601141 0.893046
Si Si4 0.439425 0.601744 0.820090
Si Si5 0.758306 0.104673 0.526843
Si Si6 0.440649 0.608005 0.429622
Si Si7 0.586700 0.806079 0.232876
Si Si8 0.139676 0.265050 0.807335
O O1 0.254372 0.827905 0.346301
O O2 0.294118 0.661435 0.470600
O O3 0.356879 0.800552 0.561488
O O4 0.311696 0.747119 0.217631
O O5 0.946092 0.500000 0.547514
O O6 0.955646 0.662516 0.714943
O O7 0.900595 0.656058 0.344050
O O8 0.000000 0.625493 0.500000
O O9 0.855522 0.500000 0.986365
O O10 0.798561 0.596517 0.676905
O O11 0.902892 0.621119 0.889872
O O12 0.842206 0.689777 0.990026
O O13 0.414720 0.500000 0.813323
O O14 0.435697 0.612118 0.616141
O O15 0.420565 0.701394 0.849000
O O16 0.500000 0.596008 0.000000
O O17 0.776618 0.000000 0.602893
O O18 0.500000 0.639319 0.500000
O O19 0.435343 0.500000 0.368834
O O20 0.396377 0.672719 0.260928
#
# Coordination Sequence:
#
# PCOD9193726 Si02
#       8
#     8   8   8   8   8   8   8   8
#     4   9  19  35  57  84 105 139 188 227 277 341
#     4  10  20  34  54  79 108 147 195 235 273 324
#     4  10  22  37  55  82 114 149 187 227 281 341
#     4  10  21  35  54  81 109 143 185 230 278 330
#     4   9  19  37  59  81 110 142 176 228 287 340
#     4  10  21  37  56  81 112 150 192 228 275 334
#     4  10  20  36  56  82 113 148 186 236 283 331
#     4  11  21  35  57  82 113 149 185 233 278 325
#
# _framework density 21.640747999999999
#
# number of rings (size 3 to 8) (size 9 to 14) (size 15 to 20)
#    0.000    2.125    2.500    1.125    1.750    5.000 
#    0.000    0.000    0.000    6.000    0.000    0.000 
#    0.000    0.000    0.000    0.000    0.000    0.000 
#
# Total GULP energy -178494.474232 kJ/mol
# GULP energy per Si atom -5577.952320 kJ/mol
# Density = 2.159149 g / cm^3
# Si number density = 21.640748 Si / 1000 Ang^3
#
#
#
# Elastic Constant Matrix: (Units=GPa)
#
#
# Indices 1 2 3 4 5 6 
#
# 1 100.6828 37.1926 2.2834 0.0000 -16.1050 0.0000
# 2 37.1926 128.4492 6.6263 0.0000 -3.9396 0.0000
# 3 2.2834 6.6263 15.6563 0.0000 2.4787 0.0000
# 4 0.0000 0.0000 0.0000 33.8266 0.0000 8.3581
# 5 -16.1050 -3.9396 2.4787 0.0000 13.6777 0.0000
# 6 0.0000 0.0000 0.0000 8.3581 0.0000 15.4319
#
#
#
# Elastic Compliance Matrix: (Units=1/GPa)
#
#
# Indices 1 2 3 4 5 6 
#
# 1 0.013765 -0.003341 -0.003096 0.000000 0.015807 0.000000
# 2 -0.003341 0.008890 -0.003148 0.000000 -0.000803 0.000000
# 3 -0.003096 -0.003148 0.068338 0.000000 -0.016936 0.000000
# 4 0.000000 0.000000 0.000000 0.034130 0.000000 -0.018485
# 5 0.015807 -0.000803 -0.016936 0.000000 0.094562 0.000000
# 6 0.000000 0.000000 0.000000 -0.018485 0.000000 0.074813
#
#
# Mechanical properties :
#
#
# Convention : Reuss Voigt Hill
#
# Bulk Modulus (GPa) = 13.92330 37.44366 25.68348
# Shear Modulus (GPa) = 14.81003 25.83297 20.32150
#
# Velocity S-wave (km/s) = 2.61886 3.45877 3.06770
# Velocity P-wave (km/s) = 3.94872 5.76981 4.94384
#
# Compressibility (1/GPa) = 0.07182205
#
# Stress axis : x y z
#
# Youngs Moduli (GPa) = 72.64789 112.48079 14.63324
#
# Poissons Ratio (x) = 0.37582 0.04530
# Poissons Ratio (y) = 0.24273 0.04607
# Poissons Ratio (z) = 0.22491 0.35413
#
# Static dielectric constant tensor:
#      x y z
#    x 1.808630 0.000000 -0.020300 
#    y 0.000000 1.802870 0.000000 
#    z -0.020300 0.000000 1.819970 
# 
# From -- ./inp_files/111650.got.cif
#   From: 2010.05.17/outbox.cif.g08.bks.cpg/sg12_56_cif.got.tgz:111650.got - 2010.06.03 13:09:07.
