data_PCOD9193204
_publ_section_title
;
Structure prediction by ZEFSAII (Michael W. Deem and Ramdas Pophale) SiO2 
 PCOD9193204
Probable space group: C 2/M
;
_chemical_formula_sum "Si O2"
_cell_formula_units_Z 56
_cell_length_a 9.645921
_cell_length_b 16.645308
_cell_length_c 26.667386
_cell_angle_alpha 90.000000
_cell_angle_beta 140.134062
_cell_angle_gamma 90.000000
_cell_volume 2744.540037
_symmetry_space_group_name_H-M "C 2/M"
_symmetry_group_IT_number 12
_symmetry_cell_setting 'monoclinic'
loop_
_space_group_symop_operation_xyz
x,y,z
-x,y,-z
-x,-y,-z
x,-y,z
1/2+x,1/2+y,z
1/2-x,1/2+y,-z
1/2-x,1/2-y,-z
1/2+x,1/2-y,z
loop_
_atom_site_type_symbol
_atom_site_label
_atom_site_fract_x
_atom_site_fract_y
_atom_site_fract_z
Si Si1 0.811283 0.906882 0.319550
Si Si2 0.225127 0.402269 0.585936
Si Si3 0.751127 0.640189 0.809878
Si Si4 0.815674 0.092540 0.725649
Si Si5 0.898286 0.322061 0.239433
Si Si6 0.886649 0.596103 0.020054
Si Si7 0.578698 0.404287 0.077544
O O1 0.745781 0.903573 0.242602
O O2 0.647004 0.849600 0.303511
O O3 0.061808 0.879265 0.386624
O O4 0.795875 0.000000 0.332383
O O5 0.227650 0.500000 0.586403
O O6 0.248947 0.379738 0.651041
O O7 0.000000 0.374584 0.500000
O O8 0.576634 0.597408 0.797579
O O9 0.654177 0.728476 0.775531
O O10 0.985060 0.639440 0.899911
O O11 0.708435 0.142051 0.740149
O O12 0.750668 0.000000 0.713811
O O13 0.777705 0.359363 0.157464
O O14 0.909478 0.500000 0.035051
O O15 0.633231 0.612769 0.948096
O O16 0.000000 0.618000 0.000000
O O17 0.623439 0.500000 0.089804
O O18 0.500000 0.381985 0.000000
#
# Coordination Sequence:
#
# PCOD9193204 Si02
#       7
#     8   8   8   8   8   8   8
#     4  10  20  36  59  81 108 148 186 219 266 335
#     4   8  16  34  61  89 112 140 183 228 268 321
#     4  11  22  36  55  79 110 146 186 231 277 330
#     4  10  20  36  59  82 109 146 184 225 274 331
#     4  12  23  35  54  84 117 143 181 237 284 324
#     4  10  20  34  53  75 101 140 191 238 278 327
#     4  10  21  35  51  72 104 145 184 227 280 332
#
# _framework density 20.404147999999999
#
# number of rings (size 3 to 8) (size 9 to 14) (size 15 to 20)
#    0.000    1.857    0.000    6.000    0.000    3.429 
#    0.000    0.714    0.000   17.143    0.000    0.000 
#    0.000    0.000    0.000    0.000    0.000    0.286 
#
# Total GULP energy -156435.366704 kJ/mol
# GULP energy per Si atom -5586.977382 kJ/mol
# Density = 2.035771 g / cm^3
# Si number density = 20.404148 Si / 1000 Ang^3
#
#
#
# Elastic Constant Matrix: (Units=GPa)
#
#
# Indices 1 2 3 4 5 6 
#
# 1 73.6509 7.1876 -0.0424 0.0000 10.3909 0.0000
# 2 7.1876 53.3680 12.9868 -0.0001 2.6504 0.0000
# 3 -0.0424 12.9868 77.1920 -0.0003 14.5010 0.0000
# 4 0.0000 -0.0001 -0.0003 13.0607 -0.0001 5.1908
# 5 10.3909 2.6504 14.5010 -0.0001 23.2779 0.0000
# 6 0.0000 0.0000 0.0000 5.1908 0.0000 11.7830
#
#
#
# Elastic Compliance Matrix: (Units=1/GPa)
#
#
# Indices 1 2 3 4 5 6 
#
# 1 0.014835 -0.002055 0.001760 0.000000 -0.007485 0.000000
# 2 -0.002055 0.019823 -0.003493 0.000000 0.000836 0.000000
# 3 0.001760 -0.003493 0.015421 0.000000 -0.009994 0.000000
# 4 0.000000 0.000000 0.000000 0.092817 0.000000 -0.040889
# 5 -0.007485 0.000836 -0.009994 0.000000 0.052431 0.000000
# 6 0.000000 0.000000 0.000000 -0.040889 0.000000 0.102881
#
#
# Mechanical properties :
#
#
# Convention : Reuss Voigt Hill
#
# Bulk Modulus (GPa) = 23.52773 27.16388 25.34581
# Shear Modulus (GPa) = 15.62737 21.89623 18.76180
#
# Velocity S-wave (km/s) = 2.77048 3.27942 3.03563
# Velocity P-wave (km/s) = 4.66797 5.26130 4.97349
#
# Compressibility (1/GPa) = 0.04250303
#
# Stress axis : x y z
#
# Youngs Moduli (GPa) = 67.40802 50.44633 64.84711
#
# Poissons Ratio (x) = 0.10364 -0.11412
# Poissons Ratio (y) = 0.13849 0.22653
# Poissons Ratio (z) = -0.11863 0.17622
#
# Static dielectric constant tensor:
#      x y z
#    x 1.733370 0.000000 0.017520 
#    y 0.000000 1.717240 0.000000 
#    z 0.017520 0.000000 1.717050 
# 
# From -- ./inp_files/356721.got.cif
#   From: 2010.05.17/outbox.cif.g08.bks.cpg/sg12_179_cif.got.tgz:356721.got - 2010.06.03 13:09:07.
