data_PCOD9193723
_publ_section_title
;
Structure prediction by ZEFSAII (Michael W. Deem and Ramdas Pophale) SiO2 
 PCOD9193723
Probable space group: C 2/M
;
_chemical_formula_sum "Si O2"
_cell_formula_units_Z 64
_cell_length_a 24.326856
_cell_length_b 7.872033
_cell_length_c 28.011385
_cell_angle_alpha 90.000000
_cell_angle_beta 33.960555
_cell_angle_gamma 90.000000
_cell_volume 2996.577589
_symmetry_space_group_name_H-M "C 2/M"
_symmetry_group_IT_number 12
_symmetry_cell_setting 'monoclinic'
loop_
_space_group_symop_operation_xyz
x,y,z
-x,y,-z
-x,-y,-z
x,-y,z
1/2+x,1/2+y,z
1/2-x,1/2+y,-z
1/2-x,1/2-y,-z
1/2+x,1/2-y,z
loop_
_atom_site_type_symbol
_atom_site_label
_atom_site_fract_x
_atom_site_fract_y
_atom_site_fract_z
Si Si1 0.306652 0.701868 0.843706
Si Si2 0.879860 0.794294 0.960420
Si Si3 0.541599 0.704142 0.919290
Si Si4 0.534744 0.705802 0.200868
Si Si5 0.236143 0.205263 0.231498
Si Si6 0.961672 0.201762 0.578201
Si Si7 0.619035 0.802358 0.543788
Si Si8 0.335331 0.798899 0.382721
O O1 0.319296 0.500000 0.828840
O O2 0.407043 0.769113 0.794363
O O3 0.278051 0.770968 0.812577
O O4 0.220124 0.730690 0.943973
O O5 0.904616 0.738146 0.889190
O O6 0.969314 0.737026 0.929784
O O7 0.875767 0.000000 0.963534
O O8 0.535185 0.500000 0.925164
O O9 0.654862 0.749404 0.830396
O O10 0.500000 0.769119 0.000000
O O11 0.533998 0.500000 0.201433
O O12 0.422951 0.765656 0.283008
O O13 0.144729 0.269248 0.328699
O O14 0.231119 0.000000 0.234019
O O15 0.040293 0.224095 0.564371
O O16 0.000000 0.272649 0.500000
O O17 0.948825 0.000000 0.580700
O O18 0.627818 0.731908 0.591756
O O19 0.731017 0.781940 0.444585
O O20 0.593681 0.000000 0.565701
O O21 0.318431 0.000000 0.399753
#
# Coordination Sequence:
#
# PCOD9193723 Si02
#       8
#     8   8   8   8   8   8   8   8
#     4  10  20  34  54  79 108 143 183 228 280 333
#     4  10  21  36  54  78 109 146 185 228 279 332
#     4  10  20  36  56  78 107 144 186 232 278 328
#     4  10  21  36  54  80 114 146 181 229 283 338
#     4  10  21  36  57  83 109 144 188 232 280 333
#     4  10  22  40  60  85 119 155 192 237 289 344
#     4  10  21  38  61  86 113 148 190 235 285 339
#     4  10  21  37  59  86 113 147 189 234 285 343
#
# _framework density 21.357697999999999
#
# number of rings (size 3 to 8) (size 9 to 14) (size 15 to 20)
#    0.000    2.000    1.250    1.875    0.000    6.000 
#    0.000    2.500    0.000    0.000    0.000    0.000 
#    0.000    0.000    0.000    0.000    0.000    0.000 
#
# Total GULP energy -178748.735662 kJ/mol
# GULP energy per Si atom -5585.897989 kJ/mol
# Density = 2.130909 g / cm^3
# Si number density = 21.357698 Si / 1000 Ang^3
#
#
#
# Elastic Constant Matrix: (Units=GPa)
#
#
# Indices 1 2 3 4 5 6 
#
# 1 50.5902 -1.6588 13.3714 -0.0278 -18.8976 0.0122
# 2 -1.6588 18.3141 -11.3538 -0.0219 5.5561 -0.0035
# 3 13.3714 -11.3538 120.9351 -0.0253 -16.8808 0.0162
# 4 -0.0278 -0.0219 -0.0253 9.9862 -0.0019 -2.5254
# 5 -18.8976 5.5561 -16.8808 -0.0019 30.0343 0.0011
# 6 0.0122 -0.0035 0.0162 -2.5254 0.0011 12.9119
#
#
#
# Elastic Compliance Matrix: (Units=1/GPa)
#
#
# Indices 1 2 3 4 5 6 
#
# 1 0.026054 -0.003187 -0.000878 0.000063 0.016489 -0.000013
# 2 -0.003187 0.060348 0.004536 0.000144 -0.010620 0.000043
# 3 -0.000878 0.004536 0.009330 0.000031 0.003852 -0.000004
# 4 0.000063 0.000144 0.000031 0.105349 0.000036 0.020605
# 5 0.016489 -0.010620 0.003852 0.000036 0.047800 -0.000020
# 6 -0.000013 0.000043 -0.000004 0.020605 -0.000020 0.081478
#
#
# Mechanical properties :
#
#
# Convention : Reuss Voigt Hill
#
# Bulk Modulus (GPa) = 10.34424 21.17301 15.75862
# Shear Modulus (GPa) = 13.82584 23.21852 18.52218
#
# Velocity S-wave (km/s) = 2.54706 3.30074 2.94808
# Velocity P-wave (km/s) = 3.67476 4.94586 4.35691
#
# Compressibility (1/GPa) = 0.09667218
#
# Stress axis : x y z
#
# Youngs Moduli (GPa) = 38.38240 16.57055 107.18667
#
# Poissons Ratio (x) = 0.05281 0.09414
# Poissons Ratio (y) = 0.12232 -0.48616
# Poissons Ratio (z) = 0.03371 -0.07516
#
# Static dielectric constant tensor:
#      x y z
#    x 1.767790 -0.000010 0.021250 
#    y -0.000010 1.778470 0.000000 
#    z 0.021250 0.000000 1.763500 
# 
# From -- ./inp_files/238694.got.cif
#   From: 2010.05.17/outbox.cif.g08.bks.cpg/sg12_120_cif.got.tgz:238694.got - 2010.06.03 13:09:07.
