data_PCOD9193940
_publ_section_title
;
Structure prediction by ZEFSAII (Michael W. Deem and Ramdas Pophale) SiO2 
 PCOD9193940
Probable space group: C 2/M
;
_chemical_formula_sum "Si O2"
_cell_formula_units_Z 56
_cell_length_a 14.476288
_cell_length_b 28.513883
_cell_length_c 7.596418
_cell_angle_alpha 90.000000
_cell_angle_beta 57.659714
_cell_angle_gamma 90.000000
_cell_volume 2649.235091
_symmetry_space_group_name_H-M "C 2/M"
_symmetry_group_IT_number 12
_symmetry_cell_setting 'monoclinic'
loop_
_space_group_symop_operation_xyz
x,y,z
-x,y,-z
-x,-y,-z
x,-y,z
1/2+x,1/2+y,z
1/2-x,1/2+y,-z
1/2-x,1/2-y,-z
1/2+x,1/2-y,z
loop_
_atom_site_type_symbol
_atom_site_label
_atom_site_fract_x
_atom_site_fract_y
_atom_site_fract_z
Si Si1 0.337600 0.552597 0.686513
Si Si2 0.308432 0.796322 0.768432
Si Si3 0.397613 0.379089 0.333278
Si Si4 0.634135 0.373864 0.037704
Si Si5 0.611590 0.227835 0.946842
Si Si6 0.656153 0.152849 0.614895
Si Si7 0.402120 0.051633 0.239046
O O1 0.374250 0.500000 0.684626
O O2 0.402493 0.577171 0.460475
O O3 0.340788 0.585101 0.853133
O O4 0.212565 0.551040 0.747390
O O5 0.386132 0.780009 0.846241
O O6 0.364451 0.817935 0.540700
O O7 0.228796 0.835551 0.936315
O O8 0.222598 0.756394 0.796580
O O9 0.515078 0.354098 0.215767
O O10 0.288537 0.351297 0.497422
O O11 0.377045 0.392339 0.150788
O O12 0.384217 0.180351 0.172542
O O13 0.500000 0.252797 0.000000
O O14 0.606291 0.100573 0.647442
O O15 0.411806 0.000000 0.319546
O O16 0.500000 0.055001 0.000000
#
# Coordination Sequence:
#
# PCOD9193940 Si02
#       7
#     8   8   8   8   8   8   8
#     4  10  20  34  54  83 116 147 192 244 288 344
#     4  10  23  41  60  88 119 156 201 244 294 359
#     4   9  20  34  55  81 109 152 192 234 283 343
#     4  10  20  36  57  80 112 156 194 231 294 348
#     4  11  24  40  62  89 121 156 197 249 301 350
#     4  10  20  38  62  88 121 152 197 249 293 347
#     4   9  18  35  61  89 117 156 196 237 293 352
#
# _framework density 21.138176999999999
#
# number of rings (size 3 to 8) (size 9 to 14) (size 15 to 20)
#    0.000    2.143    0.000    3.000    4.000    2.286 
#    0.000    5.000    0.000    3.429    0.000   43.000 
#    0.000    0.000    0.000    0.000    0.000    0.000 
#
# Total GULP energy -156291.172392 kJ/mol
# GULP energy per Si atom -5581.827585 kJ/mol
# Density = 2.109007 g / cm^3
# Si number density = 21.138177 Si / 1000 Ang^3
#
#
#
# Elastic Constant Matrix: (Units=GPa)
#
#
# Indices 1 2 3 4 5 6 
#
# 1 74.8483 30.6493 27.0319 0.0000 7.8233 0.0000
# 2 30.6493 94.1909 24.3208 0.0000 17.7078 0.0000
# 3 27.0319 24.3208 62.9074 0.0000 -9.2800 0.0000
# 4 0.0000 0.0000 0.0000 23.8710 0.0000 17.2961
# 5 7.8233 17.7078 -9.2800 0.0000 25.4728 0.0000
# 6 0.0000 0.0000 0.0000 17.2961 0.0000 22.1157
#
#
#
# Elastic Compliance Matrix: (Units=1/GPa)
#
#
# Indices 1 2 3 4 5 6 
#
# 1 0.017857 -0.002643 -0.007598 0.000000 -0.006415 0.000000
# 2 -0.002643 0.015549 -0.006711 0.000000 -0.012442 0.000000
# 3 -0.007598 -0.006711 0.024083 0.000000 0.015772 0.000000
# 4 0.000000 0.000000 0.000000 0.096673 0.000000 -0.075605
# 5 -0.006415 -0.012442 0.015772 0.000000 0.055623 0.000000
# 6 0.000000 0.000000 0.000000 -0.075605 0.000000 0.104345
#
#
# Mechanical properties :
#
#
# Convention : Reuss Voigt Hill
#
# Bulk Modulus (GPa) = 42.40044 43.99449 43.19746
# Shear Modulus (GPa) = 14.04908 24.28821 19.16865
#
# Velocity S-wave (km/s) = 2.58084 3.39340 3.01462
# Velocity P-wave (km/s) = 5.38361 6.01760 5.70941
#
# Compressibility (1/GPa) = 0.02358466
#
# Stress axis : x y z
#
# Youngs Moduli (GPa) = 56.00011 64.31430 41.52367
#
# Poissons Ratio (x) = 0.16996 0.31550
# Poissons Ratio (y) = 0.14799 0.27867
# Poissons Ratio (z) = 0.42549 0.43162
#
# Static dielectric constant tensor:
#      x y z
#    x 1.774840 0.000000 -0.040800 
#    y 0.000000 1.795700 0.000000 
#    z -0.040800 0.000000 1.767140 
# 
# From -- ./inp_files/68117.got.cif
#   From: 2010.05.17/outbox.cif.g08.bks.cpg/sg12_35_cif.got.tgz:68117.got - 2010.06.03 13:09:07.
