data_PCOD9193430
_publ_section_title
;
Structure prediction by ZEFSAII (Michael W. Deem and Ramdas Pophale) SiO2 
 PCOD9193430
Probable space group: C 2/M
;
_chemical_formula_sum "Si O2"
_cell_formula_units_Z 64
_cell_length_a 32.321276
_cell_length_b 13.475587
_cell_length_c 8.671254
_cell_angle_alpha 90.000000
_cell_angle_beta 124.487760
_cell_angle_gamma 90.000000
_cell_volume 3112.974497
_symmetry_space_group_name_H-M "C 2/M"
_symmetry_group_IT_number 12
_symmetry_cell_setting 'monoclinic'
loop_
_space_group_symop_operation_xyz
x,y,z
-x,y,-z
-x,-y,-z
x,-y,z
1/2+x,1/2+y,z
1/2-x,1/2+y,-z
1/2-x,1/2-y,-z
1/2+x,1/2-y,z
loop_
_atom_site_type_symbol
_atom_site_label
_atom_site_fract_x
_atom_site_fract_y
_atom_site_fract_z
Si Si1 0.711688 0.671085 0.095642
Si Si2 0.846244 0.827516 0.329362
Si Si3 0.747324 0.115103 0.248897
Si Si4 0.566036 0.385136 0.281125
Si Si5 0.826676 0.609562 0.342587
Si Si6 0.381910 0.692021 0.917674
Si Si7 0.842132 0.608353 0.734404
Si Si8 0.524852 0.620173 0.715059
O O1 0.722784 0.790994 0.105759
O O2 0.766247 0.622629 0.219606
O O3 0.673795 0.652443 0.157571
O O4 0.681336 0.635237 0.881922
O O5 0.805466 0.855217 0.376053
O O6 0.897845 0.873373 0.493772
O O7 0.849778 0.708701 0.318429
O O8 0.716425 0.119498 0.342175
O O9 0.742596 0.000000 0.183278
O O10 0.559341 0.500000 0.229897
O O11 0.593963 0.340026 0.193250
O O12 0.512231 0.346446 0.224386
O O13 0.838535 0.500000 0.303667
O O14 0.845445 0.614290 0.558595
O O15 0.373506 0.808858 0.885828
O O16 0.420371 0.661845 0.132842
O O17 0.857948 0.500000 0.820562
O O18 0.500000 0.649084 0.500000
O O19 0.527394 0.500000 0.723017
#
# Coordination Sequence:
#
# PCOD9193430 Si02
#       8
#     8   8   8   8   8   8   8   8
#     4  10  23  33  52  81 113 148 190 227 271 323
#     4  11  21  35  51  81 113 148 188 229 274 321
#     4   9  18  32  52  75 109 149 187 227 270 316
#     4  11  23  37  58  84 111 142 182 226 273 330
#     4  10  20  34  53  78 113 152 191 229 267 317
#     4  11  21  38  60  82 112 145 183 227 275 329
#     4   9  19  35  56  83 111 146 188 229 271 317
#     4  10  22  41  63  86 113 142 175 221 279 336
#
# _framework density 20.559113
#
# number of rings (size 3 to 8) (size 9 to 14) (size 15 to 20)
#    0.000    1.875    1.250    3.375    1.750    6.000 
#    0.000    0.000    0.000    2.625    0.000    0.000 
#    0.000    0.000    0.000    0.000    0.000    0.000 
#
# Total GULP energy -178532.933455 kJ/mol
# GULP energy per Si atom -5579.154170 kJ/mol
# Density = 2.051232 g / cm^3
# Si number density = 20.559113 Si / 1000 Ang^3
#
#
#
# Elastic Constant Matrix: (Units=GPa)
#
#
# Indices 1 2 3 4 5 6 
#
# 1 60.0611 7.9880 -5.6335 0.0000 9.2881 0.0000
# 2 7.9880 64.5208 -0.3268 0.0000 -1.6162 0.0000
# 3 -5.6335 -0.3268 56.2700 0.0000 6.8110 0.0000
# 4 0.0000 0.0000 0.0000 7.9267 0.0000 6.3801
# 5 9.2881 -1.6162 6.8110 0.0000 25.5162 0.0000
# 6 0.0000 0.0000 0.0000 6.3801 0.0000 15.6589
#
#
#
# Elastic Compliance Matrix: (Units=1/GPa)
#
#
# Indices 1 2 3 4 5 6 
#
# 1 0.018408 -0.002455 0.002747 0.000000 -0.007589 0.000000
# 2 -0.002455 0.015851 -0.000396 0.000000 0.002003 0.000000
# 3 0.002747 -0.000396 0.018775 0.000000 -0.006037 0.000000
# 4 0.000000 0.000000 0.000000 0.187719 0.000000 -0.076485
# 5 -0.007589 0.002003 -0.006037 0.000000 0.043692 0.000000
# 6 0.000000 0.000000 0.000000 -0.076485 0.000000 0.095025
#
#
# Mechanical properties :
#
#
# Convention : Reuss Voigt Hill
#
# Bulk Modulus (GPa) = 18.93038 20.54527 19.73783
# Shear Modulus (GPa) = 12.58539 21.74196 17.16368
#
# Velocity S-wave (km/s) = 2.47686 3.25550 2.89250
# Velocity P-wave (km/s) = 4.17224 4.91386 4.55816
#
# Compressibility (1/GPa) = 0.05282514
#
# Stress axis : x y z
#
# Youngs Moduli (GPa) = 54.32553 63.08745 53.26268
#
# Poissons Ratio (x) = 0.15489 -0.14632
# Poissons Ratio (y) = 0.13338 0.02110
# Poissons Ratio (z) = -0.14924 0.02500
#
# Static dielectric constant tensor:
#      x y z
#    x 1.795650 0.000000 -0.039060 
#    y 0.000000 1.746710 0.000000 
#    z -0.039060 0.000000 1.738110 
# 
# From -- ./inp_files/112051.got.cif
#   From: 2010.05.17/outbox.cif.g08.bks.cpg/sg12_57_cif.got.tgz:112051.got - 2010.06.03 13:09:07.
