data_PCOD9193902
_publ_section_title
;
Structure prediction by ZEFSAII (Michael W. Deem and Ramdas Pophale) SiO2 
 PCOD9193902
Probable space group: C 2/M
;
_chemical_formula_sum "Si O2"
_cell_formula_units_Z 56
_cell_length_a 14.944597
_cell_length_b 13.137565
_cell_length_c 20.968618
_cell_angle_alpha 90.000000
_cell_angle_beta 38.378860
_cell_angle_gamma 90.000000
_cell_volume 2556.004325
_symmetry_space_group_name_H-M "C 2/M"
_symmetry_group_IT_number 12
_symmetry_cell_setting 'monoclinic'
loop_
_space_group_symop_operation_xyz
x,y,z
-x,y,-z
-x,-y,-z
x,-y,z
1/2+x,1/2+y,z
1/2-x,1/2+y,-z
1/2-x,1/2-y,-z
1/2+x,1/2-y,z
loop_
_atom_site_type_symbol
_atom_site_label
_atom_site_fract_x
_atom_site_fract_y
_atom_site_fract_z
Si Si1 0.026773 0.337466 0.913952
Si Si2 0.900197 0.119846 0.429654
Si Si3 0.344907 0.779859 0.350102
Si Si4 0.932700 0.110453 0.960229
Si Si5 0.164498 0.317689 0.187627
Si Si6 0.697735 0.717288 0.298064
Si Si7 0.225157 0.889090 0.081806
O O1 0.178552 0.358804 0.798271
O O2 0.000000 0.377873 0.000000
O O3 0.019091 0.214217 0.922657
O O4 0.881453 0.373474 0.961334
O O5 0.764324 0.149647 0.549286
O O6 0.879365 0.181557 0.375007
O O7 0.044304 0.161455 0.383846
O O8 0.909729 0.000000 0.413874
O O9 0.500502 0.834811 0.256776
O O10 0.265387 0.752198 0.328335
O O11 0.787838 0.117201 0.084197
O O12 0.002478 0.000000 0.930740
O O13 0.887713 0.116883 0.911816
O O14 0.174443 0.307990 0.258886
O O15 0.201940 0.203233 0.142209
O O16 0.216204 0.000000 0.116940
#
# Coordination Sequence:
#
# PCOD9193902 Si02
#       7
#     8   8   8   8   8   8   8
#     4  11  20  37  54  81 124 162 194 244 297 351
#     4  10  24  45  69  96 124 158 207 264 319 382
#     4  10  22  41  67  92 127 162 202 259 325 376
#     4  10  20  35  55  79 114 163 213 249 288 353
#     4  10  20  38  57  85 124 161 201 253 306 362
#     4  11  21  38  63  92 123 166 207 253 309 368
#     4  10  20  34  54  82 116 159 207 252 298 353
#
# _framework density 21.909196000000001
#
# number of rings (size 3 to 8) (size 9 to 14) (size 15 to 20)
#    0.000    1.714    2.857    3.857    0.000    5.143 
#    0.000    1.429    0.000   12.000    0.000    0.000 
#    0.000    0.000    0.000    0.000    0.000    0.000 
#
# Total GULP energy -156312.056669 kJ/mol
# GULP energy per Si atom -5582.573452 kJ/mol
# Density = 2.185933 g / cm^3
# Si number density = 21.909196 Si / 1000 Ang^3
#
#
#
# Elastic Constant Matrix: (Units=GPa)
#
#
# Indices 1 2 3 4 5 6 
#
# 1 145.2828 15.6417 16.4877 0.0000 5.7189 0.0000
# 2 15.6417 84.9223 7.0362 0.0000 -2.0769 0.0000
# 3 16.4877 7.0362 88.0216 -0.0001 -23.7772 0.0001
# 4 0.0000 0.0000 -0.0001 -3.8161 0.0000 3.8787
# 5 5.7189 -2.0769 -23.7772 0.0000 46.7973 0.0000
# 6 0.0000 0.0000 0.0001 3.8787 0.0000 12.6979
#
#
#
# Elastic Compliance Matrix: (Units=1/GPa)
#
#
# Indices 1 2 3 4 5 6 
#
# 1 0.007289 -0.001242 -0.001764 0.000000 -0.001842 0.000000
# 2 -0.001242 0.012066 -0.000633 0.000000 0.000365 0.000000
# 3 -0.001764 -0.000633 0.013668 0.000000 0.007132 0.000000
# 4 0.000000 0.000000 0.000000 -0.199965 0.000000 0.061082
# 5 -0.001842 0.000365 0.007132 0.000000 0.025234 0.000000
# 6 0.000000 0.000000 0.000000 0.061082 0.000000 0.060095
#
#
# Mechanical properties :
#
#
# Convention : Reuss Voigt Hill
#
# Bulk Modulus (GPa) = 38.84030 44.06197 41.45114
# Shear Modulus (GPa) = -76.04240 29.73989 -23.15126
#
# Velocity S-wave (km/s) = -5.89774 3.68831 -3.25421
# Velocity P-wave (km/s) = 5.34897 6.18813 2.20018
#
# Compressibility (1/GPa) = 0.02574645
#
# Stress axis : x y z
#
# Youngs Moduli (GPa) = 137.18412 82.88063 73.16110
#
# Poissons Ratio (x) = 0.10290 0.12904
# Poissons Ratio (y) = 0.17032 0.04633
# Poissons Ratio (z) = 0.24196 0.05248
#
# Static dielectric constant tensor:
#      x y z
#    x 1.882650 0.000000 -0.004320 
#    y 0.000000 1.787680 0.000000 
#    z -0.004320 0.000000 1.835980 
# 
# From -- ./inp_files/310785.got.cif
#   From: 2010.05.17/outbox.cif.g08.bks.cpg/sg12_156_cif.got.tgz:310785.got - 2010.06.03 13:09:07.
