data_PCOD9193978
_publ_section_title
;
Structure prediction by ZEFSAII (Michael W. Deem and Ramdas Pophale) SiO2 
 PCOD9193978
Probable space group: C 2/M
;
_chemical_formula_sum "Si O2"
_cell_formula_units_Z 56
_cell_length_a 9.565082
_cell_length_b 30.461165
_cell_length_c 12.618932
_cell_angle_alpha 90.000000
_cell_angle_beta 53.075787
_cell_angle_gamma 90.000000
_cell_volume 2939.264783
_symmetry_space_group_name_H-M "C 2/M"
_symmetry_group_IT_number 12
_symmetry_cell_setting 'monoclinic'
loop_
_space_group_symop_operation_xyz
x,y,z
-x,y,-z
-x,-y,-z
x,-y,z
1/2+x,1/2+y,z
1/2-x,1/2+y,-z
1/2-x,1/2-y,-z
1/2+x,1/2-y,z
loop_
_atom_site_type_symbol
_atom_site_label
_atom_site_fract_x
_atom_site_fract_y
_atom_site_fract_z
Si Si1 0.663754 0.901359 0.498940
Si Si2 0.037056 0.132456 0.104994
Si Si3 0.754868 0.811290 0.359830
Si Si4 0.813475 0.102117 0.645986
Si Si5 0.009396 0.050766 0.261026
Si Si6 0.541795 0.737301 0.362533
Si Si7 0.196722 0.675363 0.871352
O O1 0.500000 0.912124 0.500000
O O2 0.695887 0.849131 0.467965
O O3 0.670176 0.907795 0.621954
O O4 0.821990 0.931050 0.384396
O O5 0.203645 0.159450 0.068648
O O6 0.878273 0.159738 0.228850
O O7 0.056045 0.084046 0.145701
O O8 0.000000 0.129890 0.000000
O O9 0.605740 0.786518 0.360849
O O10 0.873835 0.774957 0.366870
O O11 0.740983 0.138786 0.760344
O O12 0.000000 0.113956 0.500000
O O13 0.863939 0.061324 0.697567
O O14 0.008054 0.000000 0.234372
O O15 0.500000 0.718738 0.500000
O O16 0.705403 0.716674 0.225383
O O17 0.000000 0.682087 0.000000
#
# Coordination Sequence:
#
# PCOD9193978 Si02
#       7
#     8   8   8   8   8   8   8
#     4  10  20  34  54  84 118 147 181 234 292 337
#     4   9  20  38  56  77 112 151 187 234 289 341
#     4  10  22  36  54  81 110 147 194 238 278 332
#     4   9  18  36  59  80 112 153 188 225 276 343
#     4   9  19  36  59  86 111 145 192 233 278 344
#     4  11  21  36  56  80 110 147 192 237 283 334
#     4  10  21  35  55  81 109 148 195 236 281 337
#
# _framework density 19.052382999999999
#
# number of rings (size 3 to 8) (size 9 to 14) (size 15 to 20)
#    0.000    2.286    0.000    4.714    0.000    8.286 
#    0.000    2.857    0.000    6.857    0.000    0.000 
#    0.000    0.000    0.000    0.000    0.000    0.000 
#
# Total GULP energy -155933.442250 kJ/mol
# GULP energy per Si atom -5569.051509 kJ/mol
# Density = 1.900902 g / cm^3
# Si number density = 19.052383 Si / 1000 Ang^3
#
#
#
# Elastic Constant Matrix: (Units=GPa)
#
#
# Indices 1 2 3 4 5 6 
#
# 1 110.8699 35.8762 47.3462 0.0000 35.2273 0.0000
# 2 35.8762 112.4096 28.6551 0.0000 2.5751 0.0000
# 3 47.3462 28.6551 89.3542 0.0000 7.1793 0.0000
# 4 0.0000 0.0000 0.0000 -3.6841 0.0000 -5.0687
# 5 35.2273 2.5751 7.1793 0.0000 33.6076 0.0000
# 6 0.0000 0.0000 0.0000 -5.0687 0.0000 17.2634
#
#
#
# Elastic Compliance Matrix: (Units=1/GPa)
#
#
# Indices 1 2 3 4 5 6 
#
# 1 0.019289 -0.003818 -0.007524 0.000000 -0.018319 0.000000
# 2 -0.003818 0.010444 -0.001611 0.000000 0.003546 0.000000
# 3 -0.007524 -0.001611 0.015314 0.000000 0.004739 0.000000
# 4 0.000000 0.000000 0.000000 -0.193338 0.000000 -0.056766
# 5 -0.018319 0.003546 0.004739 0.000000 0.047673 0.000000
# 6 0.000000 0.000000 0.000000 -0.056766 0.000000 0.041259
#
#
# Mechanical properties :
#
#
# Convention : Reuss Voigt Hill
#
# Bulk Modulus (GPa) = 52.24715 59.59875 55.92295
# Shear Modulus (GPa) = -184.69411 22.82113 -80.93649
#
# Velocity S-wave (km/s) = -9.85650 3.46469 -6.52482
# Velocity P-wave (km/s) = 10.10207 6.88149 5.22957
#
# Compressibility (1/GPa) = 0.01913980
#
# Stress axis : x y z
#
# Youngs Moduli (GPa) = 51.84353 95.74742 65.29903
#
# Poissons Ratio (x) = 0.36561 0.49132
# Poissons Ratio (y) = 0.19796 0.10520
# Poissons Ratio (z) = 0.39008 0.15425
#
# Static dielectric constant tensor:
#      x y z
#    x 1.453160 0.000000 -0.087270 
#    y 0.000000 1.650780 0.000000 
#    z -0.087270 0.000000 1.666720 
# 
# From -- ./inp_files/125572.got.cif
#   From: 2010.05.17/outbox.cif.g08.bks.cpg/sg12_63_cif.got.tgz:125572.got - 2010.06.03 13:09:07.
