data_PCOD9193961
_publ_section_title
;
Structure prediction by ZEFSAII (Michael W. Deem and Ramdas Pophale) SiO2 
 PCOD9193961
Probable space group: C 2/M
;
_chemical_formula_sum "Si O2"
_cell_formula_units_Z 48
_cell_length_a 9.322584
_cell_length_b 23.073473
_cell_length_c 10.319766
_cell_angle_alpha 90.000000
_cell_angle_beta 80.242517
_cell_angle_gamma 90.000000
_cell_volume 2187.714807
_symmetry_space_group_name_H-M "C 2/M"
_symmetry_group_IT_number 12
_symmetry_cell_setting 'monoclinic'
loop_
_space_group_symop_operation_xyz
x,y,z
-x,y,-z
-x,-y,-z
x,-y,z
1/2+x,1/2+y,z
1/2-x,1/2+y,-z
1/2-x,1/2-y,-z
1/2+x,1/2-y,z
loop_
_atom_site_type_symbol
_atom_site_label
_atom_site_fract_x
_atom_site_fract_y
_atom_site_fract_z
Si Si1 0.481037 0.064749 0.780282
Si Si2 0.900377 0.679605 0.125193
Si Si3 0.552110 0.775729 0.349754
Si Si4 0.602460 0.348491 0.244419
Si Si5 0.283955 0.374580 0.288074
Si Si6 0.745584 0.567838 0.429230
O O1 0.539513 0.114780 0.862829
O O2 0.315501 0.079264 0.771648
O O3 0.583286 0.070107 0.636231
O O4 0.499889 0.000000 0.826944
O O5 0.729279 0.672669 0.127652
O O6 0.933391 0.709579 0.257829
O O7 0.000000 0.707813 0.000000
O O8 0.500000 0.792403 0.500000
O O9 0.579636 0.707572 0.338776
O O10 0.692557 0.814869 0.296664
O O11 0.446456 0.365622 0.212929
O O12 0.663843 0.400801 0.322750
O O13 0.289157 0.397405 0.435190
O O14 0.706223 0.500000 0.447678
#
# Coordination Sequence:
#
# PCOD9193961 Si02
#       6
#     8   8   8   8   8   8
#     4   9  19  36  57  81 112 155 198 233 282 349
#     4  10  23  42  61  83 115 157 199 237 287 350
#     4  11  22  39  61  87 121 157 190 230 289 353
#     4  11  23  36  56  86 117 151 195 244 290 338
#     4  11  20  32  55  86 118 151 191 241 288 336
#     4  10  20  34  54  83 121 159 191 231 290 353
#
# _framework density 21.940704
#
# number of rings (size 3 to 8) (size 9 to 14) (size 15 to 20)
#    0.000    1.667    0.000    6.500    0.000    6.333 
#    0.000    3.333    0.000    1.000    0.000    0.000 
#    0.000    0.000    0.000    0.000    0.000    0.000 
#
# Total GULP energy -134132.805615 kJ/mol
# GULP energy per Si atom -5588.866901 kJ/mol
# Density = 2.189077 g / cm^3
# Si number density = 21.940704 Si / 1000 Ang^3
#
#
#
# Elastic Constant Matrix: (Units=GPa)
#
#
# Indices 1 2 3 4 5 6 
#
# 1 135.5345 10.6533 15.4269 0.0000 -36.6170 0.0000
# 2 10.6533 89.3273 -9.3178 0.0000 6.3640 0.0000
# 3 15.4269 -9.3178 51.2203 0.0000 -17.0391 0.0000
# 4 0.0000 0.0000 0.0000 -16.9379 0.0000 -4.9699
# 5 -36.6170 6.3640 -17.0391 0.0000 18.0126 0.0000
# 6 0.0000 0.0000 0.0000 -4.9699 0.0000 20.4152
#
#
#
# Elastic Compliance Matrix: (Units=1/GPa)
#
#
# Indices 1 2 3 4 5 6 
#
# 1 0.022166 -0.005565 0.011608 0.000000 0.058008 0.000000
# 2 -0.005565 0.012922 -0.001832 0.000000 -0.017612 0.000000
# 3 0.011608 -0.001832 0.034669 0.000000 0.057041 0.000000
# 4 0.000000 0.000000 0.000000 -0.055103 0.000000 -0.013414
# 5 0.058008 -0.017612 0.057041 0.000000 0.233619 0.000000
# 6 0.000000 0.000000 0.000000 -0.013414 0.000000 0.045718
#
#
# Mechanical properties :
#
#
# Convention : Reuss Voigt Hill
#
# Bulk Modulus (GPa) = 12.79100 34.40080 23.59590
# Shear Modulus (GPa) = 16.04473 21.58595 18.81534
#
# Velocity S-wave (km/s) = 2.70715 3.14001 2.93158
# Velocity P-wave (km/s) = 3.95145 5.37208 4.71557
#
# Compressibility (1/GPa) = 0.07817998
#
# Stress axis : x y z
#
# Youngs Moduli (GPa) = 45.11371 77.38629 28.84396
#
# Poissons Ratio (x) = 0.43069 -0.33483
# Poissons Ratio (y) = 0.25108 0.05284
# Poissons Ratio (z) = -0.52370 0.14176
#
# Static dielectric constant tensor:
#      x y z
#    x 1.840190 0.000000 -0.027340 
#    y 0.000000 1.782400 0.000000 
#    z -0.027340 0.000000 1.848930 
# 
# From -- ./inp_files/121821.got.cif
#   From: 2010.05.17/outbox.cif.g08.bks.cpg/sg12_61_cif.got.tgz:121821.got - 2010.06.03 13:09:07.
