data_PCOD9193934
_publ_section_title
;
Structure prediction by ZEFSAII (Michael W. Deem and Ramdas Pophale) SiO2 
 PCOD9193934
Probable space group: C 2/M
;
_chemical_formula_sum "Si O2"
_cell_formula_units_Z 56
_cell_length_a 29.601680
_cell_length_b 7.443911
_cell_length_c 17.552480
_cell_angle_alpha 90.000000
_cell_angle_beta 145.580538
_cell_angle_gamma 90.000000
_cell_volume 2186.223058
_symmetry_space_group_name_H-M "C 2/M"
_symmetry_group_IT_number 12
_symmetry_cell_setting 'monoclinic'
loop_
_space_group_symop_operation_xyz
x,y,z
-x,y,-z
-x,-y,-z
x,-y,z
1/2+x,1/2+y,z
1/2-x,1/2+y,-z
1/2-x,1/2-y,-z
1/2+x,1/2-y,z
loop_
_atom_site_type_symbol
_atom_site_label
_atom_site_fract_x
_atom_site_fract_y
_atom_site_fract_z
Si Si1 0.808888 0.783586 0.684168
Si Si2 0.290467 0.704779 0.233928
Si Si3 0.870720 0.206500 0.613325
Si Si4 0.558478 0.789392 0.017620
Si Si5 0.094346 0.290600 0.740560
Si Si6 0.617466 0.220573 0.944672
Si Si7 0.079116 0.781726 0.472859
O O1 0.862265 0.716577 0.686269
O O2 0.720170 0.711773 0.546416
O O3 0.853306 0.729166 0.822775
O O4 0.804309 0.000000 0.674224
O O5 0.273557 0.500000 0.233448
O O6 0.348741 0.702564 0.241970
O O7 0.205987 0.782176 0.092170
O O8 0.342792 0.786829 0.374456
O O9 0.921947 0.286796 0.615765
O O10 0.894434 0.000000 0.655348
O O11 0.559780 0.719192 0.933233
O O12 0.539642 0.000000 0.985654
O O13 0.500000 0.707570 0.000000
O O14 0.116174 0.500000 0.770947
O O15 0.000544 0.271225 0.594017
O O16 0.103028 0.218418 0.838677
O O17 0.615409 0.000000 0.940353
O O18 0.082144 0.000000 0.475345
#
# Coordination Sequence:
#
# PCOD9193934 Si02
#       7
#     8   8   8   8   8   8   8
#     4  10  20  34  54  83 115 145 185 237 286 327
#     4  10  20  38  62  81 108 150 196 235 273 337
#     4   9  19  36  57  80 110 151 191 227 273 339
#     4  10  21  37  59  82 110 151 195 230 273 339
#     4  11  23  37  57  86 120 146 181 239 293 338
#     4   9  20  39  60  84 111 149 195 235 279 335
#     4  10  21  37  59  84 112 151 193 230 277 338
#
# _framework density 25.614954000000001
#
# number of rings (size 3 to 8) (size 9 to 14) (size 15 to 20)
#    0.000    2.143    0.000    2.571    2.000    6.000 
#    0.000    4.286    0.000    0.000    0.000    0.000 
#    0.000    0.000    0.000    0.000    0.000    0.000 
#
# Total GULP energy -156683.495333 kJ/mol
# GULP energy per Si atom -5595.839119 kJ/mol
# Density = 2.555665 g / cm^3
# Si number density = 25.614954 Si / 1000 Ang^3
#
#
#
# Elastic Constant Matrix: (Units=GPa)
#
#
# Indices 1 2 3 4 5 6 
#
# 1 119.8917 1.9713 3.0299 0.0000 -18.0888 0.0000
# 2 1.9713 101.5261 -0.5734 0.0000 -0.7148 0.0000
# 3 3.0299 -0.5734 85.1666 0.0000 -14.7816 0.0000
# 4 0.0000 0.0000 0.0000 13.1683 0.0000 -2.3634
# 5 -18.0888 -0.7148 -14.7816 0.0000 47.4991 0.0000
# 6 0.0000 0.0000 0.0000 -2.3634 0.0000 6.5390
#
#
#
# Elastic Compliance Matrix: (Units=1/GPa)
#
#
# Indices 1 2 3 4 5 6 
#
# 1 0.008858 -0.000146 0.000284 0.000000 0.003460 0.000000
# 2 -0.000146 0.009854 0.000093 0.000000 0.000122 0.000000
# 3 0.000284 0.000093 0.012422 0.000000 0.003975 0.000000
# 4 0.000000 0.000000 0.000000 0.081208 0.000000 0.029351
# 5 0.003460 0.000122 0.003975 0.000000 0.023610 0.000000
# 6 0.000000 0.000000 0.000000 0.029351 0.000000 0.163538
#
#
# Mechanical properties :
#
#
# Convention : Reuss Voigt Hill
#
# Bulk Modulus (GPa) = 31.64957 35.04889 33.34923
# Shear Modulus (GPa) = 16.15196 33.58504 24.86850
#
# Velocity S-wave (km/s) = 2.51384 3.62491 3.11924
# Velocity P-wave (km/s) = 4.56164 5.58862 5.10104
#
# Compressibility (1/GPa) = 0.03159600
#
# Stress axis : x y z
#
# Youngs Moduli (GPa) = 112.89156 101.48269 80.50118
#
# Poissons Ratio (x) = 0.01482 -0.02289
# Poissons Ratio (y) = 0.01649 -0.00746
# Poissons Ratio (z) = -0.03210 -0.00940
#
# Static dielectric constant tensor:
#      x y z
#    x 2.021790 0.000000 0.000660 
#    y 0.000000 2.018020 0.000000 
#    z 0.000660 0.000000 1.993310 
# 
# From -- ./inp_files/292503.got.cif
#   From: 2010.05.17/outbox.cif.g08.bks.cpg/sg12_147_cif.got.tgz:292503.got - 2010.06.03 13:09:07.
