data_PCOD9193190
_publ_section_title
;
Structure prediction by ZEFSAII (Michael W. Deem and Ramdas Pophale) SiO2 
 PCOD9193190
Probable space group: C 2/M
;
_chemical_formula_sum "Si O2"
_cell_formula_units_Z 52
_cell_length_a 22.256378
_cell_length_b 17.127288
_cell_length_c 8.262881
_cell_angle_alpha 90.000000
_cell_angle_beta 47.689453
_cell_angle_gamma 90.000000
_cell_volume 2329.254756
_symmetry_space_group_name_H-M "C 2/M"
_symmetry_group_IT_number 12
_symmetry_cell_setting 'monoclinic'
loop_
_space_group_symop_operation_xyz
x,y,z
-x,y,-z
-x,-y,-z
x,-y,z
1/2+x,1/2+y,z
1/2-x,1/2+y,-z
1/2-x,1/2-y,-z
1/2+x,1/2-y,z
loop_
_atom_site_type_symbol
_atom_site_label
_atom_site_fract_x
_atom_site_fract_y
_atom_site_fract_z
Si Si1 0.709678 0.836000 0.037042
Si Si2 0.117363 0.294536 0.668806
Si Si3 0.000000 0.155861 0.500000
Si Si4 0.913012 0.913673 0.116947
Si Si5 0.147914 0.870322 0.439159
Si Si6 0.553893 0.216326 0.142983
Si Si7 0.255581 0.907524 0.688210
O O1 0.767017 0.877441 0.802470
O O2 0.750000 0.750000 0.000000
O O3 0.619733 0.827607 0.131189
O O4 0.710475 0.884403 0.199371
O O5 0.142230 0.219003 0.517927
O O6 0.189811 0.356669 0.532566
O O7 0.032928 0.323147 0.740527
O O8 0.095418 0.271236 0.892197
O O9 0.923147 0.113087 0.561861
O O10 0.968200 0.208587 0.707374
O O11 0.869345 0.918281 0.369478
O O12 0.839453 0.882985 0.141664
O O13 0.933691 0.000000 0.013985
O O14 0.000000 0.874588 0.000000
O O15 0.259495 0.000000 0.651004
#
# Coordination Sequence:
#
# PCOD9193190 Si02
#       7
#     8   8   4   8   8   8   8
#     4  12  22  38  61  95 131 164 207 262 317 368
#     4  10  22  40  65  97 121 169 213 261 309 374
#     4  10  20  34  53 100 129 158 198 264 318 372
#     4  10  25  44  62  90 127 169 214 260 312 380
#     4  11  23  35  65  91 127 162 211 259 312 372
#     4  10  21  38  62  95 135 156 209 263 314 371
#     4  11  25  45  65  90 129 170 212 260 321 378
#
# _framework density 22.324736000000001
#
# number of rings (size 3 to 8) (size 9 to 14) (size 15 to 20)
#    0.000    1.385    3.077    1.846    8.615    1.846 
#    0.000    4.231    0.000    0.000    0.000    0.000 
#    0.000    0.000    0.000    0.000    0.000    0.000 
#
# Total GULP energy -145288.362139 kJ/mol
# GULP energy per Si atom -5588.013928 kJ/mol
# Density = 2.227392 g / cm^3
# Si number density = 22.324736 Si / 1000 Ang^3
#
#
#
# Elastic Constant Matrix: (Units=GPa)
#
#
# Indices 1 2 3 4 5 6 
#
# 1 153.8661 22.7404 10.2627 0.0000 -17.5701 0.0000
# 2 22.7404 72.0644 15.1820 0.0000 -18.4104 0.0000
# 3 10.2627 15.1820 99.6675 0.0000 -1.2287 0.0000
# 4 0.0000 0.0000 0.0000 14.2473 0.0000 -2.1954
# 5 -17.5701 -18.4104 -1.2287 0.0000 43.2509 0.0000
# 6 0.0000 0.0000 0.0000 -2.1954 0.0000 16.9174
#
#
#
# Elastic Compliance Matrix: (Units=1/GPa)
#
#
# Indices 1 2 3 4 5 6 
#
# 1 0.007008 -0.001561 -0.000457 0.000000 0.002170 0.000000
# 2 -0.001561 0.016458 -0.002269 0.000000 0.006307 0.000000
# 3 -0.000457 -0.002269 0.010415 0.000000 -0.000855 0.000000
# 4 0.000000 0.000000 0.000000 0.071621 0.000000 0.009294
# 5 0.002170 0.006307 -0.000855 0.000000 0.026663 0.000000
# 6 0.000000 0.000000 0.000000 0.009294 0.000000 0.060317
#
#
# Mechanical properties :
#
#
# Convention : Reuss Voigt Hill
#
# Bulk Modulus (GPa) = 39.51214 46.88536 43.19875
# Shear Modulus (GPa) = 23.86731 33.37731 28.62231
#
# Velocity S-wave (km/s) = 3.27325 3.87082 3.58451
# Velocity P-wave (km/s) = 5.65887 6.40506 6.04349
#
# Compressibility (1/GPa) = 0.02530868
#
# Stress axis : x y z
#
# Youngs Moduli (GPa) = 142.69253 60.75981 96.01129
#
# Poissons Ratio (x) = 0.09484 0.04389
# Poissons Ratio (y) = 0.22273 0.21781
# Poissons Ratio (z) = 0.06523 0.13784
#
# Static dielectric constant tensor:
#      x y z
#    x 1.835000 0.000000 0.004280 
#    y 0.000000 1.893980 0.000000 
#    z 0.004280 0.000000 1.821610 
# 
# From -- ./inp_files/88381.got.cif
#   From: 2010.05.17/outbox.cif.g08.bks.cpg/sg12_45_cif.got.tgz:88381.got - 2010.06.03 13:09:07.
