data_PCOD9193600
_publ_section_title
;
Structure prediction by ZEFSAII (Michael W. Deem and Ramdas Pophale) SiO2 
 PCOD9193600
Probable space group: C 2/M
;
_chemical_formula_sum "Si O2"
_cell_formula_units_Z 40
_cell_length_a 18.753640
_cell_length_b 11.729969
_cell_length_c 7.447155
_cell_angle_alpha 90.000000
_cell_angle_beta 71.181849
_cell_angle_gamma 90.000000
_cell_volume 1550.654597
_symmetry_space_group_name_H-M "C 2/M"
_symmetry_group_IT_number 12
_symmetry_cell_setting 'monoclinic'
loop_
_space_group_symop_operation_xyz
x,y,z
-x,y,-z
-x,-y,-z
x,-y,z
1/2+x,1/2+y,z
1/2-x,1/2+y,-z
1/2-x,1/2-y,-z
1/2+x,1/2-y,z
loop_
_atom_site_type_symbol
_atom_site_label
_atom_site_fract_x
_atom_site_fract_y
_atom_site_fract_z
Si Si1 0.037202 0.248261 0.187218
Si Si2 0.322058 0.000000 0.009415
Si Si3 0.665717 0.257881 0.377312
Si Si4 0.333427 0.764513 0.200817
Si Si5 0.669684 0.500000 0.214677
Si Si6 0.494315 0.500000 0.717756
Si Si7 0.022669 0.500000 0.275528
O O1 0.091658 0.265201 0.317898
O O2 0.986692 0.132362 0.246874
O O3 0.000569 0.376316 0.204830
O O4 0.096744 0.222410 0.977914
O O5 0.330315 0.891639 0.127713
O O6 0.236596 0.000000 0.019294
O O7 0.386634 0.000000 0.812423
O O8 0.657014 0.232067 0.593032
O O9 0.748077 0.213080 0.242177
O O10 0.672949 0.392696 0.341606
O O11 0.593663 0.500000 0.167607
O O12 0.500000 0.500000 0.500000
O O13 0.000000 0.500000 0.500000
#
# Coordination Sequence:
#
# PCOD9193600 Si02
#       7
#     8   4   8   8   4   4   4
#     4  10  20  34  54  76 105 138 177 216 259 310
#     4   8  16  31  50  75 107 135 169 222 265 299
#     4   9  17  30  50  77 107 138 173 215 262 310
#     4   9  17  30  50  77 107 138 173 215 262 310
#     4   8  16  31  50  75 107 135 169 222 265 299
#     4  10  20  35  56  78 105 141 176 215 263 312
#     4  10  20  35  56  78 105 141 176 215 263 312
#
# _framework density 25.795559000000001
#
# number of rings (size 3 to 8) (size 9 to 14) (size 15 to 20)
#    0.000    2.800    0.000    1.200    0.000    3.200 
#    0.000    2.000    0.000   28.800    0.000    0.000 
#    0.000    0.000    0.000    0.000    0.000    0.000 
#
# Total GULP energy -111509.780793 kJ/mol
# GULP energy per Si atom -5575.489040 kJ/mol
# Density = 2.573685 g / cm^3
# Si number density = 25.795559 Si / 1000 Ang^3
#
#
#
# Elastic Constant Matrix: (Units=GPa)
#
#
# Indices 1 2 3 4 5 6 
#
# 1 71.7041 24.9735 16.9212 0.0000 7.6105 0.0000
# 2 24.9735 173.5149 73.2231 0.0000 -17.0738 0.0000
# 3 16.9212 73.2231 115.3444 0.0000 -0.2371 0.0000
# 4 0.0000 0.0000 0.0000 15.4262 0.0000 -11.1078
# 5 7.6105 -17.0738 -0.2371 0.0000 41.0604 0.0000
# 6 0.0000 0.0000 0.0000 -11.1078 0.0000 10.7140
#
#
#
# Elastic Compliance Matrix: (Units=1/GPa)
#
#
# Indices 1 2 3 4 5 6 
#
# 1 0.015318 -0.002218 -0.000847 0.000000 -0.003766 0.000000
# 2 -0.002218 0.008651 -0.005158 0.000000 0.003978 0.000000
# 3 -0.000847 -0.005158 0.012064 0.000000 -0.001918 0.000000
# 4 0.000000 0.000000 0.000000 0.255743 0.000000 0.265142
# 5 -0.003766 0.003978 -0.001918 0.000000 0.026696 0.000000
# 6 0.000000 0.000000 0.000000 0.265142 0.000000 0.368222
#
#
# Mechanical properties :
#
#
# Convention : Reuss Voigt Hill
#
# Bulk Modulus (GPa) = 51.05306 65.64435 58.34871
# Shear Modulus (GPa) = 7.04554 29.80316 18.42435
#
# Velocity S-wave (km/s) = 1.65446 3.40275 2.67544
# Velocity P-wave (km/s) = 4.84603 6.39855 5.67562
#
# Compressibility (1/GPa) = 0.01958746
#
# Stress axis : x y z
#
# Youngs Moduli (GPa) = 65.28143 115.59944 82.88837
#
# Poissons Ratio (x) = 0.25639 0.07021
# Poissons Ratio (y) = 0.14479 0.42754
# Poissons Ratio (z) = 0.05529 0.59626
#
# Static dielectric constant tensor:
#      x y z
#    x 2.100200 0.000000 0.009950 
#    y 0.000000 2.116730 0.000000 
#    z 0.009950 0.000000 1.804130 
# 
# From -- ./inp_files/48741.got.cif
#   From: 2010.05.17/outbox.cif.g08.bks.cpg/sg12_25_cif.got.tgz:48741.got - 2010.06.03 13:09:07.
