data_PCOD9193624
_publ_section_title
;
Structure prediction by ZEFSAII (Michael W. Deem and Ramdas Pophale) SiO2 
 PCOD9193624
Probable space group: C 2/M
;
_chemical_formula_sum "Si O2"
_cell_formula_units_Z 48
_cell_length_a 8.231357
_cell_length_b 11.380077
_cell_length_c 25.447656
_cell_angle_alpha 90.000000
_cell_angle_beta 71.142308
_cell_angle_gamma 90.000000
_cell_volume 2255.819827
_symmetry_space_group_name_H-M "C 2/M"
_symmetry_group_IT_number 12
_symmetry_cell_setting 'monoclinic'
loop_
_space_group_symop_operation_xyz
x,y,z
-x,y,-z
-x,-y,-z
x,-y,z
1/2+x,1/2+y,z
1/2-x,1/2+y,-z
1/2-x,1/2-y,-z
1/2+x,1/2-y,z
loop_
_atom_site_type_symbol
_atom_site_label
_atom_site_fract_x
_atom_site_fract_y
_atom_site_fract_z
Si Si1 0.123704 0.131984 0.413565
Si Si2 0.089731 0.373896 0.706678
Si Si3 0.943671 0.127976 0.154430
Si Si4 0.931590 0.631410 0.447808
Si Si5 0.174482 0.194161 0.224736
Si Si6 0.848634 0.868350 0.973620
O O1 0.276697 0.138472 0.354759
O O2 0.009292 0.247108 0.417455
O O3 0.226956 0.137923 0.458318
O O4 0.045217 0.000000 0.417179
O O5 0.001083 0.500000 0.711103
O O6 0.201060 0.371980 0.748496
O O7 0.950964 0.272493 0.726096
O O8 0.796326 0.222921 0.177054
O O9 0.054147 0.127999 0.196360
O O10 0.068518 0.149946 0.092426
O O11 0.863948 0.000000 0.154291
O O12 0.981072 0.500000 0.421001
O O13 0.000000 0.629234 0.500000
O O14 0.762555 0.000000 0.982446
O O15 0.750000 0.750000 0.000000
O O16 0.000000 0.876795 0.000000
#
# Coordination Sequence:
#
# PCOD9193624 Si02
#       6
#     8   8   8   8   8   8
#     4  10  21  36  55  80 109 141 178 219 264 316
#     4  10  20  35  53  76 106 137 173 216 260 310
#     4  10  20  35  54  77 105 136 174 217 260 310
#     4  10  21  37  56  80 109 140 178 222 266 315
#     4  10  20  34  54  77 103 137 174 212 262 312
#     4  10  21  37  56  80 109 140 177 220 265 316
#
# _framework density 21.278296000000001
#
# number of rings (size 3 to 8) (size 9 to 14) (size 15 to 20)
#    0.000    2.000    0.000    3.500    0.000    1.333 
#    0.000    8.333    0.000    0.000    0.000    0.000 
#    0.000    0.000    0.000    0.000    0.000    0.000 
#
# Total GULP energy -133852.863328 kJ/mol
# GULP energy per Si atom -5577.202639 kJ/mol
# Density = 2.122987 g / cm^3
# Si number density = 21.278296 Si / 1000 Ang^3
#
#
#
# Elastic Constant Matrix: (Units=GPa)
#
#
# Indices 1 2 3 4 5 6 
#
# 1 35.6362 31.9790 -14.0502 0.0000 4.2899 0.0000
# 2 31.9790 197.2892 29.6124 0.0000 -27.1698 0.0000
# 3 -14.0502 29.6124 57.7558 0.0000 1.9759 0.0000
# 4 0.0000 0.0000 0.0000 86.3626 0.0000 -18.8929
# 5 4.2899 -27.1698 1.9759 0.0000 25.9659 0.0000
# 6 0.0000 0.0000 0.0000 -18.8929 0.0000 -9.2855
#
#
#
# Elastic Compliance Matrix: (Units=1/GPa)
#
#
# Indices 1 2 3 4 5 6 
#
# 1 0.054535 -0.015980 0.022398 0.000000 -0.027435 0.000000
# 2 -0.015980 0.011286 -0.010195 0.000000 0.015225 0.000000
# 3 0.022398 -0.010195 0.028556 0.000000 -0.016541 0.000000
# 4 0.000000 0.000000 0.000000 0.008013 0.000000 -0.016303
# 5 -0.027435 0.015225 -0.016541 0.000000 0.060234 0.000000
# 6 0.000000 0.000000 0.000000 -0.016303 0.000000 -0.074524
#
#
# Mechanical properties :
#
#
# Convention : Reuss Voigt Hill
#
# Bulk Modulus (GPa) = 11.51754 42.86264 27.19009
# Shear Modulus (GPa) = 40.13061 36.81794 38.47427
#
# Velocity S-wave (km/s) = 4.34751 4.16421 4.25684
# Velocity P-wave (km/s) = 5.53405 6.58091 6.08005
#
# Compressibility (1/GPa) = 0.08682412
#
# Stress axis : x y z
#
# Youngs Moduli (GPa) = 18.33695 88.60704 35.01900
#
# Poissons Ratio (x) = 1.41592 -0.78437
# Poissons Ratio (y) = 0.29302 0.35701
# Poissons Ratio (z) = -0.41072 0.90332
#
# Static dielectric constant tensor:
#      x y z
#    x 1.730740 0.000000 0.009540 
#    y 0.000000 1.796300 0.000000 
#    z 0.009540 0.000000 1.779080 
# 
# From -- ./inp_files/331980.got.cif
#   From: 2010.05.17/outbox.cif.g08.bks.cpg/sg12_166_cif.got.tgz:331980.got - 2010.06.03 13:09:07.
