data_PCOD9193992
_publ_section_title
;
Structure prediction by ZEFSAII (Michael W. Deem and Ramdas Pophale) SiO2 
 PCOD9193992
Probable space group: C 2/M
;
_chemical_formula_sum "Si O2"
_cell_formula_units_Z 48
_cell_length_a 29.846942
_cell_length_b 8.763622
_cell_length_c 14.584137
_cell_angle_alpha 90.000000
_cell_angle_beta 37.056717
_cell_angle_gamma 90.000000
_cell_volume 2298.778667
_symmetry_space_group_name_H-M "C 2/M"
_symmetry_group_IT_number 12
_symmetry_cell_setting 'monoclinic'
loop_
_space_group_symop_operation_xyz
x,y,z
-x,y,-z
-x,-y,-z
x,-y,z
1/2+x,1/2+y,z
1/2-x,1/2+y,-z
1/2-x,1/2-y,-z
1/2+x,1/2-y,z
loop_
_atom_site_type_symbol
_atom_site_label
_atom_site_fract_x
_atom_site_fract_y
_atom_site_fract_z
Si Si1 0.467554 0.180586 0.754252
Si Si2 0.519180 0.829545 0.862314
Si Si3 0.667831 0.183515 0.151666
Si Si4 0.261747 0.824624 0.637194
Si Si5 0.120378 0.819030 0.423356
Si Si6 0.337865 0.674599 0.345915
O O1 0.462029 0.197485 0.873245
O O2 0.393108 0.233622 0.824614
O O3 0.543973 0.257696 0.593889
O O4 0.475090 0.000000 0.721436
O O5 0.577319 0.693311 0.765643
O O6 0.551126 0.000000 0.787991
O O7 0.500000 0.838015 0.000000
O O8 0.635412 0.239595 0.301593
O O9 0.673063 0.000000 0.142009
O O10 0.750000 0.250000 0.000000
O O11 0.307587 0.722243 0.632048
O O12 0.301286 0.795676 0.474565
O O13 0.178836 0.790302 0.734277
O O14 0.266398 0.000000 0.659436
O O15 0.115082 0.000000 0.421250
O O16 0.314688 0.500000 0.401307
#
# Coordination Sequence:
#
# PCOD9193992 Si02
#       6
#     8   8   8   8   8   8
#     4  10  22  42  66  92 126 169 213 261 319 382
#     4  10  21  37  59  87 122 166 207 248 306 374
#     4  11  25  45  67  93 128 168 211 262 323 387
#     4  10  20  35  57  85 121 159 197 247 305 365
#     4  12  24  39  65  98 127 164 216 268 318 376
#     4  10  20  34  54  85 119 157 202 250 301 355
#
# _framework density 20.880652999999999
#
# number of rings (size 3 to 8) (size 9 to 14) (size 15 to 20)
#    0.000    1.500    1.667    3.500    0.000    7.000 
#    0.000    1.667    0.000    0.000    0.000    0.000 
#    0.000    0.000    0.000    0.000    0.000    0.000 
#
# Total GULP energy -133705.172526 kJ/mol
# GULP energy per Si atom -5571.048855 kJ/mol
# Density = 2.083313 g / cm^3
# Si number density = 20.880653 Si / 1000 Ang^3
#
#
#
# Elastic Constant Matrix: (Units=GPa)
#
#
# Indices 1 2 3 4 5 6 
#
# 1 191.1243 37.0138 45.4277 0.0000 2.8736 0.0000
# 2 37.0138 69.6021 16.6316 -0.0003 -2.7314 0.0000
# 3 45.4277 16.6316 49.9344 -0.0001 13.8404 0.0000
# 4 0.0000 -0.0003 -0.0001 23.8026 0.0000 -3.6737
# 5 2.8736 -2.7314 13.8404 0.0000 21.7039 0.0000
# 6 0.0000 0.0000 0.0000 -3.6737 0.0000 31.5940
#
#
#
# Elastic Compliance Matrix: (Units=1/GPa)
#
#
# Indices 1 2 3 4 5 6 
#
# 1 0.007180 -0.002104 -0.006674 0.000000 0.003041 0.000000
# 2 -0.002104 0.016998 -0.005365 0.000000 0.005839 0.000000
# 3 -0.006674 -0.005365 0.033802 0.000000 -0.021347 0.000000
# 4 0.000000 0.000000 0.000000 0.042780 0.000000 0.004974
# 5 0.003041 0.005839 -0.021347 0.000000 0.060019 0.000000
# 6 0.000000 0.000000 0.000000 0.004974 0.000000 0.032230
#
#
# Mechanical properties :
#
#
# Convention : Reuss Voigt Hill
#
# Bulk Modulus (GPa) = 33.67915 56.53412 45.10664
# Shear Modulus (GPa) = 21.62678 29.52594 25.57636
#
# Velocity S-wave (km/s) = 3.22177 3.76444 3.50363
# Velocity P-wave (km/s) = 5.47760 6.78442 6.16573
#
# Compressibility (1/GPa) = 0.02969196
#
# Stress axis : x y z
#
# Youngs Moduli (GPa) = 139.26817 58.83149 29.58411
#
# Poissons Ratio (x) = 0.12380 0.19745
# Poissons Ratio (y) = 0.29307 0.15873
# Poissons Ratio (z) = 0.92951 0.31566
#
# Static dielectric constant tensor:
#      x y z
#    x 1.862730 0.000000 -0.091910 
#    y 0.000000 1.731730 0.000000 
#    z -0.091910 0.000000 1.847170 
# 
# From -- ./inp_files/248788.got.cif
#   From: 2010.05.17/outbox.cif.g08.bks.cpg/sg12_125_cif.got.tgz:248788.got - 2010.06.03 13:09:07.
