data_PCOD9193623
_publ_section_title
;
Structure prediction by ZEFSAII (Michael W. Deem and Ramdas Pophale) SiO2 
 PCOD9193623
Probable space group: C 2/M
;
_chemical_formula_sum "Si O2"
_cell_formula_units_Z 56
_cell_length_a 20.031823
_cell_length_b 8.922062
_cell_length_c 31.051695
_cell_angle_alpha 90.000000
_cell_angle_beta 143.906128
_cell_angle_gamma 90.000000
_cell_volume 3269.394824
_symmetry_space_group_name_H-M "C 2/M"
_symmetry_group_IT_number 12
_symmetry_cell_setting 'monoclinic'
loop_
_space_group_symop_operation_xyz
x,y,z
-x,y,-z
-x,-y,-z
x,-y,z
1/2+x,1/2+y,z
1/2-x,1/2+y,-z
1/2-x,1/2-y,-z
1/2+x,1/2-y,z
loop_
_atom_site_type_symbol
_atom_site_label
_atom_site_fract_x
_atom_site_fract_y
_atom_site_fract_z
Si Si1 0.229175 0.178559 0.226795
Si Si2 0.472336 0.679221 0.340670
Si Si3 0.916407 0.320282 0.773486
Si Si4 0.318973 0.679589 0.496133
Si Si5 0.127894 0.321364 0.942718
Si Si6 0.983260 0.179529 0.942008
Si Si7 0.362703 0.679667 0.653766
O O1 0.353889 0.236976 0.281333
O O2 0.176591 0.258408 0.241365
O O3 0.141540 0.211115 0.142120
O O4 0.229952 0.000000 0.234056
O O5 0.453682 0.500000 0.329868
O O6 0.551126 0.712268 0.423509
O O7 0.546389 0.717780 0.336677
O O8 0.907168 0.500000 0.765563
O O9 0.900806 0.245953 0.719022
O O10 0.038519 0.282749 0.858213
O O11 0.305348 0.500000 0.488514
O O12 0.250000 0.750000 0.500000
O O13 0.258483 0.751194 0.423438
O O14 0.137219 0.500000 0.949146
O O15 0.071346 0.260465 0.956761
O O16 0.250000 0.250000 0.000000
O O17 0.000895 0.000000 0.948284
O O18 0.000000 0.224937 0.000000
O O19 0.354314 0.500000 0.650916
#
# Coordination Sequence:
#
# PCOD9193623 Si02
#       7
#     8   8   8   8   8   8   8
#     4  10  20  34  54  77 103 137 173 212 258 307
#     4   9  19  34  52  76 106 137 169 210 257 305
#     4  10  21  37  55  75 104 140 174 211 259 312
#     4   9  17  31  51  75 104 138 174 214 261 307
#     4  10  21  36  55  78 104 137 174 213 258 307
#     4   9  19  36  55  76 104 136 171 213 259 307
#     4  10  20  34  54  80 107 136 173 217 262 307
#
# _framework density 17.128551999999999
#
# number of rings (size 3 to 8) (size 9 to 14) (size 15 to 20)
#    0.000    2.429    0.000    3.000    0.000    7.143 
#    0.000    5.000    0.000    4.286    0.000    0.000 
#    0.000    0.000    0.000    0.000    0.000    0.000 
#
# Total GULP energy -156155.277368 kJ/mol
# GULP energy per Si atom -5576.974192 kJ/mol
# Density = 1.708957 g / cm^3
# Si number density = 17.128552 Si / 1000 Ang^3
#
#
#
# Elastic Constant Matrix: (Units=GPa)
#
#
# Indices 1 2 3 4 5 6 
#
# 1 88.9799 54.6532 103.2742 0.0000 -3.6975 -0.0001
# 2 54.6532 63.5995 74.8040 0.0001 0.4501 -0.0002
# 3 103.2742 74.8040 157.3408 0.0000 -6.3567 0.0000
# 4 0.0000 0.0001 0.0000 32.0449 0.0000 2.3540
# 5 -3.6975 0.4501 -6.3567 0.0000 33.0212 0.0000
# 6 -0.0001 -0.0002 0.0000 2.3540 0.0000 32.2387
#
#
#
# Elastic Compliance Matrix: (Units=1/GPa)
#
#
# Indices 1 2 3 4 5 6 
#
# 1 0.049771 -0.009900 -0.027948 0.000000 0.000328 0.000000
# 2 -0.009900 0.038112 -0.011779 0.000000 -0.003896 0.000000
# 3 -0.027948 -0.011779 0.030417 0.000000 0.002886 0.000000
# 4 0.000000 0.000000 0.000000 0.031375 0.000000 -0.002291
# 5 0.000328 -0.003896 0.002886 0.000000 0.030929 0.000000
# 6 0.000000 0.000000 0.000000 -0.002291 0.000000 0.031186
#
#
# Mechanical properties :
#
#
# Convention : Reuss Voigt Hill
#
# Bulk Modulus (GPa) = 52.50565 86.15367 69.32966
# Shear Modulus (GPa) = 15.75333 24.60687 20.18010
#
# Velocity S-wave (km/s) = 3.03596 3.79436 3.43615
# Velocity P-wave (km/s) = 6.55819 8.34288 7.50379
#
# Compressibility (1/GPa) = 0.01904557
#
# Stress axis : x y z
#
# Youngs Moduli (GPa) = 20.09195 26.23813 32.87662
#
# Poissons Ratio (x) = 0.25976 0.91885
# Poissons Ratio (y) = 0.19891 0.38725
# Poissons Ratio (z) = 0.56154 0.30905
#
# Static dielectric constant tensor:
#      x y z
#    x 1.554210 0.000000 -0.013460 
#    y 0.000000 1.568270 0.000000 
#    z -0.013460 0.000000 1.599640 
# 
# From -- ./inp_files/320228.got.cif
#   From: 2010.05.17/outbox.cif.g08.bks.cpg/sg12_161_cif.got.tgz:320228.got - 2010.06.03 13:09:07.
