data_PCOD9193776
_publ_section_title
;
Structure prediction by ZEFSAII (Michael W. Deem and Ramdas Pophale) SiO2 
 PCOD9193776
Probable space group: C 2/M
;
_chemical_formula_sum "Si O2"
_cell_formula_units_Z 52
_cell_length_a 33.744082
_cell_length_b 8.563353
_cell_length_c 14.288241
_cell_angle_alpha 90.000000
_cell_angle_beta 32.384385
_cell_angle_gamma 90.000000
_cell_volume 2211.353117
_symmetry_space_group_name_H-M "C 2/M"
_symmetry_group_IT_number 12
_symmetry_cell_setting 'monoclinic'
loop_
_space_group_symop_operation_xyz
x,y,z
-x,y,-z
-x,-y,-z
x,-y,z
1/2+x,1/2+y,z
1/2-x,1/2+y,-z
1/2-x,1/2-y,-z
1/2+x,1/2-y,z
loop_
_atom_site_type_symbol
_atom_site_label
_atom_site_fract_x
_atom_site_fract_y
_atom_site_fract_z
Si Si1 0.074399 0.500000 0.914118
Si Si2 0.093886 0.815670 0.233853
Si Si3 0.514190 0.000000 0.361036
Si Si4 0.122844 0.819984 0.871394
Si Si5 0.949819 0.500000 0.298276
Si Si6 0.230280 0.823932 0.828061
Si Si7 0.625545 0.671351 0.378172
Si Si8 0.047474 0.834368 0.722422
O O1 0.117177 0.664391 0.818807
O O2 0.036741 0.500000 0.093515
O O3 0.000000 0.500000 0.000000
O O4 0.056429 0.664751 0.260099
O O5 0.097709 0.764826 0.335257
O O6 0.065697 0.000000 0.283255
O O7 0.174626 0.821352 0.026714
O O8 0.500000 0.000000 0.500000
O O9 0.448500 0.000000 0.414111
O O10 0.039047 0.832911 0.079605
O O11 0.138689 0.000000 0.806131
O O12 0.181600 0.778377 0.835179
O O13 0.920248 0.663828 0.317512
O O14 0.303946 0.737614 0.709689
O O15 0.253599 0.000000 0.762452
O O16 0.649864 0.500000 0.299679
O O17 0.562562 0.659362 0.581875
O O18 0.077763 0.000000 0.701097
#
# Coordination Sequence:
#
# PCOD9193776 Si02
#       8
#     4   8   4   8   4   8   8   8
#     4  10  20  34  58  88 112 142 178 221 282 335
#     4  10  22  36  47  69 105 145 187 231 272 317
#     4  12  24  34  56  82 106 152 187 225 281 320
#     4   9  19  36  55  79 112 139 174 221 274 330
#     4  10  20  34  54  80 110 144 178 226 283 317
#     4  10  21  34  53  76 105 148 185 225 280 320
#     4  10  21  33  51  76 104 144 190 232 271 315
#     4   9  18  34  53  74 106 138 178 226 268 325
#
# _framework density 23.515014000000001
#
# number of rings (size 3 to 8) (size 9 to 14) (size 15 to 20)
#    0.000    2.154    0.000    3.231    4.308    2.462 
#    0.000    0.000    0.000    0.000    0.000    4.308 
#    0.000    0.000    0.000    0.000    0.000    0.000 
#
# Total GULP energy -144796.059578 kJ/mol
# GULP energy per Si atom -5569.079215 kJ/mol
# Density = 2.346149 g / cm^3
# Si number density = 23.515014 Si / 1000 Ang^3
#
#
#
# Elastic Constant Matrix: (Units=GPa)
#
#
# Indices 1 2 3 4 5 6 
#
# 1 97.1492 49.3696 16.4859 0.0000 5.0914 0.0000
# 2 49.3696 209.5457 19.2677 0.0000 -16.8096 0.0000
# 3 16.4859 19.2677 22.0361 0.0000 -7.6493 0.0000
# 4 0.0000 0.0000 0.0000 20.2863 0.0000 -19.4900
# 5 5.0914 -16.8096 -7.6493 0.0000 17.9289 0.0000
# 6 0.0000 0.0000 0.0000 -19.4900 0.0000 -19.6217
#
#
#
# Elastic Compliance Matrix: (Units=1/GPa)
#
#
# Indices 1 2 3 4 5 6 
#
# 1 0.014789 -0.003349 -0.012541 0.000000 -0.012690 0.000000
# 2 -0.003349 0.006135 -0.000624 0.000000 0.006437 0.000000
# 3 -0.012541 -0.000624 0.066136 0.000000 0.031193 0.000000
# 4 0.000000 0.000000 0.000000 0.025224 0.000000 -0.025054
# 5 -0.012690 0.006437 0.031193 0.000000 0.078723 0.000000
# 6 0.000000 0.000000 0.000000 -0.025054 0.000000 -0.026078
#
#
# Mechanical properties :
#
#
# Convention : Reuss Voigt Hill
#
# Bulk Modulus (GPa) = 18.50774 55.44194 36.97484
# Shear Modulus (GPa) = 23.15177 19.95920 21.55548
#
# Velocity S-wave (km/s) = 3.14116 2.91655 3.03094
# Velocity P-wave (km/s) = 4.58733 5.91356 5.29215
#
# Compressibility (1/GPa) = 0.05403144
#
# Stress axis : x y z
#
# Youngs Moduli (GPa) = 67.61983 162.99780 15.12041
#
# Poissons Ratio (x) = 0.54590 0.18962
# Poissons Ratio (y) = 0.22647 0.00944
# Poissons Ratio (z) = 0.84799 0.10176
#
# Static dielectric constant tensor:
#      x y z
#    x 1.991310 0.000000 0.010780 
#    y 0.000000 2.026610 0.000000 
#    z 0.010780 0.000000 1.885930 
# 
# From -- ./inp_files/249634.got.cif
#   From: 2010.05.17/outbox.cif.g08.bks.cpg/sg12_125_cif.got.tgz:249634.got - 2010.06.03 13:09:07.
