data_PCOD9193665
_publ_section_title
;
Structure prediction by ZEFSAII (Michael W. Deem and Ramdas Pophale) SiO2 
 PCOD9193665
Probable space group: C 2/M
;
_chemical_formula_sum "Si O2"
_cell_formula_units_Z 48
_cell_length_a 10.267471
_cell_length_b 11.425454
_cell_length_c 18.303463
_cell_angle_alpha 90.000000
_cell_angle_beta 74.184218
_cell_angle_gamma 90.000000
_cell_volume 2065.902505
_symmetry_space_group_name_H-M "C 2/M"
_symmetry_group_IT_number 12
_symmetry_cell_setting 'monoclinic'
loop_
_space_group_symop_operation_xyz
x,y,z
-x,y,-z
-x,-y,-z
x,-y,z
1/2+x,1/2+y,z
1/2-x,1/2+y,-z
1/2-x,1/2-y,-z
1/2+x,1/2-y,z
loop_
_atom_site_type_symbol
_atom_site_label
_atom_site_fract_x
_atom_site_fract_y
_atom_site_fract_z
Si Si1 0.863889 0.874340 0.568742
Si Si2 0.289321 0.875112 0.609289
Si Si3 0.631887 0.632721 0.064750
Si Si4 0.610279 0.128041 0.242771
Si Si5 0.016872 0.873226 0.288972
Si Si6 0.164364 0.207589 0.897219
O O1 0.808659 0.744750 0.563502
O O2 0.000000 0.879736 0.500000
O O3 0.892411 0.872513 0.651534
O O4 0.792120 0.000000 0.566429
O O5 0.371747 0.875132 0.672575
O O6 0.134486 0.874968 0.657856
O O7 0.319117 0.000000 0.567700
O O8 0.589550 0.500000 0.082701
O O9 0.753489 0.673050 0.098700
O O10 0.496232 0.711819 0.091220
O O11 0.680042 0.643145 0.973105
O O12 0.535342 0.252076 0.242842
O O13 0.754160 0.143619 0.179695
O O14 0.552922 0.000000 0.229367
O O15 0.041124 0.000000 0.248404
#
# Coordination Sequence:
#
# PCOD9193665 Si02
#       6
#     8   8   8   8   8   8
#     4   9  18  33  52  75 106 140 173 217 272 326
#     4   9  19  34  52  75 103 138 179 224 270 327
#     4  10  21  40  61  84 119 157 195 249 308 358
#     4  10  20  34  54  78 106 141 183 231 283 337
#     4   9  19  35  53  75 106 140 180 223 272 335
#     4  10  21  37  61  88 115 154 202 245 299 365
#
# _framework density 23.234397999999999
#
# number of rings (size 3 to 8) (size 9 to 14) (size 15 to 20)
#    0.000    2.500    0.000    2.000    2.333    2.333 
#    0.000    8.333    0.000    0.000    0.000    0.000 
#    0.000    0.000    0.000    0.000    0.000    0.000 
#
# Total GULP energy -133738.368868 kJ/mol
# GULP energy per Si atom -5572.432036 kJ/mol
# Density = 2.318152 g / cm^3
# Si number density = 23.234398 Si / 1000 Ang^3
#
#
#
# Elastic Constant Matrix: (Units=GPa)
#
#
# Indices 1 2 3 4 5 6 
#
# 1 41.8813 39.0975 -6.7085 0.0000 -1.4768 0.0000
# 2 39.0975 239.1679 43.7682 0.0000 -17.1339 0.0000
# 3 -6.7085 43.7682 69.0301 0.0000 10.2246 0.0000
# 4 0.0000 0.0000 0.0000 13.8696 0.0000 -13.7074
# 5 -1.4768 -17.1339 10.2246 0.0000 35.3780 0.0000
# 6 0.0000 0.0000 0.0000 -13.7074 0.0000 52.6541
#
#
#
# Elastic Compliance Matrix: (Units=1/GPa)
#
#
# Indices 1 2 3 4 5 6 
#
# 1 0.031514 -0.006953 0.008123 0.000000 -0.004400 0.000000
# 2 -0.006953 0.006664 -0.005575 0.000000 0.004548 0.000000
# 3 0.008123 -0.005575 0.020017 0.000000 -0.008146 0.000000
# 4 0.000000 0.000000 0.000000 0.097076 0.000000 0.025272
# 5 -0.004400 0.004548 -0.008146 0.000000 0.032639 0.000000
# 6 0.000000 0.000000 0.000000 0.025272 0.000000 0.025571
#
#
# Mechanical properties :
#
#
# Convention : Reuss Voigt Hill
#
# Bulk Modulus (GPa) = 20.24896 55.82152 38.03524
# Shear Modulus (GPa) = 20.94210 38.64180 29.79195
#
# Velocity S-wave (km/s) = 3.00549 4.08257 3.58472
# Velocity P-wave (km/s) = 4.55828 6.80446 5.79132
#
# Compressibility (1/GPa) = 0.04938524
#
# Stress axis : x y z
#
# Youngs Moduli (GPa) = 31.73159 150.06278 49.95758
#
# Poissons Ratio (x) = 1.04346 -0.40581
# Poissons Ratio (y) = 0.22065 0.27850
# Poissons Ratio (z) = -0.25776 0.83655
#
# Static dielectric constant tensor:
#      x y z
#    x 1.865970 0.000000 0.037660 
#    y 0.000000 1.960550 0.000000 
#    z 0.037660 0.000000 1.868150 
# 
# From -- ./inp_files/261731.got.cif
#   From: 2010.05.17/outbox.cif.g08.bks.cpg/sg12_131_cif.got.tgz:261731.got - 2010.06.03 13:09:07.
