data_PCOD9193986
_publ_section_title
;
Structure prediction by ZEFSAII (Michael W. Deem and Ramdas Pophale) SiO2 
 PCOD9193986
Probable space group: C 2/M
;
_chemical_formula_sum "Si O2"
_cell_formula_units_Z 64
_cell_length_a 26.959424
_cell_length_b 8.839933
_cell_length_c 15.193860
_cell_angle_alpha 90.000000
_cell_angle_beta 66.573981
_cell_angle_gamma 90.000000
_cell_volume 3322.529815
_symmetry_space_group_name_H-M "C 2/M"
_symmetry_group_IT_number 12
_symmetry_cell_setting 'monoclinic'
loop_
_space_group_symop_operation_xyz
x,y,z
-x,y,-z
-x,-y,-z
x,-y,z
1/2+x,1/2+y,z
1/2-x,1/2+y,-z
1/2-x,1/2-y,-z
1/2+x,1/2-y,z
loop_
_atom_site_type_symbol
_atom_site_label
_atom_site_fract_x
_atom_site_fract_y
_atom_site_fract_z
Si Si1 0.099614 0.319160 0.070847
Si Si2 0.478027 0.822313 0.219803
Si Si3 0.562234 0.326864 0.922400
Si Si4 0.598399 0.333405 0.599834
Si Si5 0.797472 0.321523 0.524465
Si Si6 0.329032 0.315942 0.690929
Si Si7 0.297416 0.318411 0.906601
Si Si8 0.443265 0.330321 0.567197
O O1 0.107069 0.500000 0.061172
O O2 0.146528 0.241799 0.092913
O O3 0.040510 0.289568 0.154583
O O4 0.096738 0.249270 0.974994
O O5 0.441656 0.772593 0.162274
O O6 0.454843 0.726278 0.315648
O O7 0.472795 0.000000 0.239779
O O8 0.578799 0.500000 0.893467
O O9 0.500000 0.330926 0.000000
O O10 0.613712 0.500000 0.622717
O O11 0.647837 0.218248 0.567776
O O12 0.584884 0.346709 0.507199
O O13 0.790508 0.500000 0.537755
O O14 0.750000 0.250000 0.500000
O O15 0.804219 0.251122 0.618252
O O16 0.330327 0.500000 0.682686
O O17 0.297101 0.276619 0.802847
O O18 0.392576 0.264908 0.657429
O O19 0.295410 0.500000 0.913040
O O20 0.250000 0.250000 0.000000
O O21 0.500000 0.252884 0.500000
O O22 0.456524 0.500000 0.593307
#
# Coordination Sequence:
#
# PCOD9193986 Si02
#       8
#     8   8   8   8   8   8   8   8
#     4  10  21  37  58  83 117 157 197 243 304 364
#     4  10  20  34  54  84 122 157 191 239 300 359
#     4   9  17  32  54  80 110 147 194 241 287 345
#     4  10  20  34  55  85 121 154 195 240 283 348
#     4  11  22  40  65  89 120 156 196 245 301 362
#     4   9  20  39  62  89 120 156 199 246 300 356
#     4  11  24  42  64  88 120 158 206 258 304 360
#     4   8  15  29  53  84 116 149 186 230 279 338
#
# _framework density 19.262432
#
# number of rings (size 3 to 8) (size 9 to 14) (size 15 to 20)
#    0.000    2.250    0.000    3.750    1.750    4.000 
#    2.250    0.000    0.000    1.875    0.000    0.000 
#    0.000    0.000    0.000    0.000    0.000    0.000 
#
# Total GULP energy -178347.151760 kJ/mol
# GULP energy per Si atom -5573.348493 kJ/mol
# Density = 1.921859 g / cm^3
# Si number density = 19.262432 Si / 1000 Ang^3
#
#
#
# Elastic Constant Matrix: (Units=GPa)
#
#
# Indices 1 2 3 4 5 6 
#
# 1 85.7867 39.1359 33.0113 0.0000 2.5273 0.0000
# 2 39.1359 77.9743 40.9790 0.0000 -1.6874 0.0000
# 3 33.0113 40.9790 100.6231 0.0000 -6.4197 0.0000
# 4 0.0000 0.0000 0.0000 26.9298 0.0000 1.7396
# 5 2.5273 -1.6874 -6.4197 0.0000 19.2135 0.0000
# 6 0.0000 0.0000 0.0000 1.7396 0.0000 26.6981
#
#
#
# Elastic Compliance Matrix: (Units=1/GPa)
#
#
# Indices 1 2 3 4 5 6 
#
# 1 0.015816 -0.006576 -0.002738 0.000000 -0.003573 0.000000
# 2 -0.006576 0.019064 -0.005563 0.000000 0.000681 0.000000
# 3 -0.002738 -0.005563 0.013379 0.000000 0.004342 0.000000
# 4 0.000000 0.000000 0.000000 0.037291 0.000000 -0.002430
# 5 -0.003573 0.000681 0.004342 0.000000 0.054027 0.000000
# 6 0.000000 0.000000 0.000000 -0.002430 0.000000 0.037614
#
#
# Mechanical properties :
#
#
# Convention : Reuss Voigt Hill
#
# Bulk Modulus (GPa) = 54.04402 54.51517 54.27960
# Shear Modulus (GPa) = 23.46165 24.65213 24.05689
#
# Velocity S-wave (km/s) = 3.49377 3.58132 3.53781
# Velocity P-wave (km/s) = 6.66280 6.74269 6.70286
#
# Compressibility (1/GPa) = 0.01850343
#
# Stress axis : x y z
#
# Youngs Moduli (GPa) = 63.22726 52.45572 74.74414
#
# Poissons Ratio (x) = 0.34496 0.20468
# Poissons Ratio (y) = 0.41580 0.41579
# Poissons Ratio (z) = 0.17315 0.29180
#
# Static dielectric constant tensor:
#      x y z
#    x 1.680380 0.000000 -0.020450 
#    y 0.000000 1.661110 0.000000 
#    z -0.020450 0.000000 1.716890 
# 
# From -- ./inp_files/243823.got.cif
#   From: 2010.05.17/outbox.cif.g08.bks.cpg/sg12_122_cif.got.tgz:243823.got - 2010.06.03 13:09:07.
