data_PCOD9193207
_publ_section_title
;
Structure prediction by ZEFSAII (Michael W. Deem and Ramdas Pophale) SiO2 
 PCOD9193207
Probable space group: C 2/M
;
_chemical_formula_sum "Si O2"
_cell_formula_units_Z 40
_cell_length_a 9.834681
_cell_length_b 14.066378
_cell_length_c 13.963019
_cell_angle_alpha 90.000000
_cell_angle_beta 78.575071
_cell_angle_gamma 90.000000
_cell_volume 1893.345968
_symmetry_space_group_name_H-M "C 2/M"
_symmetry_group_IT_number 12
_symmetry_cell_setting 'monoclinic'
loop_
_space_group_symop_operation_xyz
x,y,z
-x,y,-z
-x,-y,-z
x,-y,z
1/2+x,1/2+y,z
1/2-x,1/2+y,-z
1/2-x,1/2-y,-z
1/2+x,1/2-y,z
loop_
_atom_site_type_symbol
_atom_site_label
_atom_site_fract_x
_atom_site_fract_y
_atom_site_fract_z
Si Si1 0.705202 0.608451 0.950903
Si Si2 0.877415 0.308157 0.087708
Si Si3 0.466774 0.107850 0.770091
Si Si4 0.135342 0.693462 0.411794
Si Si5 0.167157 0.895905 0.469335
O O1 0.654185 0.500000 0.963277
O O2 0.619268 0.693885 0.915382
O O3 0.840015 0.606012 0.863497
O O4 0.744232 0.649010 0.051301
O O5 0.907260 0.346534 0.188373
O O6 0.000000 0.341587 0.000000
O O7 0.415963 0.163851 0.684783
O O8 0.498568 0.000000 0.738036
O O9 0.194792 0.800775 0.405022
O O10 0.253222 0.626225 0.441981
O O11 0.000000 0.689202 0.500000
O O12 0.000000 0.898909 0.500000
O O13 0.212252 0.000000 0.428092
#
# Coordination Sequence:
#
# PCOD9193207 Si02
#       5
#     8   8   8   8   8
#     4   9  18  33  53  76 104 138 171 206 257 319
#     4   9  18  33  53  77 103 131 169 215 258 307
#     4  10  20  34  53  75 102 138 176 214 260 313
#     4  10  21  36  55  80 108 140 184 230 265 309
#     4   9  19  36  55  74 102 140 177 219 274 325
#
# _framework density 21.126619999999999
#
# number of rings (size 3 to 8) (size 9 to 14) (size 15 to 20)
#    0.000    2.600    0.000    1.200    0.000    9.200 
#    0.000    3.000    0.000    4.800    0.000    0.000 
#    0.000    0.000    0.000    0.000    0.000    0.000 
#
# Total GULP energy -111475.055891 kJ/mol
# GULP energy per Si atom -5573.752795 kJ/mol
# Density = 2.107853 g / cm^3
# Si number density = 21.126620 Si / 1000 Ang^3
#
#
#
# Elastic Constant Matrix: (Units=GPa)
#
#
# Indices 1 2 3 4 5 6 
#
# 1 51.1966 4.0970 27.3900 0.0000 5.4300 0.0000
# 2 4.0970 149.9574 67.0121 0.0000 25.6297 0.0000
# 3 27.3900 67.0121 125.9752 0.0000 40.1532 0.0000
# 4 0.0000 0.0000 0.0000 -90.2728 0.0000 -175.1011
# 5 5.4300 25.6297 40.1532 0.0000 33.0495 0.0000
# 6 0.0000 0.0000 0.0000 -175.1011 0.0000 -299.3850
#
#
#
# Elastic Compliance Matrix: (Units=1/GPa)
#
#
# Indices 1 2 3 4 5 6 
#
# 1 0.022799 0.001966 -0.007055 0.000000 0.003301 0.000000
# 2 0.001966 0.008987 -0.004706 0.000000 -0.001575 0.000000
# 3 -0.007055 -0.004706 0.017042 0.000000 -0.015897 0.000000
# 4 0.000000 0.000000 0.000000 0.082383 0.000000 -0.048183
# 5 0.003301 -0.001575 -0.015897 0.000000 0.050250 0.000000
# 6 0.000000 0.000000 0.000000 -0.048183 0.000000 0.024841
#
#
# Mechanical properties :
#
#
# Convention : Reuss Voigt Hill
#
# Bulk Modulus (GPa) = 34.20214 58.23639 46.21927
# Shear Modulus (GPa) = 21.21892 -56.07964 -17.43036
#
# Velocity S-wave (km/s) = 3.17262 -5.15773 -2.87547
# Velocity P-wave (km/s) = 5.44472 2.80077 3.30156
#
# Compressibility (1/GPa) = 0.02923793
#
# Stress axis : x y z
#
# Youngs Moduli (GPa) = 43.86068 111.27169 58.67778
#
# Poissons Ratio (x) = -0.21871 0.41397
# Poissons Ratio (y) = -0.08621 0.27614
# Poissons Ratio (z) = 0.30943 0.52365
#
# Static dielectric constant tensor:
#      x y z
#    x 1.832160 0.000000 -0.009450 
#    y 0.000000 1.783140 0.000000 
#    z -0.009450 0.000000 1.731800 
# 
# From -- ./inp_files/129249.got.cif
#   From: 2010.05.17/outbox.cif.g08.bks.cpg/sg12_65_cif.got.tgz:129249.got - 2010.06.03 13:09:07.
