data_PCOD9193047
_publ_section_title
;
Structure prediction by ZEFSAII (Michael W. Deem and Ramdas Pophale) SiO2 
 PCOD9193047
Probable space group: C 2/M
;
_chemical_formula_sum "Si O2"
_cell_formula_units_Z 60
_cell_length_a 8.211198
_cell_length_b 11.647134
_cell_length_c 31.731534
_cell_angle_alpha 90.000000
_cell_angle_beta 73.772285
_cell_angle_gamma 90.000000
_cell_volume 2913.799401
_symmetry_space_group_name_H-M "C 2/M"
_symmetry_group_IT_number 12
_symmetry_cell_setting 'monoclinic'
loop_
_space_group_symop_operation_xyz
x,y,z
-x,y,-z
-x,-y,-z
x,-y,z
1/2+x,1/2+y,z
1/2-x,1/2+y,-z
1/2-x,1/2-y,-z
1/2+x,1/2-y,z
loop_
_atom_site_type_symbol
_atom_site_label
_atom_site_fract_x
_atom_site_fract_y
_atom_site_fract_z
Si Si1 0.313246 0.372752 0.118797
Si Si2 0.000000 0.680788 0.000000
Si Si3 0.117276 0.801775 0.724896
Si Si4 0.328474 0.685416 0.935420
Si Si5 0.642844 0.872092 0.219577
Si Si6 0.871344 0.124690 0.671634
Si Si7 0.143119 0.868654 0.577445
Si Si8 0.026532 0.371021 0.548513
O O1 0.248553 0.500000 0.113021
O O2 0.516539 0.374618 0.099455
O O3 0.237367 0.283128 0.091460
O O4 0.253175 0.344313 0.170293
O O5 0.159936 0.623014 0.965092
O O6 0.915640 0.758981 0.970128
O O7 0.239354 0.868875 0.747502
O O8 0.234190 0.724241 0.685937
O O9 0.006105 0.717157 0.761836
O O10 0.986995 0.869707 0.705176
O O11 0.572935 0.000000 0.219105
O O12 0.999621 0.136585 0.623479
O O13 0.786493 0.000000 0.674676
O O14 0.335453 0.866180 0.580713
O O15 0.120222 0.748173 0.553652
O O16 0.127218 0.000000 0.558808
O O17 0.098518 0.500000 0.554281
O O18 0.000000 0.370799 0.500000
#
# Coordination Sequence:
#
# PCOD9193047 Si02
#       8
#     8   4   8   8   8   8   8   8
#     4  10  20  34  53  75 101 133 167 206 253 300
#     4   8  16  32  52  72 102 132 162 210 252 294
#     4  10  20  34  54  76 101 137 170 207 259 305
#     4   9  17  34  53  73 102 132 164 208 252 297
#     4  10  20  34  52  76 102 131 170 209 249 303
#     4  10  20  35  53  76 106 136 172 216 259 310
#     4  10  21  36  55  80 109 142 180 223 272 325
#     4  10  21  37  56  80 110 143 182 227 272 322
#
# _framework density 20.591671000000002
#
# number of rings (size 3 to 8) (size 9 to 14) (size 15 to 20)
#    0.000    2.267    0.000    2.800    0.000    0.800 
#    0.000   18.667    0.000   11.200    0.000    0.000 
#    0.000    0.000    0.000    0.000    0.000    0.000 
#
# Total GULP energy -167111.868833 kJ/mol
# GULP energy per Si atom -5570.395628 kJ/mol
# Density = 2.054480 g / cm^3
# Si number density = 20.591671 Si / 1000 Ang^3
#
#
#
# Elastic Constant Matrix: (Units=GPa)
#
#
# Indices 1 2 3 4 5 6 
#
# 1 45.2515 24.5528 -3.3613 0.0000 -13.3412 0.0000
# 2 24.5528 133.2390 25.1731 0.0000 4.2020 0.0000
# 3 -3.3613 25.1731 66.0457 0.0000 -21.8404 0.0000
# 4 0.0000 0.0000 0.0000 28.4605 0.0000 -9.1905
# 5 -13.3412 4.2020 -21.8404 0.0000 36.0248 0.0000
# 6 0.0000 0.0000 0.0000 -9.1905 0.0000 1.6606
#
#
#
# Elastic Compliance Matrix: (Units=1/GPa)
#
#
# Indices 1 2 3 4 5 6 
#
# 1 0.034364 -0.009338 0.012353 0.000000 0.021305 0.000000
# 2 -0.009338 0.010998 -0.007798 0.000000 -0.009469 0.000000
# 3 0.012353 -0.007798 0.025710 0.000000 0.021072 0.000000
# 4 0.000000 0.000000 0.000000 -0.044637 0.000000 -0.247037
# 5 0.021305 -0.009469 0.021072 0.000000 0.049528 0.000000
# 6 0.000000 0.000000 0.000000 -0.247037 0.000000 -0.765004
#
#
# Mechanical properties :
#
#
# Convention : Reuss Voigt Hill
#
# Bulk Modulus (GPa) = 16.25862 37.47395 26.86628
# Shear Modulus (GPa) = -7.58758 26.44063 9.42652
#
# Velocity S-wave (km/s) = -1.92166 3.58724 2.14191
# Velocity P-wave (km/s) = 1.72892 5.94944 4.38093
#
# Compressibility (1/GPa) = 0.06150584
#
# Stress axis : x y z
#
# Youngs Moduli (GPa) = 29.09990 90.92425 38.89516
#
# Poissons Ratio (x) = 0.84909 -0.48049
# Poissons Ratio (y) = 0.27175 0.30332
# Poissons Ratio (z) = -0.35948 0.70907
#
# Static dielectric constant tensor:
#      x y z
#    x 1.716000 0.000000 -0.034470 
#    y 0.000000 1.858640 0.000000 
#    z -0.034470 0.000000 1.735120 
# 
# From -- ./inp_files/371996.got.cif
#   From: 2010.05.17/outbox.cif.g08.bks.cpg/sg12_186_cif.got.tgz:371996.got - 2010.06.03 13:09:07.
