data_PCOD9193251
_publ_section_title
;
Structure prediction by ZEFSAII (Michael W. Deem and Ramdas Pophale) SiO2 
 PCOD9193251
Probable space group: C 2/M
;
_chemical_formula_sum "Si O2"
_cell_formula_units_Z 36
_cell_length_a 21.874043
_cell_length_b 12.629010
_cell_length_c 16.565740
_cell_angle_alpha 90.000000
_cell_angle_beta 28.322445
_cell_angle_gamma 90.000000
_cell_volume 2171.121767
_symmetry_space_group_name_H-M "C 2/M"
_symmetry_group_IT_number 12
_symmetry_cell_setting 'monoclinic'
loop_
_space_group_symop_operation_xyz
x,y,z
-x,y,-z
-x,-y,-z
x,-y,z
1/2+x,1/2+y,z
1/2-x,1/2+y,-z
1/2-x,1/2-y,-z
1/2+x,1/2-y,z
loop_
_atom_site_type_symbol
_atom_site_label
_atom_site_fract_x
_atom_site_fract_y
_atom_site_fract_z
Si Si1 0.500000 0.248171 0.500000
Si Si2 0.556523 0.748427 0.165519
Si Si3 0.374085 0.625915 0.500000
Si Si4 0.317995 0.873910 0.834480
Si Si5 0.930433 0.374518 0.165520
O O1 0.575633 0.320859 0.476121
O O2 0.598908 0.176316 0.334482
O O3 0.454222 0.678996 0.334482
O O4 0.615775 0.833600 0.159538
O O5 0.491054 0.806734 0.166786
O O6 0.675087 0.675086 1.000000
O O7 0.396491 0.500000 0.476122
O O8 0.222095 0.644687 0.665518
O O9 0.315682 0.000000 0.833213
O O10 0.949374 0.500000 0.159540
O O11 0.000000 0.350174 0.000000
#
# Coordination Sequence:
#
# PCOD9193251 Si02
#       5
#     4   8   8   8   8
#     4  10  20  34  54  78 104 134 168 208 252 300
#     4  10  20  34  53  76 103 135 170 209 252 299
#     4  10  20  34  54  78 104 134 168 208 252 300
#     4  10  20  34  53  76 103 135 170 209 252 299
#     4  10  20  34  53  76 103 135 170 209 252 299
#
# _framework density 16.581289000000002
#
# number of rings (size 3 to 8) (size 9 to 14) (size 15 to 20)
#    0.000    2.000    0.000    4.000    0.000    0.000 
#    0.000    6.667    0.000   16.000    0.000    0.000 
#    0.000    0.000    0.000    0.000    0.000    0.000 
#
# Total GULP energy -100512.499480 kJ/mol
# GULP energy per Si atom -5584.027749 kJ/mol
# Density = 1.654355 g / cm^3
# Si number density = 16.581289 Si / 1000 Ang^3
#
#
#
# Elastic Constant Matrix: (Units=GPa)
#
#
# Indices 1 2 3 4 5 6 
#
# 1 150.7714 113.0522 100.7067 0.0000 3.0388 0.0000
# 2 113.0522 151.5250 99.9502 0.0000 -1.6712 0.0000
# 3 100.7067 99.9502 165.5477 0.0000 -1.4846 0.0000
# 4 0.0000 0.0000 0.0000 20.9902 0.0000 -2.6389
# 5 3.0388 -1.6712 -1.4846 0.0000 21.8126 0.0000
# 6 0.0000 0.0000 0.0000 -2.6389 0.0000 19.7238
#
#
#
# Elastic Compliance Matrix: (Units=1/GPa)
#
#
# Indices 1 2 3 4 5 6 
#
# 1 0.017040 -0.009794 -0.004484 0.000000 -0.003430 0.000000
# 2 -0.009794 0.016600 -0.004043 0.000000 0.002361 0.000000
# 3 -0.004484 -0.004043 0.011219 0.000000 0.001078 0.000000
# 4 0.000000 0.000000 0.000000 0.048456 0.000000 0.006483
# 5 -0.003430 0.002361 0.001078 0.000000 0.046577 0.000000
# 6 0.000000 0.000000 0.000000 0.006483 0.000000 0.051567
#
#
# Mechanical properties :
#
#
# Convention : Reuss Voigt Hill
#
# Bulk Modulus (GPa) = 121.69256 121.69581 121.69419
# Shear Modulus (GPa) = 21.65999 22.78099 22.22049
#
# Velocity S-wave (km/s) = 3.61819 3.71063 3.66470
# Velocity P-wave (km/s) = 9.53970 9.58703 9.56339
#
# Compressibility (1/GPa) = 0.00821743
#
# Stress axis : x y z
#
# Youngs Moduli (GPa) = 58.68467 60.24161 89.13635
#
# Poissons Ratio (x) = 0.59000 0.39965
# Poissons Ratio (y) = 0.57476 0.36039
# Poissons Ratio (z) = 0.26312 0.24357
#
# Static dielectric constant tensor:
#      x y z
#    x 1.523290 0.000000 -0.001380 
#    y 0.000000 1.523200 0.000000 
#    z -0.001380 0.000000 1.543740 
# 
# From -- ./inp_files/71492.got.cif
#   From: 2010.05.17/outbox.cif.g08.bks.cpg/sg12_36_cif.got.tgz:71492.got - 2010.06.03 13:09:07.
