data_PCOD9193454
_publ_section_title
;
Structure prediction by ZEFSAII (Michael W. Deem and Ramdas Pophale) SiO2 
 PCOD9193454
Probable space group: C 2/M
;
_chemical_formula_sum "Si O2"
_cell_formula_units_Z 56
_cell_length_a 16.375337
_cell_length_b 7.988324
_cell_length_c 22.622216
_cell_angle_alpha 90.000000
_cell_angle_beta 48.859944
_cell_angle_gamma 90.000000
_cell_volume 2228.618873
_symmetry_space_group_name_H-M "C 2/M"
_symmetry_group_IT_number 12
_symmetry_cell_setting 'monoclinic'
loop_
_space_group_symop_operation_xyz
x,y,z
-x,y,-z
-x,-y,-z
x,-y,z
1/2+x,1/2+y,z
1/2-x,1/2+y,-z
1/2-x,1/2-y,-z
1/2+x,1/2-y,z
loop_
_atom_site_type_symbol
_atom_site_label
_atom_site_fract_x
_atom_site_fract_y
_atom_site_fract_z
Si Si1 0.927244 0.310352 0.828494
Si Si2 0.625111 0.298285 0.449836
Si Si3 0.638202 0.698186 0.886474
Si Si4 0.144649 0.809626 0.261847
Si Si5 0.845036 0.801574 0.306743
Si Si6 0.604446 0.297260 0.030572
Si Si7 0.914871 0.204770 0.404383
O O1 0.904122 0.500000 0.820998
O O2 0.893863 0.197348 0.788830
O O3 0.868529 0.275303 0.918366
O O4 0.057001 0.284340 0.775033
O O5 0.500000 0.250603 0.500000
O O6 0.629577 0.500000 0.445704
O O7 0.717714 0.235799 0.361443
O O8 0.644851 0.238670 0.508110
O O9 0.625908 0.500000 0.897587
O O10 0.737109 0.730761 0.795869
O O11 0.520654 0.757107 0.922045
O O12 0.661725 0.757996 0.942404
O O13 0.040636 0.737630 0.345088
O O14 0.157284 0.000000 0.275222
O O15 0.868196 0.744248 0.363562
O O16 0.861408 0.000000 0.292849
O O17 0.610026 0.500000 0.032977
O O18 0.916356 0.000000 0.403981
#
# Coordination Sequence:
#
# PCOD9193454 Si02
#       7
#     8   8   8   8   8   8   8
#     4  11  22  36  56  81 107 138 181 227 272 322
#     4  10  20  34  53  79 110 139 171 215 264 315
#     4   9  19  36  57  80 108 144 181 217 263 321
#     4  10  20  35  55  79 109 143 181 226 270 314
#     4  10  20  36  56  76 103 139 178 219 265 318
#     4   9  19  37  57  78 109 145 179 218 267 321
#     4   8  17  34  53  74 102 138 175 211 258 313
#
# _framework density 25.127669999999998
#
# number of rings (size 3 to 8) (size 9 to 14) (size 15 to 20)
#    0.000    2.429    0.000    4.286    0.000    3.143 
#    0.000    6.429    0.000    0.000    0.000    0.000 
#    0.000    0.000    0.000    0.000    0.000    0.000 
#
# Total GULP energy -156506.991356 kJ/mol
# GULP energy per Si atom -5589.535406 kJ/mol
# Density = 2.507048 g / cm^3
# Si number density = 25.127670 Si / 1000 Ang^3
#
#
#
# Elastic Constant Matrix: (Units=GPa)
#
#
# Indices 1 2 3 4 5 6 
#
# 1 59.6673 -8.3247 4.8931 0.0001 -7.8772 0.0002
# 2 -8.3247 34.0074 -3.3171 0.0001 2.3098 0.0005
# 3 4.8931 -3.3171 149.3334 0.0000 -5.4167 0.0000
# 4 0.0001 0.0001 0.0000 25.1299 0.0000 -10.9420
# 5 -7.8772 2.3098 -5.4167 0.0000 47.2867 0.0000
# 6 0.0002 0.0005 0.0000 -10.9420 0.0000 15.5538
#
#
#
# Elastic Compliance Matrix: (Units=1/GPa)
#
#
# Indices 1 2 3 4 5 6 
#
# 1 0.017723 0.004117 -0.000391 0.000000 0.002707 -0.000001
# 2 0.004117 0.030514 0.000516 -0.000001 -0.000746 -0.000002
# 3 -0.000391 0.000516 0.006745 0.000000 0.000682 0.000000
# 4 0.000000 -0.000001 0.000000 0.057365 0.000000 0.040356
# 5 0.002707 -0.000746 0.000682 0.000000 0.021713 0.000000
# 6 -0.000001 -0.000002 0.000000 0.040356 0.000000 0.092683
#
#
# Mechanical properties :
#
#
# Convention : Reuss Voigt Hill
#
# Bulk Modulus (GPa) = 15.75660 25.50116 20.62888
# Shear Modulus (GPa) = 20.88417 34.24454 27.56436
#
# Velocity S-wave (km/s) = 2.88605 3.69565 3.31565
# Velocity P-wave (km/s) = 4.17012 5.32739 4.78388
#
# Compressibility (1/GPa) = 0.06346545
#
# Stress axis : x y z
#
# Youngs Moduli (GPa) = 56.42276 32.77183 148.24806
#
# Poissons Ratio (x) = -0.13491 0.05798
# Poissons Ratio (y) = -0.23227 -0.07648
# Poissons Ratio (z) = 0.02207 -0.01691
#
# Static dielectric constant tensor:
#      x y z
#    x 2.116090 0.000000 -0.003970 
#    y 0.000000 1.890330 0.000000 
#    z -0.003970 0.000000 1.968320 
# 
# From -- ./inp_files/338498.got.cif
#   From: 2010.05.17/outbox.cif.g08.bks.cpg/sg12_170_cif.got.tgz:338498.got - 2010.06.03 13:09:07.
