data_PCOD9193245
_publ_section_title
;
Structure prediction by ZEFSAII (Michael W. Deem and Ramdas Pophale) SiO2 
 PCOD9193245
Probable space group: C 2/M
;
_chemical_formula_sum "Si O2"
_cell_formula_units_Z 64
_cell_length_a 14.408244
_cell_length_b 9.115889
_cell_length_c 31.913577
_cell_angle_alpha 90.000000
_cell_angle_beta 63.161519
_cell_angle_gamma 90.000000
_cell_volume 3740.141973
_symmetry_space_group_name_H-M "C 2/M"
_symmetry_group_IT_number 12
_symmetry_cell_setting 'monoclinic'
loop_
_space_group_symop_operation_xyz
x,y,z
-x,y,-z
-x,-y,-z
x,-y,z
1/2+x,1/2+y,z
1/2-x,1/2+y,-z
1/2-x,1/2-y,-z
1/2+x,1/2-y,z
loop_
_atom_site_type_symbol
_atom_site_label
_atom_site_fract_x
_atom_site_fract_y
_atom_site_fract_z
Si Si1 0.818370 0.825729 0.450516
Si Si2 0.436276 0.674619 0.800011
Si Si3 0.990727 0.325136 0.132160
Si Si4 0.036298 0.674619 0.699989
Si Si5 0.208617 0.324603 0.882276
Si Si6 0.973168 0.324603 0.617724
Si Si7 0.755047 0.825136 0.367840
Si Si8 0.219403 0.325729 0.049484
O O1 0.750000 0.750000 0.500000
O O2 0.768439 0.798443 0.414767
O O3 0.933978 0.758677 0.424619
O O4 0.822606 0.000000 0.456240
O O5 0.449492 0.500000 0.794669
O O6 0.500603 0.738969 0.826100
O O7 0.473131 0.750000 0.750000
O O8 0.315291 0.705713 0.835334
O O9 0.984811 0.500000 0.141972
O O10 0.891467 0.283468 0.124642
O O11 0.097973 0.298443 0.085233
O O12 0.038829 0.500000 0.705331
O O13 0.152803 0.738969 0.673900
O O14 0.985959 0.705713 0.664666
O O15 0.204505 0.500000 0.890960
O O16 0.216783 0.241323 0.924619
O O17 0.986425 0.500000 0.609040
O O18 0.859249 0.283468 0.624642
O O19 0.768754 0.000000 0.358028
O O20 0.235087 0.500000 0.043760
O O21 0.250000 0.250000 0.000000
#
# Coordination Sequence:
#
# PCOD9193245 Si02
#       8
#     8   8   8   8   8   8   8   8
#     4  10  20  34  53  76 104 136 170 210 254 303
#     4  10  20  34  53  76 103 133 166 207 251 299
#     4   9  19  36  55  75 101 134 171 210 253 300
#     4  10  20  34  53  76 103 133 166 207 251 299
#     4   9  19  36  55  75 101 133 170 211 254 300
#     4   9  19  36  55  75 101 133 170 211 254 300
#     4   9  19  36  55  75 101 134 171 210 253 300
#     4  10  20  34  53  76 104 136 170 210 254 303
#
# _framework density 17.111650999999998
#
# number of rings (size 3 to 8) (size 9 to 14) (size 15 to 20)
#    0.000    2.500    0.000    1.500    0.000    5.000 
#    0.000    7.500    0.000    0.000    0.000    0.000 
#    0.000    0.000    0.000    0.000    0.000    0.000 
#
# Total GULP energy -178572.625127 kJ/mol
# GULP energy per Si atom -5580.394535 kJ/mol
# Density = 1.707270 g / cm^3
# Si number density = 17.111651 Si / 1000 Ang^3
#
#
#
# Elastic Constant Matrix: (Units=GPa)
#
#
# Indices 1 2 3 4 5 6 
#
# 1 115.4284 36.5598 18.3442 0.0000 0.0000 0.0000
# 2 36.5598 49.8778 50.8794 0.0000 0.0000 0.0000
# 3 18.3442 50.8794 88.2359 0.0000 0.0000 0.0000
# 4 0.0000 0.0000 0.0000 37.2468 0.0000 0.0000
# 5 0.0000 0.0000 0.0000 0.0000 6.8179 0.0000
# 6 0.0000 0.0000 0.0000 0.0000 0.0000 26.6274
#
#
#
# Elastic Compliance Matrix: (Units=1/GPa)
#
#
# Indices 1 2 3 4 5 6 
#
# 1 0.012699 -0.016064 0.006623 0.000000 0.000000 0.000000
# 2 -0.016064 0.069008 -0.036452 0.000000 0.000000 0.000000
# 3 0.006623 -0.036452 0.030976 0.000000 0.000000 0.000000
# 4 0.000000 0.000000 0.000000 0.026848 0.000000 0.000000
# 5 0.000000 0.000000 0.000000 0.000000 0.146674 0.000000
# 6 0.000000 0.000000 0.000000 0.000000 0.000000 0.037555
#
#
# Mechanical properties :
#
#
# Convention : Reuss Voigt Hill
#
# Bulk Modulus (GPa) = 47.85642 51.67877 49.76760
# Shear Modulus (GPa) = 11.83401 23.98901 17.91151
#
# Velocity S-wave (km/s) = 2.63264 3.74827 3.23885
# Velocity P-wave (km/s) = 6.10483 6.99994 6.56765
#
# Compressibility (1/GPa) = 0.02089584
#
# Stress axis : x y z
#
# Youngs Moduli (GPa) = 78.74776 14.49112 32.28327
#
# Poissons Ratio (x) = 0.23278 -0.21381
# Poissons Ratio (y) = 1.26499 1.17680
# Poissons Ratio (z) = -0.52153 0.52823
#
# Static dielectric constant tensor:
#      x y z
#    x 1.562280 0.000000 0.000000 
#    y 0.000000 1.568840 0.000000 
#    z 0.000000 0.000000 1.547040 
# 
# From -- ./inp_files/375036.got.cif
#   From: 2010.05.17/outbox.cif.g08.bks.cpg/sg12_188_cif.got.tgz:375036.got - 2010.06.03 13:09:07.
