data_PCOD9193019
_publ_section_title
;
Structure prediction by ZEFSAII (Michael W. Deem and Ramdas Pophale) SiO2 
 PCOD9193019
Probable space group: C 2/M
;
_chemical_formula_sum "Si O2"
_cell_formula_units_Z 48
_cell_length_a 20.037748
_cell_length_b 8.626804
_cell_length_c 21.801779
_cell_angle_alpha 90.000000
_cell_angle_beta 133.630479
_cell_angle_gamma 90.000000
_cell_volume 2727.798582
_symmetry_space_group_name_H-M "C 2/M"
_symmetry_group_IT_number 12
_symmetry_cell_setting 'monoclinic'
loop_
_space_group_symop_operation_xyz
x,y,z
-x,y,-z
-x,-y,-z
x,-y,z
1/2+x,1/2+y,z
1/2-x,1/2+y,-z
1/2-x,1/2-y,-z
1/2+x,1/2-y,z
loop_
_atom_site_type_symbol
_atom_site_label
_atom_site_fract_x
_atom_site_fract_y
_atom_site_fract_z
Si Si1 0.489984 0.687074 0.756978
Si Si2 0.647999 0.185521 0.426888
Si Si3 0.645272 0.313151 0.758776
Si Si4 0.992120 0.312893 0.424858
Si Si5 0.856469 0.313425 0.908583
Si Si6 0.995714 0.186508 0.092498
O O1 0.484389 0.500000 0.751652
O O2 0.401343 0.754483 0.666014
O O3 0.579027 0.734595 0.773187
O O4 0.498535 0.734447 0.832998
O O5 0.750000 0.250000 0.500000
O O6 0.580382 0.234894 0.439874
O O7 0.650819 0.000000 0.427851
O O8 0.644157 0.500000 0.755352
O O9 0.597543 0.248920 0.667291
O O10 0.750500 0.263730 0.834794
O O11 0.988775 0.500000 0.422555
O O12 0.000000 0.260027 0.500000
O O13 0.860881 0.500000 0.911870
O O14 0.918053 0.250628 0.891573
O O15 0.905276 0.249866 0.000733
O O16 0.995673 0.000000 0.089051
#
# Coordination Sequence:
#
# PCOD9193019 Si02
#       6
#     8   8   8   8   8   8
#     4   9  19  36  54  73 100 132 168 209 248 293
#     4  10  20  34  53  76 102 133 167 205 250 297
#     4   9  19  35  53  74 100 131 166 204 249 296
#     4   9  19  35  53  74 100 130 166 206 246 291
#     4  10  20  34  52  75 104 133 164 206 251 297
#     4  10  20  34  53  75 100 133 170 206 247 295
#
# _framework density 17.596606999999999
#
# number of rings (size 3 to 8) (size 9 to 14) (size 15 to 20)
#    0.000    2.500    0.000    2.500    0.000    5.667 
#    0.000    5.000    0.000    0.000    0.000    0.000 
#    0.000    0.000    0.000    0.000    0.000    0.000 
#
# Total GULP energy -133902.850185 kJ/mol
# GULP energy per Si atom -5579.285424 kJ/mol
# Density = 1.755656 g / cm^3
# Si number density = 17.596607 Si / 1000 Ang^3
#
#
#
# Elastic Constant Matrix: (Units=GPa)
#
#
# Indices 1 2 3 4 5 6 
#
# 1 92.4166 29.0109 126.2056 0.0000 0.2650 0.0000
# 2 29.0109 27.8318 41.9769 0.0000 -0.3871 0.0000
# 3 126.2056 41.9769 210.3313 0.0000 0.3762 0.0000
# 4 0.0000 0.0000 0.0000 32.2094 0.0000 0.1598
# 5 0.2650 -0.3871 0.3762 0.0000 44.4244 0.0000
# 6 0.0000 0.0000 0.0000 0.1598 0.0000 21.7440
#
#
#
# Elastic Compliance Matrix: (Units=1/GPa)
#
#
# Indices 1 2 3 4 5 6 
#
# 1 0.062746 -0.012336 -0.035187 0.000000 -0.000184 0.000000
# 2 -0.012336 0.053841 -0.003344 0.000000 0.000571 0.000000
# 3 -0.035187 -0.003344 0.026535 0.000000 -0.000044 0.000000
# 4 0.000000 0.000000 0.000000 0.031048 0.000000 -0.000228
# 5 -0.000184 0.000571 -0.000044 0.000000 0.022517 0.000000
# 6 0.000000 0.000000 0.000000 -0.000228 0.000000 0.045991
#
#
# Mechanical properties :
#
#
# Convention : Reuss Voigt Hill
#
# Bulk Modulus (GPa) = 24.16231 80.55186 52.35708
# Shear Modulus (GPa) = 13.95838 28.56800 21.26319
#
# Velocity S-wave (km/s) = 2.81951 4.03363 3.47993
# Velocity P-wave (km/s) = 4.93564 8.22009 6.77977
#
# Compressibility (1/GPa) = 0.04138678
#
# Stress axis : x y z
#
# Youngs Moduli (GPa) = 15.93736 18.57333 37.68561
#
# Poissons Ratio (x) = 0.22912 1.32605
# Poissons Ratio (y) = 0.19660 0.12603
# Poissons Ratio (z) = 0.56079 0.06211
#
# Static dielectric constant tensor:
#      x y z
#    x 1.593440 0.000000 -0.004390 
#    y 0.000000 1.598190 0.000000 
#    z -0.004390 0.000000 1.571500 
# 
# From -- ./inp_files/314501.got.cif
#   From: 2010.05.17/outbox.cif.g08.bks.cpg/sg12_158_cif.got.tgz:314501.got - 2010.06.03 13:09:07.
