data_PCOD9193425
_publ_section_title
;
Structure prediction by ZEFSAII (Michael W. Deem and Ramdas Pophale) SiO2 
 PCOD9193425
Probable space group: C 2/M
;
_chemical_formula_sum "Si O2"
_cell_formula_units_Z 56
_cell_length_a 27.721700
_cell_length_b 8.845133
_cell_length_c 12.836600
_cell_angle_alpha 90.000000
_cell_angle_beta 110.654588
_cell_angle_gamma 90.000000
_cell_volume 2945.248587
_symmetry_space_group_name_H-M "C 2/M"
_symmetry_group_IT_number 12
_symmetry_cell_setting 'monoclinic'
loop_
_space_group_symop_operation_xyz
x,y,z
-x,y,-z
-x,-y,-z
x,-y,z
1/2+x,1/2+y,z
1/2-x,1/2+y,-z
1/2-x,1/2-y,-z
1/2+x,1/2-y,z
loop_
_atom_site_type_symbol
_atom_site_label
_atom_site_fract_x
_atom_site_fract_y
_atom_site_fract_z
Si Si1 0.903915 0.182880 0.157153
Si Si2 0.091675 0.182515 0.304173
Si Si3 0.392715 0.318303 0.920549
Si Si4 0.003274 0.184431 0.622946
Si Si5 0.791767 0.679953 0.112269
Si Si6 0.199006 0.669462 0.421385
Si Si7 0.716159 0.829390 0.188909
O O1 0.945295 0.229786 0.275407
O O2 0.848402 0.254814 0.137119
O O3 0.899117 0.000000 0.157291
O O4 0.920682 0.222132 0.050570
O O5 0.087326 0.232391 0.178577
O O6 0.145638 0.240758 0.391744
O O7 0.045044 0.232430 0.342556
O O8 0.092208 0.000000 0.303498
O O9 0.390742 0.500000 0.914678
O O10 0.334847 0.255232 0.889782
O O11 0.000000 0.234741 0.500000
O O12 0.002885 0.000000 0.620910
O O13 0.767483 0.738079 0.201788
O O14 0.708094 0.000000 0.892900
O O15 0.750000 0.750000 0.000000
O O16 0.194361 0.500000 0.461057
O O17 0.250000 0.750000 0.500000
O O18 0.207648 0.659962 0.304542
O O19 0.719117 0.000000 0.148207
#
# Coordination Sequence:
#
# PCOD9193425 Si02
#       7
#     8   8   8   8   8   8   8
#     4  10  20  34  54  81 112 149 192 234 283 338
#     4   9  18  34  56  80 108 145 187 233 285 334
#     4   9  17  30  51  79 109 140 179 230 280 331
#     4   9  19  36  57  81 111 147 189 236 280 333
#     4  12  23  35  54  82 116 151 186 228 284 344
#     4  10  21  36  56  83 113 147 188 233 284 339
#     4  10  20  34  53  78 111 149 184 226 279 337
#
# _framework density 19.013676
#
# number of rings (size 3 to 8) (size 9 to 14) (size 15 to 20)
#    0.000    2.143    1.429    2.143    0.000    3.429 
#    0.000    6.429    0.000    0.857    0.000    5.000 
#    0.000    0.000    0.000    0.000    0.000    0.000 
#
# Total GULP energy -156078.416534 kJ/mol
# GULP energy per Si atom -5574.229162 kJ/mol
# Density = 1.897040 g / cm^3
# Si number density = 19.013676 Si / 1000 Ang^3
#
#
#
# Elastic Constant Matrix: (Units=GPa)
#
#
# Indices 1 2 3 4 5 6 
#
# 1 147.7494 29.7184 76.0409 0.0000 -3.4040 0.0000
# 2 29.7184 23.9855 21.8223 0.0000 -4.3487 0.0000
# 3 76.0409 21.8223 120.8088 0.0000 8.8636 0.0000
# 4 0.0000 0.0000 0.0000 14.4466 0.0000 0.9766
# 5 -3.4040 -4.3487 8.8636 0.0000 25.4457 0.0000
# 6 0.0000 0.0000 0.0000 0.9766 0.0000 24.0360
#
#
#
# Elastic Compliance Matrix: (Units=1/GPa)
#
#
# Indices 1 2 3 4 5 6 
#
# 1 0.011579 -0.008601 -0.005891 0.000000 0.002131 0.000000
# 2 -0.008601 0.060106 -0.006273 0.000000 0.011307 0.000000
# 3 -0.005891 -0.006273 0.013603 0.000000 -0.006599 0.000000
# 4 0.000000 0.000000 0.000000 0.069411 0.000000 -0.002820
# 5 0.002131 0.011307 -0.006599 0.000000 0.043815 0.000000
# 6 0.000000 0.000000 0.000000 -0.002820 0.000000 0.041719
#
#
# Mechanical properties :
#
#
# Convention : Reuss Voigt Hill
#
# Bulk Modulus (GPa) = 22.85308 60.85631 41.85470
# Shear Modulus (GPa) = 16.87203 23.78313 20.32758
#
# Velocity S-wave (km/s) = 2.98210 3.54056 3.27326
# Velocity P-wave (km/s) = 4.88903 6.98500 6.02880
#
# Compressibility (1/GPa) = 0.04375777
#
# Stress axis : x y z
#
# Youngs Moduli (GPa) = 86.36202 16.63741 73.51386
#
# Poissons Ratio (x) = 0.14309 0.43308
# Poissons Ratio (y) = 0.74276 0.46117
# Poissons Ratio (z) = 0.50877 0.10437
#
# Static dielectric constant tensor:
#      x y z
#    x 1.651210 0.000000 -0.040020 
#    y 0.000000 1.674190 0.000000 
#    z -0.040020 0.000000 1.725220 
# 
# From -- ./inp_files/181116.got.cif
#   From: 2010.05.17/outbox.cif.g08.bks.cpg/sg12_91_cif.got.tgz:181116.got - 2010.06.03 13:09:07.
