data_PCOD9193335
_publ_section_title
;
Structure prediction by ZEFSAII (Michael W. Deem and Ramdas Pophale) SiO2 
 PCOD9193335
Probable space group: C 2/M
;
_chemical_formula_sum "Si O2"
_cell_formula_units_Z 40
_cell_length_a 28.378196
_cell_length_b 8.240943
_cell_length_c 6.991113
_cell_angle_alpha 90.000000
_cell_angle_beta 84.662761
_cell_angle_gamma 90.000000
_cell_volume 1627.874867
_symmetry_space_group_name_H-M "C 2/M"
_symmetry_group_IT_number 12
_symmetry_cell_setting 'monoclinic'
loop_
_space_group_symop_operation_xyz
x,y,z
-x,y,-z
-x,-y,-z
x,-y,z
1/2+x,1/2+y,z
1/2-x,1/2+y,-z
1/2-x,1/2-y,-z
1/2+x,1/2-y,z
loop_
_atom_site_type_symbol
_atom_site_label
_atom_site_fract_x
_atom_site_fract_y
_atom_site_fract_z
Si Si1 0.037966 0.000000 0.270698
Si Si2 0.284245 0.686578 0.210005
Si Si3 0.068960 0.000000 0.813235
Si Si4 0.382505 0.822468 0.135829
Si Si5 0.586304 0.824376 0.306215
Si Si6 0.313962 0.683864 0.646024
O O1 0.056118 0.164752 0.361420
O O2 0.981975 0.000000 0.263827
O O3 0.059773 0.000000 0.046570
O O4 0.284592 0.500000 0.145779
O O5 0.327741 0.787002 0.108546
O O6 0.297315 0.685661 0.432003
O O7 0.232209 0.762157 0.217884
O O8 0.098097 0.164466 0.761661
O O9 0.386409 0.000000 0.227383
O O10 0.410608 0.830170 0.926284
O O11 0.640487 0.796072 0.349018
O O12 0.568230 0.000000 0.378927
O O13 0.327934 0.500000 0.692866
#
# Coordination Sequence:
#
# PCOD9193335 Si02
#       6
#     4   8   4   8   8   8
#     4   9  18  34  55  79 109 141 175 221 270 315
#     4  10  20  34  53  77 106 142 180 217 262 316
#     4   9  18  34  55  79 109 141 175 221 270 315
#     4  10  20  34  54  80 108 139 176 218 265 314
#     4  10  20  34  54  80 108 139 176 218 265 314
#     4  10  20  34  53  77 106 142 180 217 262 316
#
# _framework density 24.571914
#
# number of rings (size 3 to 8) (size 9 to 14) (size 15 to 20)
#    0.000    2.200    2.000    1.200    0.000    4.000 
#    0.000    4.000    0.000    2.400    0.000    2.800 
#    0.000    0.000    0.000    0.000    0.000    0.000 
#
# Total GULP energy -111958.309870 kJ/mol
# GULP energy per Si atom -5597.915493 kJ/mol
# Density = 2.451599 g / cm^3
# Si number density = 24.571914 Si / 1000 Ang^3
#
#
#
# Elastic Constant Matrix: (Units=GPa)
#
#
# Indices 1 2 3 4 5 6 
#
# 1 112.7445 81.5634 0.4449 0.0000 19.5784 0.0000
# 2 81.5634 252.6540 12.3356 0.0000 12.4349 0.0000
# 3 0.4449 12.3356 64.8549 0.0000 0.2912 0.0000
# 4 0.0000 0.0000 0.0000 5.4078 0.0000 -0.8500
# 5 19.5784 12.4349 0.2912 0.0000 35.0671 0.0000
# 6 0.0000 0.0000 0.0000 -0.8500 0.0000 27.7381
#
#
#
# Elastic Compliance Matrix: (Units=1/GPa)
#
#
# Indices 1 2 3 4 5 6 
#
# 1 0.012626 -0.003828 0.000667 0.000000 -0.005697 0.000000
# 2 -0.003828 0.005227 -0.000969 0.000000 0.000292 0.000000
# 3 0.000667 -0.000969 0.015600 0.000000 -0.000158 0.000000
# 4 0.000000 0.000000 0.000000 0.185812 0.000000 0.005694
# 5 -0.005697 0.000292 -0.000158 0.000000 0.031595 0.000000
# 6 0.000000 0.000000 0.000000 0.005694 0.000000 0.036226
#
#
# Mechanical properties :
#
#
# Convention : Reuss Voigt Hill
#
# Bulk Modulus (GPa) = 39.69584 68.77123 54.23353
# Shear Modulus (GPa) = 16.46131 36.03657 26.24894
#
# Velocity S-wave (km/s) = 2.59110 3.83374 3.27195
# Velocity P-wave (km/s) = 5.01415 6.90256 6.03270
#
# Compressibility (1/GPa) = 0.02519156
#
# Stress axis : x y z
#
# Youngs Moduli (GPa) = 79.20366 191.32387 64.10460
#
# Poissons Ratio (x) = 0.73240 -0.04276
# Poissons Ratio (y) = 0.30320 0.06213
# Poissons Ratio (z) = -0.05284 0.18543
#
# Static dielectric constant tensor:
#      x y z
#    x 1.860060 0.000000 0.004900 
#    y 0.000000 1.925200 0.000000 
#    z 0.004900 0.000000 2.036330 
# 
# From -- ./inp_files/101132.got.cif
#   From: 2010.05.17/outbox.cif.g08.bks.cpg/sg12_51_cif.got.tgz:101132.got - 2010.06.03 13:09:07.
