data_PCOD9193747
_publ_section_title
;
Structure prediction by ZEFSAII (Michael W. Deem and Ramdas Pophale) SiO2 
 PCOD9193747
Probable space group: C 2/M
;
_chemical_formula_sum "Si O2"
_cell_formula_units_Z 60
_cell_length_a 20.009089
_cell_length_b 7.914942
_cell_length_c 19.058188
_cell_angle_alpha 90.000000
_cell_angle_beta 127.674160
_cell_angle_gamma 90.000000
_cell_volume 2388.950579
_symmetry_space_group_name_H-M "C 2/M"
_symmetry_group_IT_number 12
_symmetry_cell_setting 'monoclinic'
loop_
_space_group_symop_operation_xyz
x,y,z
-x,y,-z
-x,-y,-z
x,-y,z
1/2+x,1/2+y,z
1/2-x,1/2+y,-z
1/2-x,1/2-y,-z
1/2+x,1/2-y,z
loop_
_atom_site_type_symbol
_atom_site_label
_atom_site_fract_x
_atom_site_fract_y
_atom_site_fract_z
Si Si1 0.000000 0.252850 0.000000
Si Si2 0.961063 0.204784 0.401825
Si Si3 0.922721 0.190902 0.802570
Si Si4 0.828421 0.688491 0.962891
Si Si5 0.687489 0.692775 0.775961
Si Si6 0.268616 0.304819 0.629585
Si Si7 0.592600 0.198846 0.845342
Si Si8 0.371514 0.797353 0.559538
O O1 0.952706 0.177725 0.901859
O O2 0.919753 0.331959 0.986509
O O3 0.866716 0.268268 0.322676
O O4 0.000000 0.265547 0.500000
O O5 0.031061 0.259664 0.390236
O O6 0.956951 0.000000 0.400097
O O7 0.828611 0.264622 0.730188
O O8 0.995869 0.286405 0.807476
O O9 0.921241 0.000000 0.773779
O O10 0.793654 0.500000 0.953019
O O11 0.767048 0.775018 0.867009
O O12 0.849627 0.763934 0.052376
O O13 0.710666 0.500000 0.772198
O O14 0.618252 0.697815 0.793960
O O15 0.250511 0.500000 0.634292
O O16 0.330772 0.286832 0.601732
O O17 0.181994 0.231228 0.542564
O O18 0.610417 0.000000 0.845316
O O19 0.359301 0.000000 0.558033
#
# Coordination Sequence:
#
# PCOD9193747 Si02
#       8
#     4   8   8   8   8   8   8   8
#     4  10  20  34  54  80 107 138 177 218 255 300
#     4  10  22  38  54  74 104 142 180 216 258 312
#     4  10  20  35  54  77 108 144 178 212 257 313
#     4   9  19  35  54  78 109 141 172 211 261 314
#     4  10  20  36  57  78 103 139 178 214 259 314
#     4   9  19  35  55  79 107 140 174 212 263 318
#     4  10  20  34  54  82 110 135 171 220 266 306
#     4  10  20  35  56  81 107 134 172 222 268 309
#
# _framework density 25.115632000000002
#
# number of rings (size 3 to 8) (size 9 to 14) (size 15 to 20)
#    0.000    2.267    0.000    2.400    0.000    6.667 
#    0.000    3.333    0.000    0.000    0.000    0.000 
#    0.000    0.000    0.000    0.000    0.000    0.000 
#
# Total GULP energy -167332.371747 kJ/mol
# GULP energy per Si atom -5577.745725 kJ/mol
# Density = 2.505847 g / cm^3
# Si number density = 25.115632 Si / 1000 Ang^3
#
#
#
# Elastic Constant Matrix: (Units=GPa)
#
#
# Indices 1 2 3 4 5 6 
#
# 1 43.4304 7.9576 5.0869 0.0000 7.1487 0.0000
# 2 7.9576 52.0608 10.9796 0.0000 -0.3720 0.0000
# 3 5.0869 10.9796 204.2687 0.0000 26.3678 0.0000
# 4 0.0000 0.0000 0.0000 33.2661 0.0000 -1.2710
# 5 7.1487 -0.3720 26.3678 0.0000 46.1933 0.0000
# 6 0.0000 0.0000 0.0000 -1.2710 0.0000 33.4176
#
#
#
# Elastic Compliance Matrix: (Units=1/GPa)
#
#
# Indices 1 2 3 4 5 6 
#
# 1 0.024338 -0.003767 0.000093 0.000000 -0.003850 0.000000
# 2 -0.003767 0.020040 -0.001165 0.000000 0.001410 0.000000
# 3 0.000093 -0.001165 0.005353 0.000000 -0.003080 0.000000
# 4 0.000000 0.000000 0.000000 0.030104 0.000000 0.001145
# 5 -0.003850 0.001410 -0.003080 0.000000 0.024013 0.000000
# 6 0.000000 0.000000 0.000000 0.001145 0.000000 0.029968
#
#
# Mechanical properties :
#
#
# Convention : Reuss Voigt Hill
#
# Bulk Modulus (GPa) = 24.96679 38.64533 31.80606
# Shear Modulus (GPa) = 31.87823 40.95780 36.41801
#
# Velocity S-wave (km/s) = 3.56653 4.04266 3.81204
# Velocity P-wave (km/s) = 5.18869 6.10010 5.66276
#
# Compressibility (1/GPa) = 0.04005321
#
# Stress axis : x y z
#
# Youngs Moduli (GPa) = 41.08727 49.90025 186.79900
#
# Poissons Ratio (x) = 0.18799 -0.01745
# Poissons Ratio (y) = 0.15479 0.21768
# Poissons Ratio (z) = -0.00384 0.05815
#
# Static dielectric constant tensor:
#      x y z
#    x 1.939970 0.000000 -0.001040 
#    y 0.000000 1.979750 0.000000 
#    z -0.001040 0.000000 2.099600 
# 
# From -- ./inp_files/320519.got.cif
#   From: 2010.05.17/outbox.cif.g08.bks.cpg/sg12_161_cif.got.tgz:320519.got - 2010.06.03 13:09:07.
