data_PCOD9193780
_publ_section_title
;
Structure prediction by ZEFSAII (Michael W. Deem and Ramdas Pophale) SiO2 
 PCOD9193780
Probable space group: C 2/M
;
_chemical_formula_sum "Si O2"
_cell_formula_units_Z 48
_cell_length_a 25.960833
_cell_length_b 9.029077
_cell_length_c 11.987794
_cell_angle_alpha 90.000000
_cell_angle_beta 89.973856
_cell_angle_gamma 90.000000
_cell_volume 2809.966914
_symmetry_space_group_name_H-M "C 2/M"
_symmetry_group_IT_number 12
_symmetry_cell_setting 'monoclinic'
loop_
_space_group_symop_operation_xyz
x,y,z
-x,y,-z
-x,-y,-z
x,-y,z
1/2+x,1/2+y,z
1/2-x,1/2+y,-z
1/2-x,1/2-y,-z
1/2+x,1/2-y,z
loop_
_atom_site_type_symbol
_atom_site_label
_atom_site_fract_x
_atom_site_fract_y
_atom_site_fract_z
Si Si1 0.439359 0.178235 0.993397
Si Si2 0.905215 0.822559 0.765897
Si Si3 0.397951 0.822313 0.236985
Si Si4 0.695283 0.677868 0.373283
Si Si5 0.694857 0.323150 0.632550
Si Si6 0.502136 0.176824 0.368681
O O1 0.413138 0.254428 0.887937
O O2 0.437567 0.000000 0.979687
O O3 0.500000 0.219138 0.000000
O O4 0.411691 0.216512 0.109574
O O5 0.851508 0.779472 0.707200
O O6 0.951778 0.762592 0.690268
O O7 0.907155 0.000000 0.771337
O O8 0.348234 0.743799 0.287225
O O9 0.448054 0.784672 0.310922
O O10 0.390944 0.000000 0.242833
O O11 0.702172 0.500000 0.367327
O O12 0.682620 0.714520 0.502665
O O13 0.748834 0.756335 0.344160
O O14 0.696116 0.500000 0.642274
O O15 0.500000 0.207277 0.500000
O O16 0.510140 0.000000 0.352686
#
# Coordination Sequence:
#
# PCOD9193780 Si02
#       6
#     8   8   8   8   8   8
#     4  10  20  38  58  76 107 149 190 226 266 323
#     4  11  22  35  55  82 112 143 180 228 278 324
#     4  10  20  35  55  79 109 145 180 223 275 321
#     4   9  20  38  56  79 113 147 177 219 277 329
#     4  10  20  35  58  84 109 141 182 226 270 325
#     4  10  20  34  54  80 110 145 183 220 267 332
#
# _framework density 17.082051
#
# number of rings (size 3 to 8) (size 9 to 14) (size 15 to 20)
#    0.000    2.000    1.667    2.000    0.000    4.000 
#    0.000    0.833    0.000    0.000    0.000    0.000 
#    0.000    0.000    0.000    0.000    0.000    0.000 
#
# Total GULP energy -134015.633111 kJ/mol
# GULP energy per Si atom -5583.984713 kJ/mol
# Density = 1.704317 g / cm^3
# Si number density = 17.082051 Si / 1000 Ang^3
#
#
#
# Elastic Constant Matrix: (Units=GPa)
#
#
# Indices 1 2 3 4 5 6 
#
# 1 161.8463 61.1944 109.3200 0.0000 -13.4656 0.0000
# 2 61.1944 34.9886 58.5845 0.0000 -7.9489 0.0000
# 3 109.3200 58.5845 143.1065 0.0000 -10.7505 0.0000
# 4 0.0000 0.0000 0.0000 27.6241 0.0000 -4.6426
# 5 -13.4656 -7.9489 -10.7505 0.0000 15.7798 0.0000
# 6 0.0000 0.0000 0.0000 -4.6426 0.0000 33.0875
#
#
#
# Elastic Compliance Matrix: (Units=1/GPa)
#
#
# Indices 1 2 3 4 5 6 
#
# 1 0.018596 -0.027802 -0.002829 0.000000 -0.000063 0.000000
# 2 -0.027802 0.139945 -0.034293 0.000000 0.023407 0.000000
# 3 -0.002829 -0.034293 0.022880 0.000000 -0.004101 0.000000
# 4 0.000000 0.000000 0.000000 0.037075 0.000000 0.005202
# 5 -0.000063 0.023407 -0.004101 0.000000 0.072315 0.000000
# 6 0.000000 0.000000 0.000000 0.005202 0.000000 0.030953
#
#
# Mechanical properties :
#
#
# Convention : Reuss Voigt Hill
#
# Bulk Modulus (GPa) = 19.39058 88.68214 54.03636
# Shear Modulus (GPa) = 10.66544 22.68777 16.67661
#
# Velocity S-wave (km/s) = 2.50144 3.64835 3.12791
# Velocity P-wave (km/s) = 4.44061 8.35317 6.68934
#
# Compressibility (1/GPa) = 0.05157142
#
# Stress axis : x y z
#
# Youngs Moduli (GPa) = 53.77357 7.14567 43.70656
#
# Poissons Ratio (x) = 0.19867 0.12365
# Poissons Ratio (y) = 1.49503 1.49885
# Poissons Ratio (z) = 0.15213 0.24505
#
# Static dielectric constant tensor:
#      x y z
#    x 1.544080 0.000000 0.007830 
#    y 0.000000 1.570040 0.000000 
#    z 0.007830 0.000000 1.564630 
# 
# From -- ./inp_files/172253.got.cif
#   From: 2010.05.17/outbox.cif.g08.bks.cpg/sg12_87_cif.got.tgz:172253.got - 2010.06.03 13:09:07.
