data_PCOD9193727
_publ_section_title
;
Structure prediction by ZEFSAII (Michael W. Deem and Ramdas Pophale) SiO2 
 PCOD9193727
Probable space group: C 2/M
;
_chemical_formula_sum "Si O2"
_cell_formula_units_Z 56
_cell_length_a 16.466249
_cell_length_b 7.963334
_cell_length_c 21.140830
_cell_angle_alpha 90.000000
_cell_angle_beta 101.380559
_cell_angle_gamma 90.000000
_cell_volume 2717.612697
_symmetry_space_group_name_H-M "C 2/M"
_symmetry_group_IT_number 12
_symmetry_cell_setting 'monoclinic'
loop_
_space_group_symop_operation_xyz
x,y,z
-x,y,-z
-x,-y,-z
x,-y,z
1/2+x,1/2+y,z
1/2-x,1/2+y,-z
1/2-x,1/2-y,-z
1/2+x,1/2-y,z
loop_
_atom_site_type_symbol
_atom_site_label
_atom_site_fract_x
_atom_site_fract_y
_atom_site_fract_z
Si Si1 0.555767 0.202666 0.342524
Si Si2 0.519951 0.808116 0.201404
Si Si3 0.130751 0.196131 0.651652
Si Si4 0.259122 0.689426 0.929991
Si Si5 0.059404 0.295451 0.067545
Si Si6 0.673104 0.807437 0.794443
Si Si7 0.731154 0.797016 0.425296
O O1 0.558490 0.270983 0.270535
O O2 0.464258 0.238122 0.357553
O O3 0.638484 0.261094 0.391173
O O4 0.559346 0.000000 0.339262
O O5 0.529920 0.740020 0.132527
O O6 0.423028 0.814410 0.201754
O O7 0.552021 0.000000 0.202903
O O8 0.174642 0.220744 0.726685
O O9 0.194328 0.266556 0.608879
O O10 0.121530 0.000000 0.637603
O O11 0.225480 0.500000 0.924766
O O12 0.355170 0.704073 0.931160
O O13 0.217181 0.773758 0.862093
O O14 0.250000 0.750000 0.000000
O O15 0.069531 0.500000 0.068309
O O16 0.000000 0.255200 0.000000
O O17 0.703595 0.000000 0.790417
O O18 0.750000 0.750000 0.500000
O O19 0.730367 0.000000 0.419562
#
# Coordination Sequence:
#
# PCOD9193727 Si02
#       7
#     8   8   8   8   8   8   8
#     4   9  19  38  60  83 115 160 201 234 286 358
#     4   8  15  31  56  77 101 141 186 228 272 335
#     4  10  21  37  60  91 120 149 193 248 295 342
#     4  11  23  37  54  79 111 147 190 238 287 341
#     4  10  20  34  54  79 108 148 190 230 284 344
#     4   9  19  37  58  80 110 149 188 230 283 346
#     4  10  23  40  60  87 120 157 198 242 292 353
#
# _framework density 20.606321999999999
#
# number of rings (size 3 to 8) (size 9 to 14) (size 15 to 20)
#    0.000    2.429    0.000    2.571    2.000    6.000 
#    0.000    5.714    0.000    0.000    0.000    0.000 
#    0.000    0.000    0.000    0.000    0.000    0.000 
#
# Total GULP energy -155989.420294 kJ/mol
# GULP energy per Si atom -5571.050725 kJ/mol
# Density = 2.055942 g / cm^3
# Si number density = 20.606322 Si / 1000 Ang^3
#
#
#
# Elastic Constant Matrix: (Units=GPa)
#
#
# Indices 1 2 3 4 5 6 
#
# 1 95.3578 6.9791 100.7212 0.0000 7.0364 0.0000
# 2 6.9791 15.9624 7.4599 0.0000 1.5145 0.0000
# 3 100.7212 7.4599 199.3375 0.0000 0.2621 0.0000
# 4 0.0000 0.0000 0.0000 18.4811 0.0000 3.1147
# 5 7.0364 1.5145 0.2621 0.0000 46.0372 0.0000
# 6 0.0000 0.0000 0.0000 3.1147 0.0000 10.4176
#
#
#
# Elastic Compliance Matrix: (Units=1/GPa)
#
#
# Indices 1 2 3 4 5 6 
#
# 1 0.023332 -0.004453 -0.011618 0.000000 -0.003353 0.000000
# 2 -0.004453 0.064813 -0.000173 0.000000 -0.001451 0.000000
# 3 -0.011618 -0.000173 0.010891 0.000000 0.001719 0.000000
# 4 0.000000 0.000000 0.000000 0.056981 0.000000 -0.017036
# 5 -0.003353 -0.001451 0.001719 0.000000 0.022272 0.000000
# 6 0.000000 0.000000 0.000000 -0.017036 0.000000 0.101085
#
#
# Mechanical properties :
#
#
# Convention : Reuss Voigt Hill
#
# Bulk Modulus (GPa) = 15.02711 60.10867 37.56789
# Shear Modulus (GPa) = 14.96804 28.02033 21.49419
#
# Velocity S-wave (km/s) = 2.69807 3.69154 3.23319
# Velocity P-wave (km/s) = 4.12485 6.88500 5.67528
#
# Compressibility (1/GPa) = 0.06654642
#
# Stress axis : x y z
#
# Youngs Moduli (GPa) = 42.86046 15.42898 91.81789
#
# Poissons Ratio (x) = 0.06871 1.06673
# Poissons Ratio (y) = 0.19087 0.01593
# Poissons Ratio (z) = 0.49795 0.00268
#
# Static dielectric constant tensor:
#      x y z
#    x 1.710810 0.000000 -0.001260 
#    y 0.000000 1.769800 0.000000 
#    z -0.001260 0.000000 1.916620 
# 
# From -- ./inp_files/308977.got.cif
#   From: 2010.05.17/outbox.cif.g08.bks.cpg/sg12_155_cif.got.tgz:308977.got - 2010.06.03 13:09:07.
