data_PCOD9193585
_publ_section_title
;
Structure prediction by ZEFSAII (Michael W. Deem and Ramdas Pophale) SiO2 
 PCOD9193585
Probable space group: C 2/M
;
_chemical_formula_sum "Si O2"
_cell_formula_units_Z 56
_cell_length_a 28.310226
_cell_length_b 8.931086
_cell_length_c 16.698564
_cell_angle_alpha 90.000000
_cell_angle_beta 135.122456
_cell_angle_gamma 90.000000
_cell_volume 2979.075763
_symmetry_space_group_name_H-M "C 2/M"
_symmetry_group_IT_number 12
_symmetry_cell_setting 'monoclinic'
loop_
_space_group_symop_operation_xyz
x,y,z
-x,y,-z
-x,-y,-z
x,-y,z
1/2+x,1/2+y,z
1/2-x,1/2+y,-z
1/2-x,1/2-y,-z
1/2+x,1/2-y,z
loop_
_atom_site_type_symbol
_atom_site_label
_atom_site_fract_x
_atom_site_fract_y
_atom_site_fract_z
Si Si1 0.942754 0.830602 0.316515
Si Si2 0.671430 0.177108 0.717651
Si Si3 0.730266 0.836590 0.056288
Si Si4 0.430661 0.826720 0.735207
Si Si5 0.583779 0.500000 0.018665
Si Si6 0.577494 0.500000 0.191918
Si Si7 0.916338 0.253857 0.103826
Si Si8 0.917763 0.675313 0.531785
O O1 0.888802 0.727941 0.296039
O O2 0.929681 0.824965 0.205256
O O3 0.017728 0.769306 0.417261
O O4 0.936838 0.000000 0.338435
O O5 0.737500 0.256492 0.828796
O O6 0.646078 0.216594 0.598315
O O7 0.680529 0.000000 0.734216
O O8 0.761449 0.000000 0.088447
O O9 0.750000 0.750000 0.000000
O O10 0.650545 0.846783 0.964029
O O11 0.409399 0.666168 0.751660
O O12 0.512266 0.825988 0.832758
O O13 0.408699 0.810503 0.616065
O O14 0.410997 0.000000 0.738100
O O15 0.607029 0.500000 0.137829
O O16 0.502792 0.500000 0.915929
O O17 0.603567 0.642704 0.991099
O O18 0.932666 0.500000 0.533606
#
# Coordination Sequence:
#
# PCOD9193585 Si02
#       8
#     8   8   8   8   4   4   8   8
#     4  11  20  31  51  75 101 141 185 226 270 318
#     4  11  23  36  50  71 104 144 188 233 272 311
#     4  12  25  37  52  74 105 148 195 232 266 312
#     4   9  18  35  58  82 114 144 177 221 281 346
#     4   9  18  34  56  81 119 137 174 220 275 340
#     4   9  18  34  56  93 109 143 173 220 285 349
#     4  10  20  34  54  75 107 150 181 221 269 326
#     4   9  20  35  51  74 105 142 181 221 280 329
#
# _framework density 18.797777
#
# number of rings (size 3 to 8) (size 9 to 14) (size 15 to 20)
#    0.000    1.857    2.143    2.143    5.000    4.000 
#    0.000    6.429    0.000    0.000    0.000    1.000 
#    0.000    0.000    0.000    0.000    0.000    0.000 
#
# Total GULP energy -155983.872317 kJ/mol
# GULP energy per Si atom -5570.852583 kJ/mol
# Density = 1.875499 g / cm^3
# Si number density = 18.797777 Si / 1000 Ang^3
#
#
#
# Elastic Constant Matrix: (Units=GPa)
#
#
# Indices 1 2 3 4 5 6 
#
# 1 22.8494 20.1207 22.0261 0.0000 -13.0383 0.0000
# 2 20.1207 117.7326 56.5904 0.0000 -10.9630 0.0000
# 3 22.0261 56.5904 118.7022 0.0000 -0.2642 0.0000
# 4 0.0000 0.0000 0.0000 16.2011 0.0000 -3.1886
# 5 -13.0383 -10.9630 -0.2642 0.0000 22.1776 0.0000
# 6 0.0000 0.0000 0.0000 -3.1886 0.0000 15.2672
#
#
#
# Elastic Compliance Matrix: (Units=1/GPa)
#
#
# Indices 1 2 3 4 5 6 
#
# 1 0.090670 -0.003472 -0.015055 0.000000 0.051409 0.000000
# 2 -0.003472 0.011835 -0.004989 0.000000 0.003749 0.000000
# 3 -0.015055 -0.004989 0.013572 0.000000 -0.011155 0.000000
# 4 0.000000 0.000000 0.000000 0.064370 0.000000 0.013444
# 5 0.051409 0.003749 -0.011155 0.000000 0.077035 0.000000
# 6 0.000000 0.000000 0.000000 0.013444 0.000000 0.068308
#
#
# Mechanical properties :
#
#
# Convention : Reuss Voigt Hill
#
# Bulk Modulus (GPa) = 14.48359 50.75095 32.61727
# Shear Modulus (GPa) = 12.63148 21.43230 17.03189
#
# Velocity S-wave (km/s) = 2.59504 3.38028 3.01335
# Velocity P-wave (km/s) = 4.08665 6.50323 5.43105
#
# Compressibility (1/GPa) = 0.06904366
#
# Stress axis : x y z
#
# Youngs Moduli (GPa) = 11.02901 84.49780 73.68217
#
# Poissons Ratio (x) = 0.29339 1.10926
# Poissons Ratio (y) = 0.03830 0.36763
# Poissons Ratio (z) = 0.16604 0.42160
#
# Static dielectric constant tensor:
#      x y z
#    x 1.638970 0.000000 -0.012140 
#    y 0.000000 1.684020 0.000000 
#    z -0.012140 0.000000 1.667020 
# 
# From -- ./inp_files/249320.got.cif
#   From: 2010.05.17/outbox.cif.g08.bks.cpg/sg12_125_cif.got.tgz:249320.got - 2010.06.03 13:09:07.
