data_PCOD9193651
_publ_section_title
;
Structure prediction by ZEFSAII (Michael W. Deem and Ramdas Pophale) SiO2 
 PCOD9193651
Probable space group: C 2/M
;
_chemical_formula_sum "Si O2"
_cell_formula_units_Z 56
_cell_length_a 9.145082
_cell_length_b 10.989874
_cell_length_c 35.367353
_cell_angle_alpha 90.000000
_cell_angle_beta 58.652848
_cell_angle_gamma 90.000000
_cell_volume 3035.683631
_symmetry_space_group_name_H-M "C 2/M"
_symmetry_group_IT_number 12
_symmetry_cell_setting 'monoclinic'
loop_
_space_group_symop_operation_xyz
x,y,z
-x,y,-z
-x,-y,-z
x,-y,z
1/2+x,1/2+y,z
1/2-x,1/2+y,-z
1/2-x,1/2-y,-z
1/2+x,1/2-y,z
loop_
_atom_site_type_symbol
_atom_site_label
_atom_site_fract_x
_atom_site_fract_y
_atom_site_fract_z
Si Si1 0.465247 0.637534 0.877204
Si Si2 0.427576 0.141959 0.374792
Si Si3 0.277544 0.142152 0.160351
Si Si4 0.323976 0.637473 0.739724
Si Si5 0.701252 0.864925 0.981330
Si Si6 0.704263 0.356804 0.476796
Si Si7 0.805968 0.235517 0.316449
O O1 0.542733 0.500000 0.869654
O O2 0.589410 0.751278 0.867920
O O3 0.381141 0.649710 0.847130
O O4 0.311193 0.641682 0.928162
O O5 0.297376 0.181181 0.425142
O O6 0.619774 0.189822 0.353931
O O7 0.361369 0.171624 0.341745
O O8 0.438727 0.000000 0.376928
O O9 0.221762 0.166960 0.210953
O O10 0.340079 0.000000 0.149517
O O11 0.270188 0.500000 0.739851
O O12 0.227355 0.716418 0.721365
O O13 0.529125 0.648223 0.707142
O O14 0.736513 0.000000 0.993637
O O15 0.500000 0.859422 0.000000
O O16 0.750000 0.750000 0.000000
O O17 0.500000 0.357727 0.500000
O O18 0.752846 0.500000 0.479589
O O19 0.750000 0.250000 0.500000
#
# Coordination Sequence:
#
# PCOD9193651 Si02
#       7
#     8   8   8   8   8   8   8
#     4  10  21  37  56  81 111 143 181 223 268 319
#     4  10  20  35  54  77 106 139 176 218 265 316
#     4  10  21  37  57  80 109 144 180 221 268 319
#     4  10  20  35  54  78 106 137 176 219 264 314
#     4  10  21  37  57  81 110 143 180 223 270 320
#     4  10  21  37  56  80 110 143 180 222 268 320
#     4  10  20  34  54  78 105 137 175 217 266 316
#
# _framework density 18.447246
#
# number of rings (size 3 to 8) (size 9 to 14) (size 15 to 20)
#    0.000    2.000    0.000    3.429    0.000    2.857 
#    0.000    7.143    0.000    0.000    0.000    0.000 
#    0.000    0.000    0.000    0.000    0.000    0.000 
#
# Total GULP energy -155988.426326 kJ/mol
# GULP energy per Si atom -5571.015226 kJ/mol
# Density = 1.840526 g / cm^3
# Si number density = 18.447246 Si / 1000 Ang^3
#
#
#
# Elastic Constant Matrix: (Units=GPa)
#
#
# Indices 1 2 3 4 5 6 
#
# 1 56.4413 27.3664 -4.9970 0.0000 0.4605 0.0000
# 2 27.3664 87.9668 20.3194 0.0000 5.4430 0.0000
# 3 -4.9970 20.3194 53.2654 0.0000 2.7882 0.0000
# 4 0.0000 0.0000 0.0000 24.8801 0.0000 -7.4879
# 5 0.4605 5.4430 2.7882 0.0000 34.5657 0.0000
# 6 0.0000 0.0000 0.0000 -7.4879 0.0000 13.5431
#
#
#
# Elastic Compliance Matrix: (Units=1/GPa)
#
#
# Indices 1 2 3 4 5 6 
#
# 1 0.022091 -0.008092 0.005130 0.000000 0.000566 0.000000
# 2 -0.008092 0.015518 -0.006584 0.000000 -0.001805 0.000000
# 3 0.005130 -0.006584 0.021808 0.000000 -0.000791 0.000000
# 4 0.000000 0.000000 0.000000 0.048216 0.000000 0.026658
# 5 0.000566 -0.001805 -0.000791 0.000000 0.029271 0.000000
# 6 0.000000 0.000000 0.000000 0.026658 0.000000 0.088578
#
#
# Mechanical properties :
#
#
# Convention : Reuss Voigt Hill
#
# Bulk Modulus (GPa) = 24.79968 31.45011 28.12489
# Shear Modulus (GPa) = 19.37861 24.93009 22.15435
#
# Velocity S-wave (km/s) = 3.24464 3.68016 3.46924
# Velocity P-wave (km/s) = 5.24497 5.92822 5.59703
#
# Compressibility (1/GPa) = 0.04032310
#
# Stress axis : x y z
#
# Youngs Moduli (GPa) = 45.26779 64.44104 45.85402
#
# Poissons Ratio (x) = 0.52148 -0.23522
# Poissons Ratio (y) = 0.36632 0.30192
# Poissons Ratio (z) = -0.23221 0.42431
#
# Static dielectric constant tensor:
#      x y z
#    x 1.583030 0.000000 0.002040 
#    y 0.000000 1.643870 0.000000 
#    z 0.002040 0.000000 1.639750 
# 
# From -- ./inp_files/355759.got.cif
#   From: 2010.05.17/outbox.cif.g08.bks.cpg/sg12_178_cif.got.tgz:355759.got - 2010.06.03 13:09:07.
