data_PCOD9193552
_publ_section_title
;
Structure prediction by ZEFSAII (Michael W. Deem and Ramdas Pophale) SiO2 
 PCOD9193552
Probable space group: C 2/M
;
_chemical_formula_sum "Si O2"
_cell_formula_units_Z 56
_cell_length_a 12.513671
_cell_length_b 17.437484
_cell_length_c 11.664756
_cell_angle_alpha 90.000000
_cell_angle_beta 121.220336
_cell_angle_gamma 90.000000
_cell_volume 2176.716770
_symmetry_space_group_name_H-M "C 2/M"
_symmetry_group_IT_number 12
_symmetry_cell_setting 'monoclinic'
loop_
_space_group_symop_operation_xyz
x,y,z
-x,y,-z
-x,-y,-z
x,-y,z
1/2+x,1/2+y,z
1/2-x,1/2+y,-z
1/2-x,1/2-y,-z
1/2+x,1/2-y,z
loop_
_atom_site_type_symbol
_atom_site_label
_atom_site_fract_x
_atom_site_fract_y
_atom_site_fract_z
Si Si1 0.979918 0.784303 0.201864
Si Si2 0.175176 0.000000 0.973002
Si Si3 0.597730 0.593552 0.658447
Si Si4 0.278586 0.658873 0.735851
Si Si5 0.128259 0.587982 0.256582
Si Si6 0.847653 0.355678 0.087549
Si Si7 0.378153 0.500000 0.784258
Si Si8 0.596611 0.828053 0.456594
O O1 0.941991 0.859156 0.251650
O O2 0.872440 0.735382 0.080487
O O3 0.087680 0.803055 0.171077
O O4 0.038274 0.732482 0.336470
O O5 0.256641 0.923172 0.988633
O O6 0.158107 0.000000 0.101293
O O7 0.028221 0.000000 0.857978
O O8 0.500000 0.610781 0.500000
O O9 0.401754 0.500000 0.331389
O O10 0.740342 0.621050 0.714625
O O11 0.197705 0.647768 0.804397
O O12 0.313789 0.576227 0.702795
O O13 0.207397 0.703954 0.596488
O O14 0.131395 0.500000 0.227632
O O15 0.133149 0.602426 0.395316
O O16 0.990333 0.616260 0.144843
O O17 0.500000 0.853803 0.500000
#
# Coordination Sequence:
#
# PCOD9193552 Si02
#       8
#     8   4   8   8   8   8   4   8
#     4  11  23  34  56  82 125 163 196 240 285 346
#     4   9  18  44  63  89 115 141 193 248 333 358
#     4  10  22  37  52  75 118 176 212 231 270 340
#     4  11  22  37  54  89 117 154 203 234 295 346
#     4  10  20  34  53  82 115 158 201 238 284 341
#     4  10  21  35  61  87 114 150 192 256 296 361
#     4   9  22  38  68  84 114 154 185 258 305 371
#     4  11  21  32  52  81 119 163 185 239 283 329
#
# _framework density 25.72682
#
# number of rings (size 3 to 8) (size 9 to 14) (size 15 to 20)
#    0.000    1.714    3.571    1.714    6.000    0.286 
#    0.000    0.714    0.000    0.000    0.000    1.000 
#    0.000    0.000    0.000    0.000    0.000    0.000 
#
# Total GULP energy -156298.442298 kJ/mol
# GULP energy per Si atom -5582.087225 kJ/mol
# Density = 2.566826 g / cm^3
# Si number density = 25.726820 Si / 1000 Ang^3
#
#
#
# Elastic Constant Matrix: (Units=GPa)
#
#
# Indices 1 2 3 4 5 6 
#
# 1 160.0877 21.4607 40.9559 0.0000 27.9815 0.0000
# 2 21.4607 97.4041 27.2082 0.0000 13.9254 0.0000
# 3 40.9559 27.2082 79.6188 0.0000 20.2956 0.0000
# 4 0.0000 0.0000 0.0000 -36.8734 0.0000 4.3370
# 5 27.9815 13.9254 20.2956 0.0000 37.9129 0.0000
# 6 0.0000 0.0000 0.0000 4.3370 0.0000 34.3287
#
#
#
# Elastic Compliance Matrix: (Units=1/GPa)
#
#
# Indices 1 2 3 4 5 6 
#
# 1 0.007724 -0.000332 -0.002823 0.000000 -0.004068 0.000000
# 2 -0.000332 0.011560 -0.003196 0.000000 -0.002290 0.000000
# 3 -0.002823 -0.003196 0.016529 0.000000 -0.005591 0.000000
# 4 0.000000 0.000000 0.000000 -0.026723 0.000000 0.003376
# 5 -0.004068 -0.002290 -0.005591 0.000000 0.033213 0.000000
# 6 0.000000 0.000000 0.000000 0.003376 0.000000 0.028704
#
#
# Mechanical properties :
#
#
# Convention : Reuss Voigt Hill
#
# Bulk Modulus (GPa) = 43.26751 57.37335 50.32043
# Shear Modulus (GPa) = 54.69718 23.57270 39.13494
#
# Velocity S-wave (km/s) = 4.61594 3.03028 3.90445
# Velocity P-wave (km/s) = 6.72784 5.88157 6.31889
#
# Compressibility (1/GPa) = 0.02311203
#
# Stress axis : x y z
#
# Youngs Moduli (GPa) = 129.46173 86.50717 60.49825
#
# Poissons Ratio (x) = 0.02870 0.17079
# Poissons Ratio (y) = 0.04295 0.19334
# Poissons Ratio (z) = 0.36548 0.27647
#
# Static dielectric constant tensor:
#      x y z
#    x 2.027950 0.000000 0.070200 
#    y 0.000000 2.082700 0.000000 
#    z 0.070200 0.000000 2.028350 
# 
# From -- ./inp_files/206796.got.cif
#   From: 2010.05.17/outbox.cif.g08.bks.cpg/sg12_104_cif.got.tgz:206796.got - 2010.06.03 13:09:07.
