data_PCOD9193451
_publ_section_title
;
Structure prediction by ZEFSAII (Michael W. Deem and Ramdas Pophale) SiO2 
 PCOD9193451
Probable space group: C 2/M
;
_chemical_formula_sum "Si O2"
_cell_formula_units_Z 48
_cell_length_a 20.972493
_cell_length_b 11.529266
_cell_length_c 25.753710
_cell_angle_alpha 90.000000
_cell_angle_beta 159.323815
_cell_angle_gamma 90.000000
_cell_volume 2198.730552
_symmetry_space_group_name_H-M "C 2/M"
_symmetry_group_IT_number 12
_symmetry_cell_setting 'monoclinic'
loop_
_space_group_symop_operation_xyz
x,y,z
-x,y,-z
-x,-y,-z
x,-y,z
1/2+x,1/2+y,z
1/2-x,1/2+y,-z
1/2-x,1/2-y,-z
1/2+x,1/2-y,z
loop_
_atom_site_type_symbol
_atom_site_label
_atom_site_fract_x
_atom_site_fract_y
_atom_site_fract_z
Si Si1 0.448112 0.126407 0.020992
Si Si2 0.542281 0.873278 0.312225
Si Si3 0.658645 0.669922 0.658665
Si Si4 0.904120 0.213829 0.549257
Si Si5 0.150760 0.865670 0.000552
Si Si6 0.762359 0.866966 0.667899
O O1 0.644129 0.119280 0.198075
O O2 0.355085 0.000000 0.959318
O O3 0.500000 0.134427 0.000000
O O4 0.366374 0.250493 0.976353
O O5 0.729814 0.865860 0.424796
O O6 0.548125 0.775052 0.360553
O O7 0.357723 0.861703 0.138802
O O8 0.533681 0.000000 0.331418
O O9 0.500000 0.627350 0.500000
O O10 0.578355 0.658128 0.654941
O O11 0.695119 0.802661 0.668712
O O12 0.831267 0.306471 0.451968
O O13 0.129400 0.000000 0.006276
O O14 0.980781 0.855312 0.832469
O O15 0.716083 0.000000 0.634374
#
# Coordination Sequence:
#
# PCOD9193451 Si02
#       6
#     8   8   8   8   8   8
#     4  10  20  34  53  79 111 144 179 223 274 326
#     4  10  21  36  54  76 107 146 184 222 264 319
#     4   9  19  34  54  81 109 138 176 224 275 327
#     4  10  20  34  53  79 109 140 179 220 271 325
#     4   9  19  37  57  78 106 141 184 228 270 319
#     4   9  18  34  57  82 107 137 177 228 279 324
#
# _framework density 21.830779
#
# number of rings (size 3 to 8) (size 9 to 14) (size 15 to 20)
#    0.000    2.500    0.000    1.500    0.000    5.667 
#    0.000   15.833    0.000    0.000    0.000    0.000 
#    0.000    0.000    0.000    0.000    0.000    0.000 
#
# Total GULP energy -133608.306723 kJ/mol
# GULP energy per Si atom -5567.012780 kJ/mol
# Density = 2.178109 g / cm^3
# Si number density = 21.830779 Si / 1000 Ang^3
#
#
#
# Elastic Constant Matrix: (Units=GPa)
#
#
# Indices 1 2 3 4 5 6 
#
# 1 17.5152 -0.5101 0.9650 0.0035 11.2476 0.0003
# 2 -0.5101 134.2818 12.8915 -0.0070 6.2089 -0.0003
# 3 0.9650 12.8915 111.1107 -0.0275 19.9539 -0.0005
# 4 0.0035 -0.0070 -0.0275 14.0090 0.0003 0.6707
# 5 11.2476 6.2089 19.9539 0.0003 24.4703 0.0016
# 6 0.0003 -0.0003 -0.0005 0.6707 0.0016 4.3418
#
#
#
# Elastic Compliance Matrix: (Units=1/GPa)
#
#
# Indices 1 2 3 4 5 6 
#
# 1 0.086352 0.001757 0.007327 -0.000006 -0.046111 0.000012
# 2 0.001757 0.007608 -0.000476 0.000002 -0.002350 0.000001
# 3 0.007327 -0.000476 0.011217 0.000020 -0.012394 0.000002
# 4 -0.000006 0.000002 0.000020 0.071915 -0.000014 -0.011110
# 5 -0.046111 -0.002350 -0.012394 -0.000014 0.072763 -0.000023
# 6 0.000012 0.000001 0.000002 -0.011110 -0.000023 0.232038
#
#
# Mechanical properties :
#
#
# Convention : Reuss Voigt Hill
#
# Bulk Modulus (GPa) = 8.17040 32.17783 20.17412
# Shear Modulus (GPa) = 9.89169 25.20164 17.54666
#
# Velocity S-wave (km/s) = 2.13094 3.40134 2.83814
# Velocity P-wave (km/s) = 3.13134 5.49520 4.47227
#
# Compressibility (1/GPa) = 0.12239309
#
# Stress axis : x y z
#
# Youngs Moduli (GPa) = 11.58052 131.43994 89.14682
#
# Poissons Ratio (x) = -0.23090 -0.65320
# Poissons Ratio (y) = -0.02034 0.04243
# Poissons Ratio (z) = -0.08485 0.06257
#
# Static dielectric constant tensor:
#      x y z
#    x 1.787040 0.000000 0.009690 
#    y 0.000000 1.826810 -0.000010 
#    z 0.009690 -0.000010 1.847120 
# 
# From -- ./inp_files/366200.got.cif
#   From: 2010.05.17/outbox.cif.g08.bks.cpg/sg12_184_cif.got.tgz:366200.got - 2010.06.03 13:09:07.
