data_PCOD9193106
_publ_section_title
;
Structure prediction by ZEFSAII (Michael W. Deem and Ramdas Pophale) SiO2 
 PCOD9193106
Probable space group: C 2/M
;
_chemical_formula_sum "Si O2"
_cell_formula_units_Z 56
_cell_length_a 8.837836
_cell_length_b 28.219836
_cell_length_c 18.335964
_cell_angle_alpha 90.000000
_cell_angle_beta 138.797209
_cell_angle_gamma 90.000000
_cell_volume 3012.375107
_symmetry_space_group_name_H-M "C 2/M"
_symmetry_group_IT_number 12
_symmetry_cell_setting 'monoclinic'
loop_
_space_group_symop_operation_xyz
x,y,z
-x,y,-z
-x,-y,-z
x,-y,z
1/2+x,1/2+y,z
1/2-x,1/2+y,-z
1/2-x,1/2-y,-z
1/2+x,1/2-y,z
loop_
_atom_site_type_symbol
_atom_site_label
_atom_site_fract_x
_atom_site_fract_y
_atom_site_fract_z
Si Si1 0.470411 0.392742 0.332087
Si Si2 0.565461 0.054175 0.232908
Si Si3 0.690750 0.803516 0.281168
Si Si4 0.776138 0.366575 0.310558
Si Si5 0.959191 0.723290 0.613618
Si Si6 0.256908 0.357498 0.874109
Si Si7 0.647557 0.944398 0.432277
O O1 0.263849 0.430263 0.249185
O O2 0.355872 0.348301 0.331073
O O3 0.572999 0.372974 0.294112
O O4 0.661700 0.417548 0.451463
O O5 0.357665 0.091126 0.153033
O O6 0.675651 0.058984 0.354577
O O7 0.494778 0.000000 0.198349
O O8 0.650969 0.793181 0.351103
O O9 0.434439 0.820201 0.165469
O O10 0.824688 0.758723 0.296625
O O11 0.716188 0.355156 0.204354
O O12 0.943881 0.322983 0.392169
O O13 0.914222 0.415879 0.362734
O O14 0.750000 0.750000 0.500000
O O15 0.500000 0.351651 0.000000
O O16 0.639551 0.000000 0.448040
#
# Coordination Sequence:
#
# PCOD9193106 Si02
#       7
#     8   8   8   8   8   8   8
#     4  11  20  33  52  80 116 146 175 220 273 330
#     4   9  19  34  54  80 108 144 188 225 266 328
#     4  10  22  36  55  81 108 142 184 222 265 325
#     4  10  22  36  54  82 111 142 185 226 269 327
#     4  11  21  36  55  79 112 146 179 218 268 324
#     4   9  20  41  62  78 104 142 186 236 280 316
#     4  10  20  34  52  77 113 153 183 214 267 330
#
# _framework density 18.589984000000001
#
# number of rings (size 3 to 8) (size 9 to 14) (size 15 to 20)
#    0.000    2.000    0.000    4.286    0.000    7.714 
#    0.000    5.714    0.000    0.857    0.000    0.000 
#    0.000    0.000    0.000    0.000    0.000    0.000 
#
# Total GULP energy -156201.778142 kJ/mol
# GULP energy per Si atom -5578.634934 kJ/mol
# Density = 1.854767 g / cm^3
# Si number density = 18.589984 Si / 1000 Ang^3
#
#
#
# Elastic Constant Matrix: (Units=GPa)
#
#
# Indices 1 2 3 4 5 6 
#
# 1 123.4986 61.4715 48.7544 0.0000 15.3558 0.0000
# 2 61.4715 92.2947 29.4640 0.0000 6.5397 0.0000
# 3 48.7544 29.4640 91.9990 0.0000 17.9672 0.0000
# 4 0.0000 0.0000 0.0000 9.3203 0.0000 -4.5352
# 5 15.3558 6.5397 17.9672 0.0000 11.4171 0.0000
# 6 0.0000 0.0000 0.0000 -4.5352 0.0000 17.7184
#
#
#
# Elastic Compliance Matrix: (Units=1/GPa)
#
#
# Indices 1 2 3 4 5 6 
#
# 1 0.014579 -0.007974 -0.003226 0.000000 -0.009963 0.000000
# 2 -0.007974 0.016442 -0.001870 0.000000 0.004250 0.000000
# 3 -0.003226 -0.001870 0.017500 0.000000 -0.022130 0.000000
# 4 0.000000 0.000000 0.000000 0.122556 0.000000 0.031369
# 5 -0.009963 0.004250 -0.022130 0.000000 0.133380 0.000000
# 6 0.000000 0.000000 0.000000 0.031369 0.000000 0.064468
#
#
# Mechanical properties :
#
#
# Convention : Reuss Voigt Hill
#
# Bulk Modulus (GPa) = 44.68218 65.24134 54.96176
# Shear Modulus (GPa) = 12.42155 18.89798 15.65977
#
# Velocity S-wave (km/s) = 2.58773 3.19183 2.90552
# Velocity P-wave (km/s) = 5.74598 6.98246 6.39418
#
# Compressibility (1/GPa) = 0.02238029
#
# Stress axis : x y z
#
# Youngs Moduli (GPa) = 68.59208 60.82099 57.14206
#
# Poissons Ratio (x) = 0.48499 0.18436
# Poissons Ratio (y) = 0.54696 0.10684
# Poissons Ratio (z) = 0.22130 0.11372
#
# Static dielectric constant tensor:
#      x y z
#    x 1.665440 0.000000 0.004340 
#    y 0.000000 1.675960 0.000000 
#    z 0.004340 0.000000 1.633650 
# 
# From -- ./inp_files/259872.got.cif
#   From: 2010.05.17/outbox.cif.g08.bks.cpg/sg12_130_cif.got.tgz:259872.got - 2010.06.03 13:09:07.
