data_PCOD9193337
_publ_section_title
;
Structure prediction by ZEFSAII (Michael W. Deem and Ramdas Pophale) SiO2 
 PCOD9193337
Probable space group: C 2/M
;
_chemical_formula_sum "Si O2"
_cell_formula_units_Z 64
_cell_length_a 15.089179
_cell_length_b 9.195760
_cell_length_c 24.324277
_cell_angle_alpha 90.000000
_cell_angle_beta 118.284824
_cell_angle_gamma 90.000000
_cell_volume 2972.167547
_symmetry_space_group_name_H-M "C 2/M"
_symmetry_group_IT_number 12
_symmetry_cell_setting 'monoclinic'
loop_
_space_group_symop_operation_xyz
x,y,z
-x,y,-z
-x,-y,-z
x,-y,z
1/2+x,1/2+y,z
1/2-x,1/2+y,-z
1/2-x,1/2-y,-z
1/2+x,1/2-y,z
loop_
_atom_site_type_symbol
_atom_site_label
_atom_site_fract_x
_atom_site_fract_y
_atom_site_fract_z
Si Si1 0.215926 0.825476 0.810465
Si Si2 0.475365 0.826899 0.191386
Si Si3 0.176415 0.337240 0.688767
Si Si4 0.674299 0.834217 0.052829
Si Si5 0.902528 0.833576 0.068585
Si Si6 0.216339 0.664836 0.436205
Si Si7 0.881501 0.162637 0.683279
Si Si8 0.425277 0.665661 0.430841
O O1 0.126526 0.733165 0.811216
O O2 0.215909 0.766754 0.748843
O O3 0.310858 0.798313 0.878575
O O4 0.197767 0.000000 0.807054
O O5 0.471006 0.763287 0.128544
O O6 0.559012 0.756758 0.254803
O O7 0.481175 0.000000 0.192286
O O8 0.149213 0.500000 0.700833
O O9 0.270200 0.353069 0.675404
O O10 0.088714 0.262293 0.627431
O O11 0.788552 0.831024 0.060958
O O12 0.638441 0.000000 0.036784
O O13 0.609079 0.729456 0.995829
O O14 0.936339 0.000000 0.079206
O O15 0.184322 0.500000 0.439205
O O16 0.250000 0.750000 0.500000
O O17 0.132580 0.753232 0.377877
O O18 0.315848 0.656365 0.427279
O O19 0.925350 0.000000 0.689995
O O20 0.500000 0.723252 0.500000
O O21 0.457445 0.500000 0.426467
#
# Coordination Sequence:
#
# PCOD9193337 Si02
#       8
#     8   8   8   8   8   8   8   8
#     4  10  20  34  53  77 107 139 173 215 260 307
#     4  11  21  33  52  78 106 135 174 220 261 307
#     4  10  21  36  55  78 105 138 174 213 257 308
#     4   8  15  27  44  69  99 133 170 208 253 304
#     4   9  16  27  45  70 101 135 168 208 260 310
#     4  10  20  35  55  78 104 135 172 213 258 307
#     4  10  21  38  56  75 104 140 176 214 261 313
#     4   9  19  36  56  76 100 134 173 210 252 303
#
# _framework density 21.533106
#
# number of rings (size 3 to 8) (size 9 to 14) (size 15 to 20)
#    0.000    2.375    0.000    3.750    0.000    6.750 
#    0.000    3.750    0.000    0.750    0.000    5.250 
#    0.000    0.000    0.000    0.000    0.000    0.000 
#
# Total GULP energy -178635.390969 kJ/mol
# GULP energy per Si atom -5582.355968 kJ/mol
# Density = 2.148410 g / cm^3
# Si number density = 21.533106 Si / 1000 Ang^3
#
#
#
# Elastic Constant Matrix: (Units=GPa)
#
#
# Indices 1 2 3 4 5 6 
#
# 1 24.2936 10.2175 2.3964 0.0000 -1.2078 0.0000
# 2 10.2175 200.1404 127.4051 0.0000 2.2113 0.0000
# 3 2.3964 127.4051 202.6777 0.0000 -1.6586 0.0000
# 4 0.0000 0.0000 0.0000 32.2635 0.0000 2.1450
# 5 -1.2078 2.2113 -1.6586 0.0000 11.1902 0.0000
# 6 0.0000 0.0000 0.0000 2.1450 0.0000 13.7782
#
#
#
# Elastic Compliance Matrix: (Units=1/GPa)
#
#
# Indices 1 2 3 4 5 6 
#
# 1 0.042644 -0.003243 0.001579 0.000000 0.005478 0.000000
# 2 -0.003243 0.008643 -0.005418 0.000000 -0.002861 0.000000
# 3 0.001579 -0.005418 0.008341 0.000000 0.002477 0.000000
# 4 0.000000 0.000000 0.000000 0.031319 0.000000 -0.004876
# 5 0.005478 -0.002861 0.002477 0.000000 0.090888 0.000000
# 6 0.000000 0.000000 0.000000 -0.004876 0.000000 0.073337
#
#
# Mechanical properties :
#
#
# Convention : Reuss Voigt Hill
#
# Bulk Modulus (GPa) = 21.99532 78.57219 50.28376
# Shear Modulus (GPa) = 17.57537 30.58590 24.08063
#
# Velocity S-wave (km/s) = 2.86002 3.77293 3.34774
# Velocity P-wave (km/s) = 4.59817 7.45307 6.19239
#
# Compressibility (1/GPa) = 0.04546422
#
# Stress axis : x y z
#
# Youngs Moduli (GPa) = 23.45022 115.70673 119.88598
#
# Poissons Ratio (x) = 0.37521 -0.18930
# Poissons Ratio (y) = 0.07604 0.64952
# Poissons Ratio (z) = -0.03703 0.62688
#
# Static dielectric constant tensor:
#      x y z
#    x 1.643310 0.000000 -0.010310 
#    y 0.000000 1.771170 0.000000 
#    z -0.010310 0.000000 1.777870 
# 
# From -- ./inp_files/346257.got.cif
#   From: 2010.05.17/outbox.cif.g08.bks.cpg/sg12_174_cif.got.tgz:346257.got - 2010.06.03 13:09:07.
