data_PCOD9193816
_publ_section_title
;
Structure prediction by ZEFSAII (Michael W. Deem and Ramdas Pophale) SiO2 
 PCOD9193816
Probable space group: C 2/M
;
_chemical_formula_sum "Si O2"
_cell_formula_units_Z 40
_cell_length_a 14.695896
_cell_length_b 14.416789
_cell_length_c 13.921649
_cell_angle_alpha 90.000000
_cell_angle_beta 44.304292
_cell_angle_gamma 90.000000
_cell_volume 2060.166699
_symmetry_space_group_name_H-M "C 2/M"
_symmetry_group_IT_number 12
_symmetry_cell_setting 'monoclinic'
loop_
_space_group_symop_operation_xyz
x,y,z
-x,y,-z
-x,-y,-z
x,-y,z
1/2+x,1/2+y,z
1/2-x,1/2+y,-z
1/2-x,1/2-y,-z
1/2+x,1/2-y,z
loop_
_atom_site_type_symbol
_atom_site_label
_atom_site_fract_x
_atom_site_fract_y
_atom_site_fract_z
Si Si1 0.573449 0.779022 0.535439
Si Si2 0.852622 0.214673 0.318109
Si Si3 0.362939 0.892456 0.813922
Si Si4 0.073925 0.894353 0.044912
Si Si5 0.957221 0.392169 0.141289
O O1 0.500000 0.735997 0.500000
O O2 0.710466 0.826453 0.401192
O O3 0.624249 0.716197 0.584707
O O4 0.532657 0.844628 0.334049
O O5 0.977490 0.161690 0.184526
O O6 0.860235 0.316430 0.261284
O O7 0.420358 0.887899 0.878316
O O8 0.353394 0.000000 0.792456
O O9 0.217491 0.852247 0.922891
O O10 0.090405 0.000000 0.068343
O O11 0.000000 0.897443 0.000000
O O12 0.910796 0.500000 0.177166
O O13 0.000000 0.368999 0.000000
#
# Coordination Sequence:
#
# PCOD9193816 Si02
#       5
#     8   8   8   8   8
#     4  10  21  35  51  73 104 140 176 210 254 307
#     4  10  21  35  53  79 105 135 175 214 255 304
#     4   9  19  34  52  77 105 135 174 213 254 308
#     4  10  20  34  54  81 108 133 167 214 262 305
#     4   9  18  33  54  78 104 135 172 214 259 306
#
# _framework density 19.415904000000001
#
# number of rings (size 3 to 8) (size 9 to 14) (size 15 to 20)
#    0.000    2.400    0.000    1.800    0.000    6.000 
#    0.000    3.000    0.000    1.200    0.000    1.400 
#    0.000    0.000    0.000    0.000    0.000    0.000 
#
# Total GULP energy -111397.650429 kJ/mol
# GULP energy per Si atom -5569.882521 kJ/mol
# Density = 1.937171 g / cm^3
# Si number density = 19.415904 Si / 1000 Ang^3
#
#
#
# Elastic Constant Matrix: (Units=GPa)
#
#
# Indices 1 2 3 4 5 6 
#
# 1 110.8963 17.3929 60.8118 0.0000 -18.8127 0.0000
# 2 17.3929 36.1861 33.3149 0.0000 -5.0442 0.0000
# 3 60.8118 33.3149 110.3481 0.0000 -20.7541 0.0000
# 4 0.0000 0.0000 0.0000 -24.1137 0.0000 -3.1986
# 5 -18.8127 -5.0442 -20.7541 0.0000 52.8886 0.0000
# 6 0.0000 0.0000 0.0000 -3.1986 0.0000 14.9042
#
#
#
# Elastic Compliance Matrix: (Units=1/GPa)
#
#
# Indices 1 2 3 4 5 6 
#
# 1 0.013115 0.000393 -0.006977 0.000000 0.001965 0.000000
# 2 0.000393 0.038329 -0.011957 0.000000 -0.000897 0.000000
# 3 -0.006977 -0.011957 0.017098 0.000000 0.003087 0.000000
# 4 0.000000 0.000000 0.000000 -0.040322 0.000000 -0.008654
# 5 0.001965 -0.000897 0.003087 0.000000 0.020732 0.000000
# 6 0.000000 0.000000 0.000000 -0.008654 0.000000 0.065238
#
#
# Mechanical properties :
#
#
# Convention : Reuss Voigt Hill
#
# Bulk Modulus (GPa) = 31.78582 53.38553 42.58567
# Shear Modulus (GPa) = 30.91028 18.46321 24.68674
#
# Velocity S-wave (km/s) = 3.99433 3.08706 3.56964
# Velocity P-wave (km/s) = 6.13836 6.34524 6.24266
#
# Compressibility (1/GPa) = 0.03146057
#
# Stress axis : x y z
#
# Youngs Moduli (GPa) = 76.24962 26.08962 58.48752
#
# Poissons Ratio (x) = -0.01026 0.40805
# Poissons Ratio (y) = -0.02999 0.69935
# Poissons Ratio (z) = 0.53197 0.31196
#
# Static dielectric constant tensor:
#      x y z
#    x 1.694690 0.000000 -0.022120 
#    y 0.000000 1.724290 0.000000 
#    z -0.022120 0.000000 1.753140 
# 
# From -- ./inp_files/142512.got.cif
#   From: 2010.05.17/outbox.cif.g08.bks.cpg/sg12_72_cif.got.tgz:142512.got - 2010.06.03 13:09:07.
