data_PCOD9193579
_publ_section_title
;
Structure prediction by ZEFSAII (Michael W. Deem and Ramdas Pophale) SiO2 
 PCOD9193579
Probable space group: C 2/M
;
_chemical_formula_sum "Si O2"
_cell_formula_units_Z 42
_cell_length_a 17.567882
_cell_length_b 16.348466
_cell_length_c 6.838776
_cell_angle_alpha 90.000000
_cell_angle_beta 108.166456
_cell_angle_gamma 90.000000
_cell_volume 1866.247054
_symmetry_space_group_name_H-M "C 2/M"
_symmetry_group_IT_number 12
_symmetry_cell_setting 'monoclinic'
loop_
_space_group_symop_operation_xyz
x,y,z
-x,y,-z
-x,-y,-z
x,-y,z
1/2+x,1/2+y,z
1/2-x,1/2+y,-z
1/2-x,1/2-y,-z
1/2+x,1/2-y,z
loop_
_atom_site_type_symbol
_atom_site_label
_atom_site_fract_x
_atom_site_fract_y
_atom_site_fract_z
Si Si1 0.483914 0.751997 0.719323
Si Si2 0.882076 0.637901 0.090966
Si Si3 0.000000 0.500000 0.000000
Si Si4 0.074985 0.091495 0.414973
Si Si5 0.119443 0.592002 0.453920
Si Si6 0.759090 0.906365 0.269337
O O1 0.500000 0.743838 0.500000
O O2 0.567605 0.778403 0.880277
O O3 0.446089 0.665562 0.746914
O O4 0.427815 0.832103 0.676599
O O5 0.878490 0.608194 0.313655
O O6 0.934855 0.570450 0.022387
O O7 0.794265 0.642771 0.927368
O O8 0.152234 0.119480 0.602200
O O9 0.000000 0.082034 0.500000
O O10 0.092036 0.000000 0.347368
O O11 0.081908 0.500000 0.383875
O O12 0.206122 0.592143 0.424991
O O13 0.763521 0.000000 0.199600
#
# Coordination Sequence:
#
# PCOD9193579 Si02
#       6
#     8   8   2   8   8   8
#     4   9  20  33  54  86 124 167 204 236 310 364
#     4  11  21  34  56  91 131 155 197 238 296 377
#     4  12  20  32  58  92 128 168 182 218 306 370
#     4   9  19  40  64  85 115 159 219 269 297 346
#     4  10  20  34  53  87 133 167 186 239 300 377
#     4  10  20  35  61  91 117 160 208 242 310 361
#
# _framework density 22.505058999999999
#
# number of rings (size 3 to 8) (size 9 to 14) (size 15 to 20)
#    0.000    2.095    1.905    1.143    4.000    1.905 
#    0.000    8.571    0.000    8.000    0.000   15.333 
#    0.000    0.000    0.000    0.000    0.000    0.000 
#
# Total GULP energy -117037.187930 kJ/mol
# GULP energy per Si atom -5573.199425 kJ/mol
# Density = 2.245384 g / cm^3
# Si number density = 22.505059 Si / 1000 Ang^3
#
#
#
# Elastic Constant Matrix: (Units=GPa)
#
#
# Indices 1 2 3 4 5 6 
#
# 1 79.0593 29.5010 28.1293 0.0000 31.8949 0.0000
# 2 29.5010 160.0170 64.3506 0.0000 30.3735 0.0000
# 3 28.1293 64.3506 97.6748 0.0000 14.1890 0.0000
# 4 0.0000 0.0000 0.0000 28.7474 0.0000 10.6120
# 5 31.8949 30.3735 14.1890 0.0000 43.8640 0.0000
# 6 0.0000 0.0000 0.0000 10.6120 0.0000 25.4984
#
#
#
# Elastic Compliance Matrix: (Units=1/GPa)
#
#
# Indices 1 2 3 4 5 6 
#
# 1 0.019093 0.000538 -0.003969 0.000000 -0.012972 0.000000
# 2 0.000538 0.009357 -0.005584 0.000000 -0.005064 0.000000
# 3 -0.003969 -0.005584 0.014773 0.000000 0.001974 0.000000
# 4 0.000000 0.000000 0.000000 0.041100 0.000000 -0.017105
# 5 -0.012972 -0.005064 0.001974 0.000000 0.035099 0.000000
# 6 0.000000 0.000000 0.000000 -0.017105 0.000000 0.046337
#
#
# Mechanical properties :
#
#
# Convention : Reuss Voigt Hill
#
# Bulk Modulus (GPa) = 39.69113 64.52365 52.10739
# Shear Modulus (GPa) = 26.01637 33.93997 29.97817
#
# Velocity S-wave (km/s) = 3.40372 3.88764 3.65370
# Velocity P-wave (km/s) = 5.75517 6.99176 6.40338
#
# Compressibility (1/GPa) = 0.02519455
#
# Stress axis : x y z
#
# Youngs Moduli (GPa) = 52.37395 106.87237 67.69017
#
# Poissons Ratio (x) = -0.05753 0.26866
# Poissons Ratio (y) = -0.02820 0.37798
# Poissons Ratio (z) = 0.20787 0.59677
#
# Static dielectric constant tensor:
#      x y z
#    x 1.828040 0.000000 0.005560 
#    y 0.000000 1.953520 0.000000 
#    z 0.005560 0.000000 1.686970 
# 
# From -- ./inp_files/73291.got.cif
#   From: 2010.05.17/outbox.cif.g08.bks.cpg/sg12_37_cif.got.tgz:73291.got - 2010.06.03 13:09:07.
