data_PCOD9193837
_publ_section_title
;
Structure prediction by ZEFSAII (Michael W. Deem and Ramdas Pophale) SiO2 
 PCOD9193837
Probable space group: C 2/M
;
_chemical_formula_sum "Si O2"
_cell_formula_units_Z 56
_cell_length_a 20.067396
_cell_length_b 8.779108
_cell_length_c 27.727760
_cell_angle_alpha 90.000000
_cell_angle_beta 141.903601
_cell_angle_gamma 90.000000
_cell_volume 3013.920560
_symmetry_space_group_name_H-M "C 2/M"
_symmetry_group_IT_number 12
_symmetry_cell_setting 'monoclinic'
loop_
_space_group_symop_operation_xyz
x,y,z
-x,y,-z
-x,-y,-z
x,-y,z
1/2+x,1/2+y,z
1/2-x,1/2+y,-z
1/2-x,1/2-y,-z
1/2+x,1/2-y,z
loop_
_atom_site_type_symbol
_atom_site_label
_atom_site_fract_x
_atom_site_fract_y
_atom_site_fract_z
Si Si1 0.658336 0.681362 0.182504
Si Si2 0.594459 0.685229 0.518837
Si Si3 0.309332 0.816484 0.696572
Si Si4 0.129204 0.816617 0.431276
Si Si5 0.757479 0.316319 0.135965
Si Si6 0.551769 0.825979 0.975705
Si Si7 0.994965 0.684235 0.731123
O O1 0.662904 0.500000 0.187576
O O2 0.702405 0.751780 0.256721
O O3 0.723483 0.729484 0.171297
O O4 0.534513 0.734692 0.104994
O O5 0.500000 0.740107 0.500000
O O6 0.593538 0.500000 0.519267
O O7 0.710481 0.732430 0.605953
O O8 0.579948 0.728999 0.455079
O O9 0.421299 0.770647 0.734742
O O10 0.307389 0.000000 0.698294
O O11 0.250000 0.750000 0.500000
O O12 0.060747 0.751690 0.348170
O O13 0.133910 0.000000 0.431218
O O14 0.749920 0.500000 0.129357
O O15 0.669071 0.246911 0.049535
O O16 0.879961 0.269960 0.194738
O O17 0.558756 0.000000 0.962909
O O18 0.500000 0.825430 0.000000
O O19 0.991339 0.500000 0.725593
#
# Coordination Sequence:
#
# PCOD9193837 Si02
#       7
#     8   8   8   8   8   8   8
#     4  10  20  34  54  81 111 141 175 217 272 322
#     4   9  19  35  54  78 107 140 179 222 267 314
#     4  10  20  36  55  75 107 145 180 219 265 316
#     4  11  21  36  58  80 105 142 183 222 268 318
#     4   9  19  35  56  80 110 142 174 220 271 318
#     4   9  17  32  55  82 109 138 178 220 261 315
#     4  10  21  38  56  78 109 144 181 220 267 318
#
# _framework density 18.580451
#
# number of rings (size 3 to 8) (size 9 to 14) (size 15 to 20)
#    0.000    2.286    1.429    1.286    2.000    3.429 
#    0.000    0.714    0.000    2.143    0.000    0.000 
#    0.000    0.000    0.000    0.000    0.000    0.000 
#
# Total GULP energy -156230.658517 kJ/mol
# GULP energy per Si atom -5579.666376 kJ/mol
# Density = 1.853816 g / cm^3
# Si number density = 18.580451 Si / 1000 Ang^3
#
#
#
# Elastic Constant Matrix: (Units=GPa)
#
#
# Indices 1 2 3 4 5 6 
#
# 1 66.9918 7.8065 -3.9939 0.0000 16.5236 0.0000
# 2 7.8065 13.3094 2.0003 0.0000 5.3978 0.0000
# 3 -3.9939 2.0003 28.8341 0.0000 19.3868 0.0000
# 4 0.0000 0.0000 0.0000 30.5387 0.0000 -7.9714
# 5 16.5236 5.3978 19.3868 0.0000 37.0034 0.0000
# 6 0.0000 0.0000 0.0000 -7.9714 0.0000 17.3933
#
#
#
# Elastic Compliance Matrix: (Units=1/GPa)
#
#
# Indices 1 2 3 4 5 6 
#
# 1 0.020337 -0.007876 0.013426 0.000000 -0.014967 0.000000
# 2 -0.007876 0.083145 -0.001650 0.000000 -0.007747 0.000000
# 3 0.013426 -0.001650 0.062563 0.000000 -0.038533 0.000000
# 4 0.000000 0.000000 0.000000 0.037195 0.000000 0.017046
# 5 -0.014967 -0.007747 -0.038533 0.000000 0.055026 0.000000
# 6 0.000000 0.000000 0.000000 0.017046 0.000000 0.065306
#
#
# Mechanical properties :
#
#
# Convention : Reuss Voigt Hill
#
# Bulk Modulus (GPa) = 5.75227 13.41789 9.58508
# Shear Modulus (GPa) = 13.37901 23.87524 18.62713
#
# Velocity S-wave (km/s) = 2.68630 3.58853 3.16968
# Velocity P-wave (km/s) = 3.56710 4.94037 4.30880
#
# Compressibility (1/GPa) = 0.17384434
#
# Stress axis : x y z
#
# Youngs Moduli (GPa) = 49.17135 12.02721 15.98391
#
# Poissons Ratio (x) = 0.09473 -0.21460
# Poissons Ratio (y) = 0.38729 0.02638
# Poissons Ratio (z) = -0.66019 0.01985
#
# Static dielectric constant tensor:
#      x y z
#    x 1.646660 0.000000 0.011770 
#    y 0.000000 1.626890 0.000000 
#    z 0.011770 0.000000 1.614300 
# 
# From -- ./inp_files/342277.got.cif
#   From: 2010.05.17/outbox.cif.g08.bks.cpg/sg12_172_cif.got.tgz:342277.got - 2010.06.03 13:09:07.
