data_PCOD9193421
_publ_section_title
;
Structure prediction by ZEFSAII (Michael W. Deem and Ramdas Pophale) SiO2 
 PCOD9193421
Probable space group: C 2/M
;
_chemical_formula_sum "Si O2"
_cell_formula_units_Z 48
_cell_length_a 21.034227
_cell_length_b 8.124796
_cell_length_c 27.476171
_cell_angle_alpha 90.000000
_cell_angle_beta 35.621955
_cell_angle_gamma 90.000000
_cell_volume 2734.905486
_symmetry_space_group_name_H-M "C 2/M"
_symmetry_group_IT_number 12
_symmetry_cell_setting 'monoclinic'
loop_
_space_group_symop_operation_xyz
x,y,z
-x,y,-z
-x,-y,-z
x,-y,z
1/2+x,1/2+y,z
1/2-x,1/2+y,-z
1/2-x,1/2-y,-z
1/2+x,1/2-y,z
loop_
_atom_site_type_symbol
_atom_site_label
_atom_site_fract_x
_atom_site_fract_y
_atom_site_fract_z
Si Si1 0.894346 0.000000 0.634084
Si Si2 0.461927 0.807143 0.753155
Si Si3 0.373486 0.799642 0.071111
Si Si4 0.806411 0.314794 0.416646
Si Si5 0.178601 0.311368 0.257690
Si Si6 0.239644 0.192089 0.061587
Si Si7 0.353771 0.500000 0.545205
O O1 0.850512 0.165168 0.687223
O O2 0.861344 0.000000 0.598125
O O3 0.026228 0.000000 0.552556
O O4 0.583470 0.733984 0.671948
O O5 0.404923 0.796375 0.735848
O O6 0.380563 0.723902 0.841844
O O7 0.467216 0.000000 0.764353
O O8 0.296766 0.723377 0.160423
O O9 0.324156 0.740257 0.049838
O O10 0.362485 0.000000 0.080496
O O11 0.500000 0.759086 0.000000
O O12 0.843647 0.500000 0.407192
O O13 0.750000 0.250000 0.500000
O O14 0.715392 0.345086 0.432107
O O15 0.172136 0.500000 0.280217
O O16 0.260890 0.000000 0.047308
O O17 0.250000 0.250000 0.000000
#
# Coordination Sequence:
#
# PCOD9193421 Si02
#       7
#     4   8   8   8   8   8   4
#     4  11  20  40  57  82 120 150 189 228 284 350
#     4   9  18  33  54  79 107 134 188 233 273 331
#     4   9  18  36  57  82 107 144 197 239 276 336
#     4   9  18  34  54  82 106 139 182 228 277 320
#     4  10  20  34  59  85 108 151 189 234 283 333
#     4  10  20  34  53  78 110 148 183 227 287 340
#     4   9  22  36  58  82 116 151 181 230 287 339
#
# _framework density 17.550879999999999
#
# number of rings (size 3 to 8) (size 9 to 14) (size 15 to 20)
#    0.500    2.000    0.833    1.500    1.167    1.667 
#    3.000    2.500    0.000    0.000    0.000    0.000 
#    0.000    0.000    0.000    0.000    0.000    0.000 
#
# Total GULP energy -133610.535941 kJ/mol
# GULP energy per Si atom -5567.105664 kJ/mol
# Density = 1.751093 g / cm^3
# Si number density = 17.550880 Si / 1000 Ang^3
#
#
#
# Elastic Constant Matrix: (Units=GPa)
#
#
# Indices 1 2 3 4 5 6 
#
# 1 85.6143 26.4163 81.5023 -0.0024 -13.1220 0.0050
# 2 26.4163 62.4650 41.4234 -0.0097 7.9957 0.0049
# 3 81.5023 41.4234 139.5315 0.0014 -6.8224 -0.0015
# 4 -0.0024 -0.0097 0.0014 28.7311 0.0006 4.4886
# 5 -13.1220 7.9957 -6.8224 0.0006 31.5148 -0.0095
# 6 0.0050 0.0049 -0.0015 4.4886 -0.0095 22.7852
#
#
#
# Elastic Compliance Matrix: (Units=1/GPa)
#
#
# Indices 1 2 3 4 5 6 
#
# 1 0.028765 -0.003160 -0.015403 0.000002 0.009445 -0.000003
# 2 -0.003160 0.021648 -0.004967 0.000009 -0.007883 -0.000009
# 3 -0.015403 -0.004967 0.017572 -0.000005 -0.001349 0.000006
# 4 0.000002 0.000009 -0.000005 0.035911 -0.000005 -0.007074
# 5 0.009445 -0.007883 -0.001349 -0.000005 0.037372 0.000016
# 6 -0.000003 -0.000009 0.000006 -0.007074 0.000016 0.045282
#
#
# Mechanical properties :
#
#
# Convention : Reuss Voigt Hill
#
# Bulk Modulus (GPa) = 47.78287 65.14387 56.46337
# Shear Modulus (GPa) = 20.78288 25.82417 23.30352
#
# Velocity S-wave (km/s) = 3.44488 3.84003 3.64781
# Velocity P-wave (km/s) = 6.56562 7.54048 7.06987
#
# Compressibility (1/GPa) = 0.02092800
#
# Stress axis : x y z
#
# Youngs Moduli (GPa) = 34.76391 46.19416 56.90824
#
# Poissons Ratio (x) = 0.14596 0.87653
# Poissons Ratio (y) = 0.10984 0.28264
# Poissons Ratio (z) = 0.53545 0.22943
#
# Static dielectric constant tensor:
#      x y z
#    x 1.603880 0.000000 -0.029170 
#    y 0.000000 1.621920 0.000000 
#    z -0.029170 0.000000 1.613300 
# 
# From -- ./inp_files/367136.got.cif
#   From: 2010.05.17/outbox.cif.g08.bks.cpg/sg12_184_cif.got.tgz:367136.got - 2010.06.03 13:09:07.
