data_PCOD9193105
_publ_section_title
;
Structure prediction by ZEFSAII (Michael W. Deem and Ramdas Pophale) SiO2 
 PCOD9193105
Probable space group: C 2/M
;
_chemical_formula_sum "Si O2"
_cell_formula_units_Z 60
_cell_length_a 14.476274
_cell_length_b 19.261063
_cell_length_c 14.494724
_cell_angle_alpha 90.000000
_cell_angle_beta 137.835243
_cell_angle_gamma 90.000000
_cell_volume 2712.944213
_symmetry_space_group_name_H-M "C 2/M"
_symmetry_group_IT_number 12
_symmetry_cell_setting 'monoclinic'
loop_
_space_group_symop_operation_xyz
x,y,z
-x,y,-z
-x,-y,-z
x,-y,z
1/2+x,1/2+y,z
1/2-x,1/2+y,-z
1/2-x,1/2-y,-z
1/2+x,1/2-y,z
loop_
_atom_site_type_symbol
_atom_site_label
_atom_site_fract_x
_atom_site_fract_y
_atom_site_fract_z
Si Si1 0.787321 0.649894 0.272074
Si Si2 0.592720 0.579159 0.804386
Si Si3 0.736825 0.419149 0.422553
Si Si4 0.929010 0.788053 0.310856
Si Si5 0.161877 0.420546 0.879651
Si Si6 0.486433 0.788453 0.158143
Si Si7 0.000000 0.199044 0.000000
Si Si8 0.765190 0.190594 0.433878
O O1 0.806354 0.619529 0.387888
O O2 0.854977 0.725216 0.307799
O O3 0.842049 0.601159 0.230330
O O4 0.623525 0.655836 0.134674
O O5 0.610465 0.500000 0.783380
O O6 0.430225 0.588672 0.705362
O O7 0.637585 0.637678 0.763884
O O8 0.683762 0.585687 0.964065
O O9 0.769913 0.500000 0.446125
O O10 0.775886 0.380504 0.545466
O O11 0.955373 0.755518 0.227582
O O12 0.073902 0.807353 0.466139
O O13 0.117516 0.500000 0.858779
O O14 0.077089 0.363693 0.873733
O O15 0.651503 0.794680 0.273607
O O16 0.434946 0.747374 0.031437
O O17 0.750000 0.250000 0.500000
#
# Coordination Sequence:
#
# PCOD9193105 Si02
#       8
#     8   8   8   8   8   8   4   8
#     4  11  20  32  55  84 118 149 180 226 281 337
#     4   9  17  31  52  78 109 147 189 230 272 324
#     4  10  20  34  56  87 118 148 184 229 280 333
#     4   9  18  34  55  78 108 146 190 229 274 331
#     4  10  20  34  52  77 113 151 184 222 276 339
#     4  10  21  36  55  77 107 146 189 234 280 328
#     4  12  22  34  56  86 116 144 188 238 276 328
#     4   9  18  37  57  74 105 148 193 231 270 329
#
# _framework density 22.116194
#
# number of rings (size 3 to 8) (size 9 to 14) (size 15 to 20)
#    0.000    2.133    0.000    5.200    0.000    2.667 
#    0.000   13.667    0.000    8.800    0.000    0.933 
#    0.000   28.800    0.000    0.000    0.000    0.000 
#
# Total GULP energy -167713.104312 kJ/mol
# GULP energy per Si atom -5590.436810 kJ/mol
# Density = 2.206586 g / cm^3
# Si number density = 22.116194 Si / 1000 Ang^3
#
#
#
# Elastic Constant Matrix: (Units=GPa)
#
#
# Indices 1 2 3 4 5 6 
#
# 1 52.4445 28.5322 -11.3475 0.0000 -6.1443 0.0000
# 2 28.5322 139.5971 3.2221 0.0000 -5.1738 0.0000
# 3 -11.3475 3.2221 43.8070 0.0000 -1.7383 0.0000
# 4 0.0000 0.0000 0.0000 28.6484 0.0000 -5.2817
# 5 -6.1443 -5.1738 -1.7383 0.0000 14.7946 0.0000
# 6 0.0000 0.0000 0.0000 -5.2817 0.0000 32.9540
#
#
#
# Elastic Compliance Matrix: (Units=1/GPa)
#
#
# Indices 1 2 3 4 5 6 
#
# 1 0.024264 -0.004779 0.007003 0.000000 0.009229 0.000000
# 2 -0.004779 0.008207 -0.001815 0.000000 0.000672 0.000000
# 3 0.007003 -0.001815 0.024982 0.000000 0.005209 0.000000
# 4 0.000000 0.000000 0.000000 0.035969 0.000000 0.005765
# 5 0.009229 0.000672 0.005209 0.000000 0.072272 0.000000
# 6 0.000000 0.000000 0.000000 0.005765 0.000000 0.031269
#
#
# Mechanical properties :
#
#
# Convention : Reuss Voigt Hill
#
# Bulk Modulus (GPa) = 17.16117 30.74023 23.95070
# Shear Modulus (GPa) = 23.19450 29.64219 26.41835
#
# Velocity S-wave (km/s) = 3.24196 3.66497 3.45994
# Velocity P-wave (km/s) = 4.66799 5.64260 5.17828
#
# Compressibility (1/GPa) = 0.05827109
#
# Stress axis : x y z
#
# Youngs Moduli (GPa) = 41.21300 121.84660 40.02944
#
# Poissons Ratio (x) = 0.58230 -0.28033
# Poissons Ratio (y) = 0.19695 0.07265
# Poissons Ratio (z) = -0.28861 0.22114
#
# Static dielectric constant tensor:
#      x y z
#    x 1.852600 0.000000 0.018300 
#    y 0.000000 1.794710 0.000000 
#    z 0.018300 0.000000 1.824630 
# 
# From -- ./inp_files/146101.got.cif
#   From: 2010.05.17/outbox.cif.g08.bks.cpg/sg12_74_cif.got.tgz:146101.got - 2010.06.03 13:09:07.
