data_PCOD9193103
_publ_section_title
;
Structure prediction by ZEFSAII (Michael W. Deem and Ramdas Pophale) SiO2 
 PCOD9193103
Probable space group: C 2/M
;
_chemical_formula_sum "Si O2"
_cell_formula_units_Z 48
_cell_length_a 26.041436
_cell_length_b 11.635742
_cell_length_c 8.173502
_cell_angle_alpha 90.000000
_cell_angle_beta 92.944562
_cell_angle_gamma 90.000000
_cell_volume 2473.394609
_symmetry_space_group_name_H-M "C 2/M"
_symmetry_group_IT_number 12
_symmetry_cell_setting 'monoclinic'
loop_
_space_group_symop_operation_xyz
x,y,z
-x,y,-z
-x,-y,-z
x,-y,z
1/2+x,1/2+y,z
1/2-x,1/2+y,-z
1/2-x,1/2-y,-z
1/2+x,1/2-y,z
loop_
_atom_site_type_symbol
_atom_site_label
_atom_site_fract_x
_atom_site_fract_y
_atom_site_fract_z
Si Si1 0.709546 0.868497 0.836171
Si Si2 0.315287 0.261346 0.833511
Si Si3 0.442897 0.869746 0.415113
Si Si4 0.668161 0.867269 0.486000
Si Si5 0.463083 0.365812 0.238861
Si Si6 0.925326 0.129966 0.856866
O O1 0.771158 0.857599 0.832686
O O2 0.685259 0.818364 0.665345
O O3 0.693205 0.000000 0.845302
O O4 0.692084 0.806741 0.998542
O O5 0.306687 0.190827 0.666126
O O6 0.373988 0.299276 0.831807
O O7 0.500000 0.870522 0.500000
O O8 0.394072 0.864479 0.528441
O O9 0.439570 0.748359 0.317252
O O10 0.437426 0.000000 0.334087
O O11 0.684249 0.000000 0.488247
O O12 0.455228 0.500000 0.298677
O O13 0.524499 0.342419 0.242198
O O14 0.443493 0.366991 0.048638
O O15 0.911479 0.000000 0.812591
#
# Coordination Sequence:
#
# PCOD9193103 Si02
#       6
#     8   8   8   8   8   8
#     4  10  22  37  54  79 108 139 178 228 278 324
#     4  11  20  35  59  79 103 142 184 221 271 334
#     4  10  20  34  52  77 111 147 184 230 277 324
#     4  10  21  37  55  78 111 144 179 226 276 328
#     4   9  18  34  54  78 111 148 184 225 277 332
#     4   9  18  33  54  79 108 141 178 226 275 322
#
# _framework density 19.406525999999999
#
# number of rings (size 3 to 8) (size 9 to 14) (size 15 to 20)
#    0.000    2.167    0.000    4.500    0.000    0.333 
#    0.000    5.000    0.000    8.000    0.000    0.000 
#    0.000    0.000    0.000    0.000    0.000    0.000 
#
# Total GULP energy -133601.794170 kJ/mol
# GULP energy per Si atom -5566.741424 kJ/mol
# Density = 1.936236 g / cm^3
# Si number density = 19.406526 Si / 1000 Ang^3
#
#
#
# Elastic Constant Matrix: (Units=GPa)
#
#
# Indices 1 2 3 4 5 6 
#
# 1 67.4066 17.9698 14.1975 0.0000 4.2947 0.0000
# 2 17.9698 97.8220 33.1530 0.0000 -17.7418 0.0000
# 3 14.1975 33.1530 84.4740 0.0000 -6.4798 0.0000
# 4 0.0000 0.0000 0.0000 23.1184 0.0000 -7.2725
# 5 4.2947 -17.7418 -6.4798 0.0000 24.9689 0.0000
# 6 0.0000 0.0000 0.0000 -7.2725 0.0000 27.0954
#
#
#
# Elastic Compliance Matrix: (Units=1/GPa)
#
#
# Indices 1 2 3 4 5 6 
#
# 1 0.016516 -0.003449 -0.001865 0.000000 -0.005776 0.000000
# 2 -0.003449 0.013988 -0.004185 0.000000 0.009446 0.000000
# 3 -0.001865 -0.004185 0.013867 0.000000 0.000945 0.000000
# 4 0.000000 0.000000 0.000000 0.047245 0.000000 0.012681
# 5 -0.005776 0.009446 0.000945 0.000000 0.048001 0.000000
# 6 0.000000 0.000000 0.000000 0.012681 0.000000 0.040310
#
#
# Mechanical properties :
#
#
# Convention : Reuss Voigt Hill
#
# Bulk Modulus (GPa) = 39.41573 42.26034 40.83804
# Shear Modulus (GPa) = 24.11002 27.32868 25.71935
#
# Velocity S-wave (km/s) = 3.52855 3.75670 3.64441
# Velocity P-wave (km/s) = 6.07910 6.37500 6.22881
#
# Compressibility (1/GPa) = 0.02537058
#
# Stress axis : x y z
#
# Youngs Moduli (GPa) = 60.54841 71.48942 72.11572
#
# Poissons Ratio (x) = 0.24659 0.13450
# Poissons Ratio (y) = 0.20885 0.30184
# Poissons Ratio (z) = 0.11293 0.29922
#
# Static dielectric constant tensor:
#      x y z
#    x 1.685040 0.000000 0.022980 
#    y 0.000000 1.716330 0.000000 
#    z 0.022980 0.000000 1.697970 
# 
# From -- ./inp_files/94282.got.cif
#   From: 2010.05.17/outbox.cif.g08.bks.cpg/sg12_48_cif.got.tgz:94282.got - 2010.06.03 13:09:07.
