data_PCOD9193742
_publ_section_title
;
Structure prediction by ZEFSAII (Michael W. Deem and Ramdas Pophale) SiO2 
 PCOD9193742
Probable space group: C 2/M
;
_chemical_formula_sum "Si O2"
_cell_formula_units_Z 40
_cell_length_a 16.653170
_cell_length_b 16.051658
_cell_length_c 13.300668
_cell_angle_alpha 90.000000
_cell_angle_beta 145.628153
_cell_angle_gamma 90.000000
_cell_volume 2007.250289
_symmetry_space_group_name_H-M "C 2/M"
_symmetry_group_IT_number 12
_symmetry_cell_setting 'monoclinic'
loop_
_space_group_symop_operation_xyz
x,y,z
-x,y,-z
-x,-y,-z
x,-y,z
1/2+x,1/2+y,z
1/2-x,1/2+y,-z
1/2-x,1/2-y,-z
1/2+x,1/2-y,z
loop_
_atom_site_type_symbol
_atom_site_label
_atom_site_fract_x
_atom_site_fract_y
_atom_site_fract_z
Si Si1 0.628629 0.695298 0.927138
Si Si2 0.831551 0.591878 0.814497
Si Si3 0.671258 0.405129 0.165552
Si Si4 0.077148 0.903789 0.682177
Si Si5 0.672472 0.254516 0.314025
O O1 0.552771 0.645558 0.758299
O O2 0.499242 0.742938 0.848493
O O3 0.750000 0.750000 0.000000
O O4 0.695651 0.633906 0.080152
O O5 0.791689 0.500000 0.731867
O O6 0.744766 0.599725 0.828362
O O7 0.790379 0.670442 0.706009
O O8 0.000000 0.592773 0.000000
O O9 0.726566 0.500000 0.233725
O O10 0.715837 0.336438 0.294521
O O11 0.500000 0.410290 0.000000
O O12 0.000000 0.874548 0.500000
O O13 0.037694 0.000000 0.655895
O O14 0.750000 0.250000 0.500000
#
# Coordination Sequence:
#
# PCOD9193742 Si02
#       5
#     8   8   8   8   8
#     4  11  21  34  56  80 109 144 180 221 267 322
#     4  10  20  36  56  77 106 141 177 217 264 324
#     4   9  19  36  57  80 108 145 188 227 267 324
#     4  10  20  34  54  80 106 133 174 227 271 306
#     4  11  22  36  56  80 108 142 180 224 272 323
#
# _framework density 19.927759999999999
#
# number of rings (size 3 to 8) (size 9 to 14) (size 15 to 20)
#    0.000    1.800    0.000    6.000    0.000    1.600 
#    0.000    1.000    0.000    1.200    0.000    0.000 
#    0.000    0.000    0.000    0.000    0.000    0.000 
#
# Total GULP energy -111589.220053 kJ/mol
# GULP energy per Si atom -5579.461003 kJ/mol
# Density = 1.988240 g / cm^3
# Si number density = 19.927760 Si / 1000 Ang^3
#
#
#
# Elastic Constant Matrix: (Units=GPa)
#
#
# Indices 1 2 3 4 5 6 
#
# 1 89.4008 61.2958 14.1317 0.0000 -10.7518 0.0000
# 2 61.2958 168.8051 31.4889 0.0000 -31.8720 0.0000
# 3 14.1317 31.4889 49.7009 0.0000 -12.8900 0.0000
# 4 0.0000 0.0000 0.0000 10.4373 0.0000 -2.6337
# 5 -10.7518 -31.8720 -12.8900 0.0000 45.9544 0.0000
# 6 0.0000 0.0000 0.0000 -2.6337 0.0000 32.3760
#
#
#
# Elastic Compliance Matrix: (Units=1/GPa)
#
#
# Indices 1 2 3 4 5 6 
#
# 1 0.014939 -0.005330 -0.000996 0.000000 -0.000480 0.000000
# 2 -0.005330 0.009272 -0.003251 0.000000 0.004272 0.000000
# 3 -0.000996 -0.003251 0.023530 0.000000 0.004112 0.000000
# 4 0.000000 0.000000 0.000000 0.097818 0.000000 0.007957
# 5 -0.000480 0.004272 0.004112 0.000000 0.025765 0.000000
# 6 0.000000 0.000000 0.000000 0.007957 0.000000 0.031534
#
#
# Mechanical properties :
#
#
# Convention : Reuss Voigt Hill
#
# Bulk Modulus (GPa) = 34.97935 57.97105 46.47520
# Shear Modulus (GPa) = 21.59442 31.15293 26.37367
#
# Velocity S-wave (km/s) = 3.29543 3.95814 3.64189
# Velocity P-wave (km/s) = 5.66313 7.07410 6.40757
#
# Compressibility (1/GPa) = 0.02858829
#
# Stress axis : x y z
#
# Youngs Moduli (GPa) = 66.93718 107.84722 42.49918
#
# Poissons Ratio (x) = 0.57479 0.04231
# Poissons Ratio (y) = 0.35676 0.13818
# Poissons Ratio (z) = 0.06665 0.35065
#
# Static dielectric constant tensor:
#      x y z
#    x 1.700580 0.000000 0.013340 
#    y 0.000000 1.664480 0.000000 
#    z 0.013340 0.000000 1.726000 
# 
# From -- ./inp_files/59243.got.cif
#   From: 2010.05.17/outbox.cif.g08.bks.cpg/sg12_30_cif.got.tgz:59243.got - 2010.06.03 13:09:07.
