data_PCOD9193377
_publ_section_title
;
Structure prediction by ZEFSAII (Michael W. Deem and Ramdas Pophale) SiO2 
 PCOD9193377
Probable space group: C 2/M
;
_chemical_formula_sum "Si O2"
_cell_formula_units_Z 64
_cell_length_a 15.898375
_cell_length_b 7.748268
_cell_length_c 20.441035
_cell_angle_alpha 90.000000
_cell_angle_beta 71.925673
_cell_angle_gamma 90.000000
_cell_volume 2393.773846
_symmetry_space_group_name_H-M "C 2/M"
_symmetry_group_IT_number 12
_symmetry_cell_setting 'monoclinic'
loop_
_space_group_symop_operation_xyz
x,y,z
-x,y,-z
-x,-y,-z
x,-y,z
1/2+x,1/2+y,z
1/2-x,1/2+y,-z
1/2-x,1/2-y,-z
1/2+x,1/2-y,z
loop_
_atom_site_type_symbol
_atom_site_label
_atom_site_fract_x
_atom_site_fract_y
_atom_site_fract_z
Si Si1 0.128769 0.290351 0.978315
Si Si2 0.077299 0.700061 0.853966
Si Si3 0.823721 0.205661 0.893991
Si Si4 0.163363 0.800930 0.610830
Si Si5 0.922483 0.299066 0.639345
Si Si6 0.359481 0.297363 0.522581
Si Si7 0.226603 0.789886 0.731741
Si Si8 0.540850 0.301377 0.236169
O O1 0.126813 0.500000 0.978356
O O2 0.071052 0.235272 0.929894
O O3 0.227601 0.225869 0.935763
O O4 0.116570 0.234905 0.055766
O O5 0.050253 0.500000 0.859181
O O6 0.180196 0.713352 0.806662
O O7 0.027563 0.793960 0.807259
O O8 0.872760 0.281886 0.819183
O O9 0.816016 0.000000 0.886829
O O10 0.268566 0.795817 0.565847
O O11 0.117776 0.729094 0.555730
O O12 0.170420 0.726063 0.681917
O O13 0.134139 0.000000 0.625651
O O14 0.917014 0.500000 0.626773
O O15 0.926814 0.214859 0.566968
O O16 0.827355 0.239397 0.692318
O O17 0.984829 0.274386 0.687392
O O18 0.339273 0.500000 0.519249
O O19 0.223192 0.000000 0.735276
O O20 0.557843 0.500000 0.246379
#
# Coordination Sequence:
#
# PCOD9193377 Si02
#       8
#     8   8   8   8   8   8   8   8
#     4   9  19  36  57  80 106 135 168 209 257 308
#     4  11  23  37  53  76 107 141 178 218 260 308
#     4   9  19  36  58  82 105 132 170 213 255 305
#     4   8  15  27  44  71 105 136 170 214 262 311
#     4  10  20  34  53  78 107 138 175 218 263 314
#     4   9  15  25  45  73 104 136 170 212 262 311
#     4   9  18  33  53  77 105 138 175 215 260 310
#     4  11  23  38  55  76 105 140 178 218 261 310
#
# _framework density 26.736025999999999
#
# number of rings (size 3 to 8) (size 9 to 14) (size 15 to 20)
#    0.000    2.500    0.000    3.000    0.000    6.500 
#    0.000    5.000    0.000    0.750    0.000    5.250 
#    0.000    0.000    0.000    0.000    0.000    0.000 
#
# Total GULP energy -178902.731533 kJ/mol
# GULP energy per Si atom -5590.710360 kJ/mol
# Density = 2.667517 g / cm^3
# Si number density = 26.736026 Si / 1000 Ang^3
#
#
#
# Elastic Constant Matrix: (Units=GPa)
#
#
# Indices 1 2 3 4 5 6 
#
# 1 75.5774 -4.1531 20.1528 0.0000 20.9071 0.0000
# 2 -4.1531 70.4801 7.0887 0.0000 5.1804 0.0000
# 3 20.1528 7.0887 234.1132 0.0000 18.5019 0.0000
# 4 0.0000 0.0000 0.0000 24.5968 0.0000 10.7325
# 5 20.9071 5.1804 18.5019 0.0000 56.9158 0.0000
# 6 0.0000 0.0000 0.0000 10.7325 0.0000 19.3214
#
#
#
# Elastic Compliance Matrix: (Units=1/GPa)
#
#
# Indices 1 2 3 4 5 6 
#
# 1 0.015030 0.001371 -0.000913 0.000000 -0.005349 0.000000
# 2 0.001371 0.014435 -0.000422 0.000000 -0.001680 0.000000
# 3 -0.000913 -0.000422 0.004448 0.000000 -0.001072 0.000000
# 4 0.000000 0.000000 0.000000 0.053662 0.000000 -0.029808
# 5 -0.005349 -0.001680 -0.001072 0.000000 0.020036 0.000000
# 6 0.000000 0.000000 0.000000 -0.029808 0.000000 0.068313
#
#
# Mechanical properties :
#
#
# Convention : Reuss Voigt Hill
#
# Bulk Modulus (GPa) = 29.42564 47.37195 38.39879
# Shear Modulus (GPa) = 26.71219 43.97228 35.34223
#
# Velocity S-wave (km/s) = 3.16430 4.05987 3.63973
# Velocity P-wave (km/s) = 4.93764 6.30346 5.66188
#
# Compressibility (1/GPa) = 0.03398397
#
# Stress axis : x y z
#
# Youngs Moduli (GPa) = 66.53428 69.27550 224.84494
#
# Poissons Ratio (x) = -0.09495 0.20518
# Poissons Ratio (y) = -0.09119 0.09495
# Poissons Ratio (z) = 0.06072 0.02925
#
# Static dielectric constant tensor:
#      x y z
#    x 2.273430 0.000000 0.020080 
#    y 0.000000 1.953710 0.000000 
#    z 0.020080 0.000000 2.082900 
# 
# From -- ./inp_files/314206.got.cif
#   From: 2010.05.17/outbox.cif.g08.bks.cpg/sg12_158_cif.got.tgz:314206.got - 2010.06.03 13:09:07.
