data_PCOD9193472
_publ_section_title
;
Structure prediction by ZEFSAII (Michael W. Deem and Ramdas Pophale) SiO2 
 PCOD9193472
Probable space group: C 2/M
;
_chemical_formula_sum "Si O2"
_cell_formula_units_Z 64
_cell_length_a 14.555704
_cell_length_b 21.505895
_cell_length_c 28.518536
_cell_angle_alpha 90.000000
_cell_angle_beta 22.013651
_cell_angle_gamma 90.000000
_cell_volume 3346.180755
_symmetry_space_group_name_H-M "C 2/M"
_symmetry_group_IT_number 12
_symmetry_cell_setting 'monoclinic'
loop_
_space_group_symop_operation_xyz
x,y,z
-x,y,-z
-x,-y,-z
x,-y,z
1/2+x,1/2+y,z
1/2-x,1/2+y,-z
1/2-x,1/2-y,-z
1/2+x,1/2-y,z
loop_
_atom_site_type_symbol
_atom_site_label
_atom_site_fract_x
_atom_site_fract_y
_atom_site_fract_z
Si Si1 0.348317 0.071424 0.766347
Si Si2 0.133234 0.652451 0.566700
Si Si3 0.744470 0.747408 0.644873
Si Si4 0.882733 0.219467 0.684896
Si Si5 0.134432 0.681099 0.057334
Si Si6 0.943903 0.069442 0.874534
Si Si7 0.772619 0.325287 0.877412
Si Si8 0.172800 0.390568 0.379327
O O1 0.584400 0.101745 0.629483
O O2 0.277977 0.112382 0.844104
O O3 0.135166 0.075380 0.827635
O O4 0.386139 0.000000 0.760455
O O5 0.408535 0.669147 0.423298
O O6 0.010509 0.717390 0.642235
O O7 0.998227 0.630007 0.583454
O O8 0.781473 0.758615 0.682477
O O9 0.490934 0.781791 0.755019
O O10 0.730083 0.673619 0.643356
O O11 0.000000 0.769292 0.500000
O O12 0.649930 0.191180 0.820912
O O13 0.172486 0.661837 0.093859
O O14 0.250000 0.750000 0.000000
O O15 0.266380 0.628610 0.963944
O O16 0.104038 0.074714 0.751280
O O17 0.833006 0.000000 0.929786
O O18 0.500000 0.297668 0.000000
O O19 0.000000 0.422038 0.500000
#
# Coordination Sequence:
#
# PCOD9193472 Si02
#       8
#     8   8   8   8   8   8   8   8
#     4  10  20  34  53  79 112 146 185 228 269 327
#     4   9  17  34  54  81 105 141 182 226 283 328
#     4   9  17  31  50  75 110 140 170 229 282 321
#     4   9  18  30  54  76 105 140 180 224 273 330
#     4  11  21  37  53  78 116 147 182 230 273 325
#     4  10  20  35  55  78 110 149 182 224 281 333
#     4  11  21  32  52  80 109 148 185 225 271 331
#     4   9  18  34  54  78 107 132 178 235 279 329
#
# _framework density 19.126283000000001
#
# number of rings (size 3 to 8) (size 9 to 14) (size 15 to 20)
#    0.000    2.250    1.250    3.750    0.000    2.000 
#    0.000    0.625    0.000    7.125    0.000    0.875 
#    0.000    0.000    0.000    0.000    0.000    0.000 
#
# Total GULP energy -178451.545759 kJ/mol
# GULP energy per Si atom -5576.610805 kJ/mol
# Density = 1.908275 g / cm^3
# Si number density = 19.126283 Si / 1000 Ang^3
#
#
#
# Elastic Constant Matrix: (Units=GPa)
#
#
# Indices 1 2 3 4 5 6 
#
# 1 29.1002 10.8577 27.0686 -0.0334 20.7685 -0.0043
# 2 10.8577 112.4470 70.7384 -0.0731 5.9749 -0.0021
# 3 27.0686 70.7384 138.6279 -0.3901 -1.5653 -0.0294
# 4 -0.0334 -0.0731 -0.3901 19.7208 0.0188 3.4059
# 5 20.7685 5.9749 -1.5653 0.0188 32.9055 0.0046
# 6 -0.0043 -0.0021 -0.0294 3.4059 0.0046 16.9152
#
#
#
# Elastic Compliance Matrix: (Units=1/GPa)
#
#
# Indices 1 2 3 4 5 6 
#
# 1 0.104160 0.010138 -0.026289 -0.000249 -0.068832 0.000051
# 2 0.010138 0.014328 -0.009398 -0.000109 -0.009447 0.000013
# 3 -0.026289 -0.009398 0.017359 0.000252 0.019125 -0.000034
# 4 -0.000249 -0.000109 0.000252 0.052539 0.000160 -0.010579
# 5 -0.068832 -0.009447 0.019125 0.000160 0.076459 -0.000038
# 6 0.000051 0.000013 -0.000034 -0.010579 -0.000038 0.061248
#
#
# Mechanical properties :
#
#
# Convention : Reuss Voigt Hill
#
# Bulk Modulus (GPa) = 11.79961 55.27828 33.53895
# Shear Modulus (GPa) = 12.33224 25.34233 18.83729
#
# Velocity S-wave (km/s) = 2.54201 3.64400 3.14170
# Velocity P-wave (km/s) = 3.84687 6.83151 5.54382
#
# Compressibility (1/GPa) = 0.08474855
#
# Stress axis : x y z
#
# Youngs Moduli (GPa) = 9.60061 69.79319 57.60733
#
# Poissons Ratio (x) = -0.70755 1.51446
# Poissons Ratio (y) = -0.09733 0.54138
# Poissons Ratio (z) = 0.25239 0.65590
#
# Static dielectric constant tensor:
#      x y z
#    x 1.694430 -0.000010 0.007160 
#    y -0.000010 1.672640 0.000040 
#    z 0.007160 0.000040 1.717850 
# 
# From -- ./inp_files/377087.got.cif
#   From: 2010.05.17/outbox.cif.g08.bks.cpg/sg12_189_cif.got.tgz:377087.got - 2010.06.03 13:09:07.
