data_PCOD9193068
_publ_section_title
;
Structure prediction by ZEFSAII (Michael W. Deem and Ramdas Pophale) SiO2 
 PCOD9193068
Probable space group: C 2/M
;
_chemical_formula_sum "Si O2"
_cell_formula_units_Z 48
_cell_length_a 9.119807
_cell_length_b 9.865996
_cell_length_c 25.752707
_cell_angle_alpha 90.000000
_cell_angle_beta 91.417967
_cell_angle_gamma 90.000000
_cell_volume 2316.415482
_symmetry_space_group_name_H-M "C 2/M"
_symmetry_group_IT_number 12
_symmetry_cell_setting 'monoclinic'
loop_
_space_group_symop_operation_xyz
x,y,z
-x,y,-z
-x,-y,-z
x,-y,z
1/2+x,1/2+y,z
1/2-x,1/2+y,-z
1/2-x,1/2-y,-z
1/2+x,1/2-y,z
loop_
_atom_site_type_symbol
_atom_site_label
_atom_site_fract_x
_atom_site_fract_y
_atom_site_fract_z
Si Si1 0.699592 0.709268 0.874753
Si Si2 0.460652 0.850902 0.801932
Si Si3 0.806013 0.659068 0.697159
Si Si4 0.147236 0.156233 0.534458
Si Si5 0.438347 0.350134 0.947712
Si Si6 0.908452 0.658601 0.365296
O O1 0.598473 0.784142 0.831255
O O2 0.827348 0.640527 0.842093
O O3 0.573884 0.641802 0.908781
O O4 0.799186 0.789842 0.917026
O O5 0.389775 0.790166 0.749544
O O6 0.509006 0.000000 0.786111
O O7 0.758035 0.500000 0.704674
O O8 0.681977 0.765524 0.680743
O O9 0.923316 0.657881 0.651488
O O10 0.250000 0.250000 0.500000
O O11 0.115107 0.244294 0.585558
O O12 0.000000 0.143083 0.500000
O O13 0.199760 0.000000 0.545424
O O14 0.391489 0.500000 0.963910
O O15 0.500000 0.277435 0.000000
O O16 0.864260 0.500000 0.373006
#
# Coordination Sequence:
#
# PCOD9193068 Si02
#       6
#     8   8   8   8   8   8
#     4  10  20  34  54  79 106 140 182 228 277 331
#     4  10  20  36  56  79 108 142 183 229 279 334
#     4  10  22  39  59  84 115 151 190 236 288 342
#     4  11  24  41  63  91 121 156 197 240 287 339
#     4  10  20  34  52  76 107 142 180 224 276 333
#     4  11  23  39  60  87 118 153 193 236 285 341
#
# _framework density 20.721672000000002
#
# number of rings (size 3 to 8) (size 9 to 14) (size 15 to 20)
#    0.000    1.667    0.000    4.500    0.000    5.333 
#    0.000    4.167    0.000    8.000    0.000    0.000 
#    0.000    0.000    0.000    0.000    0.000    0.000 
#
# Total GULP energy -133693.149940 kJ/mol
# GULP energy per Si atom -5570.547914 kJ/mol
# Density = 2.067451 g / cm^3
# Si number density = 20.721672 Si / 1000 Ang^3
#
#
#
# Elastic Constant Matrix: (Units=GPa)
#
#
# Indices 1 2 3 4 5 6 
#
# 1 92.5209 38.3402 6.5633 0.0000 15.5044 0.0000
# 2 38.3402 104.4320 19.9494 0.0000 18.3582 0.0000
# 3 6.5633 19.9494 85.1518 0.0000 20.0097 0.0000
# 4 0.0000 0.0000 0.0000 8.6832 0.0000 8.0981
# 5 15.5044 18.3582 20.0097 0.0000 43.7066 0.0000
# 6 0.0000 0.0000 0.0000 8.0981 0.0000 1.2201
#
#
#
# Elastic Compliance Matrix: (Units=1/GPa)
#
#
# Indices 1 2 3 4 5 6 
#
# 1 0.013107 -0.004404 0.000761 0.000000 -0.003148 0.000000
# 2 -0.004404 0.012010 -0.001856 0.000000 -0.002633 0.000000
# 3 0.000761 -0.001856 0.013447 0.000000 -0.005647 0.000000
# 4 0.000000 0.000000 0.000000 -0.022190 0.000000 0.147279
# 5 -0.003148 -0.002633 -0.005647 0.000000 0.027688 0.000000
# 6 0.000000 0.000000 0.000000 0.147279 0.000000 -0.157919
#
#
# Mechanical properties :
#
#
# Convention : Reuss Voigt Hill
#
# Bulk Modulus (GPa) = 36.27530 45.75674 41.01602
# Shear Modulus (GPa) = -53.37737 25.20542 -14.08597
#
# Velocity S-wave (km/s) = -5.08086 3.49145 -2.61007
# Velocity P-wave (km/s) = 4.10806 6.19541 3.27925
#
# Compressibility (1/GPa) = 0.02756697
#
# Stress axis : x y z
#
# Youngs Moduli (GPa) = 76.29560 83.26601 74.36768
#
# Poissons Ratio (x) = 0.36670 -0.05662
# Poissons Ratio (y) = 0.33600 0.13799
# Poissons Ratio (z) = -0.05808 0.15450
#
# Static dielectric constant tensor:
#      x y z
#    x 1.733360 0.000000 0.022940 
#    y 0.000000 1.749550 0.000000 
#    z 0.022940 0.000000 1.795630 
# 
# From -- ./inp_files/371857.got.cif
#   From: 2010.05.17/outbox.cif.g08.bks.cpg/sg12_186_cif.got.tgz:371857.got - 2010.06.03 13:09:07.
