data_PCOD9193424
_publ_section_title
;
Structure prediction by ZEFSAII (Michael W. Deem and Ramdas Pophale) SiO2 
 PCOD9193424
Probable space group: C 2/M
;
_chemical_formula_sum "Si O2"
_cell_formula_units_Z 64
_cell_length_a 26.277325
_cell_length_b 7.457377
_cell_length_c 14.369139
_cell_angle_alpha 90.000000
_cell_angle_beta 110.725702
_cell_angle_gamma 90.000000
_cell_volume 2633.553467
_symmetry_space_group_name_H-M "C 2/M"
_symmetry_group_IT_number 12
_symmetry_cell_setting 'monoclinic'
loop_
_space_group_symop_operation_xyz
x,y,z
-x,y,-z
-x,-y,-z
x,-y,z
1/2+x,1/2+y,z
1/2-x,1/2+y,-z
1/2-x,1/2-y,-z
1/2+x,1/2-y,z
loop_
_atom_site_type_symbol
_atom_site_label
_atom_site_fract_x
_atom_site_fract_y
_atom_site_fract_z
Si Si1 0.781493 0.286441 0.923990
Si Si2 0.420231 0.718865 0.179906
Si Si3 0.822685 0.219009 0.239121
Si Si4 0.392260 0.700840 0.454518
Si Si5 0.404653 0.296409 0.971607
Si Si6 0.524644 0.281002 0.352199
Si Si7 0.687623 0.206077 0.440015
Si Si8 0.393693 0.715977 0.759570
O O1 0.789692 0.500000 0.921036
O O2 0.738864 0.223315 0.817403
O O3 0.840205 0.199062 0.953057
O O4 0.750000 0.250000 0.000000
O O5 0.421634 0.500000 0.177365
O O6 0.360709 0.770320 0.176891
O O7 0.464323 0.774601 0.285079
O O8 0.431076 0.783407 0.082051
O O9 0.855612 0.283614 0.350230
O O10 0.820642 0.000000 0.241769
O O11 0.407285 0.500000 0.430682
O O12 0.446400 0.782825 0.534695
O O13 0.351631 0.687398 0.516175
O O14 0.425907 0.500000 0.977861
O O15 0.407637 0.213856 0.871050
O O16 0.525522 0.500000 0.357381
O O17 0.562483 0.227495 0.289328
O O18 0.750000 0.250000 0.500000
O O19 0.665167 0.234470 0.321110
O O20 0.678772 0.000000 0.457747
O O21 0.394900 0.500000 0.765354
#
# Coordination Sequence:
#
# PCOD9193424 Si02
#       8
#     8   8   8   8   8   8   8   8
#     4  11  21  35  53  75 106 143 180 220 269 318
#     4   9  16  29  51  80 109 140 176 215 264 313
#     4   9  18  31  50  77 109 138 171 217 265 313
#     4   9  18  34  53  78 108 137 173 219 265 313
#     4  10  20  34  53  78 111 143 177 220 263 315
#     4   8  15  29  51  78 109 139 172 218 265 313
#     4  11  22  36  54  76 103 139 177 220 267 318
#     4   9  19  35  53  79 109 138 175 220 265 312
#
# _framework density 24.301765
#
# number of rings (size 3 to 8) (size 9 to 14) (size 15 to 20)
#    0.000    2.500    1.250    2.250    1.750    1.500 
#    0.000    5.625    0.000    3.000    0.000    7.875 
#    0.000    0.000    0.000    0.000    0.000    0.000 
#
# Total GULP energy -178710.305751 kJ/mol
# GULP energy per Si atom -5584.697055 kJ/mol
# Density = 2.424645 g / cm^3
# Si number density = 24.301765 Si / 1000 Ang^3
#
#
#
# Elastic Constant Matrix: (Units=GPa)
#
#
# Indices 1 2 3 4 5 6 
#
# 1 41.2793 -8.4807 -3.5645 0.0000 16.6842 0.0000
# 2 -8.4807 92.4667 -3.3164 0.0000 0.2568 0.0000
# 3 -3.5645 -3.3164 137.6620 0.0000 14.5217 0.0000
# 4 0.0000 0.0000 0.0000 1.1511 0.0000 4.4054
# 5 16.6842 0.2568 14.5217 0.0000 42.1688 0.0000
# 6 0.0000 0.0000 0.0000 4.4054 0.0000 2.8697
#
#
#
# Elastic Compliance Matrix: (Units=1/GPa)
#
#
# Indices 1 2 3 4 5 6 
#
# 1 0.030136 0.002878 0.002189 0.000000 -0.012695 0.000000
# 2 0.002878 0.011100 0.000487 0.000000 -0.001374 0.000000
# 3 0.002189 0.000487 0.007704 0.000000 -0.003522 0.000000
# 4 0.000000 0.000000 0.000000 -0.178200 0.000000 0.273558
# 5 -0.012695 -0.001374 -0.003522 0.000000 0.029958 0.000000
# 6 0.000000 0.000000 0.000000 0.273558 0.000000 -0.071478
#
#
# Mechanical properties :
#
#
# Convention : Reuss Voigt Hill
#
# Bulk Modulus (GPa) = 16.65356 26.74276 21.69816
# Shear Modulus (GPa) = -30.88894 28.35589 -1.26652
#
# Velocity S-wave (km/s) = -3.56906 3.41959 -0.72270
# Velocity P-wave (km/s) = 3.18065 5.15944 2.87256
#
# Compressibility (1/GPa) = 0.06004724
#
# Stress axis : x y z
#
# Youngs Moduli (GPa) = 33.18245 90.09081 129.80091
#
# Poissons Ratio (x) = -0.25926 -0.28411
# Poissons Ratio (y) = -0.09549 -0.06319
# Poissons Ratio (z) = -0.07263 -0.04386
#
# Static dielectric constant tensor:
#      x y z
#    x 1.902950 0.000000 -0.001680 
#    y 0.000000 1.995240 0.000000 
#    z -0.001680 0.000000 1.981870 
# 
# From -- ./inp_files/249051.got.cif
#   From: 2010.05.17/outbox.cif.g08.bks.cpg/sg12_125_cif.got.tgz:249051.got - 2010.06.03 13:09:07.
