data_PCOD9193610
_publ_section_title
;
Structure prediction by ZEFSAII (Michael W. Deem and Ramdas Pophale) SiO2 
 PCOD9193610
Probable space group: C 2/M
;
_chemical_formula_sum "Si O2"
_cell_formula_units_Z 56
_cell_length_a 18.517651
_cell_length_b 7.536103
_cell_length_c 19.224956
_cell_angle_alpha 90.000000
_cell_angle_beta 105.081669
_cell_angle_gamma 90.000000
_cell_volume 2590.451757
_symmetry_space_group_name_H-M "C 2/M"
_symmetry_group_IT_number 12
_symmetry_cell_setting 'monoclinic'
loop_
_space_group_symop_operation_xyz
x,y,z
-x,y,-z
-x,-y,-z
x,-y,z
1/2+x,1/2+y,z
1/2-x,1/2+y,-z
1/2-x,1/2-y,-z
1/2+x,1/2-y,z
loop_
_atom_site_type_symbol
_atom_site_label
_atom_site_fract_x
_atom_site_fract_y
_atom_site_fract_z
Si Si1 0.973044 0.212602 0.568092
Si Si2 0.879004 0.285970 0.857089
Si Si3 0.954835 0.282472 0.143222
Si Si4 0.834719 0.287344 0.999110
Si Si5 0.094688 0.713088 0.716625
Si Si6 0.689040 0.713026 0.425835
Si Si7 0.243742 0.788764 0.290439
O O1 0.892112 0.282081 0.571380
O O2 0.000000 0.282105 0.500000
O O3 0.034236 0.247515 0.642361
O O4 0.965689 0.000000 0.559173
O O5 0.881856 0.500000 0.861003
O O6 0.853884 0.220038 0.926740
O O7 0.818708 0.238695 0.783649
O O8 0.961922 0.224875 0.856937
O O9 0.955017 0.500000 0.143429
O O10 0.932028 0.222329 0.214614
O O11 0.893770 0.223418 0.071417
O O12 0.842855 0.500000 0.998884
O O13 0.750000 0.250000 0.000000
O O14 0.100411 0.500000 0.724115
O O15 0.176120 0.782408 0.714590
O O16 0.682091 0.500000 0.417469
O O17 0.750000 0.750000 0.500000
O O18 0.716280 0.782688 0.357905
O O19 0.253627 0.000000 0.301904
#
# Coordination Sequence:
#
# PCOD9193610 Si02
#       7
#     8   8   8   8   8   8   8
#     4  10  21  36  53  75 104 136 170 212 260 303
#     4  10  20  34  55  80 102 134 179 215 250 304
#     4   9  18  34  54  76 104 136 171 213 257 301
#     4  10  20  35  55  78 106 138 172 213 258 305
#     4  10  20  34  54  77 101 135 174 209 253 309
#     4  10  21  36  54  77 105 138 174 213 260 310
#     4  10  21  36  53  77 109 139 168 211 267 313
#
# _framework density 21.617851000000002
#
# number of rings (size 3 to 8) (size 9 to 14) (size 15 to 20)
#    0.000    2.143    0.000    3.000    0.000    5.429 
#    0.000    1.429    0.000    1.714    0.000    0.000 
#    0.000    0.000    0.000    0.000    0.000    0.000 
#
# Total GULP energy -156542.284160 kJ/mol
# GULP energy per Si atom -5590.795863 kJ/mol
# Density = 2.156865 g / cm^3
# Si number density = 21.617851 Si / 1000 Ang^3
#
#
#
# Elastic Constant Matrix: (Units=GPa)
#
#
# Indices 1 2 3 4 5 6 
#
# 1 270.4988 2.1418 158.2584 0.0000 -10.5217 0.0000
# 2 2.1418 51.6934 -9.0358 0.0000 -11.2710 0.0000
# 3 158.2584 -9.0358 245.4973 0.0000 -15.6184 0.0000
# 4 0.0000 0.0000 0.0000 12.0672 0.0000 7.8251
# 5 -10.5217 -11.2710 -15.6184 0.0000 49.4141 0.0000
# 6 0.0000 0.0000 0.0000 7.8251 0.0000 5.9432
#
#
#
# Elastic Compliance Matrix: (Units=1/GPa)
#
#
# Indices 1 2 3 4 5 6 
#
# 1 0.005981 -0.000969 -0.003903 0.000000 -0.000181 0.000000
# 2 -0.000969 0.020792 0.001713 0.000000 0.005077 0.000000
# 3 -0.003903 0.001713 0.006760 0.000000 0.001696 0.000000
# 4 0.000000 0.000000 0.000000 0.566841 0.000000 -0.746336
# 5 -0.000181 0.005077 0.001696 0.000000 0.021893 0.000000
# 6 0.000000 0.000000 0.000000 -0.746336 0.000000 1.150930
#
#
# Mechanical properties :
#
#
# Convention : Reuss Voigt Hill
#
# Bulk Modulus (GPa) = 36.74489 96.71314 66.72901
# Shear Modulus (GPa) = 2.79550 41.23990 22.01770
#
# Velocity S-wave (km/s) = 1.13840 4.37244 3.19485
# Velocity P-wave (km/s) = 4.33155 8.38604 6.67413
#
# Compressibility (1/GPa) = 0.02721467
#
# Stress axis : x y z
#
# Youngs Moduli (GPa) = 167.20077 48.09653 147.92424
#
# Poissons Ratio (x) = 0.04663 0.57731
# Poissons Ratio (y) = 0.16210 -0.25343
# Poissons Ratio (z) = 0.65254 -0.08240
#
# Static dielectric constant tensor:
#      x y z
#    x 1.754960 0.000000 -0.031450 
#    y 0.000000 1.832440 0.000000 
#    z -0.031450 0.000000 1.724370 
# 
# From -- ./inp_files/275487.got.cif
#   From: 2010.05.17/outbox.cif.g08.bks.cpg/sg12_138_cif.got.tgz:275487.got - 2010.06.03 13:09:07.
