data_PCOD9193874
_publ_section_title
;
Structure prediction by ZEFSAII (Michael W. Deem and Ramdas Pophale) SiO2 
 PCOD9193874
Probable space group: C 2/M
;
_chemical_formula_sum "Si O2"
_cell_formula_units_Z 56
_cell_length_a 34.106101
_cell_length_b 9.334450
_cell_length_c 10.764584
_cell_angle_alpha 90.000000
_cell_angle_beta 122.878182
_cell_angle_gamma 90.000000
_cell_volume 2878.112108
_symmetry_space_group_name_H-M "C 2/M"
_symmetry_group_IT_number 12
_symmetry_cell_setting 'monoclinic'
loop_
_space_group_symop_operation_xyz
x,y,z
-x,y,-z
-x,-y,-z
x,-y,z
1/2+x,1/2+y,z
1/2-x,1/2+y,-z
1/2-x,1/2-y,-z
1/2+x,1/2-y,z
loop_
_atom_site_type_symbol
_atom_site_label
_atom_site_fract_x
_atom_site_fract_y
_atom_site_fract_z
Si Si1 0.391931 0.831398 0.237137
Si Si2 0.024009 0.166024 0.728862
Si Si3 0.258537 0.330536 0.385131
Si Si4 0.574893 0.334688 0.084561
Si Si5 0.555702 0.833707 0.292141
Si Si6 0.656503 0.165388 0.111969
Si Si7 0.155800 0.667433 0.588587
O O1 0.438622 0.739857 0.297243
O O2 0.361674 0.789813 0.304369
O O3 0.404249 0.000000 0.272356
O O4 0.361090 0.816689 0.059251
O O5 0.976524 0.253698 0.663281
O O6 0.016294 0.000000 0.684881
O O7 0.047514 0.173168 0.907039
O O8 0.265086 0.500000 0.417189
O O9 0.250000 0.250000 0.500000
O O10 0.211252 0.311453 0.223795
O O11 0.302825 0.262809 0.392969
O O12 0.576823 0.500000 0.126994
O O13 0.551607 0.242374 0.152352
O O14 0.625902 0.270350 0.143893
O O15 0.609656 0.823411 0.424517
O O16 0.542207 0.000000 0.262352
O O17 0.646073 0.000000 0.130678
O O18 0.170374 0.500000 0.616815
#
# Coordination Sequence:
#
# PCOD9193874 Si02
#       7
#     8   8   8   8   8   8   8
#     4   9  19  39  61  79 106 144 183 222 267 319
#     4  10  21  36  55  81 111 141 179 227 273 320
#     4  11  23  38  58  85 114 143 178 220 269 324
#     4  10  20  34  54  82 112 141 178 225 274 322
#     4  11  22  35  53  78 109 146 185 223 268 323
#     4   9  19  36  58  82 108 142 182 222 266 321
#     4  10  23  40  57  80 110 144 183 225 267 318
#
# _framework density 19.457198999999999
#
# number of rings (size 3 to 8) (size 9 to 14) (size 15 to 20)
#    0.000    2.000    0.000    3.000    0.000   10.857 
#    0.000    2.857    0.000    0.000    0.000    0.000 
#    0.000    0.000    0.000    0.000    0.000    0.000 
#
# Total GULP energy -156501.134825 kJ/mol
# GULP energy per Si atom -5589.326244 kJ/mol
# Density = 1.941291 g / cm^3
# Si number density = 19.457199 Si / 1000 Ang^3
#
#
#
# Elastic Constant Matrix: (Units=GPa)
#
#
# Indices 1 2 3 4 5 6 
#
# 1 151.8364 89.9710 26.6753 0.0000 -5.0965 0.0000
# 2 89.9710 121.8748 32.9406 0.0000 0.8927 0.0000
# 3 26.6753 32.9406 30.5125 0.0000 -6.0502 0.0000
# 4 0.0000 0.0000 0.0000 18.8144 0.0000 3.4400
# 5 -5.0965 0.8927 -6.0502 0.0000 29.3005 0.0000
# 6 0.0000 0.0000 0.0000 3.4400 0.0000 39.9930
#
#
#
# Elastic Compliance Matrix: (Units=1/GPa)
#
#
# Indices 1 2 3 4 5 6 
#
# 1 0.011873 -0.008603 -0.000657 0.000000 0.002192 0.000000
# 2 -0.008603 0.018089 -0.012943 0.000000 -0.004720 0.000000
# 3 -0.000657 -0.012943 0.049399 0.000000 0.010480 0.000000
# 4 0.000000 0.000000 0.000000 0.054000 0.000000 -0.004645
# 5 0.002192 -0.004720 0.010480 0.000000 0.036818 0.000000
# 6 0.000000 0.000000 0.000000 -0.004645 0.000000 0.025404
#
#
# Mechanical properties :
#
#
# Convention : Reuss Voigt Hill
#
# Bulk Modulus (GPa) = 28.60922 67.04417 47.82670
# Shear Modulus (GPa) = 19.86943 27.93071 23.90007
#
# Velocity S-wave (km/s) = 3.19907 3.79290 3.50857
# Velocity P-wave (km/s) = 5.32738 7.32895 6.40681
#
# Compressibility (1/GPa) = 0.03495376
#
# Stress axis : x y z
#
# Youngs Moduli (GPa) = 84.22469 55.28156 20.24314
#
# Poissons Ratio (x) = 0.47560 0.01331
# Poissons Ratio (y) = 0.72461 0.26201
# Poissons Ratio (z) = 0.05537 0.71552
#
# Static dielectric constant tensor:
#      x y z
#    x 1.643890 0.000000 -0.002700 
#    y 0.000000 1.658770 0.000000 
#    z -0.002700 0.000000 1.701880 
# 
# From -- ./inp_files/187694.got.cif
#   From: 2010.05.17/outbox.cif.g08.bks.cpg/sg12_94_cif.got.tgz:187694.got - 2010.06.03 13:09:07.
