data_PCOD9193696
_publ_section_title
;
Structure prediction by ZEFSAII (Michael W. Deem and Ramdas Pophale) SiO2 
 PCOD9193696
Probable space group: C 2/M
;
_chemical_formula_sum "Si O2"
_cell_formula_units_Z 48
_cell_length_a 32.590892
_cell_length_b 8.652815
_cell_length_c 18.813462
_cell_angle_alpha 90.000000
_cell_angle_beta 150.065685
_cell_angle_gamma 90.000000
_cell_volume 2647.456832
_symmetry_space_group_name_H-M "C 2/M"
_symmetry_group_IT_number 12
_symmetry_cell_setting 'monoclinic'
loop_
_space_group_symop_operation_xyz
x,y,z
-x,y,-z
-x,-y,-z
x,-y,z
1/2+x,1/2+y,z
1/2-x,1/2+y,-z
1/2-x,1/2-y,-z
1/2+x,1/2-y,z
loop_
_atom_site_type_symbol
_atom_site_label
_atom_site_fract_x
_atom_site_fract_y
_atom_site_fract_z
Si Si1 0.676907 0.186000 0.438074
Si Si2 0.004837 0.316445 0.839127
Si Si3 0.328285 0.815970 0.076622
Si Si4 0.497408 0.315253 0.323806
Si Si5 0.673253 0.317375 0.084830
Si Si6 0.820134 0.815563 0.397432
O O1 0.750000 0.250000 0.500000
O O2 0.586244 0.225376 0.270405
O O3 0.683129 0.258189 0.526055
O O4 0.680912 0.000000 0.449580
O O5 0.015917 0.500000 0.862131
O O6 0.001232 0.268559 0.750679
O O7 0.086371 0.233154 0.989537
O O8 0.414224 0.745389 0.234616
O O9 0.321521 0.765243 0.983981
O O10 0.331010 0.000000 0.085477
O O11 0.250000 0.750000 0.000000
O O12 0.491156 0.500000 0.303742
O O13 0.586983 0.283243 0.491095
O O14 0.672659 0.500000 0.072544
O O15 0.750004 0.266542 0.247153
O O16 0.807839 0.000000 0.377137
#
# Coordination Sequence:
#
# PCOD9193696 Si02
#       6
#     8   8   8   8   8   8
#     4  10  20  34  54  79 106 137 173 214 258 307
#     4   9  17  31  51  74 101 135 173 209 251 305
#     4  11  21  35  55  78 106 137 172 213 256 304
#     4   9  17  31  52  76 101 133 172 209 251 305
#     4  11  21  34  54  79 106 136 173 214 256 305
#     4  10  20  35  55  78 106 138 172 213 258 306
#
# _framework density 18.130607000000001
#
# number of rings (size 3 to 8) (size 9 to 14) (size 15 to 20)
#    0.000    2.000    0.000    7.000    0.000    4.000 
#    0.000    1.667    0.000   10.000    0.000    0.000 
#    0.000    0.000    0.000    0.000    0.000    0.000 
#
# Total GULP energy -133845.260804 kJ/mol
# GULP energy per Si atom -5576.885867 kJ/mol
# Density = 1.808934 g / cm^3
# Si number density = 18.130607 Si / 1000 Ang^3
#
#
#
# Elastic Constant Matrix: (Units=GPa)
#
#
# Indices 1 2 3 4 5 6 
#
# 1 63.8481 10.9467 36.9577 0.0000 33.4601 0.0000
# 2 10.9467 52.7755 21.7870 0.0000 9.3481 0.0000
# 3 36.9577 21.7870 134.5241 0.0000 29.6948 0.0000
# 4 0.0000 0.0000 0.0000 31.6718 0.0000 3.5556
# 5 33.4601 9.3481 29.6948 0.0000 33.2502 0.0000
# 6 0.0000 0.0000 0.0000 3.5556 0.0000 26.6374
#
#
#
# Elastic Compliance Matrix: (Units=1/GPa)
#
#
# Indices 1 2 3 4 5 6 
#
# 1 0.033665 -0.000458 -0.002148 0.000000 -0.031830 0.000000
# 2 -0.000458 0.020635 -0.002538 0.000000 -0.003075 0.000000
# 3 -0.002148 -0.002538 0.009715 0.000000 -0.005801 0.000000
# 4 0.000000 0.000000 0.000000 0.032054 0.000000 -0.004279
# 5 -0.031830 -0.003075 -0.005801 0.000000 0.068151 0.000000
# 6 0.000000 0.000000 0.000000 -0.004279 0.000000 0.038112
#
#
# Mechanical properties :
#
#
# Convention : Reuss Voigt Hill
#
# Bulk Modulus (GPa) = 18.61225 43.39228 31.00227
# Shear Modulus (GPa) = 21.68910 30.40896 26.04903
#
# Velocity S-wave (km/s) = 3.46247 4.09983 3.79455
# Velocity P-wave (km/s) = 5.12570 6.81150 6.02783
#
# Compressibility (1/GPa) = 0.05372806
#
# Stress axis : x y z
#
# Youngs Moduli (GPa) = 29.70435 48.46064 102.92986
#
# Poissons Ratio (x) = 0.02219 0.22114
# Poissons Ratio (y) = 0.01360 0.26119
# Poissons Ratio (z) = 0.06382 0.12297
#
# Static dielectric constant tensor:
#      x y z
#    x 1.619180 0.000000 0.040080 
#    y 0.000000 1.602910 0.000000 
#    z 0.040080 0.000000 1.657520 
# 
# From -- ./inp_files/280527.got.cif
#   From: 2010.05.17/outbox.cif.g08.bks.cpg/sg12_141_cif.got.tgz:280527.got - 2010.06.03 13:09:07.
