data_PCOD9193679
_publ_section_title
;
Structure prediction by ZEFSAII (Michael W. Deem and Ramdas Pophale) SiO2 
 PCOD9193679
Probable space group: C 2/M
;
_chemical_formula_sum "Si O2"
_cell_formula_units_Z 64
_cell_length_a 25.980720
_cell_length_b 7.492788
_cell_length_c 19.907809
_cell_angle_alpha 90.000000
_cell_angle_beta 132.183382
_cell_angle_gamma 90.000000
_cell_volume 2871.679337
_symmetry_space_group_name_H-M "C 2/M"
_symmetry_group_IT_number 12
_symmetry_cell_setting 'monoclinic'
loop_
_space_group_symop_operation_xyz
x,y,z
-x,y,-z
-x,-y,-z
x,-y,z
1/2+x,1/2+y,z
1/2-x,1/2+y,-z
1/2-x,1/2-y,-z
1/2+x,1/2-y,z
loop_
_atom_site_type_symbol
_atom_site_label
_atom_site_fract_x
_atom_site_fract_y
_atom_site_fract_z
Si Si1 0.926925 0.289442 0.139609
Si Si2 0.807653 0.783102 0.345431
Si Si3 0.200081 0.791293 0.132890
Si Si4 0.820588 0.717530 0.149506
Si Si5 0.690902 0.713469 0.502432
Si Si6 0.046843 0.296797 0.983016
Si Si7 0.571713 0.705845 0.636959
Si Si8 0.034688 0.216835 0.352641
O O1 0.915008 0.500000 0.118138
O O2 0.855754 0.219817 0.111333
O O3 0.987018 0.269752 0.247888
O O4 0.949849 0.212806 0.088296
O O5 0.749236 0.728189 0.240877
O O6 0.792667 0.722570 0.407755
O O7 0.883145 0.718814 0.384773
O O8 0.809761 0.000000 0.345833
O O9 0.245074 0.724186 0.108475
O O10 0.126559 0.699353 0.076224
O O11 0.186152 0.000000 0.110531
O O12 0.821659 0.500000 0.152038
O O13 0.873063 0.783759 0.253372
O O14 0.685515 0.500000 0.502347
O O15 0.750000 0.750000 0.500000
O O16 0.613793 0.778200 0.415570
O O17 0.019943 0.500000 0.950753
O O18 0.000000 0.212303 0.000000
O O19 0.556842 0.500000 0.607293
O O20 0.502700 0.781377 0.611282
O O21 0.033466 0.000000 0.354037
#
# Coordination Sequence:
#
# PCOD9193679 Si02
#       8
#     8   8   8   8   8   8   8   8
#     4   9  18  34  55  76 101 135 169 204 252 307
#     4   9  18  34  55  77 103 136 170 205 251 306
#     4  10  20  34  54  79 105 132 164 208 259 305
#     4   8  15  29  49  75 104 129 158 200 251 307
#     4  10  22  37  52  74 104 138 177 215 249 294
#     4  10  22  38  53  72 100 135 177 216 248 295
#     4   8  14  27  50  77 101 127 161 203 253 305
#     4   9  18  33  53  78 105 130 163 212 261 301
#
# _framework density 22.286612000000002
#
# number of rings (size 3 to 8) (size 9 to 14) (size 15 to 20)
#    0.000    2.875    0.000    0.375    0.000    4.250 
#    0.000    6.250    0.000    0.000    0.000    9.625 
#    0.000    0.000    0.000    0.000    0.000    0.000 
#
# Total GULP energy -178515.333215 kJ/mol
# GULP energy per Si atom -5578.604163 kJ/mol
# Density = 2.223589 g / cm^3
# Si number density = 22.286612 Si / 1000 Ang^3
#
#
#
# Elastic Constant Matrix: (Units=GPa)
#
#
# Indices 1 2 3 4 5 6 
#
# 1 255.3718 5.1508 78.1519 0.0000 -12.9586 0.0000
# 2 5.1508 70.7900 -8.3412 0.0000 -2.5320 -0.0003
# 3 78.1519 -8.3412 98.2982 0.0000 -6.3506 0.0000
# 4 0.0000 0.0000 0.0000 9.9613 0.0000 0.7851
# 5 -12.9586 -2.5320 -6.3506 0.0000 38.8299 0.0000
# 6 0.0000 -0.0003 0.0000 0.7851 0.0000 1.1805
#
#
#
# Elastic Compliance Matrix: (Units=1/GPa)
#
#
# Indices 1 2 3 4 5 6 
#
# 1 0.005268 -0.000841 -0.004194 0.000000 0.001017 0.000000
# 2 -0.000841 0.014453 0.001959 0.000000 0.000982 0.000003
# 3 -0.004194 0.001959 0.013737 0.000000 0.000975 0.000000
# 4 0.000000 0.000000 0.000000 0.105941 0.000000 -0.070453
# 5 0.001017 0.000982 0.000975 0.000000 0.026316 0.000000
# 6 0.000000 0.000003 0.000000 -0.070453 0.000000 0.893921
#
#
# Mechanical properties :
#
#
# Convention : Reuss Voigt Hill
#
# Bulk Modulus (GPa) = 36.62303 63.82033 50.22168
# Shear Modulus (GPa) = 4.65164 33.29424 18.97294
#
# Velocity S-wave (km/s) = 1.44628 3.86931 2.92090
# Velocity P-wave (km/s) = 4.38832 6.97570 5.82743
#
# Compressibility (1/GPa) = 0.02730522
#
# Stress axis : x y z
#
# Youngs Moduli (GPa) = 189.82860 69.18785 72.79797
#
# Poissons Ratio (x) = 0.05819 0.30531
# Poissons Ratio (y) = 0.15966 -0.14258
# Poissons Ratio (z) = 0.79612 -0.13551
#
# Static dielectric constant tensor:
#      x y z
#    x 1.858560 0.000000 -0.014740 
#    y 0.000000 1.870450 0.000000 
#    z -0.014740 0.000000 1.799190 
# 
# From -- ./inp_files/324118.got.cif
#   From: 2010.05.17/outbox.cif.g08.bks.cpg/sg12_163_cif.got.tgz:324118.got - 2010.06.03 13:09:07.
