data_PCOD9193860
_publ_section_title
;
Structure prediction by ZEFSAII (Michael W. Deem and Ramdas Pophale) SiO2 
 PCOD9193860
Probable space group: C 2/M
;
_chemical_formula_sum "Si O2"
_cell_formula_units_Z 64
_cell_length_a 25.956213
_cell_length_b 11.515258
_cell_length_c 25.291990
_cell_angle_alpha 90.000000
_cell_angle_beta 27.899057
_cell_angle_gamma 90.000000
_cell_volume 3537.245646
_symmetry_space_group_name_H-M "C 2/M"
_symmetry_group_IT_number 12
_symmetry_cell_setting 'monoclinic'
loop_
_space_group_symop_operation_xyz
x,y,z
-x,y,-z
-x,-y,-z
x,-y,z
1/2+x,1/2+y,z
1/2-x,1/2+y,-z
1/2-x,1/2-y,-z
1/2+x,1/2-y,z
loop_
_atom_site_type_symbol
_atom_site_label
_atom_site_fract_x
_atom_site_fract_y
_atom_site_fract_z
Si Si1 0.075464 0.639191 0.980719
Si Si2 0.209893 0.712491 0.206731
Si Si3 0.307651 0.365190 0.602183
Si Si4 0.750282 0.375997 0.941907
Si Si5 0.563083 0.290939 0.181081
Si Si6 0.131744 0.630919 0.387509
Si Si7 0.484960 0.630296 0.661179
Si Si8 0.056000 0.364490 0.793185
O O1 0.083802 0.500000 0.970998
O O2 0.194971 0.694539 0.868211
O O3 0.000000 0.677184 0.000000
O O4 0.017625 0.668733 0.088922
O O5 0.252500 0.639503 0.118236
O O6 0.184867 0.639805 0.281379
O O7 0.099093 0.778738 0.288719
O O8 0.317319 0.500000 0.616247
O O9 0.331639 0.250490 0.616045
O O10 0.397419 0.359862 0.473881
O O11 0.183499 0.354641 0.693581
O O12 0.797512 0.500000 0.913942
O O13 0.836848 0.283473 0.884901
O O14 0.630862 0.365421 0.076840
O O15 0.510336 0.351521 0.279904
O O16 0.478532 0.212603 0.225191
O O17 0.156509 0.500000 0.387598
O O18 0.000000 0.637271 0.500000
O O19 0.442055 0.500000 0.690311
O O20 0.033313 0.500000 0.802425
#
# Coordination Sequence:
#
# PCOD9193860 Si02
#       8
#     8   8   8   8   8   8   8   8
#     4  10  20  34  56  85 115 150 193 243 292 344
#     4  11  20  36  59  84 114 154 188 243 288 357
#     4  10  22  41  63  87 118 156 202 249 290 348
#     4  10  20  34  54  81 112 148 189 232 286 351
#     4  10  20  35  55  82 114 151 187 241 294 350
#     4  11  23  40  61  88 123 158 195 244 297 354
#     4  10  21  36  57  88 116 148 196 251 297 342
#     4  10  20  37  59  83 116 154 197 243 291 348
#
# _framework density 18.093174000000001
#
# number of rings (size 3 to 8) (size 9 to 14) (size 15 to 20)
#    0.000    1.750    2.500    2.250    0.000    2.750 
#    0.000    1.875    0.000    1.500    0.000    0.000 
#    0.000    0.000    0.000    0.000    0.000    0.000 
#
# Total GULP energy -178317.534226 kJ/mol
# GULP energy per Si atom -5572.422945 kJ/mol
# Density = 1.805199 g / cm^3
# Si number density = 18.093174 Si / 1000 Ang^3
#
#
#
# Elastic Constant Matrix: (Units=GPa)
#
#
# Indices 1 2 3 4 5 6 
#
# 1 58.0914 30.7269 28.5393 0.0000 7.4424 0.0000
# 2 30.7269 87.8385 28.6125 0.0001 11.8202 0.0000
# 3 28.5393 28.6125 88.9550 0.0001 9.0480 0.0000
# 4 0.0000 0.0001 0.0001 11.0644 -0.0001 -0.0954
# 5 7.4424 11.8202 9.0480 -0.0001 29.2063 0.0000
# 6 0.0000 0.0000 0.0000 -0.0954 0.0000 37.1406
#
#
#
# Elastic Compliance Matrix: (Units=1/GPa)
#
#
# Indices 1 2 3 4 5 6 
#
# 1 0.023327 -0.006189 -0.005311 0.000000 -0.001794 0.000000
# 2 -0.006189 0.014829 -0.002410 0.000000 -0.003678 0.000000
# 3 -0.005311 -0.002410 0.013923 0.000000 -0.001984 0.000000
# 4 0.000000 0.000000 0.000000 0.090382 0.000000 0.000232
# 5 -0.001794 -0.003678 -0.001984 0.000000 0.036800 0.000000
# 6 0.000000 0.000000 0.000000 0.000232 0.000000 0.026925
#
#
# Mechanical properties :
#
#
# Convention : Reuss Voigt Hill
#
# Bulk Modulus (GPa) = 41.22127 45.62693 43.42410
# Shear Modulus (GPa) = 20.65334 25.28265 22.96800
#
# Velocity S-wave (km/s) = 3.38227 3.74218 3.56677
# Velocity P-wave (km/s) = 6.17133 6.62906 6.40428
#
# Compressibility (1/GPa) = 0.02425932
#
# Stress axis : x y z
#
# Youngs Moduli (GPa) = 42.86959 67.43346 71.82557
#
# Poissons Ratio (x) = 0.41731 0.38145
# Poissons Ratio (y) = 0.26530 0.17313
# Poissons Ratio (z) = 0.22767 0.16254
#
# Static dielectric constant tensor:
#      x y z
#    x 1.607650 0.000000 0.029420 
#    y 0.000000 1.652050 0.000000 
#    z 0.029420 0.000000 1.607830 
# 
# From -- ./inp_files/349351.got.cif
#   From: 2010.05.17/outbox.cif.g08.bks.cpg/sg12_175_cif.got.tgz:349351.got - 2010.06.03 13:09:07.
