data_PCOD9193035
_publ_section_title
;
Structure prediction by ZEFSAII (Michael W. Deem and Ramdas Pophale) SiO2 
 PCOD9193035
Probable space group: C 2/M
;
_chemical_formula_sum "Si O2"
_cell_formula_units_Z 40
_cell_length_a 14.618933
_cell_length_b 9.455305
_cell_length_c 31.961356
_cell_angle_alpha 90.000000
_cell_angle_beta 157.618257
_cell_angle_gamma 90.000000
_cell_volume 1682.231275
_symmetry_space_group_name_H-M "C 2/M"
_symmetry_group_IT_number 12
_symmetry_cell_setting 'monoclinic'
loop_
_space_group_symop_operation_xyz
x,y,z
-x,y,-z
-x,-y,-z
x,-y,z
1/2+x,1/2+y,z
1/2-x,1/2+y,-z
1/2-x,1/2-y,-z
1/2+x,1/2-y,z
loop_
_atom_site_type_symbol
_atom_site_label
_atom_site_fract_x
_atom_site_fract_y
_atom_site_fract_z
Si Si1 0.692611 0.659473 0.289264
Si Si2 0.239446 0.652566 0.535023
Si Si3 0.533413 0.335343 0.965322
Si Si4 0.294010 0.841735 0.630774
Si Si5 0.415166 0.165958 0.834758
O O1 0.583484 0.500000 0.241603
O O2 0.602285 0.784423 0.281537
O O3 0.715176 0.728889 0.253190
O O4 0.954092 0.639211 0.420852
O O5 0.338589 0.500000 0.566859
O O6 0.250000 0.750000 0.500000
O O7 0.361586 0.723957 0.625834
O O8 0.456067 0.500000 0.928535
O O9 0.812696 0.330166 0.069098
O O10 0.500000 0.294055 0.000000
O O11 0.411586 0.233063 0.879587
O O12 0.000000 0.852304 0.500000
O O13 0.381179 0.000000 0.659022
O O14 0.346701 0.000000 0.805973
#
# Coordination Sequence:
#
# PCOD9193035 Si02
#       5
#     8   8   8   8   8
#     4  10  20  35  54  77 107 143 181 222 271 327
#     4  10  20  34  52  75 105 143 183 225 273 323
#     4   9  19  38  61  83 111 147 182 223 280 340
#     4   9  17  31  52  74  99 135 176 219 264 315
#     4  10  20  35  58  86 113 145 184 231 278 330
#
# _framework density 23.777943
#
# number of rings (size 3 to 8) (size 9 to 14) (size 15 to 20)
#    0.000    2.400    0.000    2.400    0.000    6.000 
#    3.600    0.000    0.000    0.000    0.000    0.000 
#    0.000    0.000    0.000    0.000    0.000    0.000 
#
# Total GULP energy -111582.158427 kJ/mol
# GULP energy per Si atom -5579.107921 kJ/mol
# Density = 2.372382 g / cm^3
# Si number density = 23.777943 Si / 1000 Ang^3
#
#
#
# Elastic Constant Matrix: (Units=GPa)
#
#
# Indices 1 2 3 4 5 6 
#
# 1 93.3429 48.5011 27.0679 0.0003 -44.3978 0.0001
# 2 48.5011 205.3573 39.7258 0.0003 -46.0036 0.0005
# 3 27.0679 39.7258 99.8505 0.0006 -19.6507 0.0008
# 4 0.0003 0.0003 0.0006 17.9257 0.0006 -13.7835
# 5 -44.3978 -46.0036 -19.6507 0.0006 52.2207 -0.0001
# 6 0.0001 0.0005 0.0008 -13.7835 -0.0001 36.1980
#
#
#
# Elastic Compliance Matrix: (Units=1/GPa)
#
#
# Indices 1 2 3 4 5 6 
#
# 1 0.018471 -0.000797 -0.001877 -0.000001 0.014296 0.000000
# 2 -0.000797 0.006308 -0.001440 0.000000 0.004338 0.000000
# 3 -0.001877 -0.001440 0.011375 -0.000001 0.001416 -0.000001
# 4 -0.000001 0.000000 -0.000001 0.078882 -0.000002 0.030037
# 5 0.014296 0.004338 0.001416 -0.000002 0.035658 -0.000001
# 6 0.000000 0.000000 -0.000001 0.030037 -0.000001 0.039063
#
#
# Mechanical properties :
#
#
# Convention : Reuss Voigt Hill
#
# Bulk Modulus (GPa) = 35.80724 69.90447 52.85585
# Shear Modulus (GPa) = 24.12028 40.15259 32.13644
#
# Velocity S-wave (km/s) = 3.18842 4.11378 3.68029
# Velocity P-wave (km/s) = 5.35223 7.21297 6.35111
#
# Compressibility (1/GPa) = 0.02792732
#
# Stress axis : x y z
#
# Youngs Moduli (GPa) = 54.13824 158.52775 87.90911
#
# Poissons Ratio (x) = 0.12634 0.16498
# Poissons Ratio (y) = 0.04314 0.12659
# Poissons Ratio (z) = 0.10160 0.22828
#
# Static dielectric constant tensor:
#      x y z
#    x 2.061300 0.000000 0.168690 
#    y 0.000000 1.916430 0.000000 
#    z 0.168690 0.000000 1.991300 
# 
# From -- ./inp_files/249515.got.cif
#   From: 2010.05.17/outbox.cif.g08.bks.cpg/sg12_125_cif.got.tgz:249515.got - 2010.06.03 13:09:07.
