data_PCOD9193290
_publ_section_title
;
Structure prediction by ZEFSAII (Michael W. Deem and Ramdas Pophale) SiO2 
 PCOD9193290
Probable space group: C 2/M
;
_chemical_formula_sum "Si O2"
_cell_formula_units_Z 64
_cell_length_a 8.651852
_cell_length_b 11.292905
_cell_length_c 34.330477
_cell_angle_alpha 90.000000
_cell_angle_beta 93.939798
_cell_angle_gamma 90.000000
_cell_volume 3346.316789
_symmetry_space_group_name_H-M "C 2/M"
_symmetry_group_IT_number 12
_symmetry_cell_setting 'monoclinic'
loop_
_space_group_symop_operation_xyz
x,y,z
-x,y,-z
-x,-y,-z
x,-y,z
1/2+x,1/2+y,z
1/2-x,1/2+y,-z
1/2-x,1/2-y,-z
1/2+x,1/2-y,z
loop_
_atom_site_type_symbol
_atom_site_label
_atom_site_fract_x
_atom_site_fract_y
_atom_site_fract_z
Si Si1 0.989229 0.869273 0.267668
Si Si2 0.691223 0.796311 0.217801
Si Si3 0.929130 0.633939 0.078950
Si Si4 0.322167 0.868946 0.483445
Si Si5 0.603887 0.865497 0.833986
Si Si6 0.492151 0.635421 0.641544
Si Si7 0.867637 0.192839 0.971082
Si Si8 0.144734 0.367372 0.608621
O O1 0.103768 0.777119 0.249765
O O2 0.961761 0.845871 0.312701
O O3 0.829093 0.865812 0.241100
O O4 0.059600 0.000000 0.265973
O O5 0.557479 0.864114 0.192326
O O6 0.774514 0.710484 0.188250
O O7 0.991083 0.500000 0.080908
O O8 0.923801 0.681846 0.122885
O O9 0.753411 0.629927 0.059582
O O10 0.037694 0.712117 0.053053
O O11 0.500000 0.870287 0.500000
O O12 0.250000 0.750000 0.500000
O O13 0.317618 0.861642 0.436630
O O14 0.255327 0.000000 0.493464
O O15 0.660298 0.000000 0.838899
O O16 0.542762 0.500000 0.630718
O O17 0.306554 0.635448 0.634442
O O18 0.552317 0.748957 0.618623
O O19 0.750000 0.250000 0.000000
O O20 0.000000 0.131688 0.000000
O O21 0.072995 0.500000 0.614286
#
# Coordination Sequence:
#
# PCOD9193290 Si02
#       8
#     8   8   8   8   8   8   8   8
#     4  10  20  35  53  76 105 136 173 215 259 308
#     4  10  20  34  54  76 104 136 168 211 258 301
#     4  10  20  35  54  75 103 135 166 207 254 298
#     4  10  21  36  55  80 109 141 180 224 270 323
#     4  10  20  34  53  77 102 133 171 206 250 306
#     4  10  21  36  55  79 107 141 181 222 268 323
#     4   9  19  34  52  75 101 130 168 207 247 300
#     4  10  21  37  55  79 110 142 179 224 272 322
#
# _framework density 19.125506999999999
#
# number of rings (size 3 to 8) (size 9 to 14) (size 15 to 20)
#    0.000    2.125    0.000    3.000    0.000    3.750 
#    0.000    5.000    0.000   10.500    0.000    0.000 
#    0.000    0.000    0.000    0.000    0.000    0.000 
#
# Total GULP energy -178282.805852 kJ/mol
# GULP energy per Si atom -5571.337683 kJ/mol
# Density = 1.908198 g / cm^3
# Si number density = 19.125507 Si / 1000 Ang^3
#
#
#
# Elastic Constant Matrix: (Units=GPa)
#
#
# Indices 1 2 3 4 5 6 
#
# 1 50.8002 22.8514 -1.3714 0.0000 -1.3753 0.0000
# 2 22.8514 122.1298 21.1518 0.0000 -25.6778 0.0000
# 3 -1.3714 21.1518 61.1046 0.0000 3.3383 0.0000
# 4 0.0000 0.0000 0.0000 38.4716 0.0000 -7.4440
# 5 -1.3753 -25.6778 3.3383 0.0000 24.7685 0.0000
# 6 0.0000 0.0000 0.0000 -7.4440 0.0000 13.2163
#
#
#
# Elastic Compliance Matrix: (Units=1/GPa)
#
#
# Indices 1 2 3 4 5 6 
#
# 1 0.022178 -0.005681 0.002739 0.000000 -0.005027 0.000000
# 2 -0.005681 0.013148 -0.005446 0.000000 0.014049 0.000000
# 3 0.002739 -0.005446 0.018750 0.000000 -0.008021 0.000000
# 4 0.000000 0.000000 0.000000 0.029173 0.000000 0.016431
# 5 -0.005027 0.014049 -0.008021 0.000000 0.055741 0.000000
# 6 0.000000 0.000000 0.000000 0.016431 0.000000 0.084919
#
#
# Mechanical properties :
#
#
# Convention : Reuss Voigt Hill
#
# Bulk Modulus (GPa) = 26.80979 35.47758 31.14369
# Shear Modulus (GPa) = 19.75350 28.05146 23.90248
#
# Velocity S-wave (km/s) = 3.21726 3.83391 3.53904
# Velocity P-wave (km/s) = 5.27724 6.17970 5.74621
#
# Compressibility (1/GPa) = 0.03729980
#
# Stress axis : x y z
#
# Youngs Moduli (GPa) = 45.08908 76.05629 53.33225
#
# Poissons Ratio (x) = 0.43208 -0.14607
# Poissons Ratio (y) = 0.25616 0.29047
# Poissons Ratio (z) = -0.12350 0.41423
#
# Static dielectric constant tensor:
#      x y z
#    x 1.644440 0.000000 0.023780 
#    y 0.000000 1.679940 0.000000 
#    z 0.023780 0.000000 1.669070 
# 
# From -- ./inp_files/372175.got.cif
#   From: 2010.05.17/outbox.cif.g08.bks.cpg/sg12_187_cif.got.tgz:372175.got - 2010.06.03 13:09:07.
