data_PCOD9193131
_publ_section_title
;
Structure prediction by ZEFSAII (Michael W. Deem and Ramdas Pophale) SiO2 
 PCOD9193131
Probable space group: C 2/M
;
_chemical_formula_sum "Si O2"
_cell_formula_units_Z 60
_cell_length_a 30.092530
_cell_length_b 14.803701
_cell_length_c 20.946307
_cell_angle_alpha 90.000000
_cell_angle_beta 18.347462
_cell_angle_gamma 90.000000
_cell_volume 2937.257201
_symmetry_space_group_name_H-M "C 2/M"
_symmetry_group_IT_number 12
_symmetry_cell_setting 'monoclinic'
loop_
_space_group_symop_operation_xyz
x,y,z
-x,y,-z
-x,-y,-z
x,-y,z
1/2+x,1/2+y,z
1/2-x,1/2+y,-z
1/2-x,1/2-y,-z
1/2+x,1/2-y,z
loop_
_atom_site_type_symbol
_atom_site_label
_atom_site_fract_x
_atom_site_fract_y
_atom_site_fract_z
Si Si1 0.500000 0.309161 0.500000
Si Si2 0.767746 0.606739 0.404925
Si Si3 0.101492 0.395952 0.635932
Si Si4 0.159562 0.105947 0.794721
Si Si5 0.976005 0.211855 0.785656
Si Si6 0.283581 0.728580 0.165186
Si Si7 0.477876 0.398833 0.660038
Si Si8 0.822725 0.398373 0.190502
O O1 0.627636 0.251566 0.353952
O O2 0.440404 0.368436 0.639798
O O3 0.727077 0.500000 0.458327
O O4 0.853482 0.620973 0.352518
O O5 0.628868 0.668304 0.592960
O O6 0.853874 0.623793 0.222179
O O7 0.053322 0.500000 0.695370
O O8 0.242461 0.385000 0.400815
O O9 0.994384 0.319783 0.758381
O O10 0.222151 0.161778 0.767497
O O11 0.153122 0.000000 0.819995
O O12 0.000000 0.137411 0.000000
O O13 0.931776 0.169386 0.778393
O O14 0.873062 0.190806 0.984466
O O15 0.353696 0.820652 0.097658
O O16 0.427956 0.500000 0.741740
O O17 0.649902 0.400770 0.426487
O O18 0.873291 0.500000 0.105731
#
# Coordination Sequence:
#
# PCOD9193131 Si02
#       8
#     4   8   8   8   8   8   8   8
#     4  10  21  40  61  82 114 148 185 234 285 344
#     4   9  17  32  55  79 106 145 192 240 287 333
#     4  10  20  34  52  78 115 154 190 234 287 339
#     4  10  21  38  60  84 113 154 202 240 271 323
#     4  11  21  33  54  82 113 146 184 234 287 340
#     4  11  23  36  57  84 116 153 191 233 284 341
#     4   9  18  35  60  84 103 131 178 233 284 330
#     4   8  16  32  53  77 106 142 184 231 282 336
#
# _framework density 20.427220999999999
#
# number of rings (size 3 to 8) (size 9 to 14) (size 15 to 20)
#    0.000    2.267    0.000    5.000    0.000    4.800 
#    0.000    0.333    0.000    5.200    0.000    0.000 
#    0.000    0.000    0.000    0.000    0.000    0.000 
#
# Total GULP energy -167662.471400 kJ/mol
# GULP energy per Si atom -5588.749047 kJ/mol
# Density = 2.038073 g / cm^3
# Si number density = 20.427221 Si / 1000 Ang^3
#
#
#
# Elastic Constant Matrix: (Units=GPa)
#
#
# Indices 1 2 3 4 5 6 
#
# 1 148.9467 69.0514 28.4655 0.0004 14.7758 -0.0008
# 2 69.0514 76.9751 25.8752 0.0008 0.5062 -0.0020
# 3 28.4655 25.8752 49.6270 0.0004 11.0817 -0.0013
# 4 0.0004 0.0008 0.0004 17.8702 -0.0003 -4.6818
# 5 14.7758 0.5062 11.0817 -0.0003 22.9673 0.0006
# 6 -0.0008 -0.0020 -0.0013 -4.6818 0.0006 -26.6350
#
#
#
# Elastic Compliance Matrix: (Units=1/GPa)
#
#
# Indices 1 2 3 4 5 6 
#
# 1 0.012820 -0.011633 0.000556 0.000000 -0.008260 0.000000
# 2 -0.011633 0.026652 -0.009822 -0.000001 0.011635 -0.000001
# 3 0.000556 -0.009822 0.028001 -0.000001 -0.013652 -0.000001
# 4 0.000000 -0.000001 -0.000001 0.053495 0.000001 -0.009403
# 5 -0.008260 0.011635 -0.013652 0.000001 0.055184 0.000001
# 6 0.000000 -0.000001 -0.000001 -0.009403 0.000001 -0.035892
#
#
# Mechanical properties :
#
#
# Convention : Reuss Voigt Hill
#
# Bulk Modulus (GPa) = 38.94742 58.03700 48.49221
# Shear Modulus (GPa) = 26.23088 12.98429 19.60759
#
# Velocity S-wave (km/s) = 3.58734 2.52392 3.10155
# Velocity P-wave (km/s) = 6.02217 6.08004 6.05117
#
# Compressibility (1/GPa) = 0.02567564
#
# Stress axis : x y z
#
# Youngs Moduli (GPa) = 78.00429 37.52118 35.71353
#
# Poissons Ratio (x) = 0.43648 -0.01987
# Poissons Ratio (y) = 0.90741 0.35077
# Poissons Ratio (z) = -0.04340 0.36852
#
# Static dielectric constant tensor:
#      x y z
#    x 1.726500 0.000000 0.000320 
#    y 0.000000 1.740490 0.000000 
#    z 0.000320 0.000000 1.722830 
# 
# From -- ./inp_files/330260.got.cif
#   From: 2010.05.17/outbox.cif.g08.bks.cpg/sg12_166_cif.got.tgz:330260.got - 2010.06.03 13:09:07.
