data_PCOD9193970
_publ_section_title
;
Structure prediction by ZEFSAII (Michael W. Deem and Ramdas Pophale) SiO2 
 PCOD9193970
Probable space group: C 2/M
;
_chemical_formula_sum "Si O2"
_cell_formula_units_Z 56
_cell_length_a 14.963001
_cell_length_b 7.908415
_cell_length_c 19.410223
_cell_angle_alpha 90.000000
_cell_angle_beta 101.717413
_cell_angle_gamma 90.000000
_cell_volume 2249.017570
_symmetry_space_group_name_H-M "C 2/M"
_symmetry_group_IT_number 12
_symmetry_cell_setting 'monoclinic'
loop_
_space_group_symop_operation_xyz
x,y,z
-x,y,-z
-x,-y,-z
x,-y,z
1/2+x,1/2+y,z
1/2-x,1/2+y,-z
1/2-x,1/2-y,-z
1/2+x,1/2-y,z
loop_
_atom_site_type_symbol
_atom_site_label
_atom_site_fract_x
_atom_site_fract_y
_atom_site_fract_z
Si Si1 0.882411 0.293100 0.544734
Si Si2 0.448214 0.207680 0.775471
Si Si3 0.279679 0.306138 0.390596
Si Si4 0.451197 0.201514 0.345277
Si Si5 0.603940 0.304018 0.029716
Si Si6 0.616830 0.196266 0.887584
Si Si7 0.278324 0.193821 0.825890
O O1 0.877089 0.500000 0.536466
O O2 0.817706 0.238584 0.598838
O O3 0.839792 0.215105 0.469755
O O4 0.984876 0.245719 0.580607
O O5 0.498316 0.268045 0.714496
O O6 0.518270 0.258153 0.846679
O O7 0.345288 0.261937 0.776547
O O8 0.445817 0.000000 0.774184
O O9 0.262742 0.500000 0.371556
O O10 0.345650 0.239476 0.341537
O O11 0.458775 0.000000 0.343169
O O12 0.603335 0.500000 0.051430
O O13 0.647907 0.292045 0.960651
O O14 0.500000 0.245974 0.000000
O O15 0.657356 0.202180 0.095913
O O16 0.687258 0.212887 0.835466
O O17 0.610470 0.000000 0.904980
O O18 0.254514 0.000000 0.807133
#
# Coordination Sequence:
#
# PCOD9193970 Si02
#       7
#     8   8   8   8   8   8   8
#     4   9  19  35  56  80 110 147 183 222 271 331
#     4   9  21  39  58  79 109 149 188 227 273 331
#     4  10  20  34  54  84 115 142 178 230 281 322
#     4  10  20  37  58  79 107 148 191 223 268 331
#     4  11  22  37  60  88 115 144 183 233 284 332
#     4  11  22  39  60  84 113 147 186 230 283 336
#     4  11  22  39  61  85 112 148 189 230 280 334
#
# _framework density 24.899761999999999
#
# number of rings (size 3 to 8) (size 9 to 14) (size 15 to 20)
#    0.000    1.857    1.429    2.571    0.000    4.571 
#    0.000    4.286    0.000    0.000    0.000    0.000 
#    0.000    0.000    0.000    0.000    0.000    0.000 
#
# Total GULP energy -156568.984351 kJ/mol
# GULP energy per Si atom -5591.749441 kJ/mol
# Density = 2.484309 g / cm^3
# Si number density = 24.899762 Si / 1000 Ang^3
#
#
#
# Elastic Constant Matrix: (Units=GPa)
#
#
# Indices 1 2 3 4 5 6 
#
# 1 134.3227 -4.1763 9.4507 0.0000 -23.7082 0.0000
# 2 -4.1763 34.4606 -3.4403 0.0000 -0.2762 0.0000
# 3 9.4507 -3.4403 71.7566 0.0000 -23.5677 0.0000
# 4 0.0000 0.0000 0.0000 13.8000 0.0000 -13.6229
# 5 -23.7082 -0.2762 -23.5677 0.0000 47.2831 0.0000
# 6 0.0000 0.0000 0.0000 -13.6229 0.0000 20.3474
#
#
#
# Elastic Compliance Matrix: (Units=1/GPa)
#
#
# Indices 1 2 3 4 5 6 
#
# 1 0.008213 0.001069 0.000388 0.000000 0.004317 0.000000
# 2 0.001069 0.029340 0.001791 0.000000 0.001600 0.000000
# 3 0.000388 0.001791 0.016786 0.000000 0.008572 0.000000
# 4 0.000000 0.000000 0.000000 0.213710 0.000000 0.143082
# 5 0.004317 0.001600 0.008572 0.000000 0.027596 0.000000
# 6 0.000000 0.000000 0.000000 0.143082 0.000000 0.144942
#
#
# Mechanical properties :
#
#
# Convention : Reuss Voigt Hill
#
# Bulk Modulus (GPa) = 16.43821 27.13424 21.78623
# Shear Modulus (GPa) = 11.00428 32.19982 21.60205
#
# Velocity S-wave (km/s) = 2.10453 3.59998 2.94863
# Velocity P-wave (km/s) = 3.53857 5.31045 4.51233
#
# Compressibility (1/GPa) = 0.06083386
#
# Stress axis : x y z
#
# Youngs Moduli (GPa) = 121.76215 34.08340 59.57309
#
# Poissons Ratio (x) = -0.03642 -0.02309
# Poissons Ratio (y) = -0.13011 -0.10672
# Poissons Ratio (z) = -0.04719 -0.06106
#
# Static dielectric constant tensor:
#      x y z
#    x 1.990310 0.000000 -0.052280 
#    y 0.000000 1.883470 0.000000 
#    z -0.052280 0.000000 2.031010 
# 
# From -- ./inp_files/308912.got.cif
#   From: 2010.05.17/outbox.cif.g08.bks.cpg/sg12_155_cif.got.tgz:308912.got - 2010.06.03 13:09:07.
