data_PCOD9193158
_publ_section_title
;
Structure prediction by ZEFSAII (Michael W. Deem and Ramdas Pophale) SiO2 
 PCOD9193158
Probable space group: C 2/M
;
_chemical_formula_sum "Si O2"
_cell_formula_units_Z 58
_cell_length_a 9.058014
_cell_length_b 11.482508
_cell_length_c 28.189692
_cell_angle_alpha 90.000000
_cell_angle_beta 91.224348
_cell_angle_gamma 90.000000
_cell_volume 2931.304344
_symmetry_space_group_name_H-M "C 2/M"
_symmetry_group_IT_number 12
_symmetry_cell_setting 'monoclinic'
loop_
_space_group_symop_operation_xyz
x,y,z
-x,y,-z
-x,-y,-z
x,-y,z
1/2+x,1/2+y,z
1/2-x,1/2+y,-z
1/2-x,1/2-y,-z
1/2+x,1/2-y,z
loop_
_atom_site_type_symbol
_atom_site_label
_atom_site_fract_x
_atom_site_fract_y
_atom_site_fract_z
Si Si1 0.246078 0.787202 0.386058
Si Si2 0.569210 0.632637 0.948299
Si Si3 0.535412 0.370374 0.671432
Si Si4 0.798968 0.630215 0.814885
Si Si5 0.475674 0.134989 0.553203
Si Si6 0.964414 0.865159 0.782185
Si Si7 0.120035 0.678464 0.078691
Si Si8 0.500000 0.000000 0.000000
O O1 0.343553 0.717516 0.348197
O O2 0.369590 0.853747 0.417512
O O3 0.152350 0.703440 0.420121
O O4 0.118432 0.857582 0.358087
O O5 0.596828 0.500000 0.935021
O O6 0.724643 0.695174 0.946354
O O7 0.456307 0.698054 0.914332
O O8 0.500000 0.633817 0.000000
O O9 0.594912 0.500000 0.664749
O O10 0.501495 0.354634 0.726549
O O11 0.836866 0.500000 0.794226
O O12 0.868320 0.750314 0.794509
O O13 0.622133 0.641004 0.809784
O O14 0.849075 0.626871 0.869873
O O15 0.500000 0.180838 0.500000
O O16 0.433418 0.000000 0.549738
O O17 0.905706 0.000000 0.789492
O O18 0.026150 0.600561 0.041650
#
# Coordination Sequence:
#
# PCOD9193158 Si02
#       8
#     8   8   8   8   8   8   8   2
#     4  10  20  34  56  84 114 152 201 247 298 350
#     4  11  24  41  61  89 116 150 190 232 277 331
#     4  10  20  37  59  85 114 149 192 250 304 358
#     4  11  23  42  63  89 120 158 194 239 293 360
#     4  10  20  34  52  79 118 161 202 245 292 347
#     4  10  23  42  65  90 122 155 197 248 308 366
#     4  12  24  42  64  88 123 155 192 238 285 339
#     4  12  24  40  68  88 124 156 194 238 288 332
#
# _framework density 19.786413
#
# number of rings (size 3 to 8) (size 9 to 14) (size 15 to 20)
#    0.000    1.379    2.069    3.310    0.000    2.207 
#    0.000    3.448    0.000    6.621    0.000    0.000 
#    0.000    0.000    0.000    0.000    0.000    0.000 
#
# Total GULP energy -161496.481513 kJ/mol
# GULP energy per Si atom -5568.844190 kJ/mol
# Density = 1.974138 g / cm^3
# Si number density = 19.786413 Si / 1000 Ang^3
#
#
#
# Elastic Constant Matrix: (Units=GPa)
#
#
# Indices 1 2 3 4 5 6 
#
# 1 57.3177 33.1170 4.2303 0.0000 -7.7612 0.0000
# 2 33.1170 75.3624 21.3324 0.0000 -15.8162 0.0000
# 3 4.2303 21.3324 71.5382 0.0000 -2.2237 0.0000
# 4 0.0000 0.0000 0.0000 28.8318 0.0000 -9.9894
# 5 -7.7612 -15.8162 -2.2237 0.0000 23.8982 0.0000
# 6 0.0000 0.0000 0.0000 -9.9894 0.0000 13.7068
#
#
#
# Elastic Compliance Matrix: (Units=1/GPa)
#
#
# Indices 1 2 3 4 5 6 
#
# 1 0.023618 -0.010743 0.001830 0.000000 0.000730 0.000000
# 2 -0.010743 0.021732 -0.005522 0.000000 0.010379 0.000000
# 3 0.001830 -0.005522 0.015467 0.000000 -0.001621 0.000000
# 4 0.000000 0.000000 0.000000 0.046400 0.000000 0.033816
# 5 0.000730 0.010379 -0.001621 0.000000 0.048800 0.000000
# 6 0.000000 0.000000 0.000000 0.033816 0.000000 0.097601
#
#
# Mechanical properties :
#
#
# Convention : Reuss Voigt Hill
#
# Bulk Modulus (GPa) = 31.30442 35.73087 33.51764
# Shear Modulus (GPa) = 17.05689 22.98994 20.02342
#
# Velocity S-wave (km/s) = 2.93926 3.41237 3.18461
# Velocity P-wave (km/s) = 5.23206 5.79855 5.52258
#
# Compressibility (1/GPa) = 0.03194437
#
# Stress axis : x y z
#
# Youngs Moduli (GPa) = 42.34132 46.01592 64.65502
#
# Poissons Ratio (x) = 0.49435 -0.11830
# Poissons Ratio (y) = 0.45488 0.35705
# Poissons Ratio (z) = -0.07747 0.25412
#
# Static dielectric constant tensor:
#      x y z
#    x 1.672490 0.000000 0.015760 
#    y 0.000000 1.710230 0.000000 
#    z 0.015760 0.000000 1.704740 
# 
# From -- ./inp_files/355844.got.cif
#   From: 2010.05.17/outbox.cif.g08.bks.cpg/sg12_178_cif.got.tgz:355844.got - 2010.06.03 13:09:07.
