data_PCOD9193900
_publ_section_title
;
Structure prediction by ZEFSAII (Michael W. Deem and Ramdas Pophale) SiO2 
 PCOD9193900
Probable space group: C 2/M
;
_chemical_formula_sum "Si O2"
_cell_formula_units_Z 64
_cell_length_a 14.860672
_cell_length_b 9.198452
_cell_length_c 26.228688
_cell_angle_alpha 90.000000
_cell_angle_beta 89.876231
_cell_angle_gamma 90.000000
_cell_volume 3585.326812
_symmetry_space_group_name_H-M "C 2/M"
_symmetry_group_IT_number 12
_symmetry_cell_setting 'monoclinic'
loop_
_space_group_symop_operation_xyz
x,y,z
-x,y,-z
-x,-y,-z
x,-y,z
1/2+x,1/2+y,z
1/2-x,1/2+y,-z
1/2-x,1/2-y,-z
1/2+x,1/2-y,z
loop_
_atom_site_type_symbol
_atom_site_label
_atom_site_fract_x
_atom_site_fract_y
_atom_site_fract_z
Si Si1 0.751180 0.169764 0.181216
Si Si2 0.590708 0.671646 0.894581
Si Si3 0.345286 0.828409 0.004974
Si Si4 0.401918 0.674539 0.627733
Si Si5 0.247800 0.172914 0.287928
Si Si6 0.920373 0.334193 0.891681
Si Si7 0.762291 0.673531 0.554110
Si Si8 0.112165 0.173462 0.639475
O O1 0.836212 0.216473 0.147311
O O2 0.739082 0.262172 0.231804
O O3 0.666879 0.177992 0.143287
O O4 0.763398 0.000000 0.195420
O O5 0.600550 0.500000 0.903369
O O6 0.605693 0.755511 0.947470
O O7 0.493112 0.716751 0.875672
O O8 0.334185 0.000000 0.013983
O O9 0.250000 0.750000 0.000000
O O10 0.394560 0.811646 0.950802
O O11 0.398598 0.500000 0.618252
O O12 0.341848 0.704009 0.678319
O O13 0.347914 0.758029 0.583451
O O14 0.507176 0.715504 0.633264
O O15 0.333503 0.244266 0.316228
O O16 0.259102 0.000000 0.286452
O O17 0.955513 0.500000 0.886891
O O18 0.773210 0.500000 0.548818
O O19 0.750000 0.750000 0.500000
O O20 0.673251 0.699303 0.589061
O O21 0.113959 0.000000 0.649671
#
# Coordination Sequence:
#
# PCOD9193900 Si02
#       8
#     8   8   8   8   8   8   8   8
#     4  10  22  41  58  76 112 149 179 221 277 335
#     4  11  23  39  58  84 111 143 185 225 271 330
#     4  11  21  37  60  83 112 146 181 222 273 330
#     4   9  19  37  58  80 109 144 186 232 273 323
#     4  10  21  36  57  84 109 136 181 235 279 321
#     4  10  22  40  58  81 112 146 180 222 278 332
#     4  10  20  34  54  82 116 152 188 226 272 323
#     4   9  19  37  59  80 108 150 189 222 275 334
#
# _framework density 17.850534
#
# number of rings (size 3 to 8) (size 9 to 14) (size 15 to 20)
#    0.000    2.000    1.250    1.875    0.000    7.000 
#    0.000    6.250    0.000    0.000    0.000    0.000 
#    0.000    0.000    0.000    0.000    0.000    0.000 
#
# Total GULP energy -178619.029473 kJ/mol
# GULP energy per Si atom -5581.844671 kJ/mol
# Density = 1.780991 g / cm^3
# Si number density = 17.850534 Si / 1000 Ang^3
#
#
#
# Elastic Constant Matrix: (Units=GPa)
#
#
# Indices 1 2 3 4 5 6 
#
# 1 134.8351 58.3317 66.6156 0.0000 21.3884 0.0000
# 2 58.3317 64.5473 77.2706 0.0000 10.9460 0.0000
# 3 66.6156 77.2706 157.7648 0.0000 32.5775 0.0000
# 4 0.0000 0.0000 0.0000 36.2296 0.0000 4.9050
# 5 21.3884 10.9460 32.5775 0.0000 33.0133 0.0000
# 6 0.0000 0.0000 0.0000 4.9050 0.0000 32.8663
#
#
#
# Elastic Compliance Matrix: (Units=1/GPa)
#
#
# Indices 1 2 3 4 5 6 
#
# 1 0.013185 -0.013909 0.002583 0.000000 -0.006480 0.000000
# 2 -0.013909 0.053512 -0.023276 0.000000 0.014238 0.000000
# 3 0.002583 -0.023276 0.019341 0.000000 -0.013042 0.000000
# 4 0.000000 0.000000 0.000000 0.028171 0.000000 -0.004204
# 5 -0.006480 0.014238 -0.013042 0.000000 0.042638 0.000000
# 6 0.000000 0.000000 0.000000 -0.004204 0.000000 0.031054
#
#
# Mechanical properties :
#
#
# Convention : Reuss Voigt Hill
#
# Bulk Modulus (GPa) = 59.40316 84.62032 72.01174
# Shear Modulus (GPa) = 19.03179 30.75045 24.89112
#
# Velocity S-wave (km/s) = 3.26878 4.15500 3.73824
# Velocity P-wave (km/s) = 6.89905 8.39801 7.68516
#
# Compressibility (1/GPa) = 0.01683412
#
# Stress axis : x y z
#
# Youngs Moduli (GPa) = 75.84112 18.68728 51.70241
#
# Poissons Ratio (x) = 0.25992 -0.13354
# Poissons Ratio (y) = 1.05487 1.20345
# Poissons Ratio (z) = -0.19589 0.43497
#
# Static dielectric constant tensor:
#      x y z
#    x 1.623090 0.000000 0.001650 
#    y 0.000000 1.598950 0.000000 
#    z 0.001650 0.000000 1.588150 
# 
# From -- ./inp_files/338860.got.cif
#   From: 2010.05.17/outbox.cif.g08.bks.cpg/sg12_170_cif.got.tgz:338860.got - 2010.06.03 13:09:07.
