data_PCOD9193844
_publ_section_title
;
Structure prediction by ZEFSAII (Michael W. Deem and Ramdas Pophale) SiO2 
 PCOD9193844
Probable space group: C 2/M
;
_chemical_formula_sum "Si O2"
_cell_formula_units_Z 64
_cell_length_a 15.648823
_cell_length_b 7.592626
_cell_length_c 26.761717
_cell_angle_alpha 90.000000
_cell_angle_beta 67.672522
_cell_angle_gamma 90.000000
_cell_volume 2941.320609
_symmetry_space_group_name_H-M "C 2/M"
_symmetry_group_IT_number 12
_symmetry_cell_setting 'monoclinic'
loop_
_space_group_symop_operation_xyz
x,y,z
-x,y,-z
-x,-y,-z
x,-y,z
1/2+x,1/2+y,z
1/2-x,1/2+y,-z
1/2-x,1/2-y,-z
1/2+x,1/2-y,z
loop_
_atom_site_type_symbol
_atom_site_label
_atom_site_fract_x
_atom_site_fract_y
_atom_site_fract_z
Si Si1 0.079336 0.216351 0.742843
Si Si2 0.209808 0.708089 0.432256
Si Si3 0.016235 0.791348 0.336993
Si Si4 0.762564 0.788236 0.938557
Si Si5 0.036942 0.790797 0.137297
Si Si6 0.931422 0.287155 0.059328
Si Si7 0.107881 0.787413 0.548700
Si Si8 0.215138 0.287799 0.318186
O O1 0.040298 0.276254 0.697947
O O2 0.014642 0.278369 0.802214
O O3 0.185875 0.271270 0.724154
O O4 0.078413 0.000000 0.743163
O O5 0.225093 0.500000 0.423794
O O6 0.123123 0.733647 0.488132
O O7 0.300752 0.775750 0.441156
O O8 0.202667 0.779305 0.377973
O O9 0.977748 0.723697 0.398818
O O10 0.124753 0.763108 0.307842
O O11 0.999157 0.000000 0.341613
O O12 0.672120 0.723719 0.929221
O O13 0.860832 0.718817 0.897155
O O14 0.764244 0.000000 0.933323
O O15 0.750000 0.750000 0.000000
O O16 0.973097 0.764990 0.103065
O O17 0.047623 0.000000 0.142510
O O18 0.930273 0.500000 0.057808
O O19 0.000000 0.226154 0.000000
O O20 0.107548 0.000000 0.547616
O O21 0.216943 0.500000 0.319078
#
# Coordination Sequence:
#
# PCOD9193844 Si02
#       8
#     8   8   8   8   8   8   8   8
#     4   9  19  39  59  75 106 146 181 221 270 319
#     4   9  17  31  52  76 103 139 177 216 268 325
#     4  10  20  36  58  80 105 142 183 222 270 323
#     4  10  20  34  54  81 111 143 177 213 259 315
#     4  10  21  36  58  84 106 140 188 226 257 311
#     4  10  20  35  55  81 116 148 171 211 273 321
#     4   9  17  31  52  77 104 137 176 219 268 322
#     4  10  20  36  57  78 105 142 181 221 271 325
#
# _framework density 21.758932999999999
#
# number of rings (size 3 to 8) (size 9 to 14) (size 15 to 20)
#    0.000    2.375    2.500    0.000    0.000    3.250 
#    0.000    5.625    0.000    0.000    0.000    0.000 
#    0.000    0.000    0.000    0.000    0.000    0.000 
#
# Total GULP energy -178687.226795 kJ/mol
# GULP energy per Si atom -5583.975837 kJ/mol
# Density = 2.170941 g / cm^3
# Si number density = 21.758933 Si / 1000 Ang^3
#
#
#
# Elastic Constant Matrix: (Units=GPa)
#
#
# Indices 1 2 3 4 5 6 
#
# 1 115.1482 -9.2925 37.5041 0.0000 -34.8698 0.0000
# 2 -9.2925 41.2401 -3.1623 0.0001 -0.7498 0.0000
# 3 37.5041 -3.1623 115.6353 0.0001 -34.0111 0.0000
# 4 0.0000 0.0001 0.0001 12.4205 0.0000 -0.2523
# 5 -34.8698 -0.7498 -34.0111 0.0000 25.6493 0.0000
# 6 0.0000 0.0000 0.0000 -0.2523 0.0000 15.5529
#
#
#
# Elastic Compliance Matrix: (Units=1/GPa)
#
#
# Indices 1 2 3 4 5 6 
#
# 1 0.015674 0.004142 0.002185 0.000000 0.024326 0.000000
# 2 0.004142 0.025501 0.002015 0.000000 0.009048 0.000000
# 3 0.002185 0.002015 0.014566 0.000000 0.022344 0.000000
# 4 0.000000 0.000000 0.000000 0.080539 0.000000 0.001307
# 5 0.024326 0.009048 0.022344 0.000000 0.101951 0.000000
# 6 0.000000 0.000000 0.000000 0.001307 0.000000 0.064318
#
#
# Mechanical properties :
#
#
# Convention : Reuss Voigt Hill
#
# Bulk Modulus (GPa) = 13.80757 35.79134 24.79945
# Shear Modulus (GPa) = 16.12870 27.18949 21.65909
#
# Velocity S-wave (km/s) = 2.72553 3.53877 3.15844
# Velocity P-wave (km/s) = 4.03289 5.76038 4.97223
#
# Compressibility (1/GPa) = 0.07242402
#
# Stress axis : x y z
#
# Youngs Moduli (GPa) = 63.80117 39.21488 68.65136
#
# Poissons Ratio (x) = -0.16241 -0.14998
# Poissons Ratio (y) = -0.26424 -0.13837
# Poissons Ratio (z) = -0.13939 -0.07904
#
# Static dielectric constant tensor:
#      x y z
#    x 1.786280 0.000000 -0.021190 
#    y 0.000000 1.834620 0.000000 
#    z -0.021190 0.000000 1.779290 
# 
# From -- ./inp_files/359788.got.cif
#   From: 2010.05.17/outbox.cif.g08.bks.cpg/sg12_180_cif.got.tgz:359788.got - 2010.06.03 13:09:07.
