data_PCOD9193720
_publ_section_title
;
Structure prediction by ZEFSAII (Michael W. Deem and Ramdas Pophale) SiO2 
 PCOD9193720
Probable space group: C 2/M
;
_chemical_formula_sum "Si O2"
_cell_formula_units_Z 48
_cell_length_a 32.530572
_cell_length_b 8.614051
_cell_length_c 16.229694
_cell_angle_alpha 90.000000
_cell_angle_beta 36.786708
_cell_angle_gamma 90.000000
_cell_volume 2723.445518
_symmetry_space_group_name_H-M "C 2/M"
_symmetry_group_IT_number 12
_symmetry_cell_setting 'monoclinic'
loop_
_space_group_symop_operation_xyz
x,y,z
-x,y,-z
-x,-y,-z
x,-y,z
1/2+x,1/2+y,z
1/2-x,1/2+y,-z
1/2-x,1/2-y,-z
1/2+x,1/2-y,z
loop_
_atom_site_type_symbol
_atom_site_label
_atom_site_fract_x
_atom_site_fract_y
_atom_site_fract_z
Si Si1 0.737421 0.313546 0.262527
Si Si2 0.093956 0.186464 0.408341
Si Si3 0.281154 0.313395 0.365918
Si Si4 0.068995 0.811342 0.932760
Si Si5 0.380222 0.313370 0.970486
Si Si6 0.549305 0.185151 0.305989
O O1 0.742856 0.500000 0.254161
O O2 0.665711 0.270034 0.335170
O O3 0.742501 0.251783 0.347655
O O4 0.802535 0.243628 0.109768
O O5 0.087231 0.250291 0.326477
O O6 0.028469 0.252020 0.562559
O O7 0.088898 0.000000 0.414217
O O8 0.278002 0.500000 0.369680
O O9 0.250000 0.250000 0.500000
O O10 0.361071 0.266310 0.226271
O O11 0.066878 0.000000 0.935301
O O12 0.078474 0.765701 0.012935
O O13 0.000000 0.753897 0.000000
O O14 0.380756 0.500000 0.964842
O O15 0.413824 0.243441 0.835351
O O16 0.548562 0.000000 0.310399
#
# Coordination Sequence:
#
# PCOD9193720 Si02
#       6
#     8   8   8   8   8   8
#     4  10  21  37  57  80 107 141 181 226 272 319
#     4  10  21  38  58  79 106 141 181 223 270 324
#     4  10  20  34  54  79 108 142 178 221 270 320
#     4   8  16  32  53  76 101 133 175 217 257 305
#     4  10  20  35  56  80 109 144 179 220 269 321
#     4  11  22  36  56  81 110 141 176 222 271 321
#
# _framework density 17.624732999999999
#
# number of rings (size 3 to 8) (size 9 to 14) (size 15 to 20)
#    0.000    2.167    0.000    5.500    0.000    4.667 
#    0.000    3.333    0.000   17.000    0.000    0.000 
#    0.000    0.000    0.000    0.000    0.000    0.000 
#
# Total GULP energy -133977.765772 kJ/mol
# GULP energy per Si atom -5582.406907 kJ/mol
# Density = 1.758462 g / cm^3
# Si number density = 17.624733 Si / 1000 Ang^3
#
#
#
# Elastic Constant Matrix: (Units=GPa)
#
#
# Indices 1 2 3 4 5 6 
#
# 1 172.4071 58.5367 126.6544 0.0001 -19.6527 -0.0001
# 2 58.5367 76.0176 52.1326 -0.0008 -2.2969 0.0000
# 3 126.6544 52.1326 164.8360 -0.0003 20.4472 0.0000
# 4 0.0001 -0.0008 -0.0003 34.2889 0.0000 2.1707
# 5 -19.6527 -2.2969 20.4472 0.0000 28.1979 0.0000
# 6 -0.0001 0.0000 0.0000 2.1707 0.0000 26.4178
#
#
#
# Elastic Compliance Matrix: (Units=1/GPa)
#
#
# Indices 1 2 3 4 5 6 
#
# 1 0.039015 -0.004418 -0.035063 -0.000001 0.052257 0.000000
# 2 -0.004418 0.018188 -0.002372 0.000000 0.000122 0.000000
# 3 -0.035063 -0.002372 0.040452 0.000000 -0.053963 0.000000
# 4 -0.000001 0.000000 0.000000 0.029316 -0.000001 -0.002409
# 5 0.052257 0.000122 -0.053963 -0.000001 0.111024 0.000000
# 6 0.000000 0.000000 0.000000 -0.002409 0.000000 0.038051
#
#
# Mechanical properties :
#
#
# Convention : Reuss Voigt Hill
#
# Bulk Modulus (GPa) = 71.69658 98.65646 85.17652
# Shear Modulus (GPa) = 13.72108 29.51007 21.61557
#
# Velocity S-wave (km/s) = 2.79321 4.09633 3.50585
# Velocity P-wave (km/s) = 7.15336 8.85838 8.05113
#
# Compressibility (1/GPa) = 0.01394767
#
# Stress axis : x y z
#
# Youngs Moduli (GPa) = 25.63123 54.98138 24.72084
#
# Poissons Ratio (x) = 0.24293 0.86677
# Poissons Ratio (y) = 0.11325 0.05865
# Poissons Ratio (z) = 0.89870 0.13044
#
# Static dielectric constant tensor:
#      x y z
#    x 1.588340 0.000000 -0.009840 
#    y 0.000000 1.596360 0.000000 
#    z -0.009840 0.000000 1.571290 
# 
# From -- ./inp_files/248821.got.cif
#   From: 2010.05.17/outbox.cif.g08.bks.cpg/sg12_125_cif.got.tgz:248821.got - 2010.06.03 13:09:07.
