data_PCOD9193853
_publ_section_title
;
Structure prediction by ZEFSAII (Michael W. Deem and Ramdas Pophale) SiO2 
 PCOD9193853
Probable space group: C 2/M
;
_chemical_formula_sum "Si O2"
_cell_formula_units_Z 56
_cell_length_a 12.273123
_cell_length_b 11.872499
_cell_length_c 18.994123
_cell_angle_alpha 90.000000
_cell_angle_beta 70.256631
_cell_angle_gamma 90.000000
_cell_volume 2604.985848
_symmetry_space_group_name_H-M "C 2/M"
_symmetry_group_IT_number 12
_symmetry_cell_setting 'monoclinic'
loop_
_space_group_symop_operation_xyz
x,y,z
-x,y,-z
-x,-y,-z
x,-y,z
1/2+x,1/2+y,z
1/2-x,1/2+y,-z
1/2-x,1/2-y,-z
1/2+x,1/2-y,z
loop_
_atom_site_type_symbol
_atom_site_label
_atom_site_fract_x
_atom_site_fract_y
_atom_site_fract_z
Si Si1 0.803964 0.626955 0.069977
Si Si2 0.206633 0.872028 0.289647
Si Si3 0.450301 0.834127 0.159687
Si Si4 0.106782 0.371811 0.525627
Si Si5 0.508036 0.372872 0.764294
Si Si6 0.797703 0.792077 0.381638
Si Si7 0.796345 0.623266 0.902453
O O1 0.755624 0.500000 0.100256
O O2 0.924570 0.633337 0.085405
O O3 0.751826 0.750609 0.103978
O O4 0.804378 0.626504 0.985834
O O5 0.334700 0.870089 0.226570
O O6 0.214078 0.784290 0.351473
O O7 0.106603 0.842169 0.255639
O O8 0.183149 0.000000 0.318804
O O9 0.467786 0.703375 0.173450
O O10 0.573386 0.881921 0.155699
O O11 0.087594 0.500000 0.552927
O O12 0.125792 0.291589 0.587476
O O13 0.220728 0.363687 0.451901
O O14 0.000000 0.336959 0.500000
O O15 0.496426 0.500000 0.788971
O O16 0.616763 0.358359 0.688176
O O17 0.740211 0.500000 0.896319
#
# Coordination Sequence:
#
# PCOD9193853 Si02
#       7
#     8   8   8   8   8   8   8
#     4  10  21  38  59  83 114 150 187 232 287 342
#     4  10  20  35  54  76 105 141 184 230 275 331
#     4  11  21  34  56  81 107 145 188 229 282 342
#     4  10  20  34  54  81 112 142 177 224 273 324
#     4  10  22  38  55  79 112 147 184 232 284 332
#     4  10  20  35  56  80 106 144 185 221 272 332
#     4  10  21  37  58  85 114 146 189 237 283 337
#
# _framework density 21.497237999999999
#
# number of rings (size 3 to 8) (size 9 to 14) (size 15 to 20)
#    0.000    1.857    0.000    4.286    0.000    3.429 
#    0.000    0.000    0.000   22.286    0.000    0.000 
#    0.000    0.000    0.000    0.000    0.000    0.000 
#
# Total GULP energy -156077.568291 kJ/mol
# GULP energy per Si atom -5574.198868 kJ/mol
# Density = 2.144831 g / cm^3
# Si number density = 21.497238 Si / 1000 Ang^3
#
#
#
# Elastic Constant Matrix: (Units=GPa)
#
#
# Indices 1 2 3 4 5 6 
#
# 1 63.1731 48.9942 -12.1109 0.0000 3.1205 0.0000
# 2 48.9942 147.1355 23.3823 0.0000 16.6742 0.0000
# 3 -12.1109 23.3823 30.1980 0.0000 -1.4184 0.0000
# 4 0.0000 0.0000 0.0000 -8.3577 0.0000 2.1688
# 5 3.1205 16.6742 -1.4184 0.0000 30.8603 0.0000
# 6 0.0000 0.0000 0.0000 2.1688 0.0000 14.5406
#
#
#
# Elastic Compliance Matrix: (Units=1/GPa)
#
#
# Indices 1 2 3 4 5 6 
#
# 1 0.032418 -0.015530 0.025321 0.000000 0.006277 0.000000
# 2 -0.015530 0.015859 -0.018878 0.000000 -0.007866 0.000000
# 3 0.025321 -0.018878 0.058372 0.000000 0.010322 0.000000
# 4 0.000000 0.000000 0.000000 -0.115192 0.000000 0.017182
# 5 0.006277 -0.007866 0.010322 0.000000 0.036494 0.000000
# 6 0.000000 0.000000 0.000000 0.017182 0.000000 0.066210
#
#
# Mechanical properties :
#
#
# Convention : Reuss Voigt Hill
#
# Bulk Modulus (GPa) = 11.30252 40.11531 25.70891
# Shear Modulus (GPa) = 35.25429 19.42470 27.33949
#
# Velocity S-wave (km/s) = 4.05402 3.00924 3.57005
# Velocity P-wave (km/s) = 5.21368 5.54754 5.38320
#
# Compressibility (1/GPa) = 0.08847588
#
# Stress axis : x y z
#
# Youngs Moduli (GPa) = 30.84682 63.05481 17.13161
#
# Poissons Ratio (x) = 0.97925 -0.43379
# Poissons Ratio (y) = 0.47906 0.32340
# Poissons Ratio (z) = -0.78108 1.19033
#
# Static dielectric constant tensor:
#      x y z
#    x 1.775280 0.000000 -0.029980 
#    y 0.000000 1.808470 0.000000 
#    z -0.029980 0.000000 1.777140 
# 
# From -- ./inp_files/304290.got.cif
#   From: 2010.05.17/outbox.cif.g08.bks.cpg/sg12_153_cif.got.tgz:304290.got - 2010.06.03 13:09:07.
