data_PCOD9193838
_publ_section_title
;
Structure prediction by ZEFSAII (Michael W. Deem and Ramdas Pophale) SiO2 
 PCOD9193838
Probable space group: C 2/M
;
_chemical_formula_sum "Si O2"
_cell_formula_units_Z 58
_cell_length_a 29.759130
_cell_length_b 9.949417
_cell_length_c 12.322760
_cell_angle_alpha 90.000000
_cell_angle_beta 107.133846
_cell_angle_gamma 90.000000
_cell_volume 3486.668827
_symmetry_space_group_name_H-M "C 2/M"
_symmetry_group_IT_number 12
_symmetry_cell_setting 'monoclinic'
loop_
_space_group_symop_operation_xyz
x,y,z
-x,y,-z
-x,-y,-z
x,-y,z
1/2+x,1/2+y,z
1/2-x,1/2+y,-z
1/2-x,1/2-y,-z
1/2+x,1/2-y,z
loop_
_atom_site_type_symbol
_atom_site_label
_atom_site_fract_x
_atom_site_fract_y
_atom_site_fract_z
Si Si1 0.301438 0.157013 0.654295
Si Si2 0.955616 0.772594 0.624384
Si Si3 0.549055 0.656319 0.974963
Si Si4 0.111950 0.153276 0.228955
Si Si5 0.500000 0.500000 0.500000
Si Si6 0.549910 0.155779 0.768597
Si Si7 0.714404 0.156688 0.617102
Si Si8 0.888244 0.338824 0.392525
O O1 0.348217 0.236826 0.720572
O O2 0.296745 0.159851 0.519850
O O3 0.257133 0.241812 0.667377
O O4 0.301713 0.000000 0.687050
O O5 0.929412 0.827921 0.712087
O O6 0.916026 0.712324 0.517251
O O7 0.981782 0.884586 0.572814
O O8 0.996251 0.669983 0.689257
O O9 0.546468 0.500000 0.938118
O O10 0.589412 0.668957 0.094164
O O11 0.500000 0.688407 0.000000
O O12 0.555807 0.751952 0.877684
O O13 0.130332 0.000000 0.253380
O O14 0.584027 0.203511 0.695628
O O15 0.560106 0.000000 0.799467
O O16 0.666352 0.200674 0.641747
O O17 0.725351 0.000000 0.651866
O O18 0.889225 0.500000 0.396637
#
# Coordination Sequence:
#
# PCOD9193838 Si02
#       8
#     8   8   8   8   2   8   8   8
#     4  10  20  34  54  81 111 141 176 225 272 326
#     4  12  21  34  52  81 113 150 186 222 268 323
#     4  10  22  39  57  75 106 148 189 233 271 319
#     4  11  22  36  56  79 107 147 186 224 272 321
#     4  12  24  32  50  82 120 152 194 220 266 332
#     4  11  23  36  55  80 113 147 187 230 273 324
#     4   9  18  34  54  79 110 145 176 214 272 333
#     4  10  20  36  55  79 112 147 179 219 277 331
#
# _framework density 16.634789000000001
#
# number of rings (size 3 to 8) (size 9 to 14) (size 15 to 20)
#    0.000    1.517    4.828    0.828    0.966    3.034 
#    1.241    0.000    0.000    0.828    0.000    0.000 
#    0.000    0.000    0.000    0.000    0.000    0.000 
#
# Total GULP energy -161546.371718 kJ/mol
# GULP energy per Si atom -5570.564542 kJ/mol
# Density = 1.659693 g / cm^3
# Si number density = 16.634789 Si / 1000 Ang^3
#
#
#
# Elastic Constant Matrix: (Units=GPa)
#
#
# Indices 1 2 3 4 5 6 
#
# 1 95.1752 55.3018 31.3836 0.0000 -5.8338 0.0000
# 2 55.3018 84.3468 37.8271 0.0000 -2.0034 0.0000
# 3 31.3836 37.8271 64.5242 0.0000 -13.4299 0.0000
# 4 0.0000 0.0000 0.0000 -14.2007 0.0000 -6.8258
# 5 -5.8338 -2.0034 -13.4299 0.0000 17.5882 0.0000
# 6 0.0000 0.0000 0.0000 -6.8258 0.0000 21.4243
#
#
#
# Elastic Compliance Matrix: (Units=1/GPa)
#
#
# Indices 1 2 3 4 5 6 
#
# 1 0.017403 -0.010652 -0.001511 0.000000 0.003405 0.000000
# 2 -0.010652 0.023230 -0.010252 0.000000 -0.008715 0.000000
# 3 -0.001511 -0.010252 0.026033 0.000000 0.018209 0.000000
# 4 0.000000 0.000000 0.000000 -0.061067 0.000000 -0.019456
# 5 0.003405 -0.008715 0.018209 0.000000 0.070897 0.000000
# 6 0.000000 0.000000 0.000000 -0.019456 0.000000 0.040477
#
#
# Mechanical properties :
#
#
# Convention : Reuss Voigt Hill
#
# Bulk Modulus (GPa) = 45.79381 54.78570 50.28975
# Shear Modulus (GPa) = 29.57144 12.93128 21.25136
#
# Velocity S-wave (km/s) = 4.22084 2.79115 3.57813
# Velocity P-wave (km/s) = 7.16538 6.58736 6.88244
#
# Compressibility (1/GPa) = 0.02183701
#
# Stress axis : x y z
#
# Youngs Moduli (GPa) = 57.46061 43.04755 38.41247
#
# Poissons Ratio (x) = 0.45853 0.05806
# Poissons Ratio (y) = 0.61205 0.39379
# Poissons Ratio (z) = 0.08685 0.44131
#
# Static dielectric constant tensor:
#      x y z
#    x 1.569670 0.000000 0.000690 
#    y 0.000000 1.557830 0.000000 
#    z 0.000690 0.000000 1.534480 
# 
# From -- ./inp_files/186554.got.cif
#   From: 2010.05.17/outbox.cif.g08.bks.cpg/sg12_94_cif.got.tgz:186554.got - 2010.06.03 13:09:07.
