data_PCOD9193536
_publ_section_title
;
Structure prediction by ZEFSAII (Michael W. Deem and Ramdas Pophale) SiO2 
 PCOD9193536
Probable space group: C 2/M
;
_chemical_formula_sum "Si O2"
_cell_formula_units_Z 64
_cell_length_a 19.000244
_cell_length_b 8.992115
_cell_length_c 34.197051
_cell_angle_alpha 90.000000
_cell_angle_beta 38.175500
_cell_angle_gamma 90.000000
_cell_volume 3611.178603
_symmetry_space_group_name_H-M "C 2/M"
_symmetry_group_IT_number 12
_symmetry_cell_setting 'monoclinic'
loop_
_space_group_symop_operation_xyz
x,y,z
-x,y,-z
-x,-y,-z
x,-y,z
1/2+x,1/2+y,z
1/2-x,1/2+y,-z
1/2-x,1/2-y,-z
1/2+x,1/2-y,z
loop_
_atom_site_type_symbol
_atom_site_label
_atom_site_fract_x
_atom_site_fract_y
_atom_site_fract_z
Si Si1 0.862304 0.328580 0.564541
Si Si2 0.276934 0.175019 0.903335
Si Si3 0.022417 0.177326 0.149971
Si Si4 0.411965 0.176841 0.961246
Si Si5 0.100176 0.823321 0.371630
Si Si6 0.167337 0.821573 0.503826
Si Si7 0.231518 0.176199 0.758929
Si Si8 0.136721 0.825333 0.885581
O O1 0.824928 0.500000 0.581088
O O2 0.844215 0.252094 0.614297
O O3 0.812980 0.243633 0.548382
O O4 0.000000 0.326194 0.500000
O O5 0.400175 0.250368 0.850708
O O6 0.215055 0.192635 0.888922
O O7 0.285472 0.000000 0.908434
O O8 0.197473 0.254556 0.970006
O O9 0.066853 0.249766 0.090211
O O10 0.887984 0.208177 0.210805
O O11 0.037331 0.000000 0.141724
O O12 0.524163 0.225690 0.936400
O O13 0.402648 0.000000 0.962240
O O14 0.167174 0.766372 0.304638
O O15 0.965522 0.786152 0.428690
O O16 0.108775 0.000000 0.371888
O O17 0.250000 0.750000 0.500000
O O18 0.180181 0.000000 0.497916
O O19 0.204712 0.209011 0.816032
O O20 0.254571 0.000000 0.745541
O O21 0.100993 0.000000 0.898611
#
# Coordination Sequence:
#
# PCOD9193536 Si02
#       8
#     8   8   8   8   8   8   8   8
#     4   9  17  31  53  79 106 138 174 211 252 298
#     4  11  21  34  53  76 103 134 169 214 268 319
#     4  10  21  37  54  74 102 134 171 216 262 309
#     4  11  21  33  52  77 103 133 171 213 261 319
#     4  10  20  34  55  81 107 138 176 215 254 303
#     4  10  20  34  53  81 115 145 174 213 259 305
#     4   9  19  37  57  74  97 136 180 216 255 306
#     4   9  20  37  54  74 103 137 172 213 260 311
#
# _framework density 17.722745
#
# number of rings (size 3 to 8) (size 9 to 14) (size 15 to 20)
#    0.000    2.125    0.000    4.500    0.000    8.000 
#    0.000    1.250    0.000    6.000    0.000    0.000 
#    0.000    0.000    0.000    0.000    0.000    0.000 
#
# Total GULP energy -178625.355204 kJ/mol
# GULP energy per Si atom -5582.042350 kJ/mol
# Density = 1.768241 g / cm^3
# Si number density = 17.722745 Si / 1000 Ang^3
#
#
#
# Elastic Constant Matrix: (Units=GPa)
#
#
# Indices 1 2 3 4 5 6 
#
# 1 92.1287 49.1883 13.3583 -0.0005 -6.1737 -0.0043
# 2 49.1883 85.8254 30.3144 0.0021 -9.6572 -0.0075
# 3 13.3583 30.3144 53.2737 -0.0003 -7.4169 0.0005
# 4 -0.0005 0.0021 -0.0003 27.6604 0.0006 -1.2922
# 5 -6.1737 -9.6572 -7.4169 0.0006 10.1678 -0.0005
# 6 -0.0043 -0.0075 0.0005 -1.2922 -0.0005 30.3544
#
#
#
# Elastic Compliance Matrix: (Units=1/GPa)
#
#
# Indices 1 2 3 4 5 6 
#
# 1 0.015763 -0.009413 0.001660 0.000001 0.001842 0.000000
# 2 -0.009413 0.020926 -0.008432 -0.000002 0.008009 0.000004
# 3 0.001660 -0.008432 0.024685 0.000001 0.011006 -0.000002
# 4 0.000001 -0.000002 0.000001 0.036225 -0.000003 0.001542
# 5 0.001842 0.008009 0.011006 -0.000003 0.115102 0.000004
# 6 0.000000 0.000004 -0.000002 0.001542 0.000004 0.033010
#
#
# Mechanical properties :
#
#
# Convention : Reuss Voigt Hill
#
# Bulk Modulus (GPa) = 34.47839 46.32775 40.40307
# Shear Modulus (GPa) = 17.37626 22.86098 20.11862
#
# Velocity S-wave (km/s) = 3.13461 3.59545 3.37291
# Velocity P-wave (km/s) = 5.70943 6.59040 6.16567
#
# Compressibility (1/GPa) = 0.02900367
#
# Stress axis : x y z
#
# Youngs Moduli (GPa) = 63.44025 47.78749 40.51017
#
# Poissons Ratio (x) = 0.44984 -0.06726
# Poissons Ratio (y) = 0.59718 0.34159
# Poissons Ratio (z) = -0.10533 0.40295
#
# Static dielectric constant tensor:
#      x y z
#    x 1.625030 0.000000 0.002720 
#    y 0.000000 1.594610 0.000000 
#    z 0.002720 0.000000 1.590680 
# 
# From -- ./inp_files/377996.got.cif
#   From: 2010.05.17/outbox.cif.g08.bks.cpg/sg12_189_cif.got.tgz:377996.got - 2010.06.03 13:09:07.
