data_PCOD9193045
_publ_section_title
;
Structure prediction by ZEFSAII (Michael W. Deem and Ramdas Pophale) SiO2 
 PCOD9193045
Probable space group: C 2/M
;
_chemical_formula_sum "Si O2"
_cell_formula_units_Z 52
_cell_length_a 14.228764
_cell_length_b 18.780936
_cell_length_c 22.275398
_cell_angle_alpha 90.000000
_cell_angle_beta 149.268114
_cell_angle_gamma 90.000000
_cell_volume 3041.928031
_symmetry_space_group_name_H-M "C 2/M"
_symmetry_group_IT_number 12
_symmetry_cell_setting 'monoclinic'
loop_
_space_group_symop_operation_xyz
x,y,z
-x,y,-z
-x,-y,-z
x,-y,z
1/2+x,1/2+y,z
1/2-x,1/2+y,-z
1/2-x,1/2-y,-z
1/2+x,1/2-y,z
loop_
_atom_site_type_symbol
_atom_site_label
_atom_site_fract_x
_atom_site_fract_y
_atom_site_fract_z
Si Si1 0.021853 0.155992 0.781132
Si Si2 0.216493 0.294541 0.851753
Si Si3 0.861029 0.284102 0.478797
Si Si4 0.842052 0.500000 0.549926
Si Si5 0.964886 0.149454 0.891153
Si Si6 0.852470 0.651521 0.601115
Si Si7 0.073604 0.000000 0.287755
Si Si8 0.781708 0.000000 0.768655
O O1 0.831761 0.180287 0.645771
O O2 0.993425 0.162684 0.836797
O O3 0.174981 0.212986 0.846035
O O4 0.043575 0.073008 0.776094
O O5 0.321530 0.299204 0.846010
O O6 0.021856 0.334123 0.738284
O O7 0.345735 0.335777 0.969765
O O8 0.920735 0.323138 0.572453
O O9 0.812901 0.203125 0.470229
O O10 0.000000 0.290284 0.500000
O O11 0.799054 0.570425 0.563946
O O12 0.722271 0.500000 0.423120
O O13 0.062400 0.500000 0.658253
O O14 0.878593 0.070309 0.848776
O O15 0.178908 0.000000 0.281339
#
# Coordination Sequence:
#
# PCOD9193045 Si02
#       8
#     8   8   8   4   8   8   4   4
#     4  10  20  35  53  78 105 136 177 218 262 308
#     4  10  20  34  52  75 109 141 172 213 257 313
#     4  10  20  34  53  74 107 139 178 218 257 309
#     4  12  19  33  51  78 113 138 167 217 267 321
#     4  10  20  34  53  80 104 140 175 210 264 311
#     4  10  21  33  50  80 104 142 174 210 266 310
#     4  10  21  32  51  80 105 139 171 217 272 307
#     4  10  21  32  52  80 113 132 173 215 267 323
#
# _framework density 17.094421000000001
#
# number of rings (size 3 to 8) (size 9 to 14) (size 15 to 20)
#    0.000    1.846    3.077    1.615    2.154    1.846 
#    0.000    0.385    0.000    1.846    0.000    2.154 
#    0.000    0.000    0.000    0.000    0.000    0.000 
#
# Total GULP energy -144998.917450 kJ/mol
# GULP energy per Si atom -5576.881440 kJ/mol
# Density = 1.705551 g / cm^3
# Si number density = 17.094421 Si / 1000 Ang^3
#
#
#
# Elastic Constant Matrix: (Units=GPa)
#
#
# Indices 1 2 3 4 5 6 
#
# 1 46.4302 38.7997 3.7353 0.0001 -2.7731 0.0001
# 2 38.7997 142.1644 22.9522 -0.0002 -9.4381 0.0000
# 3 3.7353 22.9522 72.8899 0.0000 -19.0178 0.0004
# 4 0.0001 -0.0002 0.0000 17.0232 0.0003 -3.0652
# 5 -2.7731 -9.4381 -19.0178 0.0003 14.9698 0.0001
# 6 0.0001 0.0000 0.0004 -3.0652 0.0001 20.8255
#
#
#
# Elastic Compliance Matrix: (Units=1/GPa)
#
#
# Indices 1 2 3 4 5 6 
#
# 1 0.028029 -0.007755 0.001622 0.000000 0.002364 0.000000
# 2 -0.007755 0.009622 -0.002131 0.000000 0.001923 0.000000
# 3 0.001622 -0.002131 0.020994 -0.000001 0.025628 -0.000001
# 4 0.000000 0.000000 -0.000001 0.060343 -0.000002 0.008882
# 5 0.002364 0.001923 0.025628 -0.000002 0.101010 -0.000001
# 6 0.000000 0.000000 -0.000001 0.008882 -0.000001 0.049325
#
#
# Mechanical properties :
#
#
# Convention : Reuss Voigt Hill
#
# Bulk Modulus (GPa) = 23.74260 43.60654 33.67457
# Shear Modulus (GPa) = 16.67291 23.63018 20.15154
#
# Velocity S-wave (km/s) = 3.12644 3.72201 3.43715
# Velocity P-wave (km/s) = 5.19154 6.63594 5.95767
#
# Compressibility (1/GPa) = 0.04211838
#
# Stress axis : x y z
#
# Youngs Moduli (GPa) = 35.67793 103.92651 47.63320
#
# Poissons Ratio (x) = 0.80591 -0.07727
# Poissons Ratio (y) = 0.27667 0.10149
# Poissons Ratio (z) = -0.05788 0.22144
#
# Static dielectric constant tensor:
#      x y z
#    x 1.560680 0.000000 -0.009130 
#    y 0.000000 1.600440 0.000000 
#    z -0.009130 0.000000 1.598500 
# 
# From -- ./inp_files/168734.got.cif
#   From: 2010.05.17/outbox.cif.g08.bks.cpg/sg12_85_cif.got.tgz:168734.got - 2010.06.03 13:09:07.
