data_PCOD9193674
_publ_section_title
;
Structure prediction by ZEFSAII (Michael W. Deem and Ramdas Pophale) SiO2 
 PCOD9193674
Probable space group: C 2/M
;
_chemical_formula_sum "Si O2"
_cell_formula_units_Z 56
_cell_length_a 19.062053
_cell_length_b 8.239465
_cell_length_c 30.453973
_cell_angle_alpha 90.000000
_cell_angle_beta 141.080462
_cell_angle_gamma 90.000000
_cell_volume 3004.901306
_symmetry_space_group_name_H-M "C 2/M"
_symmetry_group_IT_number 12
_symmetry_cell_setting 'monoclinic'
loop_
_space_group_symop_operation_xyz
x,y,z
-x,y,-z
-x,-y,-z
x,-y,z
1/2+x,1/2+y,z
1/2-x,1/2+y,-z
1/2-x,1/2-y,-z
1/2+x,1/2-y,z
loop_
_atom_site_type_symbol
_atom_site_label
_atom_site_fract_x
_atom_site_fract_y
_atom_site_fract_z
Si Si1 0.169283 0.307441 0.999166
Si Si2 0.558482 0.690061 0.717308
Si Si3 0.786905 0.306783 0.285604
Si Si4 0.040026 0.196193 0.567332
Si Si5 0.258236 0.802636 0.869722
Si Si6 0.417884 0.693396 0.868335
Si Si7 0.623598 0.303860 0.433437
O O1 0.177837 0.500000 0.005890
O O2 0.041231 0.263342 0.927714
O O3 0.250000 0.250000 0.000000
O O4 0.207286 0.243125 0.065455
O O5 0.541191 0.500000 0.718296
O O6 0.638961 0.710559 0.714055
O O7 0.635800 0.757276 0.794002
O O8 0.441128 0.757204 0.641966
O O9 0.800716 0.500000 0.284832
O O10 0.840457 0.262286 0.358235
O O11 0.659569 0.265036 0.211541
O O12 0.000000 0.249669 0.500000
O O13 0.949446 0.247972 0.559904
O O14 0.045445 0.000000 0.570156
O O15 0.349081 0.750998 0.877649
O O16 0.255758 0.000000 0.868346
O O17 0.426722 0.500000 0.874581
O O18 0.620279 0.500000 0.430732
O O19 0.750000 0.250000 0.500000
#
# Coordination Sequence:
#
# PCOD9193674 Si02
#       7
#     8   8   8   8   8   8   8
#     4  11  23  37  53  74 103 137 169 205 253 305
#     4   8  15  30  50  70  94 126 163 201 244 291
#     4   9  17  29  48  75 101 125 159 204 248 287
#     4   9  18  33  51  70  96 131 168 203 242 291
#     4   9  18  34  56  78  98 126 168 212 251 297
#     4  10  20  34  54  79 104 130 165 209 252 299
#     4   9  17  29  47  70  95 125 157 193 239 286
#
# _framework density 18.636220000000002
#
# number of rings (size 3 to 8) (size 9 to 14) (size 15 to 20)
#    0.000    2.714    0.000    2.571    0.000    7.143 
#    0.000    1.429    0.000    5.143    0.000    0.000 
#    0.000    0.000    0.000    0.000    0.000    0.000 
#
# Total GULP energy -155970.869264 kJ/mol
# GULP energy per Si atom -5570.388188 kJ/mol
# Density = 1.859380 g / cm^3
# Si number density = 18.636220 Si / 1000 Ang^3
#
#
#
# Elastic Constant Matrix: (Units=GPa)
#
#
# Indices 1 2 3 4 5 6 
#
# 1 66.4795 11.1741 81.0075 0.0000 2.1577 0.0001
# 2 11.1741 14.2053 18.3848 -0.0001 -1.3896 0.0003
# 3 81.0075 18.3848 219.7287 0.0000 3.8493 0.0000
# 4 0.0000 -0.0001 0.0000 27.9655 0.0000 5.4444
# 5 2.1577 -1.3896 3.8493 0.0000 27.3266 0.0000
# 6 0.0001 0.0003 0.0000 5.4444 0.0000 19.5775
#
#
#
# Elastic Compliance Matrix: (Units=1/GPa)
#
#
# Indices 1 2 3 4 5 6 
#
# 1 0.028553 -0.010100 -0.009657 0.000000 -0.001408 0.000000
# 2 -0.010100 0.083193 -0.003334 0.000000 0.005497 -0.000001
# 3 -0.009657 -0.003334 0.008401 0.000000 -0.000590 0.000000
# 4 0.000000 0.000000 0.000000 0.037805 0.000000 -0.010513
# 5 -0.001408 0.005497 -0.000590 0.000000 0.037068 0.000000
# 6 0.000000 -0.000001 0.000000 -0.010513 0.000000 0.054003
#
#
# Mechanical properties :
#
#
# Convention : Reuss Voigt Hill
#
# Bulk Modulus (GPa) = 13.51976 57.94960 35.73468
# Shear Modulus (GPa) = 15.63196 27.63042 21.63119
#
# Velocity S-wave (km/s) = 2.89934 3.85466 3.41061
# Velocity P-wave (km/s) = 4.29866 7.13960 5.89289
#
# Compressibility (1/GPa) = 0.07396582
#
# Stress axis : x y z
#
# Youngs Moduli (GPa) = 35.02296 12.02026 119.04021
#
# Poissons Ratio (x) = 0.12140 1.14955
# Poissons Ratio (y) = 0.35372 0.39684
# Poissons Ratio (z) = 0.33821 0.04007
#
# Static dielectric constant tensor:
#      x y z
#    x 1.369230 0.000000 -0.041330 
#    y 0.000000 1.629890 0.000000 
#    z -0.041330 0.000000 1.711260 
# 
# From -- ./inp_files/342522.got.cif
#   From: 2010.05.17/outbox.cif.g08.bks.cpg/sg12_172_cif.got.tgz:342522.got - 2010.06.03 13:09:07.
