data_PCOD9193721
_publ_section_title
;
Structure prediction by ZEFSAII (Michael W. Deem and Ramdas Pophale) SiO2 
 PCOD9193721
Probable space group: C 2/M
;
_chemical_formula_sum "Si O2"
_cell_formula_units_Z 56
_cell_length_a 18.775789
_cell_length_b 8.603868
_cell_length_c 29.911446
_cell_angle_alpha 90.000000
_cell_angle_beta 38.580272
_cell_angle_gamma 90.000000
_cell_volume 3013.302556
_symmetry_space_group_name_H-M "C 2/M"
_symmetry_group_IT_number 12
_symmetry_cell_setting 'monoclinic'
loop_
_space_group_symop_operation_xyz
x,y,z
-x,y,-z
-x,-y,-z
x,-y,z
1/2+x,1/2+y,z
1/2-x,1/2+y,-z
1/2-x,1/2-y,-z
1/2+x,1/2-y,z
loop_
_atom_site_type_symbol
_atom_site_label
_atom_site_fract_x
_atom_site_fract_y
_atom_site_fract_z
Si Si1 0.628172 0.188594 0.431657
Si Si2 0.705137 0.314281 0.568577
Si Si3 0.753341 0.688055 0.863133
Si Si4 0.416321 0.688295 0.133413
Si Si5 0.327896 0.814842 0.001787
Si Si6 0.669321 0.688172 0.727060
Si Si7 0.515271 0.813843 0.722146
O O1 0.500000 0.248747 0.500000
O O2 0.702780 0.227984 0.438435
O O3 0.705033 0.238417 0.351693
O O4 0.621587 0.000000 0.432606
O O5 0.696983 0.500000 0.570836
O O6 0.750000 0.250000 0.500000
O O7 0.585633 0.246790 0.644940
O O8 0.749484 0.500000 0.868295
O O9 0.664221 0.735339 0.868359
O O10 0.882821 0.732771 0.787234
O O11 0.719554 0.757140 0.927397
O O12 0.423197 0.500000 0.129730
O O13 0.542907 0.754811 0.066793
O O14 0.362431 0.736465 0.207396
O O15 0.325993 0.000000 0.001062
O O16 0.250000 0.750000 0.000000
O O17 0.666157 0.500000 0.726924
O O18 0.578480 0.749024 0.735310
O O19 0.521384 0.000000 0.720006
#
# Coordination Sequence:
#
# PCOD9193721 Si02
#       7
#     8   8   8   8   8   8   8
#     4   8  15  29  51  77 103 134 176 222 263 311
#     4  10  20  34  54  79 108 142 181 227 276 327
#     4  10  22  39  59  85 115 147 184 227 276 331
#     4  10  21  38  59  83 114 147 182 229 279 329
#     4  12  25  40  60  84 111 146 187 229 277 333
#     4   9  18  33  54  79 106 141 182 223 272 326
#     4  10  20  35  56  80 108 144 184 224 268 324
#
# _framework density 18.584261000000001
#
# number of rings (size 3 to 8) (size 9 to 14) (size 15 to 20)
#    0.000    2.143    0.000    4.286    0.000    7.429 
#    0.000    4.286    0.000   14.143    0.000    0.000 
#    0.000    0.000    0.000    0.000    0.000    0.000 
#
# Total GULP energy -156329.319525 kJ/mol
# GULP energy per Si atom -5583.189983 kJ/mol
# Density = 1.854196 g / cm^3
# Si number density = 18.584261 Si / 1000 Ang^3
#
#
#
# Elastic Constant Matrix: (Units=GPa)
#
#
# Indices 1 2 3 4 5 6 
#
# 1 136.0476 36.9938 122.1202 0.0001 -6.0999 0.0002
# 2 36.9938 28.1598 49.2052 0.0002 0.9679 -0.0003
# 3 122.1202 49.2052 225.1038 0.0000 -2.9640 0.0000
# 4 0.0001 0.0002 0.0000 28.2056 0.0000 1.9518
# 5 -6.0999 0.9679 -2.9640 0.0000 40.8517 0.0001
# 6 0.0002 -0.0003 0.0000 1.9518 0.0001 25.3075
#
#
#
# Elastic Compliance Matrix: (Units=1/GPa)
#
#
# Indices 1 2 3 4 5 6 
#
# 1 0.015880 -0.009595 -0.006490 0.000000 0.002128 0.000000
# 2 -0.009595 0.063468 -0.008715 -0.000001 -0.003569 0.000001
# 3 -0.006490 -0.008715 0.009867 0.000000 -0.000047 0.000000
# 4 0.000000 -0.000001 0.000000 0.035644 0.000000 -0.002749
# 5 0.002128 -0.003569 -0.000047 0.000000 0.024878 0.000000
# 6 0.000000 0.000001 0.000000 -0.002749 0.000000 0.039726
#
#
# Mechanical properties :
#
#
# Convention : Reuss Voigt Hill
#
# Bulk Modulus (GPa) = 25.24251 89.54993 57.39622
# Shear Modulus (GPa) = 19.82019 30.93911 25.37965
#
# Velocity S-wave (km/s) = 3.26928 4.08462 3.69948
# Velocity P-wave (km/s) = 5.27855 8.39857 7.01424
#
# Compressibility (1/GPa) = 0.03961572
#
# Stress axis : x y z
#
# Youngs Moduli (GPa) = 62.97139 15.75604 101.34381
#
# Poissons Ratio (x) = 0.15119 0.65769
# Poissons Ratio (y) = 0.60424 0.88319
# Poissons Ratio (z) = 0.40866 0.13731
#
# Static dielectric constant tensor:
#      x y z
#    x 1.613160 0.000000 -0.006010 
#    y 0.000000 1.633690 0.000000 
#    z -0.006010 0.000000 1.639590 
# 
# From -- ./inp_files/363015.got.cif
#   From: 2010.05.17/outbox.cif.g08.bks.cpg/sg12_182_cif.got.tgz:363015.got - 2010.06.03 13:09:07.
