data_PCOD9193142
_publ_section_title
;
Structure prediction by ZEFSAII (Michael W. Deem and Ramdas Pophale) SiO2 
 PCOD9193142
Probable space group: C 2/M
;
_chemical_formula_sum "Si O2"
_cell_formula_units_Z 48
_cell_length_a 22.413411
_cell_length_b 9.134139
_cell_length_c 12.496862
_cell_angle_alpha 90.000000
_cell_angle_beta 71.203709
_cell_angle_gamma 90.000000
_cell_volume 2422.006000
_symmetry_space_group_name_H-M "C 2/M"
_symmetry_group_IT_number 12
_symmetry_cell_setting 'monoclinic'
loop_
_space_group_symop_operation_xyz
x,y,z
-x,y,-z
-x,-y,-z
x,-y,z
1/2+x,1/2+y,z
1/2-x,1/2+y,-z
1/2-x,1/2-y,-z
1/2+x,1/2-y,z
loop_
_atom_site_type_symbol
_atom_site_label
_atom_site_fract_x
_atom_site_fract_y
_atom_site_fract_z
Si Si1 0.725837 0.674777 0.120758
Si Si2 0.240023 0.326288 0.666743
Si Si3 0.924403 0.665154 0.062027
Si Si4 0.648864 0.328431 0.551531
Si Si5 0.042726 0.675092 0.721795
Si Si6 0.412548 0.673533 0.853893
O O1 0.732282 0.500000 0.106068
O O2 0.761486 0.717757 0.208644
O O3 0.651228 0.705517 0.173319
O O4 0.750000 0.750000 0.000000
O O5 0.223912 0.500000 0.666100
O O6 0.311220 0.310261 0.580193
O O7 0.195752 0.232291 0.615971
O O8 0.898656 0.500000 0.063641
O O9 0.920288 0.710931 0.187893
O O10 0.901022 0.770142 0.982157
O O11 0.000000 0.656672 0.000000
O O12 0.636598 0.500000 0.574109
O O13 0.584389 0.239776 0.602413
O O14 0.037927 0.500000 0.720026
O O15 0.973776 0.745035 0.772713
O O16 0.424049 0.500000 0.848501
#
# Coordination Sequence:
#
# PCOD9193142 Si02
#       6
#     8   8   8   8   8   8
#     4  10  23  40  58  81 112 151 188 224 274 334
#     4   9  20  40  59  80 113 150 185 227 280 335
#     4   8  16  30  47  70 103 143 178 212 266 326
#     4  10  20  35  60  87 110 141 187 237 279 323
#     4  10  20  34  54  80 111 147 183 223 281 338
#     4  10  20  34  52  79 111 142 184 232 271 321
#
# _framework density 19.818283999999998
#
# number of rings (size 3 to 8) (size 9 to 14) (size 15 to 20)
#    0.000    2.500    0.000    2.500    2.333    6.333 
#    0.000    0.833    0.000    5.000    0.000    0.000 
#    0.000    0.000    0.000    0.000    0.000    0.000 
#
# Total GULP energy -133968.346191 kJ/mol
# GULP energy per Si atom -5582.014425 kJ/mol
# Density = 1.977318 g / cm^3
# Si number density = 19.818284 Si / 1000 Ang^3
#
#
#
# Elastic Constant Matrix: (Units=GPa)
#
#
# Indices 1 2 3 4 5 6 
#
# 1 57.1040 27.1129 15.9923 0.0000 -7.4544 0.0000
# 2 27.1129 48.4516 23.6115 0.0000 -7.7472 0.0000
# 3 15.9923 23.6115 77.4994 0.0000 -9.4266 0.0000
# 4 0.0000 0.0000 0.0000 26.7306 0.0000 -4.0874
# 5 -7.4544 -7.7472 -9.4266 0.0000 33.6512 0.0000
# 6 0.0000 0.0000 0.0000 -4.0874 0.0000 18.0681
#
#
#
# Elastic Compliance Matrix: (Units=1/GPa)
#
#
# Indices 1 2 3 4 5 6 
#
# 1 0.024065 -0.012716 -0.000828 0.000000 0.002172 0.000000
# 2 -0.012716 0.031394 -0.006630 0.000000 0.002553 0.000000
# 3 -0.000828 -0.006630 0.015411 0.000000 0.002607 0.000000
# 4 0.000000 0.000000 0.000000 0.038751 0.000000 0.008766
# 5 0.002172 0.002553 0.002607 0.000000 0.031516 0.000000
# 6 0.000000 0.000000 0.000000 0.008766 0.000000 0.057329
#
#
# Mechanical properties :
#
#
# Convention : Reuss Voigt Hill
#
# Bulk Modulus (GPa) = 32.76238 35.16537 33.96387
# Shear Modulus (GPa) = 20.08138 23.44587 21.76363
#
# Velocity S-wave (km/s) = 3.18665 3.44327 3.31744
# Velocity P-wave (km/s) = 5.48698 5.79574 5.64347
#
# Compressibility (1/GPa) = 0.03052281
#
# Stress axis : x y z
#
# Youngs Moduli (GPa) = 41.55499 31.85321 64.88760
#
# Poissons Ratio (x) = 0.40503 0.05370
# Poissons Ratio (y) = 0.52840 0.43022
# Poissons Ratio (z) = 0.03439 0.21119
#
# Static dielectric constant tensor:
#      x y z
#    x 1.722090 0.000000 -0.029780 
#    y 0.000000 1.660010 0.000000 
#    z -0.029780 0.000000 1.721720 
# 
# From -- ./inp_files/172928.got.cif
#   From: 2010.05.17/outbox.cif.g08.bks.cpg/sg12_87_cif.got.tgz:172928.got - 2010.06.03 13:09:07.
