data_PCOD9193926
_publ_section_title
;
Structure prediction by ZEFSAII (Michael W. Deem and Ramdas Pophale) SiO2 
 PCOD9193926
Probable space group: C 2/M
;
_chemical_formula_sum "Si O2"
_cell_formula_units_Z 48
_cell_length_a 17.979801
_cell_length_b 19.247288
_cell_length_c 11.177027
_cell_angle_alpha 90.000000
_cell_angle_beta 38.040822
_cell_angle_gamma 90.000000
_cell_volume 2383.518132
_symmetry_space_group_name_H-M "C 2/M"
_symmetry_group_IT_number 12
_symmetry_cell_setting 'monoclinic'
loop_
_space_group_symop_operation_xyz
x,y,z
-x,y,-z
-x,-y,-z
x,-y,z
1/2+x,1/2+y,z
1/2-x,1/2+y,-z
1/2-x,1/2-y,-z
1/2+x,1/2-y,z
loop_
_atom_site_type_symbol
_atom_site_label
_atom_site_fract_x
_atom_site_fract_y
_atom_site_fract_z
Si Si1 0.903738 0.708100 0.293040
Si Si2 0.271955 0.074932 0.369199
Si Si3 0.777323 0.171404 0.015536
Si Si4 0.235260 0.733932 0.313458
Si Si5 0.159400 0.640953 0.944214
Si Si6 0.506573 0.580462 0.348171
O O1 0.826491 0.637808 0.374214
O O2 0.883354 0.729874 0.455192
O O3 0.843709 0.761242 0.274509
O O4 0.038815 0.686737 0.092612
O O5 0.128779 0.082187 0.532152
O O6 0.297644 0.000000 0.390733
O O7 0.336339 0.080138 0.157019
O O8 0.752228 0.177247 0.188540
O O9 0.690067 0.125250 0.041724
O O10 0.750000 0.250000 0.000000
O O11 0.907511 0.137899 0.822054
O O12 0.240062 0.807324 0.238932
O O13 0.500000 0.591395 0.500000
O O14 0.551076 0.500000 0.274766
#
# Coordination Sequence:
#
# PCOD9193926 Si02
#       6
#     8   8   8   8   8   8
#     4  10  21  36  54  78 115 152 186 231 300 351
#     4  10  20  35  58  83 107 145 195 239 278 340
#     4  10  21  36  56  89 115 146 197 246 290 344
#     4   9  20  36  52  77 114 153 184 234 289 346
#     4  10  20  34  54  83 111 143 187 239 298 345
#     4  10  20  37  60  84 116 154 192 241 295 344
#
# _framework density 20.138299
#
# number of rings (size 3 to 8) (size 9 to 14) (size 15 to 20)
#    0.000    2.167    1.667    2.000    0.000   11.333 
#    0.000    0.833    0.000    2.000    0.000    3.500 
#    0.000    0.000    0.000    0.000    0.000    0.000 
#
# Total GULP energy -133710.901340 kJ/mol
# GULP energy per Si atom -5571.287556 kJ/mol
# Density = 2.009246 g / cm^3
# Si number density = 20.138299 Si / 1000 Ang^3
#
#
#
# Elastic Constant Matrix: (Units=GPa)
#
#
# Indices 1 2 3 4 5 6 
#
# 1 50.7202 10.3498 26.1831 0.0000 15.8992 0.0000
# 2 10.3498 71.3842 40.2114 0.0000 4.3175 0.0000
# 3 26.1831 40.2114 95.9256 0.0000 12.1985 0.0000
# 4 0.0000 0.0000 0.0000 22.4037 0.0000 -0.5808
# 5 15.8992 4.3175 12.1985 0.0000 32.6623 0.0000
# 6 0.0000 0.0000 0.0000 -0.5808 0.0000 -5.5100
#
#
#
# Elastic Compliance Matrix: (Units=1/GPa)
#
#
# Indices 1 2 3 4 5 6 
#
# 1 0.025979 0.000145 -0.005817 0.000000 -0.010492 0.000000
# 2 0.000145 0.018347 -0.007783 0.000000 0.000411 0.000000
# 3 -0.005817 -0.007783 0.015521 0.000000 -0.001936 0.000000
# 4 0.000000 0.000000 0.000000 0.044514 0.000000 -0.004692
# 5 -0.010492 0.000411 -0.001936 0.000000 0.036393 0.000000
# 6 0.000000 0.000000 0.000000 -0.004692 0.000000 -0.180993
#
#
# Mechanical properties :
#
#
# Convention : Reuss Voigt Hill
#
# Bulk Modulus (GPa) = 30.36148 41.27984 35.82066
# Shear Modulus (GPa) = -2127.23713 19.33023 -1053.95345
#
# Velocity S-wave (km/s) = -32.53625 3.10154 -22.90183
# Velocity P-wave (km/s) = 37.36800 5.77657 26.10554
#
# Compressibility (1/GPa) = 0.03293647
#
# Stress axis : x y z
#
# Youngs Moduli (GPa) = 38.49336 54.50500 64.42739
#
# Poissons Ratio (x) = -0.00791 0.37480
# Poissons Ratio (y) = -0.00558 0.50142
# Poissons Ratio (z) = 0.22393 0.42420
#
# Static dielectric constant tensor:
#      x y z
#    x 1.791280 0.000000 0.006760 
#    y 0.000000 1.753730 0.000000 
#    z 0.006760 0.000000 1.754990 
# 
# From -- ./inp_files/133396.got.cif
#   From: 2010.05.17/outbox.cif.g08.bks.cpg/sg12_67_cif.got.tgz:133396.got - 2010.06.03 13:09:07.
