data_PCOD9193034
_publ_section_title
;
Structure prediction by ZEFSAII (Michael W. Deem and Ramdas Pophale) SiO2 
 PCOD9193034
Probable space group: C 2/M
;
_chemical_formula_sum "Si O2"
_cell_formula_units_Z 64
_cell_length_a 14.738383
_cell_length_b 9.085524
_cell_length_c 25.853849
_cell_angle_alpha 90.000000
_cell_angle_beta 75.448965
_cell_angle_gamma 90.000000
_cell_volume 3350.937983
_symmetry_space_group_name_H-M "C 2/M"
_symmetry_group_IT_number 12
_symmetry_cell_setting 'monoclinic'
loop_
_space_group_symop_operation_xyz
x,y,z
-x,y,-z
-x,-y,-z
x,-y,z
1/2+x,1/2+y,z
1/2-x,1/2+y,-z
1/2-x,1/2-y,-z
1/2+x,1/2-y,z
loop_
_atom_site_type_symbol
_atom_site_label
_atom_site_fract_x
_atom_site_fract_y
_atom_site_fract_z
Si Si1 0.894929 0.831243 0.957671
Si Si2 0.468670 0.824014 0.848841
Si Si3 0.202025 0.322363 0.637484
Si Si4 0.905491 0.321714 0.449204
Si Si5 0.877338 0.677428 0.568046
Si Si6 0.654043 0.177181 0.759402
Si Si7 0.233002 0.675085 0.171857
Si Si8 0.185354 0.331252 0.936635
O O1 0.959139 0.754561 0.905469
O O2 0.789089 0.831223 0.948399
O O3 0.921917 0.000000 0.962121
O O4 0.884089 0.744192 0.012732
O O5 0.558306 0.779912 0.802331
O O6 0.373179 0.792067 0.830799
O O7 0.471681 0.000000 0.856838
O O8 0.206809 0.500000 0.634997
O O9 0.144189 0.269573 0.595610
O O10 0.304479 0.254564 0.615910
O O11 0.156739 0.281639 0.698788
O O12 0.900744 0.500000 0.450301
O O13 0.862253 0.273883 0.510370
O O14 0.015420 0.284864 0.434129
O O15 0.867736 0.500000 0.571992
O O16 0.738410 0.251436 0.778569
O O17 0.661980 0.000000 0.761707
O O18 0.243923 0.500000 0.172447
O O19 0.300387 0.742224 0.118036
O O20 0.159172 0.500000 0.929986
#
# Coordination Sequence:
#
# PCOD9193034 Si02
#       8
#     8   8   8   8   8   8   8   8
#     4   9  16  27  48  78 106 132 167 213 261 308
#     4   9  19  36  55  74 100 137 175 211 259 317
#     4  10  20  34  52  75 105 140 175 214 259 305
#     4   8  16  32  54  79 108 141 173 207 255 313
#     4   9  17  32  55  81 107 137 174 213 254 305
#     4  10  22  38  53  72 102 140 179 214 255 312
#     4  10  20  35  56  79 102 131 173 223 265 303
#     4   9  16  28  49  76 106 138 168 203 258 324
#
# _framework density 19.099129000000001
#
# number of rings (size 3 to 8) (size 9 to 14) (size 15 to 20)
#    0.000    2.750    0.000    2.250    0.000    5.500 
#    0.000    5.000    0.000    3.750    0.000    0.000 
#    0.000    0.000    0.000    0.000    0.000    0.000 
#
# Total GULP energy -178620.193331 kJ/mol
# GULP energy per Si atom -5581.881042 kJ/mol
# Density = 1.905566 g / cm^3
# Si number density = 19.099129 Si / 1000 Ang^3
#
#
#
# Elastic Constant Matrix: (Units=GPa)
#
#
# Indices 1 2 3 4 5 6 
#
# 1 48.3463 15.6659 34.4536 0.0000 -6.9859 0.0000
# 2 15.6659 25.3021 26.5993 0.0000 -4.0522 0.0000
# 3 34.4536 26.5993 109.0157 0.0000 -14.0897 0.0000
# 4 0.0000 0.0000 0.0000 27.9775 0.0000 -1.1690
# 5 -6.9859 -4.0522 -14.0897 0.0000 26.7916 0.0000
# 6 0.0000 0.0000 0.0000 -1.1690 0.0000 19.8758
#
#
#
# Elastic Compliance Matrix: (Units=1/GPa)
#
#
# Indices 1 2 3 4 5 6 
#
# 1 0.029032 -0.011116 -0.006118 0.000000 0.002671 0.000000
# 2 -0.011116 0.057456 -0.010469 0.000000 0.000286 0.000000
# 3 -0.006118 -0.010469 0.014216 0.000000 0.004298 0.000000
# 4 0.000000 0.000000 0.000000 0.035831 0.000000 0.002107
# 5 0.002671 0.000286 0.004298 0.000000 0.040325 0.000000
# 6 0.000000 0.000000 0.000000 0.002107 0.000000 0.050436
#
#
# Mechanical properties :
#
#
# Convention : Reuss Voigt Hill
#
# Bulk Modulus (GPa) = 22.07546 37.34463 29.71004
# Shear Modulus (GPa) = 16.78965 21.99200 19.39083
#
# Velocity S-wave (km/s) = 2.96814 3.39701 3.18979
# Velocity P-wave (km/s) = 4.83011 5.91453 5.39961
#
# Compressibility (1/GPa) = 0.04529918
#
# Stress axis : x y z
#
# Youngs Moduli (GPa) = 34.44486 17.40449 70.34164
#
# Poissons Ratio (x) = 0.19347 0.43034
# Poissons Ratio (y) = 0.38289 0.73641
# Poissons Ratio (z) = 0.21073 0.18221
#
# Static dielectric constant tensor:
#      x y z
#    x 1.692950 0.000000 0.018130 
#    y 0.000000 1.635160 0.000000 
#    z 0.018130 0.000000 1.643190 
# 
# From -- ./inp_files/359741.got.cif
#   From: 2010.05.17/outbox.cif.g08.bks.cpg/sg12_180_cif.got.tgz:359741.got - 2010.06.03 13:09:07.
