data_PCOD9193686
_publ_section_title
;
Structure prediction by ZEFSAII (Michael W. Deem and Ramdas Pophale) SiO2 
 PCOD9193686
Probable space group: C 2/M
;
_chemical_formula_sum "Si O2"
_cell_formula_units_Z 56
_cell_length_a 18.904767
_cell_length_b 8.113114
_cell_length_c 23.458270
_cell_angle_alpha 90.000000
_cell_angle_beta 52.813912
_cell_angle_gamma 90.000000
_cell_volume 2866.401368
_symmetry_space_group_name_H-M "C 2/M"
_symmetry_group_IT_number 12
_symmetry_cell_setting 'monoclinic'
loop_
_space_group_symop_operation_xyz
x,y,z
-x,y,-z
-x,-y,-z
x,-y,z
1/2+x,1/2+y,z
1/2-x,1/2+y,-z
1/2-x,1/2-y,-z
1/2+x,1/2-y,z
loop_
_atom_site_type_symbol
_atom_site_label
_atom_site_fract_x
_atom_site_fract_y
_atom_site_fract_z
Si Si1 0.023832 0.197247 0.362071
Si Si2 0.845053 0.803001 0.930856
Si Si3 0.622150 0.801369 0.776067
Si Si4 0.167155 0.800855 0.501712
Si Si5 0.813677 0.202006 0.638753
Si Si6 0.960191 0.695943 0.774759
Si Si7 0.505830 0.698851 0.932533
O O1 0.102868 0.258872 0.364266
O O2 0.042334 0.233259 0.287139
O O3 0.926605 0.260517 0.427456
O O4 0.021525 0.000000 0.370613
O O5 0.874622 0.737639 0.854770
O O6 0.920670 0.742778 0.937998
O O7 0.848627 0.000000 0.927052
O O8 0.750000 0.750000 0.000000
O O9 0.719657 0.743895 0.710779
O O10 0.546362 0.741679 0.768475
O O11 0.590943 0.750278 0.854187
O O12 0.621706 0.000000 0.773918
O O13 0.250000 0.750000 0.500000
O O14 0.178358 0.746168 0.430847
O O15 0.164785 0.000000 0.502374
O O16 0.813838 0.000000 0.639251
O O17 0.968117 0.500000 0.766344
O O18 0.503848 0.500000 0.934910
O O19 0.500000 0.759609 0.000000
#
# Coordination Sequence:
#
# PCOD9193686 Si02
#       7
#     8   8   8   8   8   8   8
#     4  10  20  34  54  79 105 136 175 216 259 308
#     4  10  20  35  55  78 106 139 176 217 260 310
#     4   9  18  33  53  74  98 133 174 212 252 304
#     4  10  20  35  56  79 105 139 176 214 258 311
#     4   9  18  34  54  77 105 136 172 214 260 310
#     4  10  20  35  54  76 105 139 174 214 261 311
#     4   9  19  35  53  74 102 134 168 210 259 307
#
# _framework density 19.536691999999999
#
# number of rings (size 3 to 8) (size 9 to 14) (size 15 to 20)
#    0.000    2.429    0.000    2.143    0.000    6.000 
#    0.000    5.000    0.000    1.714    0.000    0.000 
#    0.000    0.000    0.000    0.000    0.000    0.000 
#
# Total GULP energy -156298.287004 kJ/mol
# GULP energy per Si atom -5582.081679 kJ/mol
# Density = 1.949223 g / cm^3
# Si number density = 19.536692 Si / 1000 Ang^3
#
#
#
# Elastic Constant Matrix: (Units=GPa)
#
#
# Indices 1 2 3 4 5 6 
#
# 1 136.8867 6.8877 116.4097 0.0000 4.6881 0.0004
# 2 6.8877 6.8078 0.9763 0.0001 -1.5900 0.0006
# 3 116.4097 0.9763 204.9126 0.0000 0.8358 0.0000
# 4 0.0000 0.0001 0.0000 20.0797 0.0000 0.8049
# 5 4.6881 -1.5900 0.8358 0.0000 39.6796 0.0001
# 6 0.0004 0.0006 0.0000 0.8049 0.0001 19.5762
#
#
#
# Elastic Compliance Matrix: (Units=1/GPa)
#
#
# Indices 1 2 3 4 5 6 
#
# 1 0.015617 -0.015068 -0.008791 0.000000 -0.002264 0.000000
# 2 -0.015068 0.162927 0.007751 0.000000 0.008146 -0.000005
# 3 -0.008791 0.007751 0.009833 0.000000 0.001142 0.000000
# 4 0.000000 0.000000 0.000000 0.049884 0.000000 -0.002051
# 5 -0.002264 0.008146 0.001142 0.000000 0.025772 0.000000
# 6 0.000000 -0.000005 0.000000 -0.002051 0.000000 0.051167
#
#
# Mechanical properties :
#
#
# Convention : Reuss Voigt Hill
#
# Bulk Modulus (GPa) = 6.40369 66.35050 36.37710
# Shear Modulus (GPa) = 12.51662 30.82265 21.66963
#
# Velocity S-wave (km/s) = 2.53390 3.97631 3.33404
# Velocity P-wave (km/s) = 3.44176 7.42409 5.78631
#
# Compressibility (1/GPa) = 0.15615987
#
# Stress axis : x y z
#
# Youngs Moduli (GPa) = 64.03350 6.13771 101.70294
#
# Poissons Ratio (x) = 0.09248 0.89405
# Poissons Ratio (y) = 0.96488 -0.78827
# Poissons Ratio (z) = 0.56291 -0.04757
#
# Static dielectric constant tensor:
#      x y z
#    x 1.615910 0.000000 -0.231140 
#    y 0.000000 1.694620 0.000000 
#    z -0.231140 0.000000 0.802160 
# 
# From -- ./inp_files/342322.got.cif
#   From: 2010.05.17/outbox.cif.g08.bks.cpg/sg12_172_cif.got.tgz:342322.got - 2010.06.03 13:09:07.
