data_PCOD9193956
_publ_section_title
;
Structure prediction by ZEFSAII (Michael W. Deem and Ramdas Pophale) SiO2 
 PCOD9193956
Probable space group: C 2/M
;
_chemical_formula_sum "Si O2"
_cell_formula_units_Z 64
_cell_length_a 31.372938
_cell_length_b 8.542293
_cell_length_c 24.945803
_cell_angle_alpha 90.000000
_cell_angle_beta 29.396002
_cell_angle_gamma 90.000000
_cell_volume 3281.479611
_symmetry_space_group_name_H-M "C 2/M"
_symmetry_group_IT_number 12
_symmetry_cell_setting 'monoclinic'
loop_
_space_group_symop_operation_xyz
x,y,z
-x,y,-z
-x,-y,-z
x,-y,z
1/2+x,1/2+y,z
1/2-x,1/2+y,-z
1/2-x,1/2-y,-z
1/2+x,1/2-y,z
loop_
_atom_site_type_symbol
_atom_site_label
_atom_site_fract_x
_atom_site_fract_y
_atom_site_fract_z
Si Si1 0.775937 0.187042 0.643854
Si Si2 0.077825 0.682043 0.880859
Si Si3 0.081989 0.324900 0.756203
Si Si4 0.554157 0.314816 0.170100
Si Si5 0.423947 0.687190 0.727286
Si Si6 0.765846 0.311514 0.042885
Si Si7 0.450070 0.186307 0.501054
Si Si8 0.746603 0.824749 0.444729
O O1 0.678232 0.241926 0.768491
O O2 0.854521 0.243867 0.594982
O O3 0.795043 0.239889 0.561201
O O4 0.773430 0.000000 0.646352
O O5 0.086862 0.500000 0.889039
O O6 0.043030 0.678632 0.858031
O O7 0.000000 0.757738 0.000000
O O8 0.122181 0.500000 0.706906
O O9 0.152137 0.188338 0.679977
O O10 0.017850 0.290586 0.778638
O O11 0.537018 0.500000 0.183337
O O12 0.559412 0.279721 0.227898
O O13 0.644279 0.271300 0.041799
O O14 0.433743 0.500000 0.709839
O O15 0.322283 0.726870 0.828720
O O16 0.489269 0.771382 0.616016
O O17 0.775518 0.500000 0.031789
O O18 0.750000 0.250000 0.000000
O O19 0.500000 0.243127 0.500000
O O20 0.440790 0.000000 0.515173
O O21 0.750000 0.750000 0.500000
O O22 0.713059 0.000000 0.484357
#
# Coordination Sequence:
#
# PCOD9193956 Si02
#       8
#     8   8   8   8   8   8   8   8
#     4  10  21  39  64  90 118 155 198 246 300 354
#     4   8  16  35  61  87 115 148 191 239 287 343
#     4  10  20  34  54  84 119 152 192 238 287 342
#     4  10  20  34  54  83 119 153 190 236 290 353
#     4   9  20  37  58  81 108 148 197 243 293 354
#     4   9  17  32  53  79 110 144 185 232 283 343
#     4  11  25  43  61  84 118 157 201 253 305 358
#     4  11  22  37  58  85 121 157 194 237 290 356
#
# _framework density 19.503398000000001
#
# number of rings (size 3 to 8) (size 9 to 14) (size 15 to 20)
#    0.000    2.250    0.000    4.500    1.750    4.000 
#    2.250    0.000    0.000   12.750    0.000    0.000 
#    0.000    0.000    0.000    0.000    0.000    0.000 
#
# Total GULP energy -178196.354134 kJ/mol
# GULP energy per Si atom -5568.636067 kJ/mol
# Density = 1.945901 g / cm^3
# Si number density = 19.503398 Si / 1000 Ang^3
#
#
#
# Elastic Constant Matrix: (Units=GPa)
#
#
# Indices 1 2 3 4 5 6 
#
# 1 104.2554 30.2215 41.7489 -0.0046 -10.3505 0.0009
# 2 30.2215 52.1769 23.1194 -0.0195 3.4598 0.0019
# 3 41.7489 23.1194 89.1140 -0.0193 9.9221 0.0027
# 4 -0.0046 -0.0195 -0.0193 20.9620 0.0060 -6.0248
# 5 -10.3505 3.4598 9.9221 0.0060 19.6223 -0.0002
# 6 0.0009 0.0019 0.0027 -6.0248 -0.0002 27.0993
#
#
#
# Elastic Compliance Matrix: (Units=1/GPa)
#
#
# Indices 1 2 3 4 5 6 
#
# 1 0.015678 -0.006833 -0.007022 -0.000014 0.013026 -0.000002
# 2 -0.006833 0.024653 -0.002447 0.000022 -0.006714 0.000004
# 3 -0.007022 -0.002447 0.016436 0.000015 -0.011584 0.000002
# 4 -0.000014 0.000022 0.000015 0.050962 -0.000034 0.011330
# 5 0.013026 -0.006714 -0.011584 -0.000034 0.064874 -0.000006
# 6 -0.000002 0.000004 0.000002 0.011330 -0.000006 0.039420
#
#
# Mechanical properties :
#
#
# Convention : Reuss Voigt Hill
#
# Bulk Modulus (GPa) = 41.38782 48.41398 44.90090
# Shear Modulus (GPa) = 19.78768 23.56715 21.67741
#
# Velocity S-wave (km/s) = 3.18870 3.47992 3.33749
# Velocity P-wave (km/s) = 5.90118 6.40497 6.15823
#
# Compressibility (1/GPa) = 0.02416170
#
# Stress axis : x y z
#
# Youngs Moduli (GPa) = 63.78417 40.56339 60.84131
#
# Poissons Ratio (x) = 0.27716 0.42726
# Poissons Ratio (y) = 0.43583 0.14889
# Poissons Ratio (z) = 0.44792 0.09927
#
# Static dielectric constant tensor:
#      x y z
#    x 1.710140 0.000000 0.001340 
#    y 0.000000 1.690630 0.000000 
#    z 0.001340 0.000000 1.743660 
# 
# From -- ./inp_files/353401.got.cif
#   From: 2010.05.17/outbox.cif.g08.bks.cpg/sg12_177_cif.got.tgz:353401.got - 2010.06.03 13:09:07.
