data_PCOD9193406
_publ_section_title
;
Structure prediction by ZEFSAII (Michael W. Deem and Ramdas Pophale) SiO2 
 PCOD9193406
Probable space group: C 2/M
;
_chemical_formula_sum "Si O2"
_cell_formula_units_Z 56
_cell_length_a 18.921847
_cell_length_b 8.574223
_cell_length_c 30.086508
_cell_angle_alpha 90.000000
_cell_angle_beta 141.786000
_cell_angle_gamma 90.000000
_cell_volume 3019.536476
_symmetry_space_group_name_H-M "C 2/M"
_symmetry_group_IT_number 12
_symmetry_cell_setting 'monoclinic'
loop_
_space_group_symop_operation_xyz
x,y,z
-x,y,-z
-x,-y,-z
x,-y,z
1/2+x,1/2+y,z
1/2-x,1/2+y,-z
1/2-x,1/2-y,-z
1/2+x,1/2-y,z
loop_
_atom_site_type_symbol
_atom_site_label
_atom_site_fract_x
_atom_site_fract_y
_atom_site_fract_z
Si Si1 0.749271 0.810929 0.364958
Si Si2 0.086443 0.810912 0.634806
Si Si3 0.712198 0.813741 0.934086
Si Si4 0.369477 0.811380 0.933556
Si Si5 0.329648 0.185962 0.499878
Si Si6 0.511983 0.811673 0.773548
Si Si7 0.330080 0.311906 0.227253
O O1 0.837159 0.762984 0.369678
O O2 0.784666 0.745133 0.430113
O O3 0.619474 0.762150 0.289855
O O4 0.751795 0.000000 0.368518
O O5 0.143685 0.761709 0.709702
O O6 0.958953 0.745518 0.569428
O O7 0.080414 0.000000 0.631428
O O8 0.801640 0.755553 0.941730
O O9 0.588554 0.762386 0.853721
O O10 0.711642 0.000000 0.935650
O O11 0.750000 0.750000 0.000000
O O12 0.294417 0.766277 0.853342
O O13 0.368836 0.000000 0.935653
O O14 0.500000 0.758574 0.000000
O O15 0.250000 0.250000 0.500000
O O16 0.327284 0.000000 0.499994
O O17 0.576160 0.750907 0.761209
O O18 0.513865 0.000000 0.772879
O O19 0.335819 0.500000 0.229097
#
# Coordination Sequence:
#
# PCOD9193406 Si02
#       7
#     8   8   8   8   8   8   8
#     4  10  21  38  59  83 112 143 176 218 268 318
#     4  10  21  37  57  82 112 143 176 218 267 317
#     4  10  20  34  53  78 109 143 181 224 269 318
#     4   9  18  33  54  79 108 142 180 223 270 320
#     4  12  25  40  59  82 109 142 181 221 264 317
#     4   9  19  35  55  78 105 141 181 221 266 318
#     4   9  18  33  54  79 106 140 181 222 265 317
#
# _framework density 18.545894000000001
#
# number of rings (size 3 to 8) (size 9 to 14) (size 15 to 20)
#    0.000    2.143    0.000    3.000    0.000    7.714 
#    0.000    4.286    0.000    1.714    0.000    0.000 
#    0.000    0.000    0.000    0.000    0.000    0.000 
#
# Total GULP energy -156307.345684 kJ/mol
# GULP energy per Si atom -5582.405203 kJ/mol
# Density = 1.850368 g / cm^3
# Si number density = 18.545894 Si / 1000 Ang^3
#
#
#
# Elastic Constant Matrix: (Units=GPa)
#
#
# Indices 1 2 3 4 5 6 
#
# 1 151.5024 35.2227 133.2707 0.0000 2.6567 0.0001
# 2 35.2227 17.9866 43.7910 0.0000 3.1539 0.0002
# 3 133.2707 43.7910 217.7381 0.0000 -0.2474 0.0000
# 4 0.0000 0.0000 0.0000 19.0359 0.0000 -1.3830
# 5 2.6567 3.1539 -0.2474 0.0000 38.8352 0.0000
# 6 0.0001 0.0002 0.0000 -1.3830 0.0000 28.7240
#
#
#
# Elastic Compliance Matrix: (Units=1/GPa)
#
#
# Indices 1 2 3 4 5 6 
#
# 1 0.016075 -0.014764 -0.006870 0.000000 0.000056 0.000000
# 2 -0.014764 0.125728 -0.016260 0.000000 -0.009304 -0.000001
# 3 -0.006870 -0.016260 0.012070 0.000000 0.001867 0.000000
# 4 0.000000 0.000000 0.000000 0.052717 0.000000 0.002538
# 5 0.000056 -0.009304 0.001867 0.000000 0.026514 0.000000
# 6 0.000000 -0.000001 0.000000 0.002538 0.000000 0.034936
#
#
# Mechanical properties :
#
#
# Convention : Reuss Voigt Hill
#
# Bulk Modulus (GPa) = 12.80655 90.19954 51.50304
# Shear Modulus (GPa) = 13.51883 28.98185 21.25034
#
# Velocity S-wave (km/s) = 2.70282 3.95740 3.38868
# Velocity P-wave (km/s) = 4.08174 8.34403 6.56823
#
# Compressibility (1/GPa) = 0.07808505
#
# Stress axis : x y z
#
# Youngs Moduli (GPa) = 62.20851 7.95371 82.85180
#
# Poissons Ratio (x) = 0.11743 0.56917
# Poissons Ratio (y) = 0.91843 1.34719
# Poissons Ratio (z) = 0.42735 0.12933
#
# Static dielectric constant tensor:
#      x y z
#    x 1.599120 0.000000 0.005160 
#    y 0.000000 1.632190 0.000000 
#    z 0.005160 0.000000 1.653190 
# 
# From -- ./inp_files/342327.got.cif
#   From: 2010.05.17/outbox.cif.g08.bks.cpg/sg12_172_cif.got.tgz:342327.got - 2010.06.03 13:09:07.
