data_PCOD9193216
_publ_section_title
;
Structure prediction by ZEFSAII (Michael W. Deem and Ramdas Pophale) SiO2 
 PCOD9193216
Probable space group: C 2/M
;
_chemical_formula_sum "Si O2"
_cell_formula_units_Z 60
_cell_length_a 30.074627
_cell_length_b 13.261710
_cell_length_c 16.407320
_cell_angle_alpha 90.000000
_cell_angle_beta 152.366631
_cell_angle_gamma 90.000000
_cell_volume 3035.145261
_symmetry_space_group_name_H-M "C 2/M"
_symmetry_group_IT_number 12
_symmetry_cell_setting 'monoclinic'
loop_
_space_group_symop_operation_xyz
x,y,z
-x,y,-z
-x,-y,-z
x,-y,z
1/2+x,1/2+y,z
1/2-x,1/2+y,-z
1/2-x,1/2-y,-z
1/2+x,1/2-y,z
loop_
_atom_site_type_symbol
_atom_site_label
_atom_site_fract_x
_atom_site_fract_y
_atom_site_fract_z
Si Si1 0.014980 0.729556 0.671216
Si Si2 0.684867 0.113683 0.885085
Si Si3 0.776650 0.760018 0.761552
Si Si4 0.113883 0.618862 0.416432
Si Si5 0.310927 0.611331 0.246086
Si Si6 0.042330 0.383014 0.978024
Si Si7 0.350354 0.381659 0.024792
Si Si8 0.500000 0.346883 0.500000
O O1 0.093093 0.683500 0.736443
O O2 0.064093 0.805305 0.814404
O O3 0.960396 0.798490 0.518410
O O4 0.953259 0.645383 0.614738
O O5 0.656844 0.000000 0.819555
O O6 0.721993 0.117486 0.037949
O O7 0.764990 0.143279 0.950121
O O8 0.704995 0.806862 0.577194
O O9 0.719428 0.688889 0.732193
O O10 0.868231 0.693381 0.883524
O O11 0.813410 0.854158 0.875300
O O12 0.139551 0.500000 0.456977
O O13 0.044072 0.639555 0.226064
O O14 0.316932 0.500000 0.295120
O O15 0.397513 0.605098 0.317367
O O16 0.072339 0.500000 0.010050
O O17 0.000000 0.378614 0.000000
O O18 0.374109 0.500000 0.071689
#
# Coordination Sequence:
#
# PCOD9193216 Si02
#       8
#     8   8   8   8   8   8   8   4
#     4  12  21  37  54  80 119 168 215 260 305 362
#     4  10  20  34  53  75 109 161 218 264 299 346
#     4  12  22  40  64  93 127 164 202 254 314 382
#     4  11  24  42  65  95 128 164 205 254 313 377
#     4  11  21  34  54  80 114 160 210 257 301 347
#     4  10  23  46  75 101 124 156 201 254 315 384
#     4  11  22  35  54  82 119 167 213 259 313 367
#     4  12  23  32  49  78 122 164 213 264 299 340
#
# _framework density 19.768411
#
# number of rings (size 3 to 8) (size 9 to 14) (size 15 to 20)
#    0.000    0.933    5.333    2.600    0.000    3.200 
#    0.000    0.667    0.000    1.600    0.000    0.000 
#    0.000    0.000    0.000    0.000    0.000    0.000 
#
# Total GULP energy -167090.930499 kJ/mol
# GULP energy per Si atom -5569.697683 kJ/mol
# Density = 1.972342 g / cm^3
# Si number density = 19.768411 Si / 1000 Ang^3
#
#
#
# Elastic Constant Matrix: (Units=GPa)
#
#
# Indices 1 2 3 4 5 6 
#
# 1 52.9621 29.6331 39.1165 0.0000 -0.8069 0.0000
# 2 29.6331 82.5400 19.2642 0.0000 2.3487 0.0000
# 3 39.1165 19.2642 63.1904 0.0000 2.5357 0.0000
# 4 0.0000 0.0000 0.0000 24.7986 0.0000 -10.3797
# 5 -0.8069 2.3487 2.5357 0.0000 22.4955 0.0000
# 6 0.0000 0.0000 0.0000 -10.3797 0.0000 28.0335
#
#
#
# Elastic Compliance Matrix: (Units=1/GPa)
#
#
# Indices 1 2 3 4 5 6 
#
# 1 0.041115 -0.009600 -0.022727 0.000000 0.005039 0.000000
# 2 -0.009600 0.015304 0.001361 0.000000 -0.002096 0.000000
# 3 -0.022727 0.001361 0.029651 0.000000 -0.004300 0.000000
# 4 0.000000 0.000000 0.000000 0.047720 0.000000 0.017669
# 5 0.005039 -0.002096 -0.004300 0.000000 0.045337 0.000000
# 6 0.000000 0.000000 0.000000 0.017669 0.000000 0.042214
#
#
# Mechanical properties :
#
#
# Convention : Reuss Voigt Hill
#
# Bulk Modulus (GPa) = 41.42693 41.63555 41.53124
# Shear Modulus (GPa) = 17.16334 22.44412 19.80373
#
# Velocity S-wave (km/s) = 2.94975 3.37316 3.16854
# Velocity P-wave (km/s) = 5.70991 6.02315 5.86862
#
# Compressibility (1/GPa) = 0.02413889
#
# Stress axis : x y z
#
# Youngs Moduli (GPa) = 24.32206 65.34313 33.72552
#
# Poissons Ratio (x) = 0.62730 0.76647
# Poissons Ratio (y) = 0.23349 -0.04591
# Poissons Ratio (z) = 0.55276 -0.08895
#
# Static dielectric constant tensor:
#      x y z
#    x 1.657000 0.000000 0.021780 
#    y 0.000000 1.895580 0.000000 
#    z 0.021780 0.000000 1.821660 
# 
# From -- ./inp_files/246724.got.cif
#   From: 2010.05.17/outbox.cif.g08.bks.cpg/sg12_124_cif.got.tgz:246724.got - 2010.06.03 13:09:07.
