data_PCOD9193520
_publ_section_title
;
Structure prediction by ZEFSAII (Michael W. Deem and Ramdas Pophale) SiO2 
 PCOD9193520
Probable space group: C 2/M
;
_chemical_formula_sum "Si O2"
_cell_formula_units_Z 48
_cell_length_a 9.669436
_cell_length_b 16.381852
_cell_length_c 20.528344
_cell_angle_alpha 90.000000
_cell_angle_beta 40.038190
_cell_angle_gamma 90.000000
_cell_volume 2091.848868
_symmetry_space_group_name_H-M "C 2/M"
_symmetry_group_IT_number 12
_symmetry_cell_setting 'monoclinic'
loop_
_space_group_symop_operation_xyz
x,y,z
-x,y,-z
-x,-y,-z
x,-y,z
1/2+x,1/2+y,z
1/2-x,1/2+y,-z
1/2-x,1/2-y,-z
1/2+x,1/2-y,z
loop_
_atom_site_type_symbol
_atom_site_label
_atom_site_fract_x
_atom_site_fract_y
_atom_site_fract_z
Si Si1 0.818069 0.256293 0.302467
Si Si2 0.075255 0.087476 0.047213
Si Si3 0.726482 0.737291 0.826669
Si Si4 0.411734 0.088081 0.130133
Si Si5 0.743694 0.590731 0.598926
Si Si6 0.626334 0.411612 0.366014
O O1 0.705324 0.245671 0.273408
O O2 0.822339 0.169182 0.335570
O O3 0.695408 0.331598 0.380281
O O4 0.065273 0.285560 0.206958
O O5 0.958626 0.169789 0.111427
O O6 0.009707 0.000000 0.102298
O O7 0.331869 0.091828 0.956523
O O8 0.000000 0.082935 0.000000
O O9 0.655945 0.826430 0.877001
O O10 0.287061 0.086982 0.244624
O O11 0.356643 0.000000 0.118474
O O12 0.688920 0.500000 0.645927
O O13 0.610599 0.595390 0.579597
O O14 0.000000 0.594233 0.500000
O O15 0.653453 0.500000 0.388429
#
# Coordination Sequence:
#
# PCOD9193520 Si02
#       6
#     8   8   8   8   8   8
#     4  11  21  38  60  89 116 155 194 243 296 349
#     4  10  20  34  53  80 115 155 198 242 290 339
#     4  11  22  35  57  86 118 152 198 241 293 336
#     4   9  17  32  53  75 107 154 194 230 276 337
#     4  10  21  39  64  89 116 154 194 237 295 362
#     4   9  18  36  59  83 115 157 196 229 290 360
#
# _framework density 22.946210000000001
#
# number of rings (size 3 to 8) (size 9 to 14) (size 15 to 20)
#    0.000    2.000    3.333    2.500    0.000    3.333 
#    0.000    0.000    0.000    3.000    0.000    0.000 
#    0.000    0.000    0.000    0.000    0.000    0.000 
#
# Total GULP energy -133832.541033 kJ/mol
# GULP energy per Si atom -5576.355876 kJ/mol
# Density = 2.289398 g / cm^3
# Si number density = 22.946210 Si / 1000 Ang^3
#
#
#
# Elastic Constant Matrix: (Units=GPa)
#
#
# Indices 1 2 3 4 5 6 
#
# 1 39.6780 27.5325 8.9581 0.0020 -19.7834 0.0018
# 2 27.5325 200.9332 40.3512 -0.0009 -19.8649 -0.0054
# 3 8.9581 40.3512 81.2347 0.0054 -27.0569 0.0046
# 4 0.0020 -0.0009 0.0054 14.8546 -0.0021 -17.9706
# 5 -19.7834 -19.8649 -27.0569 -0.0021 40.1486 0.0004
# 6 0.0018 -0.0054 0.0046 -17.9706 0.0004 82.3908
#
#
#
# Elastic Compliance Matrix: (Units=1/GPa)
#
#
# Indices 1 2 3 4 5 6 
#
# 1 0.036386 -0.003975 0.004228 -0.000008 0.018812 -0.000003
# 2 -0.003975 0.006003 -0.002845 0.000004 -0.000906 0.000001
# 3 0.004228 -0.002845 0.017384 -0.000009 0.012391 -0.000003
# 4 -0.000008 0.000004 -0.000009 0.091450 -0.000004 0.019947
# 5 0.018812 -0.000906 0.012391 -0.000004 0.042079 -0.000002
# 6 -0.000003 0.000001 -0.000003 0.019947 -0.000002 0.016488
#
#
# Mechanical properties :
#
#
# Convention : Reuss Voigt Hill
#
# Bulk Modulus (GPa) = 18.31897 52.83662 35.57780
# Shear Modulus (GPa) = 21.44334 43.81238 32.62786
#
# Velocity S-wave (km/s) = 3.06028 4.37435 3.77494
# Velocity P-wave (km/s) = 4.52635 6.97062 5.87697
#
# Compressibility (1/GPa) = 0.05458821
#
# Stress axis : x y z
#
# Youngs Moduli (GPa) = 27.48303 166.57558 57.52347
#
# Poissons Ratio (x) = 0.66213 -0.24319
# Poissons Ratio (y) = 0.10924 0.16367
# Poissons Ratio (z) = -0.11619 0.47397
#
# Static dielectric constant tensor:
#      x y z
#    x 1.824180 0.000000 0.066210 
#    y 0.000000 1.990130 0.000000 
#    z 0.066210 0.000000 1.913100 
# 
# From -- ./inp_files/251497.got.cif
#   From: 2010.05.17/outbox.cif.g08.bks.cpg/sg12_126_cif.got.tgz:251497.got - 2010.06.03 13:09:07.
