data_PCOD9193538
_publ_section_title
;
Structure prediction by ZEFSAII (Michael W. Deem and Ramdas Pophale) SiO2 
 PCOD9193538
Probable space group: C 2/M
;
_chemical_formula_sum "Si O2"
_cell_formula_units_Z 56
_cell_length_a 23.947291
_cell_length_b 7.613518
_cell_length_c 16.331301
_cell_angle_alpha 90.000000
_cell_angle_beta 123.029629
_cell_angle_gamma 90.000000
_cell_volume 2496.364667
_symmetry_space_group_name_H-M "C 2/M"
_symmetry_group_IT_number 12
_symmetry_cell_setting 'monoclinic'
loop_
_space_group_symop_operation_xyz
x,y,z
-x,y,-z
-x,-y,-z
x,-y,z
1/2+x,1/2+y,z
1/2-x,1/2+y,-z
1/2-x,1/2-y,-z
1/2+x,1/2-y,z
loop_
_atom_site_type_symbol
_atom_site_label
_atom_site_fract_x
_atom_site_fract_y
_atom_site_fract_z
Si Si1 0.965364 0.796620 0.392067
Si Si2 0.451719 0.706462 0.204074
Si Si3 0.670239 0.213822 0.639442
Si Si4 0.312776 0.289463 0.821965
Si Si5 0.319888 0.288580 0.013186
Si Si6 0.326950 0.789538 0.542859
Si Si7 0.415251 0.791163 0.763949
O O1 0.976459 0.717332 0.310994
O O2 0.886710 0.784862 0.346887
O O3 0.000000 0.714526 0.500000
O O4 0.987825 0.000000 0.407455
O O5 0.440291 0.500000 0.210979
O O6 0.510065 0.722757 0.184596
O O7 0.382487 0.780646 0.115210
O O8 0.743845 0.272187 0.725388
O O9 0.656290 0.272976 0.535133
O O10 0.668032 0.000000 0.639892
O O11 0.307116 0.500000 0.821759
O O12 0.320130 0.221973 0.920096
O O13 0.374935 0.249262 0.813690
O O14 0.327063 0.500000 0.014809
O O15 0.250000 0.250000 0.000000
O O16 0.250000 0.750000 0.500000
O O17 0.372684 0.719604 0.652590
O O18 0.333919 0.000000 0.547315
O O19 0.418794 0.000000 0.759195
#
# Coordination Sequence:
#
# PCOD9193538 Si02
#       7
#     8   8   8   8   8   8   8
#     4  10  21  36  55  81 111 147 188 228 278 337
#     4  10  22  40  59  81 115 154 189 232 287 343
#     4  10  20  34  55  82 111 145 184 230 282 333
#     4  10  21  38  59  83 113 149 189 232 285 344
#     4  10  22  40  63  88 112 147 192 237 288 342
#     4  10  20  34  53  81 115 150 188 228 277 335
#     4  11  23  37  57  87 117 149 193 237 282 336
#
# _framework density 22.432621000000001
#
# number of rings (size 3 to 8) (size 9 to 14) (size 15 to 20)
#    0.000    1.857    1.429    2.143    0.000    4.286 
#    0.000    2.857    0.000    0.000    0.000    0.000 
#    0.000    0.000    0.000    0.000    0.000    0.000 
#
# Total GULP energy -156532.870848 kJ/mol
# GULP energy per Si atom -5590.459673 kJ/mol
# Density = 2.238156 g / cm^3
# Si number density = 22.432621 Si / 1000 Ang^3
#
#
#
# Elastic Constant Matrix: (Units=GPa)
#
#
# Indices 1 2 3 4 5 6 
#
# 1 135.5069 -17.7089 62.1806 0.0000 -1.6561 0.0000
# 2 -17.7089 48.8062 12.7528 0.0000 -2.4452 0.0000
# 3 62.1806 12.7528 150.0125 0.0000 -8.1505 0.0000
# 4 0.0000 0.0000 0.0000 -2.1502 0.0000 1.5245
# 5 -1.6561 -2.4452 -8.1505 0.0000 41.5714 0.0000
# 6 0.0000 0.0000 0.0000 1.5245 0.0000 28.9556
#
#
#
# Elastic Compliance Matrix: (Units=1/GPa)
#
#
# Indices 1 2 3 4 5 6 
#
# 1 0.010138 0.004877 -0.004629 0.000000 -0.000217 0.000000
# 2 0.004877 0.023334 -0.003962 0.000000 0.000790 0.000000
# 3 -0.004629 -0.003962 0.008995 0.000000 0.001346 0.000000
# 4 0.000000 0.000000 0.000000 -0.448337 0.000000 0.023605
# 5 -0.000217 0.000790 0.001346 0.000000 0.024357 0.000000
# 6 0.000000 0.000000 0.000000 0.023605 0.000000 0.033293
#
#
# Mechanical properties :
#
#
# Convention : Reuss Voigt Hill
#
# Bulk Modulus (GPa) = 28.53941 49.86383 39.20162
# Shear Modulus (GPa) = -15.19237 32.14877 8.47820
#
# Velocity S-wave (km/s) = -2.60522 3.78977 1.94618
# Velocity P-wave (km/s) = 1.92363 6.43633 4.75009
#
# Compressibility (1/GPa) = 0.03503926
#
# Stress axis : x y z
#
# Youngs Moduli (GPa) = 98.63393 42.85621 111.17582
#
# Poissons Ratio (x) = -0.20902 0.51462
# Poissons Ratio (y) = -0.48107 0.44052
# Poissons Ratio (z) = 0.45656 0.16981
#
# Static dielectric constant tensor:
#      x y z
#    x 1.779600 0.000000 -0.004520 
#    y 0.000000 2.098250 0.000000 
#    z -0.004520 0.000000 1.860130 
# 
# From -- ./inp_files/238975.got.cif
#   From: 2010.05.17/outbox.cif.g08.bks.cpg/sg12_120_cif.got.tgz:238975.got - 2010.06.03 13:09:07.
