data_PCOD9193872
_publ_section_title
;
Structure prediction by ZEFSAII (Michael W. Deem and Ramdas Pophale) SiO2 
 PCOD9193872
Probable space group: C 2/M
;
_chemical_formula_sum "Si O2"
_cell_formula_units_Z 64
_cell_length_a 12.545890
_cell_length_b 12.828931
_cell_length_c 25.991269
_cell_angle_alpha 90.000000
_cell_angle_beta 62.709215
_cell_angle_gamma 90.000000
_cell_volume 3717.664585
_symmetry_space_group_name_H-M "C 2/M"
_symmetry_group_IT_number 12
_symmetry_cell_setting 'monoclinic'
loop_
_space_group_symop_operation_xyz
x,y,z
-x,y,-z
-x,-y,-z
x,-y,z
1/2+x,1/2+y,z
1/2-x,1/2+y,-z
1/2-x,1/2-y,-z
1/2+x,1/2-y,z
loop_
_atom_site_type_symbol
_atom_site_label
_atom_site_fract_x
_atom_site_fract_y
_atom_site_fract_z
Si Si1 0.947191 0.122214 0.138135
Si Si2 0.006692 0.263303 0.215599
Si Si3 0.795416 0.622068 0.318631
Si Si4 0.221384 0.376966 0.110861
Si Si5 0.438797 0.622979 0.699767
Si Si6 0.609993 0.626823 0.012285
Si Si7 0.881914 0.622495 0.491475
Si Si8 0.839432 0.768305 0.404612
O O1 0.833941 0.133491 0.125158
O O2 0.935862 0.190354 0.191262
O O3 0.066215 0.153430 0.079094
O O4 0.957152 0.000000 0.148876
O O5 0.110201 0.319122 0.160379
O O6 0.061608 0.191068 0.248287
O O7 0.915506 0.344262 0.261829
O O8 0.799563 0.500000 0.331638
O O9 0.680920 0.639003 0.307285
O O10 0.789741 0.695176 0.369914
O O11 0.194030 0.500000 0.112867
O O12 0.269766 0.340198 0.044062
O O13 0.449309 0.500000 0.708903
O O14 0.553224 0.662494 0.641977
O O15 0.611376 0.500000 0.010689
O O16 0.500000 0.660565 0.000000
O O17 0.871919 0.500000 0.480978
O O18 0.886664 0.693102 0.439483
O O19 0.765948 0.660769 0.548880
O O20 0.000000 0.637388 0.500000
#
# Coordination Sequence:
#
# PCOD9193872 Si02
#       8
#     8   8   8   8   8   8   8   8
#     4   9  17  30  47  67  92 121 154 194 240 291
#     4  11  20  30  48  72  94 121 160 202 244 283
#     4  10  21  36  51  69  97 131 165 200 234 272
#     4   9  17  30  47  67  92 121 154 194 240 291
#     4  10  21  36  51  69  97 131 165 200 234 272
#     4   7  12  25  44  64  88 118 150 188 236 288
#     4  10  20  34  54  82 110 128 150 194 242 276
#     4  10  20  35  56  77  98 132 168 190 224 282
#
# _framework density 17.215108000000001
#
# number of rings (size 3 to 8) (size 9 to 14) (size 15 to 20)
#    0.000    2.500    0.000    4.500    0.000    0.500 
#    0.000    0.000    0.000   18.000    0.000    0.000 
#    0.000   16.000    0.000    0.000    0.000    0.000 
#
# Total GULP energy -178373.433194 kJ/mol
# GULP energy per Si atom -5574.169787 kJ/mol
# Density = 1.717593 g / cm^3
# Si number density = 17.215108 Si / 1000 Ang^3
#
#
#
# Elastic Constant Matrix: (Units=GPa)
#
#
# Indices 1 2 3 4 5 6 
#
# 1 43.8558 27.8573 -3.0438 0.0000 -2.6883 0.0000
# 2 27.8573 52.2123 0.4980 0.0000 -0.5608 0.0000
# 3 -3.0438 0.4980 38.5440 0.0000 -4.7108 0.0000
# 4 0.0000 0.0000 0.0000 43.9381 0.0000 -14.7807
# 5 -2.6883 -0.5608 -4.7108 0.0000 22.2697 0.0000
# 6 0.0000 0.0000 0.0000 -14.7807 0.0000 17.7883
#
#
#
# Elastic Compliance Matrix: (Units=1/GPa)
#
#
# Indices 1 2 3 4 5 6 
#
# 1 0.035275 -0.018806 0.003584 0.000000 0.004543 0.000000
# 2 -0.018806 0.029185 -0.002104 0.000000 -0.001980 0.000000
# 3 0.003584 -0.002104 0.026999 0.000000 0.006091 0.000000
# 4 0.000000 0.000000 0.000000 0.031589 0.000000 0.026248
# 5 0.004543 -0.001980 0.006091 0.000000 0.046691 0.000000
# 6 0.000000 0.000000 0.000000 0.026248 0.000000 0.078027
#
#
# Mechanical properties :
#
#
# Convention : Reuss Voigt Hill
#
# Bulk Modulus (GPa) = 17.60368 20.58168 19.09268
# Shear Modulus (GPa) = 16.59180 24.08593 20.33886
#
# Velocity S-wave (km/s) = 3.10787 3.74453 3.44096
# Velocity P-wave (km/s) = 4.80899 5.53867 5.18668
#
# Compressibility (1/GPa) = 0.05680630
#
# Stress axis : x y z
#
# Youngs Moduli (GPa) = 28.34894 34.26415 37.03844
#
# Poissons Ratio (x) = 0.64437 -0.13274
# Poissons Ratio (y) = 0.53313 0.07794
# Poissons Ratio (z) = -0.10160 0.07210
#
# Static dielectric constant tensor:
#      x y z
#    x 1.564170 0.000000 -0.006040 
#    y 0.000000 1.561900 0.000000 
#    z -0.006040 0.000000 1.582190 
# 
# From -- ./inp_files/335183.got.cif
#   From: 2010.05.17/outbox.cif.g08.bks.cpg/sg12_168_cif.got.tgz:335183.got - 2010.06.03 13:09:07.
