data_PCOD9193741
_publ_section_title
;
Structure prediction by ZEFSAII (Michael W. Deem and Ramdas Pophale) SiO2 
 PCOD9193741
Probable space group: C 2/M
;
_chemical_formula_sum "Si O2"
_cell_formula_units_Z 40
_cell_length_a 27.086274
_cell_length_b 9.207802
_cell_length_c 11.722674
_cell_angle_alpha 90.000000
_cell_angle_beta 127.228780
_cell_angle_gamma 90.000000
_cell_volume 2327.921597
_symmetry_space_group_name_H-M "C 2/M"
_symmetry_group_IT_number 12
_symmetry_cell_setting 'monoclinic'
loop_
_space_group_symop_operation_xyz
x,y,z
-x,y,-z
-x,-y,-z
x,-y,z
1/2+x,1/2+y,z
1/2-x,1/2+y,-z
1/2-x,1/2-y,-z
1/2+x,1/2-y,z
loop_
_atom_site_type_symbol
_atom_site_label
_atom_site_fract_x
_atom_site_fract_y
_atom_site_fract_z
Si Si1 0.029955 0.327117 0.222795
Si Si2 0.941295 0.828073 0.501002
Si Si3 0.901181 0.672469 0.912440
Si Si4 0.833869 0.671782 0.213135
Si Si5 0.189272 0.171195 0.055126
O O1 0.033768 0.500000 0.251774
O O2 0.043151 0.237219 0.353961
O O3 0.077875 0.294144 0.187242
O O4 0.961590 0.298987 0.075804
O O5 0.882918 0.746883 0.364153
O O6 0.000000 0.805276 0.500000
O O7 0.929491 0.000000 0.491853
O O8 0.888339 0.500000 0.901189
O O9 0.844503 0.763146 0.882448
O O10 0.846094 0.500000 0.220342
O O11 0.763470 0.691557 0.159220
O O12 0.836060 0.745444 0.091739
O O13 0.176636 0.000000 0.026564
#
# Coordination Sequence:
#
# PCOD9193741 Si02
#       5
#     8   8   8   8   8
#     4   9  19  35  54  78 106 137 175 211 249 307
#     4  11  23  36  52  78 108 135 168 214 263 305
#     4   9  18  34  56  79 104 137 174 211 253 304
#     4  10  21  36  54  76 104 139 175 210 253 308
#     4  10  20  34  54  80 106 133 171 216 258 302
#
# _framework density 17.18271
#
# number of rings (size 3 to 8) (size 9 to 14) (size 15 to 20)
#    0.000    2.200    0.000    4.200    0.000    8.800 
#    0.000    3.000    0.000    0.000    0.000    0.000 
#    0.000    0.000    0.000    0.000    0.000    0.000 
#
# Total GULP energy -111676.321529 kJ/mol
# GULP energy per Si atom -5583.816076 kJ/mol
# Density = 1.714360 g / cm^3
# Si number density = 17.182710 Si / 1000 Ang^3
#
#
#
# Elastic Constant Matrix: (Units=GPa)
#
#
# Indices 1 2 3 4 5 6 
#
# 1 103.0217 78.7187 44.3036 0.0000 -15.7043 0.0000
# 2 78.7187 103.3884 77.2586 0.0000 -11.0538 0.0000
# 3 44.3036 77.2586 109.8531 0.0000 -18.2133 0.0000
# 4 0.0000 0.0000 0.0000 15.6924 0.0000 -23.3936
# 5 -15.7043 -11.0538 -18.2133 0.0000 13.4234 0.0000
# 6 0.0000 0.0000 0.0000 -23.3936 0.0000 -5.2479
#
#
#
# Elastic Compliance Matrix: (Units=1/GPa)
#
#
# Indices 1 2 3 4 5 6 
#
# 1 0.034185 -0.034335 0.015875 0.000000 0.033259 0.000000
# 2 -0.034335 0.054995 -0.030943 0.000000 -0.036866 0.000000
# 3 0.015875 -0.030943 0.030085 0.000000 0.033912 0.000000
# 4 0.000000 0.000000 0.000000 0.008335 0.000000 -0.037156
# 5 0.033259 -0.036866 0.033912 0.000000 0.129062 0.000000
# 6 0.000000 0.000000 0.000000 -0.037156 0.000000 -0.024924
#
#
# Mechanical properties :
#
#
# Convention : Reuss Voigt Hill
#
# Bulk Modulus (GPa) = 48.87601 79.64723 64.26162
# Shear Modulus (GPa) = 14.82078 12.50573 13.66326
#
# Velocity S-wave (km/s) = 2.94009 2.70072 2.82294
# Velocity P-wave (km/s) = 6.32710 7.49526 6.93582
#
# Compressibility (1/GPa) = 0.02045993
#
# Stress axis : x y z
#
# Youngs Moduli (GPa) = 29.25256 18.18337 33.23931
#
# Poissons Ratio (x) = 0.62432 -0.52767
# Poissons Ratio (y) = 1.00438 1.02851
# Poissons Ratio (z) = -0.46438 0.56264
#
# Static dielectric constant tensor:
#      x y z
#    x 1.578390 0.000000 0.005040 
#    y 0.000000 1.567490 0.000000 
#    z 0.005040 0.000000 1.548610 
# 
# From -- ./inp_files/92806.got.cif
#   From: 2010.05.17/outbox.cif.g08.bks.cpg/sg12_47_cif.got.tgz:92806.got - 2010.06.03 13:09:07.
