data_PCOD9193916
_publ_section_title
;
Structure prediction by ZEFSAII (Michael W. Deem and Ramdas Pophale) SiO2 
 PCOD9193916
Probable space group: C 2/M
;
_chemical_formula_sum "Si O2"
_cell_formula_units_Z 56
_cell_length_a 14.790963
_cell_length_b 14.514838
_cell_length_c 25.729962
_cell_angle_alpha 90.000000
_cell_angle_beta 28.466746
_cell_angle_gamma 90.000000
_cell_volume 2632.971329
_symmetry_space_group_name_H-M "C 2/M"
_symmetry_group_IT_number 12
_symmetry_cell_setting 'monoclinic'
loop_
_space_group_symop_operation_xyz
x,y,z
-x,y,-z
-x,-y,-z
x,-y,z
1/2+x,1/2+y,z
1/2-x,1/2+y,-z
1/2-x,1/2-y,-z
1/2+x,1/2-y,z
loop_
_atom_site_type_symbol
_atom_site_label
_atom_site_fract_x
_atom_site_fract_y
_atom_site_fract_z
Si Si1 0.188153 0.739058 0.916079
Si Si2 0.510660 0.753940 0.324680
Si Si3 0.823558 0.608560 0.682838
Si Si4 0.147126 0.399253 0.009926
Si Si5 0.249334 0.610900 0.734506
Si Si6 0.715809 0.262522 0.380808
Si Si7 0.953645 0.099523 0.940934
O O1 0.319888 0.765841 0.803009
O O2 0.280184 0.671368 0.910872
O O3 0.095839 0.821851 0.994086
O O4 0.000000 0.678062 0.000000
O O5 0.520155 0.837755 0.361029
O O6 0.574896 0.663573 0.325532
O O7 0.329979 0.753839 0.377451
O O8 0.861315 0.500000 0.656741
O O9 0.794675 0.664998 0.644338
O O10 0.629973 0.618809 0.814045
O O11 0.143898 0.500000 0.986467
O O12 0.935788 0.373234 0.135692
O O13 0.263104 0.407012 0.004374
O O14 0.275155 0.500000 0.716078
O O15 0.210514 0.662719 0.699104
O O16 0.500000 0.291158 0.500000
O O17 0.994616 0.000000 0.944221
#
# Coordination Sequence:
#
# PCOD9193916 Si02
#       7
#     8   8   8   8   8   8   8
#     4  12  19  31  55  85 116 154 186 226 279 339
#     4  11  23  40  61  91 123 157 200 248 293 351
#     4  10  22  41  62  89 123 157 197 247 299 354
#     4  10  20  34  54  82 118 157 193 231 280 344
#     4  10  22  41  62  89 123 157 197 247 299 354
#     4  11  25  44  65  87 115 154 203 255 308 358
#     4  10  20  34  54  82 118 157 193 231 280 344
#
# _framework density 21.268746
#
# number of rings (size 3 to 8) (size 9 to 14) (size 15 to 20)
#    0.000    1.429    2.857    3.000    0.000    5.714 
#    0.000    1.429    0.000    0.000    0.000    0.000 
#    0.000    0.000    0.000    0.000    0.000    0.000 
#
# Total GULP energy -156020.833796 kJ/mol
# GULP energy per Si atom -5572.172636 kJ/mol
# Density = 2.122034 g / cm^3
# Si number density = 21.268746 Si / 1000 Ang^3
#
#
#
# Elastic Constant Matrix: (Units=GPa)
#
#
# Indices 1 2 3 4 5 6 
#
# 1 126.4513 38.5176 -5.2715 0.0002 -21.5990 0.0004
# 2 38.5176 117.0850 2.8758 0.0009 16.6018 0.0011
# 3 -5.2715 2.8758 32.2775 -0.0011 -3.3766 0.0031
# 4 0.0002 0.0009 -0.0011 35.5361 -0.0008 14.3100
# 5 -21.5990 16.6018 -3.3766 -0.0008 17.7904 -0.0004
# 6 0.0004 0.0011 0.0031 14.3100 -0.0004 9.8796
#
#
#
# Elastic Compliance Matrix: (Units=1/GPa)
#
#
# Indices 1 2 3 4 5 6 
#
# 1 0.016377 -0.009857 0.006729 0.000003 0.030359 -0.000005
# 2 -0.009857 0.015889 -0.005947 -0.000002 -0.027924 0.000002
# 3 0.006729 -0.005947 0.034735 0.000013 0.020311 -0.000029
# 4 0.000003 -0.000002 0.000013 0.067527 0.000009 -0.097808
# 5 0.030359 -0.027924 0.020311 0.000009 0.122982 -0.000012
# 6 -0.000005 0.000002 -0.000029 -0.097808 -0.000012 0.242886
#
#
# Mechanical properties :
#
#
# Convention : Reuss Voigt Hill
#
# Bulk Modulus (GPa) = 20.47078 38.67307 29.57193
# Shear Modulus (GPa) = 9.34876 28.62066 18.98471
#
# Velocity S-wave (km/s) = 2.09883 3.67231 2.99090
# Velocity P-wave (km/s) = 3.93944 6.01695 5.08541
#
# Compressibility (1/GPa) = 0.04885011
#
# Stress axis : x y z
#
# Youngs Moduli (GPa) = 61.06153 62.93613 28.78946
#
# Poissons Ratio (x) = 0.62039 -0.19372
# Poissons Ratio (y) = 0.60191 0.17120
# Poissons Ratio (z) = -0.41087 0.37426
#
# Static dielectric constant tensor:
#      x y z
#    x 1.911960 0.000000 -0.004160 
#    y 0.000000 1.943880 0.000000 
#    z -0.004160 0.000000 1.776840 
# 
# From -- ./inp_files/246626.got.cif
#   From: 2010.05.17/outbox.cif.g08.bks.cpg/sg12_124_cif.got.tgz:246626.got - 2010.06.03 13:09:07.
