data_PCOD9193566
_publ_section_title
;
Structure prediction by ZEFSAII (Michael W. Deem and Ramdas Pophale) SiO2 
 PCOD9193566
Probable space group: C 2/M
;
_chemical_formula_sum "Si O2"
_cell_formula_units_Z 56
_cell_length_a 19.194099
_cell_length_b 16.649400
_cell_length_c 9.675098
_cell_angle_alpha 90.000000
_cell_angle_beta 116.467656
_cell_angle_gamma 90.000000
_cell_volume 2767.802017
_symmetry_space_group_name_H-M "C 2/M"
_symmetry_group_IT_number 12
_symmetry_cell_setting 'monoclinic'
loop_
_space_group_symop_operation_xyz
x,y,z
-x,y,-z
-x,-y,-z
x,-y,z
1/2+x,1/2+y,z
1/2-x,1/2+y,-z
1/2-x,1/2-y,-z
1/2+x,1/2-y,z
loop_
_atom_site_type_symbol
_atom_site_label
_atom_site_fract_x
_atom_site_fract_y
_atom_site_fract_z
Si Si1 0.796800 0.331959 0.074214
Si Si2 0.422162 0.357871 0.855839
Si Si3 0.225790 0.402701 0.360589
Si Si4 0.088103 0.673093 0.063836
Si Si5 0.503847 0.595647 0.667785
Si Si6 0.829531 0.907169 0.210336
Si Si7 0.752055 0.406880 0.303059
O O1 0.798088 0.351241 0.236290
O O2 0.750000 0.250000 0.000000
O O3 0.876181 0.333677 0.058457
O O4 0.740726 0.399251 0.957665
O O5 0.412241 0.266804 0.896443
O O6 0.442235 0.361821 0.711048
O O7 0.340456 0.401030 0.809565
O O8 0.500000 0.391648 0.000000
O O9 0.226576 0.500000 0.355389
O O10 0.147770 0.370971 0.219498
O O11 0.296719 0.373139 0.325251
O O12 0.235200 0.379762 0.527840
O O13 0.000000 0.642953 0.000000
O O14 0.500000 0.607563 0.500000
O O15 0.493829 0.500000 0.685480
O O16 0.590802 0.626710 0.780238
O O17 0.848532 0.000000 0.253832
O O18 0.776027 0.500000 0.311460
#
# Coordination Sequence:
#
# PCOD9193566 Si02
#       7
#     8   8   8   8   8   8   8
#     4  11  21  38  57  83 115 152 193 243 286 349
#     4  11  22  36  55  87 127 161 196 235 290 358
#     4   9  20  40  63  88 115 152 206 254 297 348
#     4  10  23  42  61  86 120 156 199 243 298 359
#     4  10  20  34  53  83 121 157 191 230 280 345
#     4   9  18  34  57  81 113 155 196 233 280 348
#     4  11  22  38  62  90 118 153 199 252 299 352
#
# _framework density 20.232659999999999
#
# number of rings (size 3 to 8) (size 9 to 14) (size 15 to 20)
#    0.000    1.857    1.429    2.571    2.000    6.000 
#    2.571    0.714    0.000    1.714    0.000    0.000 
#    0.000    0.000    0.000    0.000    0.000    0.000 
#
# Total GULP energy -156325.111291 kJ/mol
# GULP energy per Si atom -5583.039689 kJ/mol
# Density = 2.018661 g / cm^3
# Si number density = 20.232660 Si / 1000 Ang^3
#
#
#
# Elastic Constant Matrix: (Units=GPa)
#
#
# Indices 1 2 3 4 5 6 
#
# 1 143.8418 18.9480 33.1232 0.0000 -23.9293 0.0000
# 2 18.9480 27.4160 13.8110 0.0000 -11.5143 0.0000
# 3 33.1232 13.8110 78.8451 0.0000 -26.2242 0.0000
# 4 0.0000 0.0000 0.0000 21.0078 0.0000 -7.3009
# 5 -23.9293 -11.5143 -26.2242 0.0000 39.1724 0.0000
# 6 0.0000 0.0000 0.0000 -7.3009 0.0000 16.9667
#
#
#
# Elastic Compliance Matrix: (Units=1/GPa)
#
#
# Indices 1 2 3 4 5 6 
#
# 1 0.008333 -0.003633 -0.001964 0.000000 0.002708 0.000000
# 2 -0.003633 0.044275 -0.003395 0.000000 0.008522 0.000000
# 3 -0.001964 -0.003395 0.017202 0.000000 0.009319 0.000000
# 4 0.000000 0.000000 0.000000 0.055972 0.000000 0.024085
# 5 0.002708 0.008522 0.009319 0.000000 0.035926 0.000000
# 6 0.000000 0.000000 0.000000 0.024085 0.000000 0.069303
#
#
# Mechanical properties :
#
#
# Convention : Reuss Voigt Hill
#
# Bulk Modulus (GPa) = 19.29459 42.42968 30.86213
# Shear Modulus (GPa) = 18.77790 27.71074 23.24432
#
# Velocity S-wave (km/s) = 3.04978 3.70483 3.39315
# Velocity P-wave (km/s) = 4.68600 6.27036 5.53516
#
# Compressibility (1/GPa) = 0.05182801
#
# Stress axis : x y z
#
# Youngs Moduli (GPa) = 119.99958 22.58597 58.13226
#
# Poissons Ratio (x) = 0.08205 0.11416
# Poissons Ratio (y) = 0.43593 0.19735
# Poissons Ratio (z) = 0.23566 0.07667
#
# Static dielectric constant tensor:
#      x y z
#    x 1.734990 0.000000 0.000600 
#    y 0.000000 1.731800 0.000000 
#    z 0.000600 0.000000 1.763150 
# 
# From -- ./inp_files/75894.got.cif
#   From: 2010.05.17/outbox.cif.g08.bks.cpg/sg12_38_cif.got.tgz:75894.got - 2010.06.03 13:09:07.
