data_PCOD9193921
_publ_section_title
;
Structure prediction by ZEFSAII (Michael W. Deem and Ramdas Pophale) SiO2 
 PCOD9193921
Probable space group: C 2/M
;
_chemical_formula_sum "Si O2"
_cell_formula_units_Z 60
_cell_length_a 12.279415
_cell_length_b 12.235667
_cell_length_c 20.124944
_cell_angle_alpha 90.000000
_cell_angle_beta 103.841346
_cell_angle_gamma 90.000000
_cell_volume 2935.906318
_symmetry_space_group_name_H-M "C 2/M"
_symmetry_group_IT_number 12
_symmetry_cell_setting 'monoclinic'
loop_
_space_group_symop_operation_xyz
x,y,z
-x,y,-z
-x,-y,-z
x,-y,z
1/2+x,1/2+y,z
1/2-x,1/2+y,-z
1/2-x,1/2-y,-z
1/2+x,1/2-y,z
loop_
_atom_site_type_symbol
_atom_site_label
_atom_site_fract_x
_atom_site_fract_y
_atom_site_fract_z
Si Si1 0.863315 0.190466 0.813302
Si Si2 0.612436 0.623202 0.474024
Si Si3 0.202512 0.192170 0.894543
Si Si4 0.547402 0.123479 0.265314
Si Si5 0.612010 0.875805 0.973245
Si Si6 0.823257 0.376027 0.318104
Si Si7 0.534730 0.500000 0.853111
Si Si8 0.717699 0.206186 0.395892
O O1 0.782780 0.247267 0.854575
O O2 0.933544 0.285320 0.787103
O O3 0.784856 0.136611 0.745010
O O4 0.940725 0.096274 0.853853
O O5 0.500000 0.640363 0.500000
O O6 0.609579 0.500000 0.446101
O O7 0.630858 0.713006 0.420239
O O8 0.716783 0.636932 0.539667
O O9 0.128223 0.284504 0.919963
O O10 0.128338 0.096720 0.852835
O O11 0.281488 0.137932 0.962472
O O12 0.433250 0.142257 0.289651
O O13 0.650392 0.136969 0.332082
O O14 0.545467 0.000000 0.238309
O O15 0.609055 0.000000 0.946627
O O16 0.500000 0.857386 0.000000
O O17 0.828552 0.500000 0.345569
O O18 0.806505 0.285571 0.372150
#
# Coordination Sequence:
#
# PCOD9193921 Si02
#       8
#     8   8   8   8   8   8   4   8
#     4  11  24  41  64  93 128 167 212 266 324 385
#     4  10  20  34  54  82 119 156 199 257 314 379
#     4  11  24  42  66 100 127 171 217 264 324 386
#     4  10  22  39  62  88 120 164 208 264 321 386
#     4  10  22  43  66  94 132 168 211 265 320 383
#     4  10  20  38  58  83 119 156 204 257 314 379
#     4  12  24  44  66  98 131 168 218 272 315 396
#     4  10  20  35  57  84 115 158 206 255 315 384
#
# _framework density 20.436620000000001
#
# number of rings (size 3 to 8) (size 9 to 14) (size 15 to 20)
#    0.000    1.600    1.333    3.200    1.867    0.000 
#    0.000    5.000    7.333    6.400    0.000    0.000 
#    0.000    0.000    0.000    0.000    0.000    0.000 
#
# Total GULP energy -167142.964921 kJ/mol
# GULP energy per Si atom -5571.432164 kJ/mol
# Density = 2.039011 g / cm^3
# Si number density = 20.436620 Si / 1000 Ang^3
#
#
#
# Elastic Constant Matrix: (Units=GPa)
#
#
# Indices 1 2 3 4 5 6 
#
# 1 85.4895 59.3580 -2.2693 0.0000 -16.4726 0.0000
# 2 59.3580 156.6774 23.9442 0.0000 -30.2772 0.0000
# 3 -2.2693 23.9442 26.5803 0.0000 -7.8574 0.0000
# 4 0.0000 0.0000 0.0000 6.9758 0.0000 23.5024
# 5 -16.4726 -30.2772 -7.8574 0.0000 26.9036 0.0000
# 6 0.0000 0.0000 0.0000 23.5024 0.0000 86.3702
#
#
#
# Elastic Compliance Matrix: (Units=1/GPa)
#
#
# Indices 1 2 3 4 5 6 
#
# 1 0.018091 -0.007226 0.009768 0.000000 0.005797 0.000000
# 2 -0.007226 0.011719 -0.009394 0.000000 0.006021 0.000000
# 3 0.009768 -0.009394 0.049866 0.000000 0.009972 0.000000
# 4 0.000000 0.000000 0.000000 1.722667 0.000000 -0.468760
# 5 0.005797 0.006021 0.009972 0.000000 0.050407 0.000000
# 6 0.000000 0.000000 0.000000 -0.468760 0.000000 0.139134
#
#
# Mechanical properties :
#
#
# Convention : Reuss Voigt Hill
#
# Bulk Modulus (GPa) = 15.15811 47.86809 31.51310
# Shear Modulus (GPa) = 2.46599 36.56420 19.51510
#
# Velocity S-wave (km/s) = 1.09967 4.23442 3.09351
# Velocity P-wave (km/s) = 3.00759 6.88336 5.31160
#
# Compressibility (1/GPa) = 0.06597130
#
# Stress axis : x y z
#
# Youngs Moduli (GPa) = 55.27548 85.32788 20.05363
#
# Poissons Ratio (x) = 0.61662 -0.19588
# Poissons Ratio (y) = 0.39945 0.18839
# Poissons Ratio (z) = -0.53993 0.80160
#
# Static dielectric constant tensor:
#      x y z
#    x 1.717970 0.000000 0.034790 
#    y 0.000000 1.686710 0.000000 
#    z 0.034790 0.000000 1.732290 
# 
# From -- ./inp_files/304739.got.cif
#   From: 2010.05.17/outbox.cif.g08.bks.cpg/sg12_153_cif.got.tgz:304739.got - 2010.06.03 13:09:07.
