data_PCOD9193689
_publ_section_title
;
Structure prediction by ZEFSAII (Michael W. Deem and Ramdas Pophale) SiO2 
 PCOD9193689
Probable space group: C 2/M
;
_chemical_formula_sum "Si O2"
_cell_formula_units_Z 40
_cell_length_a 10.040791
_cell_length_b 13.173309
_cell_length_c 18.359958
_cell_angle_alpha 90.000000
_cell_angle_beta 141.691756
_cell_angle_gamma 90.000000
_cell_volume 1505.395042
_symmetry_space_group_name_H-M "C 2/M"
_symmetry_group_IT_number 12
_symmetry_cell_setting 'monoclinic'
loop_
_space_group_symop_operation_xyz
x,y,z
-x,y,-z
-x,-y,-z
x,-y,z
1/2+x,1/2+y,z
1/2-x,1/2+y,-z
1/2-x,1/2-y,-z
1/2+x,1/2-y,z
loop_
_atom_site_type_symbol
_atom_site_label
_atom_site_fract_x
_atom_site_fract_y
_atom_site_fract_z
Si Si1 0.275720 0.632914 0.997052
Si Si2 0.791419 0.614681 0.580746
Si Si3 0.799218 0.107630 0.167213
Si Si4 0.260502 0.156268 0.179096
Si Si5 0.757283 0.336584 0.402852
O O1 0.205291 0.596452 0.045668
O O2 0.527570 0.612391 0.094442
O O3 0.250000 0.750000 0.000000
O O4 0.172764 0.617986 0.873582
O O5 0.737440 0.500000 0.580716
O O6 0.695037 0.638409 0.460019
O O7 0.737912 0.713908 0.606182
O O8 0.050587 0.623317 0.686976
O O9 0.738560 0.219880 0.170742
O O10 0.060089 0.118931 0.272944
O O11 0.756929 0.000000 0.188877
O O12 0.000000 0.375067 0.500000
#
# Coordination Sequence:
#
# PCOD9193689 Si02
#       5
#     8   8   8   8   8
#     4   9  18  34  53  74 104 138 171 212 258 303
#     4  10  21  36  55  78 104 138 175 210 257 311
#     4  10  20  34  54  79 105 137 175 212 257 308
#     4   9  19  35  53  75 107 138 170 216 259 302
#     4  10  21  36  54  78 108 136 170 217 258 301
#
# _framework density 26.571096000000001
#
# number of rings (size 3 to 8) (size 9 to 14) (size 15 to 20)
#    0.000    2.400    0.000    1.800    0.000    5.200 
#    0.000   10.000    0.000   19.200    0.000    0.000 
#    0.000    0.000    0.000    0.000    0.000    0.000 
#
# Total GULP energy -111631.363535 kJ/mol
# GULP energy per Si atom -5581.568177 kJ/mol
# Density = 2.651062 g / cm^3
# Si number density = 26.571096 Si / 1000 Ang^3
#
#
#
# Elastic Constant Matrix: (Units=GPa)
#
#
# Indices 1 2 3 4 5 6 
#
# 1 60.4607 0.4499 17.9773 0.0000 8.4927 0.0000
# 2 0.4499 237.6854 12.5231 0.0000 1.3999 0.0000
# 3 17.9773 12.5231 110.8614 0.0000 -11.7396 0.0000
# 4 0.0000 0.0000 0.0000 -3.9690 0.0000 -13.0885
# 5 8.4927 1.3999 -11.7396 0.0000 48.3500 0.0000
# 6 0.0000 0.0000 0.0000 -13.0885 0.0000 -30.7084
#
#
#
# Elastic Compliance Matrix: (Units=1/GPa)
#
#
# Indices 1 2 3 4 5 6 
#
# 1 0.018106 0.000167 -0.003379 0.000000 -0.004006 0.000000
# 2 0.000167 0.004237 -0.000536 0.000000 -0.000282 0.000000
# 3 -0.003379 -0.000536 0.009949 0.000000 0.003025 0.000000
# 4 0.000000 0.000000 0.000000 0.621289 0.000000 -0.264806
# 5 -0.004006 -0.000282 0.003025 0.000000 0.022129 0.000000
# 6 0.000000 0.000000 0.000000 -0.264806 0.000000 0.080301
#
#
# Mechanical properties :
#
#
# Convention : Reuss Voigt Hill
#
# Bulk Modulus (GPa) = 40.32760 52.32314 46.32537
# Shear Modulus (GPa) = 6.47861 27.93832 17.20847
#
# Velocity S-wave (km/s) = 1.56317 3.24613 2.54764
# Velocity P-wave (km/s) = 4.29746 5.81243 5.11139
#
# Compressibility (1/GPa) = 0.02479691
#
# Stress axis : x y z
#
# Youngs Moduli (GPa) = 55.23083 236.02675 100.51221
#
# Poissons Ratio (x) = -0.03950 0.33964
# Poissons Ratio (y) = -0.00924 0.05384
# Poissons Ratio (z) = 0.18663 0.12642
#
# Static dielectric constant tensor:
#      x y z
#    x 2.167560 0.000000 0.001970 
#    y 0.000000 0.774930 0.000000 
#    z 0.001970 0.000000 2.005400 
# 
# From -- ./inp_files/212369.got.cif
#   From: 2010.05.17/outbox.cif.g08.bks.cpg/sg12_107_cif.got.tgz:212369.got - 2010.06.03 13:09:07.
