data_PCOD9193849
_publ_section_title
;
Structure prediction by ZEFSAII (Michael W. Deem and Ramdas Pophale) SiO2 
 PCOD9193849
Probable space group: C 2/M
;
_chemical_formula_sum "Si O2"
_cell_formula_units_Z 56
_cell_length_a 14.647475
_cell_length_b 8.619869
_cell_length_c 24.188380
_cell_angle_alpha 90.000000
_cell_angle_beta 93.565158
_cell_angle_gamma 90.000000
_cell_volume 3048.097967
_symmetry_space_group_name_H-M "C 2/M"
_symmetry_group_IT_number 12
_symmetry_cell_setting 'monoclinic'
loop_
_space_group_symop_operation_xyz
x,y,z
-x,y,-z
-x,-y,-z
x,-y,z
1/2+x,1/2+y,z
1/2-x,1/2+y,-z
1/2-x,1/2-y,-z
1/2+x,1/2-y,z
loop_
_atom_site_type_symbol
_atom_site_label
_atom_site_fract_x
_atom_site_fract_y
_atom_site_fract_z
Si Si1 0.258276 0.185682 0.438849
Si Si2 0.760007 0.314464 0.736618
Si Si3 0.919318 0.812922 0.072877
Si Si4 0.604953 0.687368 0.643036
Si Si5 0.103458 0.187326 0.345235
Si Si6 0.873874 0.811782 0.950393
Si Si7 0.274883 0.814502 0.143526
O O1 0.250000 0.250000 0.500000
O O2 0.347698 0.247082 0.410207
O O3 0.170721 0.233561 0.398124
O O4 0.260602 0.000000 0.440340
O O5 0.763125 0.500000 0.737824
O O6 0.672271 0.267061 0.695927
O O7 0.849210 0.251705 0.708208
O O8 0.748975 0.251062 0.797629
O O9 0.872601 0.739283 0.124173
O O10 0.025647 0.773001 0.068987
O O11 0.912611 0.000000 0.075905
O O12 0.870083 0.759141 0.013994
O O13 0.605216 0.500000 0.639615
O O14 0.500762 0.738515 0.648969
O O15 0.103690 0.000000 0.342171
O O16 0.797015 0.756041 0.905542
O O17 0.869239 0.000000 0.952115
O O18 0.270462 0.000000 0.145384
#
# Coordination Sequence:
#
# PCOD9193849 Si02
#       7
#     8   8   8   8   8   8   8
#     4  10  20  34  54  81 112 139 169 208 250 295
#     4  10  21  36  53  75 101 132 171 214 253 297
#     4   9  17  34  55  73  95 128 170 208 245 299
#     4   9  19  37  58  76 100 136 176 212 252 297
#     4   9  19  37  58  77 100 136 174 211 253 296
#     4   8  17  33  53  73  97 131 166 202 250 306
#     4  11  21  33  50  75 104 132 163 205 257 306
#
# _framework density 18.372112999999999
#
# number of rings (size 3 to 8) (size 9 to 14) (size 15 to 20)
#    0.000    2.571    0.000    2.571    0.000    3.429 
#    0.000   12.143    0.000    0.000    0.000    0.000 
#    0.000    0.000    0.000    0.000    0.000    0.000 
#
# Total GULP energy -156226.052206 kJ/mol
# GULP energy per Si atom -5579.501865 kJ/mol
# Density = 1.833030 g / cm^3
# Si number density = 18.372113 Si / 1000 Ang^3
#
#
#
# Elastic Constant Matrix: (Units=GPa)
#
#
# Indices 1 2 3 4 5 6 
#
# 1 124.9681 23.7755 62.4148 0.0000 -29.0174 0.0000
# 2 23.7755 15.8313 24.0674 0.0000 -7.3893 0.0000
# 3 62.4148 24.0674 120.8691 0.0000 -32.9967 0.0000
# 4 0.0000 0.0000 0.0000 32.5952 0.0000 -6.6241
# 5 -29.0174 -7.3893 -32.9967 0.0000 21.3704 0.0000
# 6 0.0000 0.0000 0.0000 -6.6241 0.0000 23.7140
#
#
#
# Elastic Compliance Matrix: (Units=1/GPa)
#
#
# Indices 1 2 3 4 5 6 
#
# 1 0.014086 -0.013534 -0.001098 0.000000 0.012752 0.000000
# 2 -0.013534 0.104038 -0.015426 0.000000 -0.006221 0.000000
# 3 -0.001098 -0.015426 0.017371 0.000000 0.019997 0.000000
# 4 0.000000 0.000000 0.000000 0.032526 0.000000 0.009085
# 5 0.012752 -0.006221 0.019997 0.000000 0.092834 0.000000
# 6 0.000000 0.000000 0.000000 0.009085 0.000000 0.044707
#
#
# Mechanical properties :
#
#
# Convention : Reuss Voigt Hill
#
# Bulk Modulus (GPa) = 13.26600 53.57600 33.42100
# Shear Modulus (GPa) = 12.79415 25.62997 19.21206
#
# Velocity S-wave (km/s) = 2.64178 3.73909 3.23727
# Velocity P-wave (km/s) = 4.06716 6.91852 5.67484
#
# Compressibility (1/GPa) = 0.07538066
#
# Stress axis : x y z
#
# Youngs Moduli (GPa) = 70.99156 9.61187 57.56738
#
# Poissons Ratio (x) = 0.13008 0.06319
# Poissons Ratio (y) = 0.96078 0.88802
# Poissons Ratio (z) = 0.07793 0.14827
#
# Static dielectric constant tensor:
#      x y z
#    x 1.634430 0.000000 0.021120 
#    y 0.000000 1.623280 0.000000 
#    z 0.021120 0.000000 1.608700 
# 
# From -- ./inp_files/308884.got.cif
#   From: 2010.05.17/outbox.cif.g08.bks.cpg/sg12_155_cif.got.tgz:308884.got - 2010.06.03 13:09:07.
