data_PCOD9193644
_publ_section_title
;
Structure prediction by ZEFSAII (Michael W. Deem and Ramdas Pophale) SiO2 
 PCOD9193644
Probable space group: C 2/M
;
_chemical_formula_sum "Si O2"
_cell_formula_units_Z 48
_cell_length_a 28.391012
_cell_length_b 13.823886
_cell_length_c 12.923452
_cell_angle_alpha 90.000000
_cell_angle_beta 28.408955
_cell_angle_gamma 90.000000
_cell_volume 2413.120543
_symmetry_space_group_name_H-M "C 2/M"
_symmetry_group_IT_number 12
_symmetry_cell_setting 'monoclinic'
loop_
_space_group_symop_operation_xyz
x,y,z
-x,y,-z
-x,-y,-z
x,-y,z
1/2+x,1/2+y,z
1/2-x,1/2+y,-z
1/2-x,1/2-y,-z
1/2+x,1/2-y,z
loop_
_atom_site_type_symbol
_atom_site_label
_atom_site_fract_x
_atom_site_fract_y
_atom_site_fract_z
Si Si1 0.216488 0.111742 0.786631
Si Si2 0.917067 0.111767 0.562712
Si Si3 0.492019 0.383654 0.197834
Si Si4 0.703947 0.282476 0.481237
Si Si5 0.663465 0.716003 0.090765
Si Si6 0.804156 0.609786 0.107671
O O1 0.296192 0.184981 0.587060
O O2 0.239212 0.000000 0.726494
O O3 0.203536 0.137063 0.932254
O O4 0.107115 0.132561 0.948840
O O5 0.977787 0.148766 0.345428
O O6 0.908776 0.165373 0.688280
O O7 0.804326 0.110404 0.735820
O O8 0.944241 0.000000 0.521961
O O9 0.475499 0.500000 0.224878
O O10 0.404417 0.331092 0.305060
O O11 0.750000 0.250000 0.500000
O O12 0.778174 0.353070 0.273454
O O13 0.750000 0.750000 0.000000
O O14 0.635886 0.809823 0.073891
O O15 0.842650 0.500000 0.031519
#
# Coordination Sequence:
#
# PCOD9193644 Si02
#       6
#     8   8   8   8   8   8
#     4  10  21  35  54  83 114 141 176 226 275 317
#     4   8  13  24  44  69 100 134 164 200 251 306
#     4   9  19  36  56  81 112 142 176 221 271 324
#     4  10  20  34  54  78 104 138 179 225 279 331
#     4   9  16  27  46  76 109 142 176 216 258 308
#     4   8  15  28  45  67  96 133 174 212 254 309
#
# _framework density 19.891255999999998
#
# number of rings (size 3 to 8) (size 9 to 14) (size 15 to 20)
#    0.000    3.000    0.000    3.000    0.000    3.333 
#    0.000    4.167    0.000    5.000    0.000   17.500 
#    0.000    0.000    0.000    0.000    0.000    0.000 
#
# Total GULP energy -133706.537987 kJ/mol
# GULP energy per Si atom -5571.105749 kJ/mol
# Density = 1.984598 g / cm^3
# Si number density = 19.891256 Si / 1000 Ang^3
#
#
#
# Elastic Constant Matrix: (Units=GPa)
#
#
# Indices 1 2 3 4 5 6 
#
# 1 87.6959 3.5199 2.8555 0.0000 8.7252 0.0000
# 2 3.5199 113.2803 20.2374 0.0000 -0.6598 0.0000
# 3 2.8555 20.2374 25.0887 0.0000 -0.9314 0.0000
# 4 0.0000 0.0000 0.0000 21.0467 0.0000 -5.0510
# 5 8.7252 -0.6598 -0.9314 0.0000 23.0986 0.0000
# 6 0.0000 0.0000 0.0000 -5.0510 0.0000 19.4048
#
#
#
# Elastic Compliance Matrix: (Units=1/GPa)
#
#
# Indices 1 2 3 4 5 6 
#
# 1 0.011908 -0.000145 -0.001408 0.000000 -0.004559 0.000000
# 2 -0.000145 0.010316 -0.008304 0.000000 0.000015 0.000000
# 3 -0.001408 -0.008304 0.046798 0.000000 0.002181 0.000000
# 4 0.000000 0.000000 0.000000 0.050679 0.000000 0.013192
# 5 -0.004559 0.000015 0.002181 0.000000 0.045103 0.000000
# 6 0.000000 0.000000 0.000000 0.013192 0.000000 0.054968
#
#
# Mechanical properties :
#
#
# Convention : Reuss Voigt Hill
#
# Bulk Modulus (GPa) = 20.28037 31.03228 25.65632
# Shear Modulus (GPa) = 19.53723 26.00682 22.77202
#
# Velocity S-wave (km/s) = 3.13741 3.61979 3.38720
# Velocity P-wave (km/s) = 4.83138 5.75372 5.31261
#
# Compressibility (1/GPa) = 0.04930877
#
# Stress axis : x y z
#
# Youngs Moduli (GPa) = 83.97497 96.93927 21.36846
#
# Poissons Ratio (x) = 0.01407 0.03008
# Poissons Ratio (y) = 0.01219 0.17744
# Poissons Ratio (z) = 0.11820 0.80498
#
# Static dielectric constant tensor:
#      x y z
#    x 1.777200 0.000000 -0.020840 
#    y 0.000000 1.706430 0.000000 
#    z -0.020840 0.000000 1.744240 
# 
# From -- ./inp_files/183664.got.cif
#   From: 2010.05.17/outbox.cif.g08.bks.cpg/sg12_92_cif.got.tgz:183664.got - 2010.06.03 13:09:07.
