data_PCOD9193258
_publ_section_title
;
Structure prediction by ZEFSAII (Michael W. Deem and Ramdas Pophale) SiO2 
 PCOD9193258
Probable space group: C 2/M
;
_chemical_formula_sum "Si O2"
_cell_formula_units_Z 64
_cell_length_a 8.543134
_cell_length_b 11.453199
_cell_length_c 32.956998
_cell_angle_alpha 90.000000
_cell_angle_beta 91.805323
_cell_angle_gamma 90.000000
_cell_volume 3223.116844
_symmetry_space_group_name_H-M "C 2/M"
_symmetry_group_IT_number 12
_symmetry_cell_setting 'monoclinic'
loop_
_space_group_symop_operation_xyz
x,y,z
-x,y,-z
-x,-y,-z
x,-y,z
1/2+x,1/2+y,z
1/2-x,1/2+y,-z
1/2-x,1/2-y,-z
1/2+x,1/2-y,z
loop_
_atom_site_type_symbol
_atom_site_label
_atom_site_fract_x
_atom_site_fract_y
_atom_site_fract_z
Si Si1 0.322486 0.367037 0.827476
Si Si2 0.762835 0.135566 0.529361
Si Si3 0.121702 0.368210 0.278342
Si Si4 0.224235 0.134058 0.634779
Si Si5 0.878643 0.692090 0.030218
Si Si6 0.508631 0.776152 0.416930
Si Si7 0.099998 0.205746 0.774131
Si Si8 0.401261 0.368046 0.918120
O O1 0.268354 0.500000 0.832176
O O2 0.187622 0.289711 0.806656
O O3 0.468857 0.363146 0.797897
O O4 0.376875 0.323985 0.872115
O O5 0.750000 0.250000 0.500000
O O6 0.609661 0.149694 0.556509
O O7 0.916127 0.169141 0.556942
O O8 0.770743 0.000000 0.514324
O O9 0.059741 0.500000 0.281176
O O10 0.192554 0.334161 0.322393
O O11 0.264927 0.364803 0.247560
O O12 0.990733 0.282242 0.260211
O O13 0.350363 0.148052 0.599709
O O14 0.086540 0.220518 0.621074
O O15 0.171285 0.000000 0.637515
O O16 0.768767 0.628370 0.061697
O O17 0.981605 0.786844 0.055561
O O18 0.750000 0.750000 0.000000
O O19 0.000000 0.631603 0.000000
O O20 0.464703 0.500000 0.917165
#
# Coordination Sequence:
#
# PCOD9193258 Si02
#       8
#     8   8   8   8   8   8   8   8
#     4  10  20  34  53  76 103 138 175 212 259 311
#     4  11  24  40  60  86 115 148 188 233 281 335
#     4  10  20  34  54  80 108 141 180 219 264 316
#     4  10  20  36  57  80 109 144 181 223 269 320
#     4   9  19  34  52  75 101 129 168 212 256 310
#     4  10  22  38  58  82 112 145 185 227 276 327
#     4  10  20  34  53  77 109 139 173 219 263 307
#     4  10  20  35  54  75 102 136 172 212 259 309
#
# _framework density 19.856556000000001
#
# number of rings (size 3 to 8) (size 9 to 14) (size 15 to 20)
#    0.000    2.000    0.000    3.375    0.000    6.500 
#    0.000    1.875    0.000   22.500    0.000    0.000 
#    0.000    0.000    0.000    0.000    0.000    0.000 
#
# Total GULP energy -178472.126411 kJ/mol
# GULP energy per Si atom -5577.253950 kJ/mol
# Density = 1.981136 g / cm^3
# Si number density = 19.856556 Si / 1000 Ang^3
#
#
#
# Elastic Constant Matrix: (Units=GPa)
#
#
# Indices 1 2 3 4 5 6 
#
# 1 51.0395 18.3548 -2.1109 0.0000 5.4951 0.0000
# 2 18.3548 84.5301 32.6352 0.0000 19.5805 0.0000
# 3 -2.1109 32.6352 79.5115 0.0000 17.1546 0.0000
# 4 0.0000 0.0000 0.0000 46.4114 0.0000 11.3801
# 5 5.4951 19.5805 17.1546 0.0000 31.8020 0.0000
# 6 0.0000 0.0000 0.0000 11.3801 0.0000 8.5143
#
#
#
# Elastic Compliance Matrix: (Units=1/GPa)
#
#
# Indices 1 2 3 4 5 6 
#
# 1 0.021961 -0.005551 0.003330 0.000000 -0.002173 0.000000
# 2 -0.005551 0.016661 -0.005635 0.000000 -0.006259 0.000000
# 3 0.003330 -0.005635 0.016244 0.000000 -0.005868 0.000000
# 4 0.000000 0.000000 0.000000 0.032050 0.000000 -0.042838
# 5 -0.002173 -0.006259 -0.005868 0.000000 0.038839 0.000000
# 6 0.000000 0.000000 0.000000 -0.042838 0.000000 0.174706
#
#
# Mechanical properties :
#
#
# Convention : Reuss Voigt Hill
#
# Bulk Modulus (GPa) = 25.54022 34.75995 30.15008
# Shear Modulus (GPa) = 15.18719 28.42567 21.80643
#
# Velocity S-wave (km/s) = 2.76858 3.78769 3.31750
# Velocity P-wave (km/s) = 4.80732 6.05577 5.46730
#
# Compressibility (1/GPa) = 0.03915394
#
# Stress axis : x y z
#
# Youngs Moduli (GPa) = 45.53616 60.02048 61.56009
#
# Poissons Ratio (x) = 0.33316 -0.20501
# Poissons Ratio (y) = 0.25276 0.34691
# Poissons Ratio (z) = -0.15165 0.33824
#
# Static dielectric constant tensor:
#      x y z
#    x 1.681450 0.000000 -0.013310 
#    y 0.000000 1.679420 0.000000 
#    z -0.013310 0.000000 1.714530 
# 
# From -- ./inp_files/372161.got.cif
#   From: 2010.05.17/outbox.cif.g08.bks.cpg/sg12_187_cif.got.tgz:372161.got - 2010.06.03 13:09:07.
