data_PCOD9193433
_publ_section_title
;
Structure prediction by ZEFSAII (Michael W. Deem and Ramdas Pophale) SiO2 
 PCOD9193433
Probable space group: C 2/M
;
_chemical_formula_sum "Si O2"
_cell_formula_units_Z 58
_cell_length_a 25.184553
_cell_length_b 7.696557
_cell_length_c 14.221526
_cell_angle_alpha 90.000000
_cell_angle_beta 84.668371
_cell_angle_gamma 90.000000
_cell_volume 2744.693850
_symmetry_space_group_name_H-M "C 2/M"
_symmetry_group_IT_number 12
_symmetry_cell_setting 'monoclinic'
loop_
_space_group_symop_operation_xyz
x,y,z
-x,y,-z
-x,-y,-z
x,-y,z
1/2+x,1/2+y,z
1/2-x,1/2+y,-z
1/2-x,1/2-y,-z
1/2+x,1/2-y,z
loop_
_atom_site_type_symbol
_atom_site_label
_atom_site_fract_x
_atom_site_fract_y
_atom_site_fract_z
Si Si1 0.559924 0.799768 0.288811
Si Si2 0.724212 0.286605 0.740194
Si Si3 0.465875 0.701954 0.419251
Si Si4 0.000000 0.000000 0.000000
Si Si5 0.594970 0.692916 0.081363
Si Si6 0.696306 0.290996 0.952430
Si Si7 0.346423 0.709276 0.423456
Si Si8 0.333227 0.208187 0.636275
O O1 0.504231 0.710516 0.322848
O O2 0.576504 0.788499 0.177903
O O3 0.608911 0.723797 0.341819
O O4 0.552634 0.000000 0.316381
O O5 0.724374 0.500000 0.740716
O O6 0.702892 0.227583 0.844525
O O7 0.687662 0.228141 0.659317
O O8 0.784707 0.229948 0.708923
O O9 0.500000 0.779002 0.500000
O O10 0.456814 0.500000 0.444659
O O11 0.407312 0.777353 0.413319
O O12 0.955563 0.148889 0.975879
O O13 0.613309 0.500000 0.112439
O O14 0.644088 0.773683 0.016344
O O15 0.690316 0.500000 0.947383
O O16 0.750000 0.250000 0.000000
O O17 0.347477 0.500000 0.415175
O O18 0.322571 0.753168 0.529112
O O19 0.335791 0.000000 0.647080
#
# Coordination Sequence:
#
# PCOD9193433 Si02
#       8
#     8   8   8   2   8   8   8   8
#     4  11  22  35  57  86 115 152 189 236 296 351
#     4   9  19  35  55  82 108 145 188 228 284 342
#     4  10  20  35  54  82 115 149 192 237 277 333
#     4   8  20  40  62  84 114 152 206 246 300 346
#     4   9  20  38  61  87 111 150 199 242 299 350
#     4  10  20  37  60  86 117 147 193 246 298 352
#     4  10  20  35  56  80 109 148 192 235 278 333
#     4  10  20  34  53  78 116 151 183 226 280 343
#
# _framework density 21.131682000000001
#
# number of rings (size 3 to 8) (size 9 to 14) (size 15 to 20)
#    0.414    1.793    1.379    1.655    0.000    4.138 
#    2.483    1.724    0.000    1.655    0.000    0.000 
#    0.000    0.000    0.000    0.000    0.000    0.000 
#
# Total GULP energy -161547.532168 kJ/mol
# GULP energy per Si atom -5570.604558 kJ/mol
# Density = 2.108359 g / cm^3
# Si number density = 21.131682 Si / 1000 Ang^3
#
#
#
# Elastic Constant Matrix: (Units=GPa)
#
#
# Indices 1 2 3 4 5 6 
#
# 1 74.8337 -1.1822 28.8138 0.0000 -9.4335 0.0000
# 2 -1.1822 34.4772 -6.7959 0.0000 -0.6484 0.0000
# 3 28.8138 -6.7959 106.5258 0.0000 -22.2080 0.0000
# 4 0.0000 0.0000 0.0000 21.9124 0.0000 2.0039
# 5 -9.4335 -0.6484 -22.2080 0.0000 33.2157 0.0000
# 6 0.0000 0.0000 0.0000 2.0039 0.0000 8.7417
#
#
#
# Elastic Compliance Matrix: (Units=1/GPa)
#
#
# Indices 1 2 3 4 5 6 
#
# 1 0.015010 -0.000181 -0.003699 0.000000 0.001786 0.000000
# 2 -0.000181 0.029506 0.002371 0.000000 0.002110 0.000000
# 3 -0.003699 0.002371 0.012003 0.000000 0.007021 0.000000
# 4 0.000000 0.000000 0.000000 0.046613 0.000000 -0.010686
# 5 0.001786 0.002110 0.007021 0.000000 0.035349 0.000000
# 6 0.000000 0.000000 0.000000 -0.010686 0.000000 0.116843
#
#
# Mechanical properties :
#
#
# Convention : Reuss Voigt Hill
#
# Bulk Modulus (GPa) = 18.69146 28.61202 23.65174
# Shear Modulus (GPa) = 18.10448 25.77403 21.93925
#
# Velocity S-wave (km/s) = 2.93020 3.49619 3.22563
# Velocity P-wave (km/s) = 4.50694 5.46508 5.00897
#
# Compressibility (1/GPa) = 0.05350036
#
# Stress axis : x y z
#
# Youngs Moduli (GPa) = 66.62429 33.89194 83.31327
#
# Poissons Ratio (x) = 0.00613 0.30818
# Poissons Ratio (y) = 0.01205 -0.19755
# Poissons Ratio (z) = 0.24645 -0.08036
#
# Static dielectric constant tensor:
#      x y z
#    x 1.768610 0.000000 -0.016520 
#    y 0.000000 1.785790 0.000000 
#    z -0.016520 0.000000 1.754500 
# 
# From -- ./inp_files/237535.got.cif
#   From: 2010.05.17/outbox.cif.g08.bks.cpg/sg12_119_cif.got.tgz:237535.got - 2010.06.03 13:09:07.
