data_PCOD9193139
_publ_section_title
;
Structure prediction by ZEFSAII (Michael W. Deem and Ramdas Pophale) SiO2 
 PCOD9193139
Probable space group: C 2/M
;
_chemical_formula_sum "Si O2"
_cell_formula_units_Z 56
_cell_length_a 14.382028
_cell_length_b 9.032465
_cell_length_c 24.640038
_cell_angle_alpha 90.000000
_cell_angle_beta 116.088903
_cell_angle_gamma 90.000000
_cell_volume 2874.740584
_symmetry_space_group_name_H-M "C 2/M"
_symmetry_group_IT_number 12
_symmetry_cell_setting 'monoclinic'
loop_
_space_group_symop_operation_xyz
x,y,z
-x,y,-z
-x,-y,-z
x,-y,z
1/2+x,1/2+y,z
1/2-x,1/2+y,-z
1/2-x,1/2-y,-z
1/2+x,1/2-y,z
loop_
_atom_site_type_symbol
_atom_site_label
_atom_site_fract_x
_atom_site_fract_y
_atom_site_fract_z
Si Si1 0.411521 0.325122 0.252519
Si Si2 0.683621 0.823803 0.143831
Si Si3 0.494817 0.177167 0.171339
Si Si4 0.258454 0.671423 0.588741
Si Si5 0.230090 0.323298 0.937046
Si Si6 0.587825 0.170462 0.449351
Si Si7 0.388529 0.676497 0.370578
O O1 0.433532 0.500000 0.256615
O O2 0.293721 0.302635 0.201777
O O3 0.486158 0.245619 0.228974
O O4 0.413407 0.277060 0.315347
O O5 0.591033 0.773064 0.159228
O O6 0.693227 0.740321 0.089218
O O7 0.670672 0.000000 0.130606
O O8 0.386702 0.212102 0.113204
O O9 0.501917 0.000000 0.178528
O O10 0.289996 0.500000 0.603357
O O11 0.349059 0.769157 0.586233
O O12 0.166797 0.675913 0.520040
O O13 0.210569 0.741086 0.630401
O O14 0.239615 0.500000 0.942951
O O15 0.250000 0.250000 0.000000
O O16 0.488584 0.273662 0.430270
O O17 0.554685 0.000000 0.434300
O O18 0.373635 0.500000 0.368657
#
# Coordination Sequence:
#
# PCOD9193139 Si02
#       7
#     8   8   8   8   8   8   8
#     4   9  20  36  53  76 105 135 172 216 260 307
#     4   9  18  36  57  75 101 138 174 212 258 304
#     4   9  19  35  56  78 102 137 178 216 258 307
#     4  10  21  37  56  79 106 137 176 222 272 325
#     4  10  20  34  52  79 110 138 172 213 256 305
#     4  10  21  37  56  78 105 139 178 220 269 324
#     4  11  22  35  53  80 111 142 177 218 266 322
#
# _framework density 19.480018999999999
#
# number of rings (size 3 to 8) (size 9 to 14) (size 15 to 20)
#    0.000    2.286    0.000    2.143    0.000    7.429 
#    0.000    4.286    0.000    0.000    0.000    0.000 
#    0.000    0.000    0.000    0.000    0.000    0.000 
#
# Total GULP energy -156357.536733 kJ/mol
# GULP energy per Si atom -5584.197740 kJ/mol
# Density = 1.943568 g / cm^3
# Si number density = 19.480019 Si / 1000 Ang^3
#
#
#
# Elastic Constant Matrix: (Units=GPa)
#
#
# Indices 1 2 3 4 5 6 
#
# 1 121.3443 26.6010 24.7735 0.0000 -36.6742 0.0000
# 2 26.6010 43.0371 29.9719 0.0000 -14.0670 0.0000
# 3 24.7735 29.9719 59.3280 0.0000 -29.6010 0.0000
# 4 0.0000 0.0000 0.0000 26.6379 0.0000 -9.1369
# 5 -36.6742 -14.0670 -29.6010 0.0000 26.1530 0.0000
# 6 0.0000 0.0000 0.0000 -9.1369 0.0000 30.7236
#
#
#
# Elastic Compliance Matrix: (Units=1/GPa)
#
#
# Indices 1 2 3 4 5 6 
#
# 1 0.020043 -0.011510 0.019252 0.000000 0.043704 0.000000
# 2 -0.011510 0.042547 -0.030608 0.000000 -0.027900 0.000000
# 3 0.019252 -0.030608 0.067853 0.000000 0.087331 0.000000
# 4 0.000000 0.000000 0.000000 0.041805 0.000000 0.012432
# 5 0.043704 -0.027900 0.087331 0.000000 0.183362 0.000000
# 6 0.000000 0.000000 0.000000 0.012432 0.000000 0.036245
#
#
# Mechanical properties :
#
#
# Convention : Reuss Voigt Hill
#
# Bulk Modulus (GPa) = 11.80521 42.93358 27.36939
# Shear Modulus (GPa) = 10.73362 26.19376 18.46369
#
# Velocity S-wave (km/s) = 2.34990 3.67092 3.08202
# Velocity P-wave (km/s) = 3.66552 6.32892 5.17162
#
# Compressibility (1/GPa) = 0.08470837
#
# Stress axis : x y z
#
# Youngs Moduli (GPa) = 49.89317 23.50317 14.73779
#
# Poissons Ratio (x) = 0.27053 -0.28373
# Poissons Ratio (y) = 0.57429 0.45110
# Poissons Ratio (z) = -0.96052 0.71940
#
# Static dielectric constant tensor:
#      x y z
#    x 1.686340 0.000000 0.010280 
#    y 0.000000 1.649930 0.000000 
#    z 0.010280 0.000000 1.693400 
# 
# From -- ./inp_files/338172.got.cif
#   From: 2010.05.17/outbox.cif.g08.bks.cpg/sg12_170_cif.got.tgz:338172.got - 2010.06.03 13:09:07.
