data_PCOD9193309
_publ_section_title
;
Structure prediction by ZEFSAII (Michael W. Deem and Ramdas Pophale) SiO2 
 PCOD9193309
Probable space group: C 2/M
;
_chemical_formula_sum "Si O2"
_cell_formula_units_Z 64
_cell_length_a 19.441687
_cell_length_b 8.477403
_cell_length_c 25.687692
_cell_angle_alpha 90.000000
_cell_angle_beta 55.389150
_cell_angle_gamma 90.000000
_cell_volume 3484.471413
_symmetry_space_group_name_H-M "C 2/M"
_symmetry_group_IT_number 12
_symmetry_cell_setting 'monoclinic'
loop_
_space_group_symop_operation_xyz
x,y,z
-x,y,-z
-x,-y,-z
x,-y,z
1/2+x,1/2+y,z
1/2-x,1/2+y,-z
1/2-x,1/2-y,-z
1/2+x,1/2-y,z
loop_
_atom_site_type_symbol
_atom_site_label
_atom_site_fract_x
_atom_site_fract_y
_atom_site_fract_z
Si Si1 0.810505 0.688578 0.812082
Si Si2 0.409842 0.809415 0.559017
Si Si3 0.248197 0.688517 0.442358
Si Si4 0.467677 0.193044 0.813089
Si Si5 0.193349 0.811350 0.303465
Si Si6 0.851109 0.690401 0.304999
Si Si7 0.525724 0.191988 0.070977
Si Si8 0.366096 0.809262 0.073122
O O1 0.812800 0.500000 0.810506
O O2 0.890063 0.745385 0.811321
O O3 0.813597 0.748211 0.751646
O O4 0.724091 0.743115 0.875103
O O5 0.500000 0.756627 0.500000
O O6 0.337437 0.761084 0.549676
O O7 0.381545 0.744776 0.627026
O O8 0.410410 0.000000 0.561633
O O9 0.250701 0.500000 0.441623
O O10 0.250000 0.750000 0.500000
O O11 0.322483 0.751225 0.373847
O O12 0.557039 0.243100 0.751538
O O13 0.460577 0.245517 0.876111
O O14 0.467597 0.000000 0.813472
O O15 0.279547 0.757397 0.294689
O O16 0.194925 0.000000 0.301283
O O17 0.850562 0.500000 0.305506
O O18 0.435537 0.238191 0.086288
O O19 0.526059 0.000000 0.071087
O O20 0.595863 0.240409 0.999016
O O21 0.361954 0.000000 0.075571
#
# Coordination Sequence:
#
# PCOD9193309 Si02
#       8
#     8   8   8   8   8   8   8   8
#     4  11  22  33  48  73 106 138 165 201 253 308
#     4   9  19  36  56  77 103 136 170 204 249 305
#     4  10  20  34  53  77 105 134 166 206 250 297
#     4   9  18  32  50  73 101 134 169 203 246 303
#     4  10  20  35  56  77  98 129 172 218 254 290
#     4   9  18  35  57  75  94 128 174 214 247 291
#     4   8  15  31  55  78  98 128 172 212 246 292
#     4   9  17  32  56  79  98 127 170 215 251 290
#
# _framework density 18.367204999999998
#
# number of rings (size 3 to 8) (size 9 to 14) (size 15 to 20)
#    0.000    2.625    0.000    2.625    0.000    4.750 
#    0.000    7.500    0.000    3.000    0.000    0.000 
#    0.000    0.000    0.000    0.000    0.000    0.000 
#
# Total GULP energy -178544.464446 kJ/mol
# GULP energy per Si atom -5579.514514 kJ/mol
# Density = 1.832540 g / cm^3
# Si number density = 18.367205 Si / 1000 Ang^3
#
#
#
# Elastic Constant Matrix: (Units=GPa)
#
#
# Indices 1 2 3 4 5 6 
#
# 1 127.3017 21.4237 130.3743 0.0000 -0.2513 0.0003
# 2 21.4237 11.6363 26.7504 0.0000 -1.4266 0.0005
# 3 130.3743 26.7504 196.6075 0.0000 0.4419 -0.0001
# 4 0.0000 0.0000 0.0000 30.7205 0.0000 -3.3104
# 5 -0.2513 -1.4266 0.4419 0.0000 35.4187 0.0000
# 6 0.0003 0.0005 -0.0001 -3.3104 0.0000 18.9706
#
#
#
# Elastic Compliance Matrix: (Units=1/GPa)
#
#
# Indices 1 2 3 4 5 6 
#
# 1 0.025543 -0.011790 -0.015334 0.000000 -0.000102 0.000000
# 2 -0.011790 0.131478 -0.010083 0.000000 0.005338 -0.000003
# 3 -0.015334 -0.010083 0.016628 0.000000 -0.000722 0.000001
# 4 0.000000 0.000000 0.000000 0.033175 0.000000 0.005789
# 5 -0.000102 0.005338 -0.000722 0.000000 0.028457 0.000000
# 6 0.000000 -0.000003 0.000001 0.005789 0.000000 0.053723
#
#
# Mechanical properties :
#
#
# Convention : Reuss Voigt Hill
#
# Bulk Modulus (GPa) = 10.07696 76.96029 43.51862
# Shear Modulus (GPa) = 12.61044 27.48845 20.04944
#
# Velocity S-wave (km/s) = 2.62310 3.87279 3.30750
# Velocity P-wave (km/s) = 3.83047 7.87337 6.19122
#
# Compressibility (1/GPa) = 0.09923629
#
# Stress axis : x y z
#
# Youngs Moduli (GPa) = 39.14927 7.60582 60.13960
#
# Poissons Ratio (x) = 0.08967 0.92217
# Poissons Ratio (y) = 0.46156 0.60638
# Poissons Ratio (z) = 0.60031 0.07669
#
# Static dielectric constant tensor:
#      x y z
#    x 1.625470 0.000000 -0.001810 
#    y 0.000000 1.633540 0.000000 
#    z -0.001810 0.000000 1.608250 
# 
# From -- ./inp_files/345959.got.cif
#   From: 2010.05.17/outbox.cif.g08.bks.cpg/sg12_173_cif.got.tgz:345959.got - 2010.06.03 13:09:07.
