data_PCOD9193699
_publ_section_title
;
Structure prediction by ZEFSAII (Michael W. Deem and Ramdas Pophale) SiO2 
 PCOD9193699
Probable space group: C 2/M
;
_chemical_formula_sum "Si O2"
_cell_formula_units_Z 56
_cell_length_a 18.834125
_cell_length_b 9.049851
_cell_length_c 25.323121
_cell_angle_alpha 90.000000
_cell_angle_beta 41.154145
_cell_angle_gamma 90.000000
_cell_volume 2840.452096
_symmetry_space_group_name_H-M "C 2/M"
_symmetry_group_IT_number 12
_symmetry_cell_setting 'monoclinic'
loop_
_space_group_symop_operation_xyz
x,y,z
-x,y,-z
-x,-y,-z
x,-y,z
1/2+x,1/2+y,z
1/2-x,1/2+y,-z
1/2-x,1/2-y,-z
1/2+x,1/2-y,z
loop_
_atom_site_type_symbol
_atom_site_label
_atom_site_fract_x
_atom_site_fract_y
_atom_site_fract_z
Si Si1 0.834059 0.171734 0.830668
Si Si2 0.436949 0.171879 0.482253
Si Si3 0.182092 0.173582 0.760853
Si Si4 0.879499 0.175011 0.081875
Si Si5 0.955836 0.676305 0.253136
Si Si6 0.204934 0.825846 0.578150
Si Si7 0.105360 0.829937 0.326651
O O1 0.714374 0.239385 0.896530
O O2 0.872711 0.180919 0.747863
O O3 0.922437 0.261948 0.813956
O O4 0.833580 0.000000 0.846421
O O5 0.500000 0.211079 0.500000
O O6 0.309021 0.186077 0.558484
O O7 0.488230 0.271447 0.407980
O O8 0.459137 0.000000 0.457319
O O9 0.139474 0.192971 0.844724
O O10 0.109026 0.263425 0.761102
O O11 0.304471 0.232221 0.694642
O O12 0.179676 0.000000 0.748638
O O13 0.869771 0.000000 0.075749
O O14 0.000000 0.223740 0.000000
O O15 0.954895 0.500000 0.255687
O O16 0.892915 0.743023 0.339044
O O17 0.250000 0.750000 0.500000
O O18 0.180933 0.000000 0.583589
O O19 0.117684 0.000000 0.335531
#
# Coordination Sequence:
#
# PCOD9193699 Si02
#       7
#     8   8   8   8   8   8   8
#     4  10  21  37  58  84 113 146 185 227 276 334
#     4  10  21  35  51  72 100 138 183 230 279 328
#     4  10  20  36  59  84 114 150 185 227 282 339
#     4   9  19  38  64  92 119 147 182 225 276 337
#     4  12  24  38  57  82 114 150 193 240 284 334
#     4  11  23  38  56  79 110 149 192 238 290 341
#     4  10  20  34  54  79 106 139 184 233 276 329
#
# _framework density 19.715170000000001
#
# number of rings (size 3 to 8) (size 9 to 14) (size 15 to 20)
#    0.000    1.714    0.000    4.714    0.000    7.429 
#    0.000    0.714    0.000    0.000    0.000    0.000 
#    0.000    0.000    0.000    0.000    0.000    0.000 
#
# Total GULP energy -156515.788820 kJ/mol
# GULP energy per Si atom -5589.849601 kJ/mol
# Density = 1.967030 g / cm^3
# Si number density = 19.715170 Si / 1000 Ang^3
#
#
#
# Elastic Constant Matrix: (Units=GPa)
#
#
# Indices 1 2 3 4 5 6 
#
# 1 87.5176 50.9123 13.1918 0.0000 -27.1931 0.0000
# 2 50.9123 102.1379 33.1020 0.0000 -18.7289 -0.0001
# 3 13.1918 33.1020 75.7994 0.0000 -31.3155 0.0000
# 4 0.0000 0.0000 0.0000 26.4497 0.0000 -5.0610
# 5 -27.1931 -18.7289 -31.3155 0.0000 28.2049 0.0000
# 6 0.0000 -0.0001 0.0000 -5.0610 0.0000 31.5899
#
#
#
# Elastic Compliance Matrix: (Units=1/GPa)
#
#
# Indices 1 2 3 4 5 6 
#
# 1 0.026661 -0.011765 0.014576 0.000000 0.034076 0.000000
# 2 -0.011765 0.016818 -0.009920 0.000000 -0.011189 0.000000
# 3 0.014576 -0.009920 0.033387 0.000000 0.044535 0.000000
# 4 0.000000 0.000000 0.000000 0.039003 0.000000 0.006249
# 5 0.034076 -0.011189 0.044535 0.000000 0.110325 0.000000
# 6 0.000000 0.000000 0.000000 0.006249 0.000000 0.032657
#
#
# Mechanical properties :
#
#
# Convention : Reuss Voigt Hill
#
# Bulk Modulus (GPa) = 15.96198 51.09634 33.52916
# Shear Modulus (GPa) = 17.00949 28.46548 22.73748
#
# Velocity S-wave (km/s) = 2.94047 3.80391 3.39971
# Velocity P-wave (km/s) = 4.43197 6.72804 5.69688
#
# Compressibility (1/GPa) = 0.06264889
#
# Stress axis : x y z
#
# Youngs Moduli (GPa) = 37.50734 59.45843 29.95169
#
# Poissons Ratio (x) = 0.69955 -0.43657
# Poissons Ratio (y) = 0.44128 0.29711
# Poissons Ratio (z) = -0.54670 0.58981
#
# Static dielectric constant tensor:
#      x y z
#    x 1.715060 0.000000 0.002390 
#    y 0.000000 1.661150 0.000000 
#    z 0.002390 0.000000 1.680370 
# 
# From -- ./inp_files/362975.got.cif
#   From: 2010.05.17/outbox.cif.g08.bks.cpg/sg12_182_cif.got.tgz:362975.got - 2010.06.03 13:09:07.
