data_PCOD9193456
_publ_section_title
;
Structure prediction by ZEFSAII (Michael W. Deem and Ramdas Pophale) SiO2 
 PCOD9193456
Probable space group: C 2/M
;
_chemical_formula_sum "Si O2"
_cell_formula_units_Z 64
_cell_length_a 19.104301
_cell_length_b 8.733458
_cell_length_c 31.795495
_cell_angle_alpha 90.000000
_cell_angle_beta 41.531357
_cell_angle_gamma 90.000000
_cell_volume 3517.353784
_symmetry_space_group_name_H-M "C 2/M"
_symmetry_group_IT_number 12
_symmetry_cell_setting 'monoclinic'
loop_
_space_group_symop_operation_xyz
x,y,z
-x,y,-z
-x,-y,-z
x,-y,z
1/2+x,1/2+y,z
1/2-x,1/2+y,-z
1/2-x,1/2-y,-z
1/2+x,1/2-y,z
loop_
_atom_site_type_symbol
_atom_site_label
_atom_site_fract_x
_atom_site_fract_y
_atom_site_fract_z
Si Si1 0.995116 0.181461 0.065738
Si Si2 0.930006 0.183648 0.318595
Si Si3 0.030562 0.186613 0.439236
Si Si4 0.227719 0.685255 0.679089
Si Si5 0.946369 0.681063 0.177048
Si Si6 0.633258 0.314935 0.558698
Si Si7 0.892558 0.319012 0.818396
Si Si8 0.837861 0.682224 0.067333
O O1 0.971459 0.226496 0.124062
O O2 0.906887 0.256365 0.075355
O O3 0.993806 0.000000 0.060599
O O4 0.106331 0.247035 0.998966
O O5 0.834557 0.243847 0.332299
O O6 0.910167 0.228076 0.375764
O O7 0.036718 0.253383 0.251270
O O8 0.934791 0.000000 0.313723
O O9 0.150460 0.232220 0.374896
O O10 0.000000 0.236595 0.500000
O O11 0.945941 0.237094 0.442568
O O12 0.029067 0.000000 0.439790
O O13 0.221962 0.500000 0.677577
O O14 0.162227 0.725417 0.750526
O O15 0.941164 0.500000 0.169100
O O16 0.036835 0.702325 0.171461
O O17 0.638452 0.500000 0.554801
O O18 0.750000 0.250000 0.500000
O O19 0.876109 0.500000 0.819927
O O20 0.781589 0.235999 0.873441
O O21 0.844949 0.500000 0.062390
#
# Coordination Sequence:
#
# PCOD9193456 Si02
#       8
#     8   8   8   8   8   8   8   8
#     4  11  22  37  57  81 111 145 185 229 274 330
#     4  10  20  34  53  79 110 141 175 220 274 328
#     4   9  17  31  53  78 102 134 179 223 264 314
#     4   9  18  34  56  78 104 141 181 222 267 321
#     4   9  19  35  55  80 109 142 181 225 275 329
#     4  10  21  35  53  79 108 140 180 224 270 322
#     4  10  21  38  59  83 111 144 184 226 271 328
#     4  11  22  38  59  81 110 146 184 228 278 327
#
# _framework density 18.195497
#
# number of rings (size 3 to 8) (size 9 to 14) (size 15 to 20)
#    0.000    2.125    0.000    5.250    0.000    6.000 
#    0.000    3.125    0.000    2.250    0.000    0.000 
#    0.000    0.000    0.000    0.000    0.000    0.000 
#
# Total GULP energy -178688.543587 kJ/mol
# GULP energy per Si atom -5584.016987 kJ/mol
# Density = 1.815408 g / cm^3
# Si number density = 18.195497 Si / 1000 Ang^3
#
#
#
# Elastic Constant Matrix: (Units=GPa)
#
#
# Indices 1 2 3 4 5 6 
#
# 1 92.5962 39.6442 96.4602 0.0010 -0.5792 0.0019
# 2 39.6442 65.9590 57.9966 0.0037 3.5318 0.0075
# 3 96.4602 57.9966 173.1072 0.0013 -2.8378 0.0018
# 4 0.0010 0.0037 0.0013 27.6619 -0.0002 -1.2216
# 5 -0.5792 3.5318 -2.8378 -0.0002 39.5654 0.0003
# 6 0.0019 0.0075 0.0018 -1.2216 0.0003 27.1614
#
#
#
# Elastic Compliance Matrix: (Units=1/GPa)
#
#
# Indices 1 2 3 4 5 6 
#
# 1 0.026532 -0.004159 -0.013395 0.000000 -0.000201 0.000000
# 2 -0.004159 0.022382 -0.005221 -0.000003 -0.002433 -0.000006
# 3 -0.013395 -0.005221 0.015012 0.000001 0.001347 0.000001
# 4 0.000000 -0.000003 0.000001 0.036223 0.000000 0.001629
# 5 -0.000201 -0.002433 0.001347 0.000000 0.025585 0.000000
# 6 0.000000 -0.000006 0.000001 0.001629 0.000000 0.036890
#
#
# Mechanical properties :
#
#
# Convention : Reuss Voigt Hill
#
# Bulk Modulus (GPa) = 54.41549 79.98495 67.20022
# Shear Modulus (GPa) = 23.33189 28.04849 25.69019
#
# Velocity S-wave (km/s) = 3.58479 3.93046 3.76160
# Velocity P-wave (km/s) = 6.86333 8.04065 7.47520
#
# Compressibility (1/GPa) = 0.01837712
#
# Stress axis : x y z
#
# Youngs Moduli (GPa) = 37.68984 44.67949 66.61365
#
# Poissons Ratio (x) = 0.18581 0.89226
# Poissons Ratio (y) = 0.15674 0.34780
# Poissons Ratio (z) = 0.50484 0.23328
#
# Static dielectric constant tensor:
#      x y z
#    x 1.599560 0.000000 0.002190 
#    y 0.000000 1.612360 0.000000 
#    z 0.002190 0.000000 1.612850 
# 
# From -- ./inp_files/378122.got.cif
#   From: 2010.05.17/outbox.cif.g08.bks.cpg/sg12_190_cif.got.tgz:378122.got - 2010.06.03 13:09:07.
