data_PCOD9193273
_publ_section_title
;
Structure prediction by ZEFSAII (Michael W. Deem and Ramdas Pophale) SiO2 
 PCOD9193273
Probable space group: C 2/M
;
_chemical_formula_sum "Si O2"
_cell_formula_units_Z 56
_cell_length_a 16.790124
_cell_length_b 27.043658
_cell_length_c 8.778441
_cell_angle_alpha 90.000000
_cell_angle_beta 58.477977
_cell_angle_gamma 90.000000
_cell_volume 3397.818526
_symmetry_space_group_name_H-M "C 2/M"
_symmetry_group_IT_number 12
_symmetry_cell_setting 'monoclinic'
loop_
_space_group_symop_operation_xyz
x,y,z
-x,y,-z
-x,-y,-z
x,-y,z
1/2+x,1/2+y,z
1/2-x,1/2+y,-z
1/2-x,1/2-y,-z
1/2+x,1/2-y,z
loop_
_atom_site_type_symbol
_atom_site_label
_atom_site_fract_x
_atom_site_fract_y
_atom_site_fract_z
Si Si1 0.658819 0.624975 0.168535
Si Si2 0.999996 0.702701 0.173556
Si Si3 0.796950 0.699069 0.884500
Si Si4 0.500001 0.441358 0.180739
Si Si5 0.658813 0.375028 0.513827
Si Si6 0.999997 0.794013 0.661916
Si Si7 0.296946 0.199068 0.521604
O O1 0.593368 0.583037 0.159505
O O2 0.687362 0.611135 0.312635
O O3 0.588568 0.671198 0.251292
O O4 0.741568 0.649547 0.989889
O O5 0.097612 0.691442 0.159243
O O6 0.999990 0.762182 0.187355
O O7 0.902383 0.691437 0.354470
O O8 0.000000 0.685453 0.000000
O O9 0.795350 0.704641 0.704650
O O10 0.750000 0.750000 0.000000
O O11 0.500006 0.500000 0.206021
O O12 0.406628 0.416968 0.346246
O O13 0.500000 0.431294 0.000000
O O14 0.588548 0.328812 0.571573
O O15 0.741556 0.350451 0.526984
O O16 0.000000 0.765066 0.500000
O O17 0.250000 0.250000 0.500000
#
# Coordination Sequence:
#
# PCOD9193273 Si02
#       7
#     8   8   8   8   8   8   8
#     4  10  20  34  53  76 105 140 179 221 270 323
#     4  12  23  33  48  70 100 140 182 221 260 309
#     4  12  23  35  51  73 104 143 185 225 268 320
#     4  10  21  37  58  85 114 143 179 225 277 329
#     4  10  20  34  53  76 105 140 179 221 270 323
#     4   9  17  29  46  68  99 135 175 216 255 305
#     4  12  23  35  51  73 104 143 185 225 268 320
#
# _framework density 16.481164
#
# number of rings (size 3 to 8) (size 9 to 14) (size 15 to 20)
#    0.000    1.286    2.857    6.000    0.000    3.429 
#    0.000    0.000    0.000    0.000    0.000    1.000 
#    0.000    8.000    0.000    0.000    0.000    0.000 
#
# Total GULP energy -155944.816509 kJ/mol
# GULP energy per Si atom -5569.457732 kJ/mol
# Density = 1.644365 g / cm^3
# Si number density = 16.481164 Si / 1000 Ang^3
#
#
#
# Elastic Constant Matrix: (Units=GPa)
#
#
# Indices 1 2 3 4 5 6 
#
# 1 131.8059 40.5395 71.3984 0.0000 5.7137 0.0000
# 2 40.5395 66.2052 45.4563 0.0000 5.5878 0.0000
# 3 71.3984 45.4563 144.7910 0.0000 9.0558 0.0000
# 4 0.0000 0.0000 0.0000 14.6252 0.0000 9.0188
# 5 5.7137 5.5878 9.0558 0.0000 36.4975 0.0000
# 6 0.0000 0.0000 0.0000 9.0188 0.0000 6.6703
#
#
#
# Elastic Compliance Matrix: (Units=1/GPa)
#
#
# Indices 1 2 3 4 5 6 
#
# 1 0.011078 -0.003861 -0.004245 0.000000 -0.000090 0.000000
# 2 -0.003861 0.020679 -0.004498 0.000000 -0.001446 0.000000
# 3 -0.004245 -0.004498 0.010490 0.000000 -0.001250 0.000000
# 4 0.000000 0.000000 0.000000 0.411385 0.000000 -0.556233
# 5 -0.000090 -0.001446 -0.001250 0.000000 0.027945 0.000000
# 6 0.000000 0.000000 0.000000 -0.556233 0.000000 0.902000
#
#
# Mechanical properties :
#
#
# Convention : Reuss Voigt Hill
#
# Bulk Modulus (GPa) = 58.68776 73.06560 65.87668
# Shear Modulus (GPa) = 3.53491 23.91912 13.72702
#
# Velocity S-wave (km/s) = 1.46611 3.81373 2.88912
# Velocity P-wave (km/s) = 6.20905 7.98885 7.15451
#
# Compressibility (1/GPa) = 0.01703933
#
# Stress axis : x y z
#
# Youngs Moduli (GPa) = 90.27085 48.35837 95.33066
#
# Poissons Ratio (x) = 0.18672 0.40466
# Poissons Ratio (y) = 0.34856 0.42876
# Poissons Ratio (z) = 0.38318 0.21750
#
# Static dielectric constant tensor:
#      x y z
#    x 1.613350 0.000000 0.005570 
#    y 0.000000 1.543420 0.000000 
#    z 0.005570 0.000000 1.618300 
# 
# From -- ./inp_files/66865.got.cif
#   From: 2010.05.17/outbox.cif.g08.bks.cpg/sg12_34_cif.got.tgz:66865.got - 2010.06.03 13:09:07.
