data_PCOD9193814
_publ_section_title
;
Structure prediction by ZEFSAII (Michael W. Deem and Ramdas Pophale) SiO2 
 PCOD9193814
Probable space group: C 2/M
;
_chemical_formula_sum "Si O2"
_cell_formula_units_Z 56
_cell_length_a 13.653845
_cell_length_b 13.819590
_cell_length_c 12.170916
_cell_angle_alpha 90.000000
_cell_angle_beta 80.626793
_cell_angle_gamma 90.000000
_cell_volume 2265.874338
_symmetry_space_group_name_H-M "C 2/M"
_symmetry_group_IT_number 12
_symmetry_cell_setting 'monoclinic'
loop_
_space_group_symop_operation_xyz
x,y,z
-x,y,-z
-x,-y,-z
x,-y,z
1/2+x,1/2+y,z
1/2-x,1/2+y,-z
1/2-x,1/2-y,-z
1/2+x,1/2-y,z
loop_
_atom_site_type_symbol
_atom_site_label
_atom_site_fract_x
_atom_site_fract_y
_atom_site_fract_z
Si Si1 0.084092 0.814403 0.737732
Si Si2 0.547636 0.105485 0.696813
Si Si3 0.188546 0.114829 0.498217
Si Si4 0.856835 0.384524 0.613631
Si Si5 0.363189 0.383287 0.740114
Si Si6 0.753376 0.713964 0.843647
Si Si7 0.585668 0.109199 0.061294
O O1 0.105928 0.701513 0.711132
O O2 0.123855 0.865352 0.619337
O O3 0.142843 0.826455 0.842190
O O4 0.968651 0.841897 0.763755
O O5 0.473266 0.126667 0.610715
O O6 0.472400 0.098294 0.813379
O O7 0.596926 0.000000 0.675331
O O8 0.299749 0.147518 0.513940
O O9 0.147977 0.146847 0.387291
O O10 0.191059 0.000000 0.485451
O O11 0.839820 0.500000 0.626824
O O12 0.804301 0.332916 0.725092
O O13 0.359757 0.500000 0.749901
O O14 0.278011 0.327300 0.823353
O O15 0.816955 0.671664 0.932871
O O16 0.610153 0.000000 0.017048
O O17 0.500000 0.152415 0.000000
#
# Coordination Sequence:
#
# PCOD9193814 Si02
#       7
#     8   8   8   8   8   8   8
#     4  11  20  33  54  80 107 146 184 223 266 322
#     4   9  17  32  53  77 108 138 169 219 279 325
#     4   9  19  33  51  75 102 139 190 235 262 299
#     4   8  14  29  51  70  95 131 172 218 267 306
#     4  11  22  37  53  75 111 151 189 228 266 312
#     4  10  20  34  54  81 107 140 176 219 274 327
#     4   9  17  34  62  86 102 126 168 221 273 325
#
# _framework density 24.714521000000001
#
# number of rings (size 3 to 8) (size 9 to 14) (size 15 to 20)
#    0.000    2.429    2.857    2.143    0.000    5.714 
#    2.571    0.714    0.000    3.857    0.000    0.000 
#    0.000    0.000    0.000    0.000    0.000    0.000 
#
# Total GULP energy -156339.887722 kJ/mol
# GULP energy per Si atom -5583.567419 kJ/mol
# Density = 2.465827 g / cm^3
# Si number density = 24.714521 Si / 1000 Ang^3
#
#
#
# Elastic Constant Matrix: (Units=GPa)
#
#
# Indices 1 2 3 4 5 6 
#
# 1 119.7563 44.7078 52.2105 0.0000 54.1496 0.0000
# 2 44.7078 74.2565 13.8164 0.0000 21.9747 0.0000
# 3 52.2105 13.8164 71.2591 0.0000 21.3887 0.0000
# 4 0.0000 0.0000 0.0000 11.7539 0.0000 4.3272
# 5 54.1496 21.9747 21.3887 0.0000 50.6633 0.0000
# 6 0.0000 0.0000 0.0000 4.3272 0.0000 19.0865
#
#
#
# Elastic Compliance Matrix: (Units=1/GPa)
#
#
# Indices 1 2 3 4 5 6 
#
# 1 0.023594 -0.006991 -0.010618 0.000000 -0.017702 0.000000
# 2 -0.006991 0.017601 0.002013 0.000000 -0.001012 0.000000
# 3 -0.010618 0.002013 0.020930 0.000000 0.001639 0.000000
# 4 0.000000 0.000000 0.000000 0.092826 0.000000 -0.021045
# 5 -0.017702 -0.001012 0.001639 0.000000 0.038406 0.000000
# 6 0.000000 0.000000 0.000000 -0.021045 0.000000 0.057164
#
#
# Mechanical properties :
#
#
# Convention : Reuss Voigt Hill
#
# Bulk Modulus (GPa) = 32.32660 54.08235 43.20448
# Shear Modulus (GPa) = 17.12193 26.60321 21.86257
#
# Velocity S-wave (km/s) = 2.63494 3.28444 2.97746
# Velocity P-wave (km/s) = 4.72923 6.02609 5.41661
#
# Compressibility (1/GPa) = 0.03093428
#
# Stress axis : x y z
#
# Youngs Moduli (GPa) = 42.38439 56.81576 47.77720
#
# Poissons Ratio (x) = 0.39719 0.50729
# Poissons Ratio (y) = 0.29630 -0.09619
# Poissons Ratio (z) = 0.45003 -0.11439
#
# Static dielectric constant tensor:
#      x y z
#    x 2.033680 0.000000 0.026030 
#    y 0.000000 1.959990 0.000000 
#    z 0.026030 0.000000 2.132110 
# 
# From -- ./inp_files/214275.got.cif
#   From: 2010.05.17/outbox.cif.g08.bks.cpg/sg12_108_cif.got.tgz:214275.got - 2010.06.03 13:09:07.
