data_PCOD9193862
_publ_section_title
;
Structure prediction by ZEFSAII (Michael W. Deem and Ramdas Pophale) SiO2 
 PCOD9193862
Probable space group: C 2/M
;
_chemical_formula_sum "Si O2"
_cell_formula_units_Z 56
_cell_length_a 14.818911
_cell_length_b 7.979331
_cell_length_c 23.976050
_cell_angle_alpha 90.000000
_cell_angle_beta 93.527114
_cell_angle_gamma 90.000000
_cell_volume 2829.677778
_symmetry_space_group_name_H-M "C 2/M"
_symmetry_group_IT_number 12
_symmetry_cell_setting 'monoclinic'
loop_
_space_group_symop_operation_xyz
x,y,z
-x,y,-z
-x,-y,-z
x,-y,z
1/2+x,1/2+y,z
1/2-x,1/2+y,-z
1/2-x,1/2-y,-z
1/2+x,1/2-y,z
loop_
_atom_site_type_symbol
_atom_site_label
_atom_site_fract_x
_atom_site_fract_y
_atom_site_fract_z
Si Si1 0.744560 0.299248 0.563976
Si Si2 0.874734 0.203213 0.946934
Si Si3 0.269502 0.696551 0.732679
Si Si4 0.904903 0.301689 0.649666
Si Si5 0.892211 0.300008 0.350574
Si Si6 0.579409 0.704074 0.928423
Si Si7 0.273349 0.303979 0.146754
O O1 0.742785 0.500000 0.568387
O O2 0.750000 0.250000 0.500000
O O3 0.832208 0.234730 0.601865
O O4 0.655714 0.232363 0.592094
O O5 0.799482 0.281166 0.905031
O O6 0.974545 0.249894 0.928389
O O7 0.867101 0.000000 0.944697
O O8 0.873111 0.256284 0.011721
O O9 0.276124 0.500000 0.720269
O O10 0.357188 0.777731 0.707640
O O11 0.179781 0.765316 0.697926
O O12 0.259145 0.719694 0.797916
O O13 0.911985 0.500000 0.638941
O O14 0.006201 0.230956 0.650007
O O15 0.898192 0.500000 0.342021
O O16 0.582397 0.500000 0.928374
O O17 0.633666 0.763671 0.876591
O O18 0.284554 0.500000 0.159615
#
# Coordination Sequence:
#
# PCOD9193862 Si02
#       7
#     8   8   8   8   8   8   8
#     4  10  20  34  54  81 113 143 174 211 253 300
#     4   9  17  34  55  74  98 131 170 208 251 307
#     4  10  21  36  53  75 101 132 171 215 256 302
#     4   9  19  37  58  78 103 138 173 212 260 304
#     4   9  19  37  58  77 102 136 175 215 258 303
#     4   8  17  33  53  74 100 133 166 205 256 310
#     4  11  21  33  50  75 104 133 166 208 257 306
#
# _framework density 19.790240000000001
#
# number of rings (size 3 to 8) (size 9 to 14) (size 15 to 20)
#    0.000    2.571    0.000    2.571    0.000    3.429 
#    0.000    9.286    0.000    0.000    0.000    0.000 
#    0.000    0.000    0.000    0.000    0.000    0.000 
#
# Total GULP energy -156211.610463 kJ/mol
# GULP energy per Si atom -5578.986088 kJ/mol
# Density = 1.974520 g / cm^3
# Si number density = 19.790240 Si / 1000 Ang^3
#
#
#
# Elastic Constant Matrix: (Units=GPa)
#
#
# Indices 1 2 3 4 5 6 
#
# 1 125.7211 -0.3383 34.6888 0.0000 -22.2613 0.0000
# 2 -0.3383 9.5246 -14.0015 0.0000 6.6682 0.0000
# 3 34.6888 -14.0015 60.3599 0.0000 -19.9485 0.0000
# 4 0.0000 0.0000 0.0000 20.5084 0.0000 1.3601
# 5 -22.2613 6.6682 -19.9485 0.0000 15.3378 0.0000
# 6 0.0000 0.0000 0.0000 1.3601 0.0000 12.3565
#
#
#
# Elastic Compliance Matrix: (Units=1/GPa)
#
#
# Indices 1 2 3 4 5 6 
#
# 1 0.013437 -0.023694 -0.005908 0.000000 0.022120 0.000000
# 2 -0.023694 0.214181 0.037113 0.000000 -0.079236 0.000000
# 3 -0.005908 0.037113 0.035789 0.000000 0.021837 0.000000
# 4 0.000000 0.000000 0.000000 0.049119 0.000000 -0.005407
# 5 0.022120 -0.079236 0.021837 0.000000 0.160152 0.000000
# 6 0.000000 0.000000 0.000000 -0.005407 0.000000 0.081524
#
#
# Mechanical properties :
#
#
# Convention : Reuss Voigt Hill
#
# Bulk Modulus (GPa) = 3.59160 26.25593 14.92376
# Shear Modulus (GPa) = 7.91152 21.32432 14.61792
#
# Velocity S-wave (km/s) = 2.00159 3.28612 2.72075
# Velocity P-wave (km/s) = 2.67593 5.26251 4.17460
#
# Compressibility (1/GPa) = 0.27842764
#
# Stress axis : x y z
#
# Youngs Moduli (GPa) = 74.42004 4.66895 27.94191
#
# Poissons Ratio (x) = 0.11063 0.16509
# Poissons Ratio (y) = 1.76331 -1.03700
# Poissons Ratio (z) = 0.43969 -0.17328
#
# Static dielectric constant tensor:
#      x y z
#    x 1.713290 0.000000 0.004030 
#    y 0.000000 1.717170 0.000000 
#    z 0.004030 0.000000 1.673230 
# 
# From -- ./inp_files/308962.got.cif
#   From: 2010.05.17/outbox.cif.g08.bks.cpg/sg12_155_cif.got.tgz:308962.got - 2010.06.03 13:09:07.
