data_PCOD9193159
_publ_section_title
;
Structure prediction by ZEFSAII (Michael W. Deem and Ramdas Pophale) SiO2 
 PCOD9193159
Probable space group: C 2/M
;
_chemical_formula_sum "Si O2"
_cell_formula_units_Z 56
_cell_length_a 29.435729
_cell_length_b 8.242170
_cell_length_c 17.969277
_cell_angle_alpha 90.000000
_cell_angle_beta 137.566128
_cell_angle_gamma 90.000000
_cell_volume 2941.593586
_symmetry_space_group_name_H-M "C 2/M"
_symmetry_group_IT_number 12
_symmetry_cell_setting 'monoclinic'
loop_
_space_group_symop_operation_xyz
x,y,z
-x,y,-z
-x,-y,-z
x,-y,z
1/2+x,1/2+y,z
1/2-x,1/2+y,-z
1/2-x,1/2-y,-z
1/2+x,1/2-y,z
loop_
_atom_site_type_symbol
_atom_site_label
_atom_site_fract_x
_atom_site_fract_y
_atom_site_fract_z
Si Si1 0.383096 0.807777 0.572674
Si Si2 0.311870 0.308318 0.345144
Si Si3 0.541328 0.302354 0.913661
Si Si4 0.334244 0.308759 0.834340
Si Si5 0.532966 0.693124 0.736246
Si Si6 0.429125 0.698364 0.376891
Si Si7 0.389506 0.806961 0.748007
O O1 0.327650 0.769602 0.444238
O O2 0.453200 0.726255 0.632527
O O3 0.367844 0.753467 0.638656
O O4 0.394924 0.000000 0.590238
O O5 0.322001 0.500000 0.365728
O O6 0.235849 0.273767 0.229911
O O7 0.366562 0.247242 0.351311
O O8 0.536756 0.500000 0.909891
O O9 0.553310 0.247466 0.842797
O O10 0.468825 0.234685 0.849845
O O11 0.601847 0.251043 0.040243
O O12 0.327229 0.500000 0.838642
O O13 0.350585 0.276738 0.767849
O O14 0.542860 0.500000 0.749211
O O15 0.569923 0.756601 0.707391
O O16 0.500000 0.745650 0.500000
O O17 0.427937 0.500000 0.374376
O O18 0.379935 0.000000 0.742759
#
# Coordination Sequence:
#
# PCOD9193159 Si02
#       7
#     8   8   8   8   8   8   8
#     4  10  20  34  52  80 112 137 169 218 270 316
#     4  11  22  36  55  78 107 143 181 216 261 318
#     4   9  19  35  57  81 106 141 179 218 263 309
#     4  11  23  38  53  75 109 144 180 220 265 314
#     4   9  16  32  57  81 106 137 177 218 257 309
#     4   9  16  30  55  84 106 132 175 219 258 310
#     4  10  21  36  57  82 106 137 179 221 264 314
#
# _framework density 19.037300999999999
#
# number of rings (size 3 to 8) (size 9 to 14) (size 15 to 20)
#    0.000    2.143    1.429    2.143    0.000    5.143 
#    0.000    2.857    0.000    0.000    0.000    0.000 
#    0.000    0.000    0.000    0.000    0.000    0.000 
#
# Total GULP energy -156284.984132 kJ/mol
# GULP energy per Si atom -5581.606576 kJ/mol
# Density = 1.899397 g / cm^3
# Si number density = 19.037301 Si / 1000 Ang^3
#
#
#
# Elastic Constant Matrix: (Units=GPa)
#
#
# Indices 1 2 3 4 5 6 
#
# 1 97.8096 2.8820 19.8083 0.0000 -1.9128 0.0000
# 2 2.8820 -0.6844 -2.0085 0.0000 -3.4545 0.0000
# 3 19.8083 -2.0085 19.7632 0.0000 -0.7151 0.0000
# 4 0.0000 0.0000 0.0000 23.5767 0.0000 5.2954
# 5 -1.9128 -3.4545 -0.7151 0.0000 17.0611 0.0000
# 6 0.0000 0.0000 0.0000 5.2954 0.0000 14.1366
#
#
#
# Elastic Compliance Matrix: (Units=1/GPa)
#
#
# Indices 1 2 3 4 5 6 
#
# 1 0.010963 0.031474 -0.007526 0.000000 0.007286 0.000000
# 2 0.031474 -0.527365 -0.089012 0.000000 -0.106983 0.000000
# 3 -0.007526 -0.089012 0.048487 0.000000 -0.016835 0.000000
# 4 0.000000 0.000000 0.000000 0.046311 0.000000 -0.017348
# 5 0.007286 -0.106983 -0.016835 0.000000 0.037062 0.000000
# 6 0.000000 0.000000 0.000000 -0.017348 0.000000 0.077237
#
#
# Mechanical properties :
#
#
# Convention : Reuss Voigt Hill
#
# Bulk Modulus (GPa) = -1.67212 17.58355 7.95572
# Shear Modulus (GPa) = -13.27937 17.36863 2.04463
#
# Velocity S-wave (km/s) = -2.64397 3.02379 1.03747
# Velocity P-wave (km/s) = 3.19391 4.63114 2.37133
#
# Compressibility (1/GPa) = -0.59804384
#
# Stress axis : x y z
#
# Youngs Moduli (GPa) = 91.21433 -1.89622 20.62412
#
# Poissons Ratio (x) = 0.05968 0.15522
# Poissons Ratio (y) = -2.87085 1.83580
# Poissons Ratio (z) = 0.68647 -0.16879
#
# Static dielectric constant tensor:
#      x y z
#    x 1.663360 0.000000 -0.029510 
#    y 0.000000 1.668150 0.000000 
#    z -0.029510 0.000000 1.654130 
# 
# From -- ./inp_files/281604.got.cif
#   From: 2010.05.17/outbox.cif.g08.bks.cpg/sg12_141_cif.got.tgz:281604.got - 2010.06.03 13:09:07.
