data_PCOD9193596
_publ_section_title
;
Structure prediction by ZEFSAII (Michael W. Deem and Ramdas Pophale) SiO2 
 PCOD9193596
Probable space group: C 2/M
;
_chemical_formula_sum "Si O2"
_cell_formula_units_Z 48
_cell_length_a 15.472478
_cell_length_b 9.141498
_cell_length_c 27.816825
_cell_angle_alpha 90.000000
_cell_angle_beta 34.176102
_cell_angle_gamma 90.000000
_cell_volume 2210.135389
_symmetry_space_group_name_H-M "C 2/M"
_symmetry_group_IT_number 12
_symmetry_cell_setting 'monoclinic'
loop_
_space_group_symop_operation_xyz
x,y,z
-x,y,-z
-x,-y,-z
x,-y,z
1/2+x,1/2+y,z
1/2-x,1/2+y,-z
1/2-x,1/2-y,-z
1/2+x,1/2-y,z
loop_
_atom_site_type_symbol
_atom_site_label
_atom_site_fract_x
_atom_site_fract_y
_atom_site_fract_z
Si Si1 0.341765 0.337023 0.813570
Si Si2 0.791107 0.322926 0.698130
Si Si3 0.091429 0.169540 0.879198
Si Si4 0.293297 0.168004 0.027617
Si Si5 0.178364 0.677923 0.423919
Si Si6 0.574245 0.331476 0.621507
O O1 0.269250 0.500000 0.837689
O O2 0.240254 0.203102 0.842325
O O3 0.491947 0.337606 0.712155
O O4 0.339984 0.323413 0.871352
O O5 0.806840 0.500000 0.692751
O O6 0.653038 0.281726 0.798157
O O7 0.757029 0.280983 0.658697
O O8 0.951474 0.254208 0.644784
O O9 0.954529 0.258538 0.966252
O O10 0.050175 0.000000 0.895777
O O11 0.321091 0.000000 0.004855
O O12 0.250000 0.250000 0.000000
O O13 0.184172 0.500000 0.424866
O O14 0.261474 0.731143 0.435089
O O15 0.000000 0.719838 0.500000
O O16 0.589390 0.500000 0.597379
#
# Coordination Sequence:
#
# PCOD9193596 Si02
#       6
#     8   8   8   8   8   8
#     4   9  19  35  54  73 100 138 178 217 264 317
#     4   9  19  35  56  80 110 143 179 223 271 321
#     4  10  20  34  54  76 103 138 177 220 267 316
#     4  11  23  35  50  75 106 140 178 221 264 311
#     4   9  18  33  56  83 108 141 182 220 265 327
#     4   9  18  34  57  80 106 141 181 221 266 324
#
# _framework density 21.718126000000002
#
# number of rings (size 3 to 8) (size 9 to 14) (size 15 to 20)
#    0.000    2.500    0.000    1.500    2.333    4.667 
#    0.000    0.833    0.000    1.000    0.000    0.000 
#    0.000    0.000    0.000    0.000    0.000    0.000 
#
# Total GULP energy -133686.666788 kJ/mol
# GULP energy per Si atom -5570.277783 kJ/mol
# Density = 2.166869 g / cm^3
# Si number density = 21.718126 Si / 1000 Ang^3
#
#
#
# Elastic Constant Matrix: (Units=GPa)
#
#
# Indices 1 2 3 4 5 6 
#
# 1 84.8742 0.8678 -18.1136 0.0000 -3.4056 -0.0001
# 2 0.8678 22.2709 0.9590 0.0000 1.5271 0.0000
# 3 -18.1136 0.9590 23.5951 0.0000 2.9258 0.0000
# 4 0.0000 0.0000 0.0000 15.5196 0.0000 -3.2566
# 5 -3.4056 1.5271 2.9258 0.0000 32.2036 0.0000
# 6 -0.0001 0.0000 0.0000 -3.2566 0.0000 28.4323
#
#
#
# Elastic Compliance Matrix: (Units=1/GPa)
#
#
# Indices 1 2 3 4 5 6 
#
# 1 0.014124 -0.001055 0.010816 0.000000 0.000561 0.000000
# 2 -0.001055 0.045185 -0.002394 0.000000 -0.002037 0.000000
# 3 0.010816 -0.002394 0.051203 0.000000 -0.003395 0.000000
# 4 0.000000 0.000000 0.000000 0.066021 0.000000 0.007562
# 5 0.000561 -0.002037 -0.003395 0.000000 0.031517 0.000000
# 6 0.000000 0.000000 0.000000 0.007562 0.000000 0.036037
#
#
# Mechanical properties :
#
#
# Convention : Reuss Voigt Hill
#
# Bulk Modulus (GPa) = 7.98417 10.90740 9.44579
# Shear Modulus (GPa) = 18.44328 25.03291 21.73810
#
# Velocity S-wave (km/s) = 2.91728 3.39872 3.16716
# Velocity P-wave (km/s) = 3.87707 4.52050 4.21109
#
# Compressibility (1/GPa) = 0.12524780
#
# Stress axis : x y z
#
# Youngs Moduli (GPa) = 70.80281 22.13106 19.53003
#
# Poissons Ratio (x) = 0.02334 -0.21123
# Poissons Ratio (y) = 0.07466 0.04675
# Poissons Ratio (z) = -0.76580 0.05297
#
# Static dielectric constant tensor:
#      x y z
#    x 2.106380 0.000000 -0.140070 
#    y 0.000000 1.776100 0.000000 
#    z -0.140070 0.000000 1.958140 
# 
# From -- ./inp_files/314492.got.cif
#   From: 2010.05.17/outbox.cif.g08.bks.cpg/sg12_158_cif.got.tgz:314492.got - 2010.06.03 13:09:07.
