data_PCOD9193953
_publ_section_title
;
Structure prediction by ZEFSAII (Michael W. Deem and Ramdas Pophale) SiO2 
 PCOD9193953
Probable space group: C 2/M
;
_chemical_formula_sum "Si O2"
_cell_formula_units_Z 50
_cell_length_a 29.404187
_cell_length_b 8.855555
_cell_length_c 28.833523
_cell_angle_alpha 90.000000
_cell_angle_beta 16.247992
_cell_angle_gamma 90.000000
_cell_volume 2100.695912
_symmetry_space_group_name_H-M "C 2/M"
_symmetry_group_IT_number 12
_symmetry_cell_setting 'monoclinic'
loop_
_space_group_symop_operation_xyz
x,y,z
-x,y,-z
-x,-y,-z
x,-y,z
1/2+x,1/2+y,z
1/2-x,1/2+y,-z
1/2-x,1/2-y,-z
1/2+x,1/2-y,z
loop_
_atom_site_type_symbol
_atom_site_label
_atom_site_fract_x
_atom_site_fract_y
_atom_site_fract_z
Si Si1 0.500000 0.500000 0.500000
Si Si2 0.082765 0.685069 0.613799
Si Si3 0.881382 0.682100 0.262496
Si Si4 0.589500 0.681422 0.133207
Si Si5 0.646203 0.329798 0.882910
Si Si6 0.863610 0.330288 0.748273
Si Si7 0.668943 0.226927 0.387183
O O1 0.582390 0.373806 0.452823
O O2 0.092252 0.500000 0.606577
O O3 0.234647 0.755949 0.438396
O O4 0.051015 0.759013 0.694366
O O5 0.927241 0.732256 0.734230
O O6 0.888400 0.500000 0.255780
O O7 0.825825 0.741618 0.266288
O O8 0.041588 0.752800 0.129546
O O9 0.596671 0.500000 0.124799
O O10 0.750000 0.750000 0.000000
O O11 0.591468 0.500000 0.949860
O O12 0.731973 0.255123 0.843167
O O13 0.775148 0.347731 0.715256
O O14 0.500000 0.246200 0.000000
O O15 0.805730 0.500000 0.814711
O O16 0.029326 0.343955 0.555736
#
# Coordination Sequence:
#
# PCOD9193953 Si02
#       7
#     2   8   8   8   8   8   8
#     4  12  20  36  60  88 124 160 210 246 312 348
#     4  10  21  39  64  93 122 159 208 259 312 367
#     4  11  23  40  64  94 124 161 211 261 311 370
#     4  12  26  45  66  90 125 166 206 256 317 379
#     4  10  20  34  54  83 118 154 196 248 306 368
#     4   9  18  34  58  85 113 152 201 250 301 362
#     4  11  21  36  61  86 122 160 204 253 304 363
#
# _framework density 23.801634
#
# number of rings (size 3 to 8) (size 9 to 14) (size 15 to 20)
#    0.000    1.440    2.400    3.360    0.000    4.480 
#    0.000    2.000    0.000    0.000    0.000    0.000 
#    0.000    0.000    0.000    0.000    0.000    0.000 
#
# Total GULP energy -139265.367372 kJ/mol
# GULP energy per Si atom -5570.614695 kJ/mol
# Density = 2.374746 g / cm^3
# Si number density = 23.801634 Si / 1000 Ang^3
#
#
#
# Elastic Constant Matrix: (Units=GPa)
#
#
# Indices 1 2 3 4 5 6 
#
# 1 204.2018 30.7507 19.8421 0.0068 -42.5033 0.0061
# 2 30.7507 128.7224 0.1455 -0.0401 -12.1129 0.0225
# 3 19.8421 0.1455 45.4430 -0.0275 -14.3155 0.0091
# 4 0.0068 -0.0401 -0.0275 16.2374 0.0105 -14.8045
# 5 -42.5033 -12.1129 -14.3155 0.0105 58.5802 0.0017
# 6 0.0061 0.0225 0.0091 -14.8045 0.0017 20.7903
#
#
#
# Elastic Compliance Matrix: (Units=1/GPa)
#
#
# Indices 1 2 3 4 5 6 
#
# 1 0.005982 -0.001072 -0.001420 -0.000029 0.003771 -0.000021
# 2 -0.001072 0.008127 0.000787 0.000037 0.001095 0.000018
# 3 -0.001420 0.000787 0.024214 0.000085 0.005049 0.000049
# 4 -0.000029 0.000037 0.000085 0.175585 -0.000028 0.125032
# 5 0.003771 0.001095 0.005049 -0.000028 0.021267 -0.000026
# 6 -0.000021 0.000018 0.000049 0.125032 -0.000026 0.137134
#
#
# Mechanical properties :
#
#
# Convention : Reuss Voigt Hill
#
# Bulk Modulus (GPa) = 28.64421 53.31598 40.98009
# Shear Modulus (GPa) = 12.90800 40.96350 26.93575
#
# Velocity S-wave (km/s) = 2.33129 4.15304 3.36769
# Velocity P-wave (km/s) = 4.39400 6.74135 5.69003
#
# Compressibility (1/GPa) = 0.03491107
#
# Stress axis : x y z
#
# Youngs Moduli (GPa) = 167.18001 123.04676 41.29848
#
# Poissons Ratio (x) = 0.13197 0.05866
# Poissons Ratio (y) = 0.17930 -0.03251
# Poissons Ratio (z) = 0.23746 -0.09685
#
# Static dielectric constant tensor:
#      x y z
#    x 1.941860 0.000000 -0.032230 
#    y 0.000000 1.865220 0.000010 
#    z -0.032230 0.000010 2.067290 
# 
# From -- ./inp_files/384753.got.cif
#   From: 2010.05.17/outbox.cif.g08.bks.cpg/sg12_193_cif.got.tgz:384753.got - 2010.06.03 13:09:07.
