data_PCOD9193733
_publ_section_title
;
Structure prediction by ZEFSAII (Michael W. Deem and Ramdas Pophale) SiO2 
 PCOD9193733
Probable space group: C 2/M
;
_chemical_formula_sum "Si O2"
_cell_formula_units_Z 56
_cell_length_a 21.297503
_cell_length_b 7.788825
_cell_length_c 21.598899
_cell_angle_alpha 90.000000
_cell_angle_beta 46.992130
_cell_angle_gamma 90.000000
_cell_volume 2620.016801
_symmetry_space_group_name_H-M "C 2/M"
_symmetry_group_IT_number 12
_symmetry_cell_setting 'monoclinic'
loop_
_space_group_symop_operation_xyz
x,y,z
-x,y,-z
-x,-y,-z
x,-y,z
1/2+x,1/2+y,z
1/2-x,1/2+y,-z
1/2-x,1/2-y,-z
1/2+x,1/2-y,z
loop_
_atom_site_type_symbol
_atom_site_label
_atom_site_fract_x
_atom_site_fract_y
_atom_site_fract_z
Si Si1 0.666042 0.288597 0.730754
Si Si2 0.517427 0.202547 0.582346
Si Si3 0.290849 0.794373 0.063348
Si Si4 0.861260 0.289973 0.609647
Si Si5 0.444761 0.303625 0.304814
Si Si6 0.385440 0.200657 0.876141
Si Si7 0.086291 0.794289 0.910199
O O1 0.664237 0.500000 0.731282
O O2 0.763334 0.232181 0.677233
O O3 0.628093 0.228127 0.690930
O O4 0.606249 0.231254 0.827897
O O5 0.590018 0.266740 0.485906
O O6 0.423912 0.267793 0.623246
O O7 0.539099 0.226050 0.639015
O O8 0.514143 0.000000 0.572891
O O9 0.196850 0.720282 0.113372
O O10 0.333927 0.743795 0.098535
O O11 0.284450 0.000000 0.063242
O O12 0.352557 0.735273 0.965190
O O13 0.856936 0.500000 0.613226
O O14 0.421590 0.500000 0.332179
O O15 0.532705 0.294173 0.206551
O O16 0.407215 0.000000 0.866684
O O17 0.077169 0.000000 0.912261
O O18 0.000000 0.723964 0.000000
#
# Coordination Sequence:
#
# PCOD9193733 Si02
#       7
#     8   8   8   8   8   8   8
#     4   9  19  34  53  78 111 152 192 230 275 333
#     4   9  18  34  59  84 107 140 187 237 280 336
#     4  10  21  36  55  81 109 141 185 239 290 328
#     4   8  16  34  57  81 107 142 191 234 273 336
#     4  11  22  35  54  82 115 146 182 233 283 330
#     4  10  21  37  56  77 108 148 187 225 275 341
#     4  10  20  34  54  79 109 151 198 232 270 331
#
# _framework density 21.373908
#
# number of rings (size 3 to 8) (size 9 to 14) (size 15 to 20)
#    0.000    2.429    0.000    3.000    2.000    3.714 
#    0.000    2.857    0.000    3.429    0.000    0.000 
#    0.000    0.000    0.000    0.000    0.000    0.000 
#
# Total GULP energy -156354.676723 kJ/mol
# GULP energy per Si atom -5584.095597 kJ/mol
# Density = 2.132526 g / cm^3
# Si number density = 21.373908 Si / 1000 Ang^3
#
#
#
# Elastic Constant Matrix: (Units=GPa)
#
#
# Indices 1 2 3 4 5 6 
#
# 1 136.1011 -4.6091 68.7856 0.0002 14.8714 -0.0001
# 2 -4.6091 25.0071 6.8141 0.0006 -1.6008 -0.0003
# 3 68.7856 6.8141 76.3090 -0.0002 -1.7098 0.0000
# 4 0.0002 0.0006 -0.0002 -10.2838 -0.0001 -0.7538
# 5 14.8714 -1.6008 -1.7098 -0.0001 30.4411 0.0002
# 6 -0.0001 -0.0003 0.0000 -0.7538 0.0002 14.8948
#
#
#
# Elastic Compliance Matrix: (Units=1/GPa)
#
#
# Indices 1 2 3 4 5 6 
#
# 1 0.016353 0.006701 -0.015530 0.000001 -0.008509 0.000000
# 2 0.006701 0.043848 -0.009990 0.000003 -0.001529 0.000001
# 3 -0.015530 -0.009990 0.028189 -0.000002 0.008645 0.000000
# 4 0.000001 0.000003 -0.000002 -0.096881 -0.000001 -0.004903
# 5 -0.008509 -0.001529 0.008645 -0.000001 0.037412 -0.000001
# 6 0.000000 0.000001 0.000000 -0.004903 -0.000001 0.066890
#
#
# Mechanical properties :
#
#
# Convention : Reuss Voigt Hill
#
# Bulk Modulus (GPa) = 19.70349 42.15539 30.92944
# Shear Modulus (GPa) = 33.25236 18.10552 25.67894
#
# Velocity S-wave (km/s) = 3.94857 2.91363 3.46990
# Velocity P-wave (km/s) = 5.47967 5.57536 5.52772
#
# Compressibility (1/GPa) = 0.05075244
#
# Stress axis : x y z
#
# Youngs Moduli (GPa) = 61.15160 22.80603 35.47498
#
# Poissons Ratio (x) = -0.15282 0.55091
# Poissons Ratio (y) = -0.40978 0.35440
# Poissons Ratio (z) = 0.94966 0.22783
#
# Static dielectric constant tensor:
#      x y z
#    x 1.765860 0.000000 0.000290 
#    y 0.000000 1.779900 0.000000 
#    z 0.000290 0.000000 1.753620 
# 
# From -- ./inp_files/319691.got.cif
#   From: 2010.05.17/outbox.cif.g08.bks.cpg/sg12_160_cif.got.tgz:319691.got - 2010.06.03 13:09:07.
