data_PCOD9193301
_publ_section_title
;
Structure prediction by ZEFSAII (Michael W. Deem and Ramdas Pophale) SiO2 
 PCOD9193301
Probable space group: C 2/M
;
_chemical_formula_sum "Si O2"
_cell_formula_units_Z 40
_cell_length_a 19.164849
_cell_length_b 8.914312
_cell_length_c 27.423683
_cell_angle_alpha 90.000000
_cell_angle_beta 151.101946
_cell_angle_gamma 90.000000
_cell_volume 2264.087751
_symmetry_space_group_name_H-M "C 2/M"
_symmetry_group_IT_number 12
_symmetry_cell_setting 'monoclinic'
loop_
_space_group_symop_operation_xyz
x,y,z
-x,y,-z
-x,-y,-z
x,-y,z
1/2+x,1/2+y,z
1/2-x,1/2+y,-z
1/2-x,1/2-y,-z
1/2+x,1/2-y,z
loop_
_atom_site_type_symbol
_atom_site_label
_atom_site_fract_x
_atom_site_fract_y
_atom_site_fract_z
Si Si1 0.907082 0.678840 0.092089
Si Si2 0.842123 0.319486 0.309512
Si Si3 0.923115 0.320163 0.903478
Si Si4 0.325814 0.818512 0.499262
Si Si5 0.675128 0.319183 0.305823
O O1 0.898941 0.500000 0.092472
O O2 0.975265 0.713147 0.080713
O O3 0.020805 0.746142 0.200167
O O4 0.750000 0.750000 0.000000
O O5 0.837693 0.500000 0.304234
O O6 0.730891 0.252967 0.202334
O O7 0.781383 0.276987 0.325966
O O8 0.006674 0.271509 0.402303
O O9 0.904733 0.500000 0.894890
O O10 0.000000 0.268836 0.000000
O O11 0.250000 0.750000 0.500000
O O12 0.242855 0.775251 0.398885
O O13 0.322725 0.000000 0.500342
O O14 0.660640 0.500000 0.296107
#
# Coordination Sequence:
#
# PCOD9193301 Si02
#       5
#     8   8   8   8   8
#     4  10  20  34  53  77 104 134 170 210 252 300
#     4   9  18  34  55  76  98 130 173 212 247 294
#     4   9  19  35  53  74 101 133 168 206 251 301
#     4  10  21  35  52  77 106 134 166 208 257 304
#     4   9  18  35  56  74  98 135 174 210 250 297
#
# _framework density 17.667159999999999
#
# number of rings (size 3 to 8) (size 9 to 14) (size 15 to 20)
#    0.000    2.600    0.000    1.200    0.000    6.800 
#    0.000    6.000    0.000    6.000    0.000    0.000 
#    0.000    0.000    0.000    0.000    0.000    0.000 
#
# Total GULP energy -111586.474573 kJ/mol
# GULP energy per Si atom -5579.323729 kJ/mol
# Density = 1.762695 g / cm^3
# Si number density = 17.667160 Si / 1000 Ang^3
#
#
#
# Elastic Constant Matrix: (Units=GPa)
#
#
# Indices 1 2 3 4 5 6 
#
# 1 95.6490 34.7717 116.7796 0.0000 -3.6041 0.0000
# 2 34.7717 15.8652 53.6219 0.0000 2.4230 0.0000
# 3 116.7796 53.6219 224.3147 -0.0002 0.0679 0.0000
# 4 0.0000 0.0000 -0.0002 32.8293 0.0000 -0.5833
# 5 -3.6041 2.4230 0.0679 0.0000 39.0694 0.0000
# 6 0.0000 0.0000 0.0000 -0.5833 0.0000 26.9786
#
#
#
# Elastic Compliance Matrix: (Units=1/GPa)
#
#
# Indices 1 2 3 4 5 6 
#
# 1 0.058067 -0.141826 0.003669 0.000000 0.014146 0.000000
# 2 -0.141826 0.691383 -0.091421 0.000000 -0.055803 0.000000
# 3 0.003669 -0.091421 0.024400 0.000000 0.005966 0.000000
# 4 0.000000 0.000000 0.000000 0.030472 0.000000 0.000659
# 5 0.014146 -0.055803 0.005966 0.000000 0.030351 0.000000
# 6 0.000000 0.000000 0.000000 0.000659 0.000000 0.037081
#
#
# Mechanical properties :
#
#
# Convention : Reuss Voigt Hill
#
# Bulk Modulus (GPa) = 3.17770 82.90839 43.04304
# Shear Modulus (GPa) = 3.48236 28.48584 15.98410
#
# Velocity S-wave (km/s) = 1.40548 4.01978 3.01114
# Velocity P-wave (km/s) = 2.10627 8.28098 6.04198
#
# Compressibility (1/GPa) = 0.31469315
#
# Stress axis : x y z
#
# Youngs Moduli (GPa) = 17.22136 1.44638 40.98325
#
# Poissons Ratio (x) = 0.20513 -0.15036
# Poissons Ratio (y) = 2.44244 3.74673
# Poissons Ratio (z) = -0.06318 0.13223
#
# Static dielectric constant tensor:
#      x y z
#    x 1.588430 0.000000 -0.004350 
#    y 0.000000 1.594940 0.000000 
#    z -0.004350 0.000000 1.578680 
# 
# From -- ./inp_files/141107.got.cif
#   From: 2010.05.17/outbox.cif.g08.bks.cpg/sg12_71_cif.got.tgz:141107.got - 2010.06.03 13:09:07.
