data_PCOD9193631
_publ_section_title
;
Structure prediction by ZEFSAII (Michael W. Deem and Ramdas Pophale) SiO2 
 PCOD9193631
Probable space group: C 2/M
;
_chemical_formula_sum "Si O2"
_cell_formula_units_Z 58
_cell_length_a 25.375150
_cell_length_b 7.499189
_cell_length_c 14.939717
_cell_angle_alpha 90.000000
_cell_angle_beta 88.739329
_cell_angle_gamma 90.000000
_cell_volume 2842.236112
_symmetry_space_group_name_H-M "C 2/M"
_symmetry_group_IT_number 12
_symmetry_cell_setting 'monoclinic'
loop_
_space_group_symop_operation_xyz
x,y,z
-x,y,-z
-x,-y,-z
x,-y,z
1/2+x,1/2+y,z
1/2-x,1/2+y,-z
1/2-x,1/2-y,-z
1/2+x,1/2-y,z
loop_
_atom_site_type_symbol
_atom_site_label
_atom_site_fract_x
_atom_site_fract_y
_atom_site_fract_z
Si Si1 0.549519 0.784728 0.879130
Si Si2 0.460032 0.284633 0.618222
Si Si3 0.426196 0.290396 0.317467
Si Si4 0.866755 0.212644 0.759293
Si Si5 0.000000 0.500000 0.500000
Si Si6 0.783851 0.783085 0.626191
Si Si7 0.067510 0.711096 0.075994
Si Si8 0.169455 0.209329 0.562042
O O1 0.579340 0.728718 0.788787
O O2 0.488216 0.720902 0.881311
O O3 0.549480 0.000000 0.877220
O O4 0.572635 0.723266 0.973836
O O5 0.459140 0.500000 0.601002
O O6 0.515871 0.221002 0.658796
O O7 0.414354 0.241499 0.690043
O O8 0.458026 0.159914 0.532269
O O9 0.429355 0.500000 0.336197
O O10 0.378178 0.215022 0.377124
O O11 0.813300 0.278394 0.714862
O O12 0.884790 0.262027 0.857875
O O13 0.863586 0.000000 0.759372
O O14 0.816945 0.720295 0.537578
O O15 0.724018 0.724491 0.614690
O O16 0.783533 0.000000 0.624341
O O17 0.060035 0.500000 0.068261
O O18 0.157975 0.000000 0.548568
#
# Coordination Sequence:
#
# PCOD9193631 Si02
#       8
#     8   8   8   8   2   8   8   8
#     4   9  18  32  51  76 108 141 175 220 268 320
#     4  10  23  39  52  79 116 146 182 232 276 324
#     4  10  20  34  54  77 109 143 175 221 276 324
#     4  10  20  34  54  77 109 143 175 221 276 324
#     4  12  26  36  52  78 110 160 194 212 268 356
#     4   9  19  36  54  75 101 138 180 222 270 317
#     4   9  18  32  51  76 108 141 175 220 268 320
#     4   9  19  36  54  75 101 138 180 222 270 317
#
# _framework density 20.406469000000001
#
# number of rings (size 3 to 8) (size 9 to 14) (size 15 to 20)
#    0.000    2.483    1.379    1.034    3.862    1.655 
#    0.000    1.379    0.000    0.828    0.000    0.000 
#    0.000    0.000    0.000    0.000    0.000    0.000 
#
# Total GULP energy -161523.929227 kJ/mol
# GULP energy per Si atom -5569.790663 kJ/mol
# Density = 2.036002 g / cm^3
# Si number density = 20.406469 Si / 1000 Ang^3
#
#
#
# Elastic Constant Matrix: (Units=GPa)
#
#
# Indices 1 2 3 4 5 6 
#
# 1 72.0122 -6.7467 46.4724 0.0000 13.3276 0.0000
# 2 -6.7467 57.6593 -10.0578 0.0000 -6.8307 0.0000
# 3 46.4724 -10.0578 87.2674 0.0000 16.6618 0.0000
# 4 0.0000 0.0000 0.0000 28.6078 0.0000 -0.8056
# 5 13.3276 -6.8307 16.6618 0.0000 34.1512 0.0000
# 6 0.0000 0.0000 0.0000 -0.8056 0.0000 10.7231
#
#
#
# Elastic Compliance Matrix: (Units=1/GPa)
#
#
# Indices 1 2 3 4 5 6 
#
# 1 0.021452 0.000263 -0.010812 0.000000 -0.003044 0.000000
# 2 0.000263 0.017950 0.001392 0.000000 0.002808 0.000000
# 3 -0.010812 0.001392 0.018215 0.000000 -0.004389 0.000000
# 4 0.000000 0.000000 0.000000 0.035030 0.000000 0.002632
# 5 -0.003044 0.002808 -0.004389 0.000000 0.033172 0.000000
# 6 0.000000 0.000000 0.000000 0.002632 0.000000 0.093454
#
#
# Mechanical properties :
#
#
# Convention : Reuss Voigt Hill
#
# Bulk Modulus (GPa) = 25.44272 30.69718 28.06995
# Shear Modulus (GPa) = 19.94512 27.18117 23.56315
#
# Velocity S-wave (km/s) = 3.12972 3.65360 3.40176
# Velocity P-wave (km/s) = 5.05522 5.73358 5.40505
#
# Compressibility (1/GPa) = 0.03930397
#
# Stress axis : x y z
#
# Youngs Moduli (GPa) = 46.61512 55.71148 54.89863
#
# Poissons Ratio (x) = -0.01468 0.59359
# Poissons Ratio (y) = -0.01228 -0.07644
# Poissons Ratio (z) = 0.50402 -0.07757
#
# Static dielectric constant tensor:
#      x y z
#    x 1.752300 0.000000 0.043210 
#    y 0.000000 1.787930 0.000000 
#    z 0.043210 0.000000 1.788970 
# 
# From -- ./inp_files/243105.got.cif
#   From: 2010.05.17/outbox.cif.g08.bks.cpg/sg12_122_cif.got.tgz:243105.got - 2010.06.03 13:09:07.
