data_PCOD9193317
_publ_section_title
;
Structure prediction by ZEFSAII (Michael W. Deem and Ramdas Pophale) SiO2 
 PCOD9193317
Probable space group: C 2/M
;
_chemical_formula_sum "Si O2"
_cell_formula_units_Z 48
_cell_length_a 32.852991
_cell_length_b 8.599317
_cell_length_c 16.431081
_cell_angle_alpha 90.000000
_cell_angle_beta 144.160060
_cell_angle_gamma 90.000000
_cell_volume 2717.996573
_symmetry_space_group_name_H-M "C 2/M"
_symmetry_group_IT_number 12
_symmetry_cell_setting 'monoclinic'
loop_
_space_group_symop_operation_xyz
x,y,z
-x,y,-z
-x,-y,-z
x,-y,z
1/2+x,1/2+y,z
1/2-x,1/2+y,-z
1/2-x,1/2-y,-z
1/2+x,1/2-y,z
loop_
_atom_site_type_symbol
_atom_site_label
_atom_site_fract_x
_atom_site_fract_y
_atom_site_fract_z
Si Si1 0.802503 0.312425 0.698276
Si Si2 0.012747 0.187261 0.266317
Si Si3 0.349495 0.312426 0.606266
Si Si4 0.865651 0.687273 0.973098
Si Si5 0.682265 0.685714 0.934890
Si Si6 0.965066 0.686753 0.357866
O O1 0.803981 0.500000 0.698496
O O2 0.722590 0.262522 0.553680
O O3 0.846163 0.249955 0.692681
O O4 0.832378 0.263021 0.833636
O O5 0.082541 0.237065 0.333071
O O6 0.008341 0.250017 0.351141
O O7 0.009733 0.000000 0.263239
O O8 0.944035 0.250945 0.110358
O O9 0.349601 0.500000 0.609145
O O10 0.866203 0.500000 0.978044
O O11 0.823664 0.751675 0.982490
O O12 0.682887 0.500000 0.936642
O O13 0.612192 0.744752 0.777122
O O14 0.750000 0.750000 0.000000
O O15 0.960981 0.500000 0.345743
O O16 0.000000 0.729253 0.500000
#
# Coordination Sequence:
#
# PCOD9193317 Si02
#       6
#     8   8   8   8   8   8
#     4   9  19  35  54  76 102 135 173 213 259 308
#     4  10  20  34  53  77 105 138 175 214 260 312
#     4   9  19  35  53  75 103 134 172 215 257 307
#     4  10  20  35  54  77 106 137 173 216 260 310
#     4  11  22  37  57  80 108 141 178 218 264 315
#     4  10  21  37  56  80 109 139 176 220 265 315
#
# _framework density 17.660067000000002
#
# number of rings (size 3 to 8) (size 9 to 14) (size 15 to 20)
#    0.000    2.167    0.000    5.000    0.000    6.000 
#    0.000    5.000    0.000    0.000    0.000    0.000 
#    0.000    0.000    0.000    0.000    0.000    0.000 
#
# Total GULP energy -133975.596343 kJ/mol
# GULP energy per Si atom -5582.316514 kJ/mol
# Density = 1.761987 g / cm^3
# Si number density = 17.660067 Si / 1000 Ang^3
#
#
#
# Elastic Constant Matrix: (Units=GPa)
#
#
# Indices 1 2 3 4 5 6 
#
# 1 200.7349 51.8466 124.1689 0.0000 6.5226 0.0000
# 2 51.8466 64.0610 45.8478 0.0000 -5.3306 0.0000
# 3 124.1689 45.8478 138.8307 0.0000 -31.0503 0.0000
# 4 0.0000 0.0000 0.0000 24.4825 0.0000 0.1016
# 5 6.5226 -5.3306 -31.0503 0.0000 29.2627 0.0000
# 6 0.0000 0.0000 0.0000 0.1016 0.0000 33.0812
#
#
#
# Elastic Compliance Matrix: (Units=1/GPa)
#
#
# Indices 1 2 3 4 5 6 
#
# 1 0.027204 -0.001863 -0.032973 0.000000 -0.041390 0.000000
# 2 -0.001863 0.021033 -0.005678 0.000000 -0.001778 0.000000
# 3 -0.032973 -0.005678 0.052422 0.000000 0.061939 0.000000
# 4 0.000000 0.000000 0.000000 0.040846 0.000000 -0.000125
# 5 -0.041390 -0.001778 0.061939 0.000000 0.108798 0.000000
# 6 0.000000 0.000000 0.000000 -0.000125 0.000000 0.030229
#
#
# Mechanical properties :
#
#
# Convention : Reuss Voigt Hill
#
# Bulk Modulus (GPa) = 50.93651 94.15037 72.54344
# Shear Modulus (GPa) = 13.58320 29.48282 21.53301
#
# Velocity S-wave (km/s) = 2.77636 4.09034 3.49564
# Velocity P-wave (km/s) = 6.25963 8.70265 7.58021
#
# Compressibility (1/GPa) = 0.01963228
#
# Stress axis : x y z
#
# Youngs Moduli (GPa) = 36.75982 47.54391 19.07614
#
# Poissons Ratio (x) = 0.08856 0.62899
# Poissons Ratio (y) = 0.06847 0.10831
# Poissons Ratio (z) = 1.21207 0.26994
#
# Static dielectric constant tensor:
#      x y z
#    x 1.576820 0.000000 0.000610 
#    y 0.000000 1.598630 0.000000 
#    z 0.000610 0.000000 1.589480 
# 
# From -- ./inp_files/248795.got.cif
#   From: 2010.05.17/outbox.cif.g08.bks.cpg/sg12_125_cif.got.tgz:248795.got - 2010.06.03 13:09:07.
