data_PCOD9193342
_publ_section_title
;
Structure prediction by ZEFSAII (Michael W. Deem and Ramdas Pophale) SiO2 
 PCOD9193342
Probable space group: C 2/M
;
_chemical_formula_sum "Si O2"
_cell_formula_units_Z 64
_cell_length_a 30.091644
_cell_length_b 9.393865
_cell_length_c 24.028746
_cell_angle_alpha 90.000000
_cell_angle_beta 149.706846
_cell_angle_gamma 90.000000
_cell_volume 3426.237561
_symmetry_space_group_name_H-M "C 2/M"
_symmetry_group_IT_number 12
_symmetry_cell_setting 'monoclinic'
loop_
_space_group_symop_operation_xyz
x,y,z
-x,y,-z
-x,-y,-z
x,-y,z
1/2+x,1/2+y,z
1/2-x,1/2+y,-z
1/2-x,1/2-y,-z
1/2+x,1/2-y,z
loop_
_atom_site_type_symbol
_atom_site_label
_atom_site_fract_x
_atom_site_fract_y
_atom_site_fract_z
Si Si1 0.879796 0.168193 0.065198
Si Si2 0.229743 0.828252 0.730494
Si Si3 0.958444 0.172674 0.269705
Si Si4 0.139920 0.827973 0.521917
Si Si5 0.596484 0.662992 0.117335
Si Si6 0.212109 0.332215 0.407092
Si Si7 0.442537 0.342198 0.796090
Si Si8 0.790867 0.170988 0.163018
O O1 0.927865 0.215453 0.174540
O O2 0.953574 0.183053 0.096881
O O3 0.858451 0.000000 0.047588
O O4 0.792845 0.254082 0.955787
O O5 0.159874 0.783358 0.607059
O O6 0.322532 0.754286 0.816796
O O7 0.203861 0.793126 0.765769
O O8 0.239304 0.000000 0.737071
O O9 0.879886 0.210479 0.226908
O O10 0.052029 0.224966 0.395381
O O11 0.964452 0.000000 0.274140
O O12 0.226421 0.794007 0.579175
O O13 0.132440 0.000000 0.515103
O O14 0.601099 0.500000 0.100035
O O15 0.593689 0.654028 0.180867
O O16 0.500000 0.724119 0.000000
O O17 0.217013 0.500000 0.419878
O O18 0.250000 0.250000 0.500000
O O19 0.112959 0.279173 0.293015
O O20 0.426998 0.500000 0.753544
O O21 0.780472 0.000000 0.147399
#
# Coordination Sequence:
#
# PCOD9193342 Si02
#       8
#     8   8   8   8   8   8   8   8
#     4  10  20  36  58  80 109 146 184 225 276 334
#     4  10  20  35  54  80 111 142 179 225 274 326
#     4   9  18  34  56  81 107 141 182 228 277 326
#     4   9  18  34  55  78 108 143 181 222 273 329
#     4  10  20  34  53  77 107 143 182 221 263 320
#     4  11  21  34  54  79 110 145 181 220 267 321
#     4  10  20  34  53  79 107 140 182 219 263 321
#     4  10  21  35  55  83 111 139 180 232 279 323
#
# _framework density 18.679383000000001
#
# number of rings (size 3 to 8) (size 9 to 14) (size 15 to 20)
#    0.000    2.125    1.250    2.250    0.000    4.750 
#    0.000    2.500    0.000    3.000    0.000    1.750 
#    0.000    0.000    0.000    0.000    0.000    0.000 
#
# Total GULP energy -178434.904753 kJ/mol
# GULP energy per Si atom -5576.090774 kJ/mol
# Density = 1.863687 g / cm^3
# Si number density = 18.679383 Si / 1000 Ang^3
#
#
#
# Elastic Constant Matrix: (Units=GPa)
#
#
# Indices 1 2 3 4 5 6 
#
# 1 71.2454 20.0612 16.6652 0.0000 -0.1713 0.0000
# 2 20.0612 25.1859 26.4303 0.0000 2.9379 0.0000
# 3 16.6652 26.4303 101.0614 0.0000 -0.6326 0.0000
# 4 0.0000 0.0000 0.0000 30.7281 0.0000 0.7185
# 5 -0.1713 2.9379 -0.6326 0.0000 29.1139 0.0000
# 6 0.0000 0.0000 0.0000 0.7185 0.0000 18.4442
#
#
#
# Elastic Compliance Matrix: (Units=1/GPa)
#
#
# Indices 1 2 3 4 5 6 
#
# 1 0.018267 -0.015994 0.001182 0.000000 0.001747 0.000000
# 2 -0.015994 0.069736 -0.015647 0.000000 -0.007471 0.000000
# 3 0.001182 -0.015647 0.013804 0.000000 0.001886 0.000000
# 4 0.000000 0.000000 0.000000 0.032573 0.000000 -0.001269
# 5 0.001747 -0.007471 0.001886 0.000000 0.035153 0.000000
# 6 0.000000 0.000000 0.000000 -0.001269 0.000000 0.054267
#
#
# Mechanical properties :
#
#
# Convention : Reuss Voigt Hill
#
# Bulk Modulus (GPa) = 24.45696 35.97846 30.21771
# Shear Modulus (GPa) = 16.75882 24.61297 20.68589
#
# Velocity S-wave (km/s) = 2.99855 3.63389 3.33140
# Velocity P-wave (km/s) = 5.01097 6.07534 5.56864
#
# Compressibility (1/GPa) = 0.04088816
#
# Stress axis : x y z
#
# Youngs Moduli (GPa) = 54.74231 14.33972 72.44202
#
# Poissons Ratio (x) = 0.22935 -0.08559
# Poissons Ratio (y) = 0.87555 1.13352
# Poissons Ratio (z) = -0.06468 0.22438
#
# Static dielectric constant tensor:
#      x y z
#    x 1.671590 0.000000 -0.023390 
#    y 0.000000 1.514500 0.000000 
#    z -0.023390 0.000000 1.688350 
# 
# From -- ./inp_files/353526.got.cif
#   From: 2010.05.17/outbox.cif.g08.bks.cpg/sg12_177_cif.got.tgz:353526.got - 2010.06.03 13:09:07.
