data_PCOD9193427
_publ_section_title
;
Structure prediction by ZEFSAII (Michael W. Deem and Ramdas Pophale) SiO2 
 PCOD9193427
Probable space group: C 2/M
;
_chemical_formula_sum "Si O2"
_cell_formula_units_Z 44
_cell_length_a 9.149700
_cell_length_b 19.136027
_cell_length_c 16.431447
_cell_angle_alpha 90.000000
_cell_angle_beta 120.986834
_cell_angle_gamma 90.000000
_cell_volume 2466.379963
_symmetry_space_group_name_H-M "C 2/M"
_symmetry_group_IT_number 12
_symmetry_cell_setting 'monoclinic'
loop_
_space_group_symop_operation_xyz
x,y,z
-x,y,-z
-x,-y,-z
x,-y,z
1/2+x,1/2+y,z
1/2-x,1/2+y,-z
1/2-x,1/2-y,-z
1/2+x,1/2-y,z
loop_
_atom_site_type_symbol
_atom_site_label
_atom_site_fract_x
_atom_site_fract_y
_atom_site_fract_z
Si Si1 0.040475 0.579328 0.781673
Si Si2 0.456970 0.823777 0.893584
Si Si3 0.500000 0.746110 0.500000
Si Si4 0.571724 0.703841 0.812496
Si Si5 0.552113 0.581508 0.107341
Si Si6 0.627224 0.202721 0.366767
O O1 0.989573 0.500000 0.751786
O O2 0.995619 0.603793 0.859969
O O3 0.946840 0.634532 0.697449
O O4 0.243491 0.585599 0.828794
O O5 0.567022 0.765363 0.878393
O O6 0.258798 0.803260 0.828118
O O7 0.500000 0.825879 0.000000
O O8 0.445505 0.790087 0.563296
O O9 0.331219 0.703041 0.428590
O O10 0.524006 0.633364 0.847010
O O11 0.440406 0.731001 0.705950
O O12 0.500699 0.500000 0.103807
O O13 0.500000 0.602139 0.000000
#
# Coordination Sequence:
#
# PCOD9193427 Si02
#       6
#     8   8   4   8   8   8
#     4  10  21  37  54  76 111 144 174 215 261 309
#     4  11  21  32  52  79 109 147 183 216 251 296
#     4  10  20  36  60  78  98 122 170 224 270 330
#     4  11  20  34  54  78 109 139 179 223 260 308
#     4  10  20  34  53  78 111 150 184 214 250 298
#     4  10  20  36  56  80 100 132 170 217 273 318
#
# _framework density 17.839912000000002
#
# number of rings (size 3 to 8) (size 9 to 14) (size 15 to 20)
#    0.000    1.636    0.000    7.636    0.000    1.091 
#    0.000    0.909    0.000    4.364    0.000    0.000 
#    0.000    0.000    0.000    0.000    0.000    0.000 
#
# Total GULP energy -122855.844114 kJ/mol
# GULP energy per Si atom -5584.356551 kJ/mol
# Density = 1.779931 g / cm^3
# Si number density = 17.839912 Si / 1000 Ang^3
#
#
#
# Elastic Constant Matrix: (Units=GPa)
#
#
# Indices 1 2 3 4 5 6 
#
# 1 52.9214 13.8525 -7.5158 0.0000 1.9563 0.0000
# 2 13.8525 79.8484 12.1772 0.0000 -0.2619 0.0000
# 3 -7.5158 12.1772 68.1323 0.0000 -0.8610 0.0000
# 4 0.0000 0.0000 0.0000 -0.7463 0.0000 10.1064
# 5 1.9563 -0.2619 -0.8610 0.0000 35.0252 0.0000
# 6 0.0000 0.0000 0.0000 10.1064 0.0000 -7.4646
#
#
#
# Elastic Compliance Matrix: (Units=1/GPa)
#
#
# Indices 1 2 3 4 5 6 
#
# 1 0.020401 -0.003993 0.002950 0.000000 -0.001097 0.000000
# 2 -0.003993 0.013656 -0.002878 0.000000 0.000254 0.000000
# 3 0.002950 -0.002878 0.015520 0.000000 0.000195 0.000000
# 4 0.000000 0.000000 0.000000 0.077299 0.000000 0.104655
# 5 -0.001097 0.000254 0.000195 0.000000 0.028619 0.000000
# 6 0.000000 0.000000 0.000000 0.104655 0.000000 0.007728
#
#
# Mechanical properties :
#
#
# Convention : Reuss Voigt Hill
#
# Bulk Modulus (GPa) = 23.96051 26.43665 25.19858
# Shear Modulus (GPa) = 27.03067 17.52206 22.27637
#
# Velocity S-wave (km/s) = 3.89675 3.13738 3.53750
# Velocity P-wave (km/s) = 5.80571 5.28916 5.55344
#
# Compressibility (1/GPa) = 0.04173533
#
# Stress axis : x y z
#
# Youngs Moduli (GPa) = 49.01821 73.22709 64.43456
#
# Poissons Ratio (x) = 0.29237 -0.19009
# Poissons Ratio (y) = 0.19571 0.18544
# Poissons Ratio (z) = -0.14461 0.21075
#
# Static dielectric constant tensor:
#      x y z
#    x 1.603820 0.000000 0.004190 
#    y 0.000000 1.596260 0.000000 
#    z 0.004190 0.000000 1.620590 
# 
# From -- ./inp_files/195509.got.cif
#   From: 2010.05.17/outbox.cif.g08.bks.cpg/sg12_98_cif.got.tgz:195509.got - 2010.06.03 13:09:07.
