data_PCOD9193246
_publ_section_title
;
Structure prediction by ZEFSAII (Michael W. Deem and Ramdas Pophale) SiO2 
 PCOD9193246
Probable space group: C 2/M
;
_chemical_formula_sum "Si O2"
_cell_formula_units_Z 64
_cell_length_a 14.404022
_cell_length_b 9.120624
_cell_length_c 31.399333
_cell_angle_alpha 90.000000
_cell_angle_beta 65.002246
_cell_angle_gamma 90.000000
_cell_volume 3738.629260
_symmetry_space_group_name_H-M "C 2/M"
_symmetry_group_IT_number 12
_symmetry_cell_setting 'monoclinic'
loop_
_space_group_symop_operation_xyz
x,y,z
-x,y,-z
-x,-y,-z
x,-y,z
1/2+x,1/2+y,z
1/2-x,1/2+y,-z
1/2-x,1/2-y,-z
1/2+x,1/2-y,z
loop_
_atom_site_type_symbol
_atom_site_label
_atom_site_fract_x
_atom_site_fract_y
_atom_site_fract_z
Si Si1 0.378969 0.674728 0.243249
Si Si2 0.114029 0.325081 0.491892
Si Si3 0.182770 0.674218 0.575161
Si Si4 0.651629 0.824730 0.258019
Si Si5 0.417754 0.174507 0.824443
Si Si6 0.677230 0.325557 0.075451
Si Si7 0.398558 0.175072 0.993680
Si Si8 0.448586 0.674137 0.326117
O O1 0.391831 0.500000 0.233360
O O2 0.265133 0.716487 0.250939
O O3 0.467773 0.760995 0.201481
O O4 0.396255 0.701140 0.290165
O O5 0.125774 0.500000 0.482381
O O6 0.132181 0.297953 0.538570
O O7 0.203256 0.240698 0.449708
O O8 0.000000 0.282442 0.500000
O O9 0.186685 0.500000 0.580974
O O10 0.116551 0.750041 0.624461
O O11 0.634972 0.794674 0.211079
O O12 0.562170 0.741341 0.300388
O O13 0.639102 0.000000 0.266780
O O14 0.357845 0.249925 0.874426
O O15 0.420778 0.000000 0.829835
O O16 0.663468 0.500000 0.080850
O O17 0.796195 0.295565 0.041008
O O18 0.613540 0.260557 0.048153
O O19 0.401468 0.000000 0.984515
O O20 0.500000 0.215087 0.000000
O O21 0.453307 0.500000 0.331920
#
# Coordination Sequence:
#
# PCOD9193246 Si02
#       8
#     8   8   8   8   8   8   8   8
#     4   9  19  36  55  75 101 134 171 209 251 300
#     4   9  19  36  55  74  99 133 171 209 252 302
#     4  10  20  34  53  76 103 133 167 210 254 299
#     4   9  19  36  55  75 101 133 170 211 252 296
#     4  10  20  34  53  76 103 133 167 210 254 297
#     4  10  20  34  53  76 104 136 169 207 251 303
#     4   9  19  36  55  76 103 134 170 212 255 298
#     4  10  20  34  53  76 104 136 169 207 251 303
#
# _framework density 17.118573000000001
#
# number of rings (size 3 to 8) (size 9 to 14) (size 15 to 20)
#    0.000    2.500    0.000    1.500    0.000    5.000 
#    0.000    7.500    0.000    0.000    0.000    0.000 
#    0.000    0.000    0.000    0.000    0.000    0.000 
#
# Total GULP energy -178573.110167 kJ/mol
# GULP energy per Si atom -5580.409693 kJ/mol
# Density = 1.707961 g / cm^3
# Si number density = 17.118573 Si / 1000 Ang^3
#
#
#
# Elastic Constant Matrix: (Units=GPa)
#
#
# Indices 1 2 3 4 5 6 
#
# 1 127.3765 44.5137 33.7627 0.0000 -12.8226 0.0000
# 2 44.5137 55.3843 61.0391 0.0000 -6.3749 0.0000
# 3 33.7627 61.0391 107.4846 0.0000 -12.3494 0.0000
# 4 0.0000 0.0000 0.0000 140.1700 0.0000 -11.7243
# 5 -12.8226 -6.3749 -12.3494 0.0000 8.4090 0.0000
# 6 0.0000 0.0000 0.0000 -11.7243 0.0000 27.6625
#
#
#
# Elastic Compliance Matrix: (Units=1/GPa)
#
#
# Indices 1 2 3 4 5 6 
#
# 1 0.013847 -0.017529 0.007824 0.000000 0.019317 0.000000
# 2 -0.017529 0.070586 -0.037896 0.000000 -0.028872 0.000000
# 3 0.007824 -0.037896 0.031803 0.000000 0.029908 0.000000
# 4 0.000000 0.000000 0.000000 0.007396 0.000000 0.003135
# 5 0.019317 -0.028872 0.029908 0.000000 0.170411 0.000000
# 6 0.000000 0.000000 0.000000 0.003135 0.000000 0.037479
#
#
# Mechanical properties :
#
#
# Convention : Reuss Voigt Hill
#
# Bulk Modulus (GPa) = 47.54059 63.20849 55.37454
# Shear Modulus (GPa) = 11.52775 45.31029 28.41902
#
# Velocity S-wave (km/s) = 2.59782 5.15034 4.07889
# Velocity P-wave (km/s) = 6.06876 8.50717 7.38925
#
# Compressibility (1/GPa) = 0.02103466
#
# Stress axis : x y z
#
# Youngs Moduli (GPa) = 72.21678 14.16708 31.44376
#
# Poissons Ratio (x) = 0.24834 -0.24603
# Poissons Ratio (y) = 1.26589 1.19159
# Poissons Ratio (z) = -0.56505 0.53688
#
# Static dielectric constant tensor:
#      x y z
#    x 1.562940 0.000000 0.006320 
#    y 0.000000 1.568440 0.000000 
#    z 0.006320 0.000000 1.546920 
# 
# From -- ./inp_files/375058.got.cif
#   From: 2010.05.17/outbox.cif.g08.bks.cpg/sg12_188_cif.got.tgz:375058.got - 2010.06.03 13:09:07.
