data_PCOD9193842
_publ_section_title
;
Structure prediction by ZEFSAII (Michael W. Deem and Ramdas Pophale) SiO2 
 PCOD9193842
Probable space group: C 2/M
;
_chemical_formula_sum "Si O2"
_cell_formula_units_Z 48
_cell_length_a 16.397799
_cell_length_b 9.390305
_cell_length_c 27.341826
_cell_angle_alpha 90.000000
_cell_angle_beta 140.163758
_cell_angle_gamma 90.000000
_cell_volume 2696.973537
_symmetry_space_group_name_H-M "C 2/M"
_symmetry_group_IT_number 12
_symmetry_cell_setting 'monoclinic'
loop_
_space_group_symop_operation_xyz
x,y,z
-x,y,-z
-x,-y,-z
x,-y,z
1/2+x,1/2+y,z
1/2-x,1/2+y,-z
1/2-x,1/2-y,-z
1/2+x,1/2-y,z
loop_
_atom_site_type_symbol
_atom_site_label
_atom_site_fract_x
_atom_site_fract_y
_atom_site_fract_z
Si Si1 0.845980 0.845782 0.923808
Si Si2 0.548757 0.670508 0.417835
Si Si3 0.237902 0.829877 0.420535
Si Si4 0.292434 0.830328 0.332349
Si Si5 0.150278 0.666467 0.985918
Si Si6 0.900698 0.164561 0.843130
O O1 0.814803 0.829943 0.852612
O O2 0.796579 0.000000 0.918910
O O3 0.814962 0.713128 0.942941
O O4 0.000000 0.854640 0.000000
O O5 0.540544 0.500000 0.420419
O O6 0.654265 0.738839 0.502367
O O7 0.605820 0.697420 0.389275
O O8 0.415459 0.743388 0.370758
O O9 0.247601 0.797708 0.367186
O O10 0.263548 0.000000 0.438091
O O11 0.178643 0.804393 0.241654
O O12 0.322179 0.000000 0.344423
O O13 0.155226 0.500000 0.982171
O O14 0.014187 0.728057 0.906689
O O15 0.250000 0.750000 0.000000
O O16 0.948697 0.000000 0.862707
#
# Coordination Sequence:
#
# PCOD9193842 Si02
#       6
#     8   8   8   8   8   8
#     4   8  15  31  53  73  98 130 166 209 255 308
#     4  10  20  34  54  81 111 142 184 233 273 314
#     4   9  19  36  56  78 108 146 186 224 267 327
#     4  10  20  36  57  79 110 149 182 217 274 335
#     4  11  21  34  54  78 104 136 177 220 263 315
#     4   9  19  36  55  76 106 139 173 216 269 325
#
# _framework density 17.797727999999999
#
# number of rings (size 3 to 8) (size 9 to 14) (size 15 to 20)
#    0.000    2.500    0.000    3.500    0.000    7.000 
#    3.000    0.000    0.000    0.000    0.000    0.000 
#    0.000    0.000    0.000    0.000    0.000    0.000 
#
# Total GULP energy -133654.719304 kJ/mol
# GULP energy per Si atom -5568.946638 kJ/mol
# Density = 1.775722 g / cm^3
# Si number density = 17.797728 Si / 1000 Ang^3
#
#
#
# Elastic Constant Matrix: (Units=GPa)
#
#
# Indices 1 2 3 4 5 6 
#
# 1 124.0530 71.1222 58.9202 0.0000 -20.2651 0.0000
# 2 71.1222 119.7121 47.6326 0.0000 -5.7465 0.0000
# 3 58.9202 47.6326 67.0600 0.0000 -24.9533 0.0000
# 4 0.0000 0.0000 0.0000 21.2073 0.0000 2.5321
# 5 -20.2651 -5.7465 -24.9533 0.0000 21.6092 0.0000
# 6 0.0000 0.0000 0.0000 2.5321 0.0000 30.7021
#
#
#
# Elastic Compliance Matrix: (Units=1/GPa)
#
#
# Indices 1 2 3 4 5 6 
#
# 1 0.016193 -0.006033 -0.008571 0.000000 0.003683 0.000000
# 2 -0.006033 0.015718 -0.011246 0.000000 -0.014464 0.000000
# 3 -0.008571 -0.011246 0.046163 0.000000 0.042278 0.000000
# 4 0.000000 0.000000 0.000000 0.047623 0.000000 -0.003928
# 5 0.003683 -0.014464 0.042278 0.000000 0.094705 0.000000
# 6 0.000000 0.000000 0.000000 -0.003928 0.000000 0.032895
#
#
# Mechanical properties :
#
#
# Convention : Reuss Voigt Hill
#
# Bulk Modulus (GPa) = 37.91797 74.01947 55.96872
# Shear Modulus (GPa) = 15.93436 23.58041 19.75738
#
# Velocity S-wave (km/s) = 2.99541 3.64388 3.33544
# Velocity P-wave (km/s) = 5.77187 7.70606 6.80801
#
# Compressibility (1/GPa) = 0.02637272
#
# Stress axis : x y z
#
# Youngs Moduli (GPa) = 61.75655 63.62153 21.66242
#
# Poissons Ratio (x) = 0.38382 0.18568
# Poissons Ratio (y) = 0.37257 0.24362
# Poissons Ratio (z) = 0.52935 0.71549
#
# Static dielectric constant tensor:
#      x y z
#    x 1.745690 0.000000 0.009280 
#    y 0.000000 1.606890 0.000000 
#    z 0.009280 0.000000 1.601360 
# 
# From -- ./inp_files/360333.got.cif
#   From: 2010.05.17/outbox.cif.g08.bks.cpg/sg12_181_cif.got.tgz:360333.got - 2010.06.03 13:09:07.
