data_PCOD9193187
_publ_section_title
;
Structure prediction by ZEFSAII (Michael W. Deem and Ramdas Pophale) SiO2 
 PCOD9193187
Probable space group: C 2/M
;
_chemical_formula_sum "Si O2"
_cell_formula_units_Z 40
_cell_length_a 17.376867
_cell_length_b 20.440366
_cell_length_c 16.523577
_cell_angle_alpha 90.000000
_cell_angle_beta 162.903007
_cell_angle_gamma 90.000000
_cell_volume 1725.428679
_symmetry_space_group_name_H-M "C 2/M"
_symmetry_group_IT_number 12
_symmetry_cell_setting 'monoclinic'
loop_
_space_group_symop_operation_xyz
x,y,z
-x,y,-z
-x,-y,-z
x,-y,z
1/2+x,1/2+y,z
1/2-x,1/2+y,-z
1/2-x,1/2-y,-z
1/2+x,1/2-y,z
loop_
_atom_site_type_symbol
_atom_site_label
_atom_site_fract_x
_atom_site_fract_y
_atom_site_fract_z
Si Si1 0.655735 0.590608 0.074826
Si Si2 0.512331 0.729686 0.101553
Si Si3 0.424266 0.577979 0.516806
Si Si4 0.572727 0.138690 0.901381
Si Si5 0.346890 0.114059 0.498249
O O1 0.950450 0.572593 0.352414
O O2 0.500000 0.573106 0.000000
O O3 0.687646 0.669559 0.107776
O O4 0.437367 0.579025 0.786615
O O5 0.449282 0.784102 0.103286
O O6 0.764471 0.685833 0.379702
O O7 0.500000 0.761226 0.000000
O O8 0.500000 0.592424 0.500000
O O9 0.436724 0.500000 0.540875
O O10 0.137220 0.603629 0.250841
O O11 0.638560 0.613650 0.787988
O O12 0.480979 0.122504 0.718984
#
# Coordination Sequence:
#
# PCOD9193187 Si02
#       5
#     8   8   8   8   8
#     4   9  19  32  52  74 119 163 189 218 258 326
#     4   9  21  33  54  81 122 161 188 220 265 341
#     4  11  25  44  62  81 110 148 196 248 290 334
#     4  12  23  37  61  87 113 150 196 237 290 335
#     4  10  20  34  52  84 120 151 189 233 273 329
#
# _framework density 23.182644
#
# number of rings (size 3 to 8) (size 9 to 14) (size 15 to 20)
#    1.200    0.600    0.000    4.800    2.800    2.400 
#    0.000    0.000    0.000    0.000    0.000    0.000 
#    0.000   84.800    0.000    0.000    0.000    0.000 
#
# Total GULP energy -111520.175228 kJ/mol
# GULP energy per Si atom -5576.008761 kJ/mol
# Density = 2.312988 g / cm^3
# Si number density = 23.182644 Si / 1000 Ang^3
#
#
#
# Elastic Constant Matrix: (Units=GPa)
#
#
# Indices 1 2 3 4 5 6 
#
# 1 70.6932 15.8243 -7.9062 -0.0003 -7.0258 -0.0009
# 2 15.8243 95.4753 0.4845 -0.0030 -0.1949 0.0003
# 3 -7.9062 0.4845 60.0779 -0.0143 5.8004 -0.0011
# 4 -0.0003 -0.0030 -0.0143 53.3433 -0.0032 0.3456
# 5 -7.0258 -0.1949 5.8004 -0.0032 46.9775 0.0001
# 6 -0.0009 0.0003 -0.0011 0.3456 0.0001 -25.2184
#
#
#
# Elastic Compliance Matrix: (Units=1/GPa)
#
#
# Indices 1 2 3 4 5 6 
#
# 1 0.015112 -0.002510 0.001813 0.000001 0.002026 -0.000001
# 2 -0.002510 0.010891 -0.000391 0.000000 -0.000282 0.000000
# 3 0.001813 -0.000391 0.017064 0.000004 -0.001837 -0.000001
# 4 0.000001 0.000000 0.000004 0.018745 0.000001 0.000257
# 5 0.002026 -0.000282 -0.001837 0.000001 0.021815 0.000000
# 6 -0.000001 0.000000 -0.000001 0.000257 0.000000 -0.039650
#
#
# Mechanical properties :
#
#
# Convention : Reuss Voigt Hill
#
# Bulk Modulus (GPa) = 24.45434 27.00574 25.73004
# Shear Modulus (GPa) = 83.63629 29.54340 56.58984
#
# Velocity S-wave (km/s) = 6.01294 3.57371 4.94605
# Velocity P-wave (km/s) = 7.66673 5.35752 6.61369
#
# Compressibility (1/GPa) = 0.04089254
#
# Stress axis : x y z
#
# Youngs Moduli (GPa) = 66.17465 91.81659 58.60208
#
# Poissons Ratio (x) = 0.23043 -0.10626
# Poissons Ratio (y) = 0.16608 0.02291
# Poissons Ratio (z) = -0.12000 0.03589
#
# Static dielectric constant tensor:
#      x y z
#    x 1.936730 0.000000 0.044230 
#    y 0.000000 1.983220 0.000000 
#    z 0.044230 0.000000 1.866360 
# 
# From -- ./inp_files/219192.got.cif
#   From: 2010.05.17/outbox.cif.g08.bks.cpg/sg12_110_cif.got.tgz:219192.got - 2010.06.03 13:09:07.
