data_PCOD9193006
_publ_section_title
;
Structure prediction by ZEFSAII (Michael W. Deem and Ramdas Pophale) SiO2 
 PCOD9193006
Probable space group: C 2/M
;
_chemical_formula_sum "Si O2"
_cell_formula_units_Z 56
_cell_length_a 14.367327
_cell_length_b 9.448049
_cell_length_c 18.911677
_cell_angle_alpha 90.000000
_cell_angle_beta 85.184845
_cell_angle_gamma 90.000000
_cell_volume 2558.071532
_symmetry_space_group_name_H-M "C 2/M"
_symmetry_group_IT_number 12
_symmetry_cell_setting 'monoclinic'
loop_
_space_group_symop_operation_xyz
x,y,z
-x,y,-z
-x,-y,-z
x,-y,z
1/2+x,1/2+y,z
1/2-x,1/2+y,-z
1/2-x,1/2-y,-z
1/2+x,1/2-y,z
loop_
_atom_site_type_symbol
_atom_site_label
_atom_site_fract_x
_atom_site_fract_y
_atom_site_fract_z
Si Si1 0.756288 0.665891 0.784919
Si Si2 0.879157 0.334377 0.302277
Si Si3 0.219069 0.834824 0.432950
Si Si4 0.895486 0.840288 0.862989
Si Si5 0.830005 0.848224 0.021960
Si Si6 0.916303 0.336148 0.653657
Si Si7 0.961571 0.657533 0.084717
O O1 0.743533 0.500000 0.804223
O O2 0.665060 0.734283 0.754796
O O3 0.800062 0.772322 0.840417
O O4 0.839822 0.668374 0.721138
O O5 0.882807 0.500000 0.279636
O O6 0.804270 0.326427 0.371181
O O7 0.982096 0.293171 0.323284
O O8 0.250000 0.750000 0.500000
O O9 0.127905 0.762845 0.403661
O O10 0.202415 0.000000 0.449285
O O11 0.893022 0.860972 0.947977
O O12 0.969560 0.711655 0.858181
O O13 0.912139 0.000000 0.832284
O O14 0.790736 0.000000 0.041827
O O15 0.750000 0.750000 0.000000
O O16 0.885568 0.779296 0.081506
O O17 0.923692 0.500000 0.628912
O O18 0.926642 0.500000 0.102603
O O19 0.000000 0.646295 0.000000
#
# Coordination Sequence:
#
# PCOD9193006 Si02
#       7
#     8   8   8   8   8   8   8
#     4  10  20  35  56  81 107 139 181 231 275 319
#     4   9  19  37  58  78 107 148 185 223 271 324
#     4  10  20  34  55  83 114 147 183 223 268 319
#     4  10  20  35  54  75 102 137 173 213 264 325
#     4  10  20  34  52  75 103 135 170 213 266 322
#     4   9  19  37  58  79 107 144 184 226 272 318
#     4   9  17  31  52  74  97 128 165 208 257 312
#
# _framework density 21.891493000000001
#
# number of rings (size 3 to 8) (size 9 to 14) (size 15 to 20)
#    0.000    2.429    0.000    2.143    0.000    5.714 
#    2.571    2.857    0.000    0.000    0.000    0.000 
#    0.000    0.000    0.000    0.000    0.000    0.000 
#
# Total GULP energy -156206.898054 kJ/mol
# GULP energy per Si atom -5578.817788 kJ/mol
# Density = 2.184167 g / cm^3
# Si number density = 21.891493 Si / 1000 Ang^3
#
#
#
# Elastic Constant Matrix: (Units=GPa)
#
#
# Indices 1 2 3 4 5 6 
#
# 1 89.1725 47.7682 32.1698 0.0000 45.3889 0.0000
# 2 47.7682 174.9324 69.9672 0.0000 35.2047 0.0000
# 3 32.1698 69.9672 113.1615 0.0000 34.2205 0.0000
# 4 0.0000 0.0000 0.0000 23.9021 0.0000 12.8152
# 5 45.3889 35.2047 34.2205 0.0000 40.9779 0.0000
# 6 0.0000 0.0000 0.0000 12.8152 0.0000 31.8516
#
#
#
# Elastic Compliance Matrix: (Units=1/GPa)
#
#
# Indices 1 2 3 4 5 6 
#
# 1 0.026703 -0.002457 0.002989 0.000000 -0.029963 0.000000
# 2 -0.002457 0.008211 -0.004105 0.000000 -0.000905 0.000000
# 3 0.002989 -0.004105 0.013994 0.000000 -0.011470 0.000000
# 4 0.000000 0.000000 0.000000 0.053345 0.000000 -0.021463
# 5 -0.029963 -0.000905 -0.011470 0.000000 0.067947 0.000000
# 6 0.000000 0.000000 0.000000 -0.021463 0.000000 0.040031
#
#
# Mechanical properties :
#
#
# Convention : Reuss Voigt Hill
#
# Bulk Modulus (GPa) = 23.94519 75.23075 49.58797
# Shear Modulus (GPa) = 21.61703 34.50374 28.06039
#
# Velocity S-wave (km/s) = 3.14580 3.97435 3.58410
# Velocity P-wave (km/s) = 4.91494 7.44987 6.31099
#
# Compressibility (1/GPa) = 0.04176203
#
# Stress axis : x y z
#
# Youngs Moduli (GPa) = 37.44846 121.78178 71.45935
#
# Poissons Ratio (x) = 0.29926 -0.21359
# Poissons Ratio (y) = 0.09202 0.29333
# Poissons Ratio (z) = -0.11193 0.49990
#
# Static dielectric constant tensor:
#      x y z
#    x 1.925910 0.000000 -0.100970 
#    y 0.000000 1.825230 0.000000 
#    z -0.100970 0.000000 1.822060 
# 
# From -- ./inp_files/338208.got.cif
#   From: 2010.05.17/outbox.cif.g08.bks.cpg/sg12_170_cif.got.tgz:338208.got - 2010.06.03 13:09:07.
