data_PCOD9193444
_publ_section_title
;
Structure prediction by ZEFSAII (Michael W. Deem and Ramdas Pophale) SiO2 
 PCOD9193444
Probable space group: C 2/M
;
_chemical_formula_sum "Si O2"
_cell_formula_units_Z 56
_cell_length_a 32.340339
_cell_length_b 8.389125
_cell_length_c 20.921671
_cell_angle_alpha 90.000000
_cell_angle_beta 32.747760
_cell_angle_gamma 90.000000
_cell_volume 3070.492036
_symmetry_space_group_name_H-M "C 2/M"
_symmetry_group_IT_number 12
_symmetry_cell_setting 'monoclinic'
loop_
_space_group_symop_operation_xyz
x,y,z
-x,y,-z
-x,-y,-z
x,-y,z
1/2+x,1/2+y,z
1/2-x,1/2+y,-z
1/2-x,1/2-y,-z
1/2+x,1/2-y,z
loop_
_atom_site_type_symbol
_atom_site_label
_atom_site_fract_x
_atom_site_fract_y
_atom_site_fract_z
Si Si1 0.419666 0.315992 0.917251
Si Si2 0.956246 0.805773 0.461615
Si Si3 0.386359 0.305506 0.685119
Si Si4 0.667757 0.183044 0.628824
Si Si5 0.975810 0.307396 0.103306
Si Si6 0.233540 0.690757 0.949620
Si Si7 0.428180 0.686435 0.358415
O O1 0.404092 0.500000 0.952822
O O2 0.459944 0.240215 0.927635
O O3 0.484394 0.310426 0.778241
O O4 0.344100 0.241677 0.984646
O O5 0.907901 0.754881 0.585703
O O6 0.923486 0.755640 0.436748
O O7 0.043656 0.755926 0.360279
O O8 0.956735 0.000000 0.459782
O O9 0.386177 0.500000 0.685276
O O10 0.305215 0.249964 0.814726
O O11 0.750000 0.250000 0.500000
O O12 0.608081 0.250414 0.760860
O O13 0.617988 0.205264 0.629837
O O14 0.680637 0.000000 0.629467
O O15 0.971961 0.500000 0.107528
O O16 0.000000 0.254901 0.000000
O O17 0.234785 0.500000 0.950049
O O18 0.250000 0.750000 0.000000
O O19 0.402764 0.500000 0.386261
#
# Coordination Sequence:
#
# PCOD9193444 Si02
#       7
#     8   8   8   8   8   8   8
#     4  10  20  34  53  79 108 138 173 214 263 323
#     4   8  13  26  48  71  94 124 165 209 250 292
#     4   8  15  27  45  70  98 127 164 210 251 292
#     4  10  20  35  55  79 107 135 170 219 268 320
#     4   9  19  38  61  82 105 141 186 228 269 318
#     4  11  21  33  50  74 105 139 176 218 262 311
#     4   9  17  31  53  76  99 130 170 211 253 307
#
# _framework density 18.238119999999999
#
# number of rings (size 3 to 8) (size 9 to 14) (size 15 to 20)
#    0.000    2.714    0.000    3.000    0.000    3.714 
#    2.571    0.000    0.000    0.857    0.000    6.000 
#    0.000    0.000    0.000    0.000    0.000    0.000 
#
# Total GULP energy -155880.635641 kJ/mol
# GULP energy per Si atom -5567.165559 kJ/mol
# Density = 1.819661 g / cm^3
# Si number density = 18.238120 Si / 1000 Ang^3
#
#
#
# Elastic Constant Matrix: (Units=GPa)
#
#
# Indices 1 2 3 4 5 6 
#
# 1 89.1693 10.7341 62.2250 0.0009 10.4595 -0.0002
# 2 10.7341 21.4109 24.4358 -0.0041 -2.4410 0.0076
# 3 62.2250 24.4358 127.6053 -0.0126 -14.0319 0.0088
# 4 0.0009 -0.0041 -0.0126 20.9497 0.0064 -4.5680
# 5 10.4595 -2.4410 -14.0319 0.0064 23.6199 0.0010
# 6 -0.0002 0.0076 0.0088 -4.5680 0.0010 26.7515
#
#
#
# Elastic Compliance Matrix: (Units=1/GPa)
#
#
# Indices 1 2 3 4 5 6 
#
# 1 0.022147 0.001820 -0.013059 -0.000002 -0.017377 0.000004
# 2 0.001820 0.059926 -0.012593 0.000002 -0.002094 -0.000012
# 3 -0.013059 -0.012593 0.018305 0.000004 0.015356 -0.000002
# 4 -0.000002 0.000002 0.000004 0.049579 -0.000010 0.008466
# 5 -0.017377 -0.002094 0.015356 -0.000010 0.058938 -0.000009
# 6 0.000004 -0.000012 -0.000002 0.008466 -0.000009 0.038827
#
#
# Mechanical properties :
#
#
# Convention : Reuss Voigt Hill
#
# Bulk Modulus (GPa) = 18.97058 48.10835 33.53947
# Shear Modulus (GPa) = 15.97659 23.65027 19.81343
#
# Velocity S-wave (km/s) = 2.96294 3.60495 3.29960
# Velocity P-wave (km/s) = 4.70420 6.61534 5.73987
#
# Compressibility (1/GPa) = 0.05271320
#
# Stress axis : x y z
#
# Youngs Moduli (GPa) = 45.15337 16.68711 54.63067
#
# Poissons Ratio (x) = -0.03037 0.71341
# Poissons Ratio (y) = -0.08216 0.68798
# Poissons Ratio (z) = 0.58965 0.21014
#
# Static dielectric constant tensor:
#      x y z
#    x 1.611310 0.000000 0.005360 
#    y 0.000000 1.658820 0.000000 
#    z 0.005360 0.000000 1.661960 
# 
# From -- ./inp_files/329518.got.cif
#   From: 2010.05.17/outbox.cif.g08.bks.cpg/sg12_165_cif.got.tgz:329518.got - 2010.06.03 13:09:07.
