data_PCOD9193768
_publ_section_title
;
Structure prediction by ZEFSAII (Michael W. Deem and Ramdas Pophale) SiO2 
 PCOD9193768
Probable space group: C 2/M
;
_chemical_formula_sum "Si O2"
_cell_formula_units_Z 56
_cell_length_a 18.477002
_cell_length_b 18.130921
_cell_length_c 7.467235
_cell_angle_alpha 90.000000
_cell_angle_beta 101.491443
_cell_angle_gamma 90.000000
_cell_volume 2451.416406
_symmetry_space_group_name_H-M "C 2/M"
_symmetry_group_IT_number 12
_symmetry_cell_setting 'monoclinic'
loop_
_space_group_symop_operation_xyz
x,y,z
-x,y,-z
-x,-y,-z
x,-y,z
1/2+x,1/2+y,z
1/2-x,1/2+y,-z
1/2-x,1/2-y,-z
1/2+x,1/2-y,z
loop_
_atom_site_type_symbol
_atom_site_label
_atom_site_fract_x
_atom_site_fract_y
_atom_site_fract_z
Si Si1 0.207100 0.308088 0.714145
Si Si2 0.831646 0.084435 0.647137
Si Si3 0.508025 0.584503 0.216366
Si Si4 0.350628 0.416444 0.238412
Si Si5 0.283942 0.824176 0.874590
Si Si6 0.913968 0.583453 0.403706
Si Si7 0.581035 0.083776 0.022446
O O1 0.267484 0.370560 0.706457
O O2 0.252444 0.231732 0.709684
O O3 0.135599 0.343538 0.581829
O O4 0.189450 0.293906 0.917995
O O5 0.824448 0.081590 0.429958
O O6 0.912630 0.119825 0.713206
O O7 0.832251 0.000000 0.715489
O O8 0.514157 0.500000 0.292332
O O9 0.432781 0.616707 0.260390
O O10 0.500000 0.581098 0.000000
O O11 0.357038 0.500000 0.173310
O O12 0.285979 0.374455 0.108729
O O13 0.353349 0.872938 0.849766
O O14 0.890928 0.500000 0.457382
O O15 0.905639 0.579235 0.183746
O O16 0.000000 0.592423 0.500000
O O17 0.577665 0.000000 0.091892
O O18 0.500000 0.118268 0.000000
#
# Coordination Sequence:
#
# PCOD9193768 Si02
#       7
#     8   8   8   8   8   8   8
#     4  10  21  37  55  79 111 147 186 230 282 343
#     4  10  20  34  54  80 109 143 185 233 283 335
#     4   9  17  31  53  79 106 139 179 220 264 320
#     4  10  20  34  54  80 110 144 184 232 282 335
#     4  10  21  37  55  79 112 147 186 229 281 346
#     4   9  18  34  57  82 108 141 184 235 285 334
#     4   9  18  34  57  82 107 140 185 235 283 332
#
# _framework density 22.843935999999999
#
# number of rings (size 3 to 8) (size 9 to 14) (size 15 to 20)
#    0.000    2.429    0.000    2.143    0.000    6.286 
#    0.000    9.286    0.000    0.000    0.000    0.000 
#    0.000    0.000    0.000    0.000    0.000    0.000 
#
# Total GULP energy -156010.970004 kJ/mol
# GULP energy per Si atom -5571.820357 kJ/mol
# Density = 2.279194 g / cm^3
# Si number density = 22.843936 Si / 1000 Ang^3
#
#
#
# Elastic Constant Matrix: (Units=GPa)
#
#
# Indices 1 2 3 4 5 6 
#
# 1 98.3674 45.8334 5.9946 0.0000 33.3767 0.0000
# 2 45.8334 82.3531 18.9881 0.0000 31.6004 0.0000
# 3 5.9946 18.9881 72.6900 0.0000 6.3412 0.0000
# 4 0.0000 0.0000 0.0000 15.6729 0.0000 7.4325
# 5 33.3767 31.6004 6.3412 0.0000 50.3721 0.0000
# 6 0.0000 0.0000 0.0000 7.4325 0.0000 2.2100
#
#
#
# Elastic Compliance Matrix: (Units=1/GPa)
#
#
# Indices 1 2 3 4 5 6 
#
# 1 0.015132 -0.006247 0.000927 0.000000 -0.006224 0.000000
# 2 -0.006247 0.019415 -0.003898 0.000000 -0.007550 0.000000
# 3 0.000927 -0.003898 0.014701 0.000000 -0.000020 0.000000
# 4 0.000000 0.000000 0.000000 -0.107250 0.000000 0.360701
# 5 -0.006224 -0.007550 -0.000020 0.000000 0.028715 0.000000
# 6 0.000000 0.000000 0.000000 0.360701 0.000000 -0.760605
#
#
# Mechanical properties :
#
#
# Convention : Reuss Voigt Hill
#
# Bulk Modulus (GPa) = 32.45485 43.89362 38.17423
# Shear Modulus (GPa) = -6.56870 25.82395 9.62762
#
# Velocity S-wave (km/s) = -1.69756 3.36587 2.05516
# Velocity P-wave (km/s) = 3.22425 5.86188 4.73062
#
# Compressibility (1/GPa) = 0.03081204
#
# Stress axis : x y z
#
# Youngs Moduli (GPa) = 66.08419 51.50528 68.02480
#
# Poissons Ratio (x) = 0.32176 -0.06306
# Poissons Ratio (y) = 0.41284 0.26515
# Poissons Ratio (z) = -0.06126 0.20076
#
# Static dielectric constant tensor:
#      x y z
#    x 1.878530 0.000000 -0.006830 
#    y 0.000000 1.954810 0.000000 
#    z -0.006830 0.000000 1.903220 
# 
# From -- ./inp_files/77649.got.cif
#   From: 2010.05.17/outbox.cif.g08.bks.cpg/sg12_39_cif.got.tgz:77649.got - 2010.06.03 13:09:07.
