data_PCOD9193995
_publ_section_title
;
Structure prediction by ZEFSAII (Michael W. Deem and Ramdas Pophale) SiO2 
 PCOD9193995
Probable space group: C 2/M
;
_chemical_formula_sum "Si O2"
_cell_formula_units_Z 40
_cell_length_a 30.379397
_cell_length_b 13.125581
_cell_length_c 5.234635
_cell_angle_alpha 90.000000
_cell_angle_beta 82.050624
_cell_angle_gamma 90.000000
_cell_volume 2067.238677
_symmetry_space_group_name_H-M "C 2/M"
_symmetry_group_IT_number 12
_symmetry_cell_setting 'monoclinic'
loop_
_space_group_symop_operation_xyz
x,y,z
-x,y,-z
-x,-y,-z
x,-y,z
1/2+x,1/2+y,z
1/2-x,1/2+y,-z
1/2-x,1/2-y,-z
1/2+x,1/2-y,z
loop_
_atom_site_type_symbol
_atom_site_label
_atom_site_fract_x
_atom_site_fract_y
_atom_site_fract_z
Si Si1 0.470228 0.619362 0.270816
Si Si2 0.241048 0.622227 0.102826
Si Si3 0.795441 0.123270 0.563428
Si Si4 0.383678 0.756090 0.411158
Si Si5 0.362715 0.878311 0.915515
O O1 0.500000 0.630798 0.500000
O O2 0.457094 0.500000 0.261420
O O3 0.427129 0.689292 0.324124
O O4 0.500000 0.643975 0.000000
O O5 0.243986 0.500000 0.087599
O O6 0.261991 0.647467 0.358699
O O7 0.189306 0.642100 0.100504
O O8 0.271934 0.657461 0.844792
O O9 0.841603 0.180825 0.482038
O O10 0.802274 0.000000 0.563952
O O11 0.388261 0.822742 0.664510
O O12 0.374285 0.829154 0.178089
O O13 0.369770 0.000000 0.911158
#
# Coordination Sequence:
#
# PCOD9193995 Si02
#       5
#     8   8   8   8   8
#     4  10  22  42  67  94 123 148 175 224 296 371
#     4   9  19  35  52  76 118 163 195 234 284 331
#     4  10  20  34  54  85 120 149 190 243 290 343
#     4  12  23  37  63  88 112 151 196 242 288 342
#     4  11  24  40  57  81 117 161 205 241 275 323
#
# _framework density 19.349482999999999
#
# number of rings (size 3 to 8) (size 9 to 14) (size 15 to 20)
#    0.000    1.600    0.000    4.800    0.000    8.000 
#    0.000    8.000    0.000   12.000    0.000    0.000 
#    0.000    0.000    0.000    0.000    0.000    0.000 
#
# Total GULP energy -111877.880359 kJ/mol
# GULP energy per Si atom -5593.894018 kJ/mol
# Density = 1.930544 g / cm^3
# Si number density = 19.349483 Si / 1000 Ang^3
#
#
#
# Elastic Constant Matrix: (Units=GPa)
#
#
# Indices 1 2 3 4 5 6 
#
# 1 82.6065 44.5882 38.6386 0.0000 -27.8542 0.0000
# 2 44.5882 113.3147 49.4097 0.0000 -19.5775 0.0000
# 3 38.6386 49.4097 159.3710 0.0000 -16.4991 0.0000
# 4 0.0000 0.0000 0.0000 25.6941 0.0000 -5.9858
# 5 -27.8542 -19.5775 -16.4991 0.0000 25.4292 0.0000
# 6 0.0000 0.0000 0.0000 -5.9858 0.0000 27.0545
#
#
#
# Elastic Compliance Matrix: (Units=1/GPa)
#
#
# Indices 1 2 3 4 5 6 
#
# 1 0.021934 -0.004443 -0.001937 0.000000 0.019348 0.000000
# 2 -0.004443 0.012114 -0.002376 0.000000 0.002917 0.000000
# 3 -0.001937 -0.002376 0.007581 0.000000 0.000967 0.000000
# 4 0.000000 0.000000 0.000000 0.041035 0.000000 0.009079
# 5 0.019348 0.002917 0.000967 0.000000 0.063392 0.000000
# 6 0.000000 0.000000 0.000000 0.009079 0.000000 0.038971
#
#
# Mechanical properties :
#
#
# Convention : Reuss Voigt Hill
#
# Bulk Modulus (GPa) = 41.46772 68.95169 55.20970
# Shear Modulus (GPa) = 23.74416 30.47927 27.11171
#
# Velocity S-wave (km/s) = 3.50683 3.97318 3.74727
# Velocity P-wave (km/s) = 6.15423 7.53396 6.87877
#
# Compressibility (1/GPa) = 0.02411515
#
# Stress axis : x y z
#
# Youngs Moduli (GPa) = 45.59123 82.55223 131.90512
#
# Poissons Ratio (x) = 0.36681 0.25553
# Poissons Ratio (y) = 0.20258 0.31344
# Poissons Ratio (z) = 0.08832 0.19617
#
# Static dielectric constant tensor:
#      x y z
#    x 1.612790 0.000000 -0.002550 
#    y 0.000000 1.716890 0.000000 
#    z -0.002550 0.000000 1.667290 
# 
# From -- ./inp_files/27730.got.cif
#   From: 2010.05.17/outbox.cif.g08.bks.cpg/sg12_14_cif.got.tgz:27730.got - 2010.06.03 13:09:07.
