data_PCOD9193325
_publ_section_title
;
Structure prediction by ZEFSAII (Michael W. Deem and Ramdas Pophale) SiO2 
 PCOD9193325
Probable space group: C 2/M
;
_chemical_formula_sum "Si O2"
_cell_formula_units_Z 56
_cell_length_a 21.752286
_cell_length_b 7.878336
_cell_length_c 30.246152
_cell_angle_alpha 90.000000
_cell_angle_beta 152.848775
_cell_angle_gamma 90.000000
_cell_volume 2365.367676
_symmetry_space_group_name_H-M "C 2/M"
_symmetry_group_IT_number 12
_symmetry_cell_setting 'monoclinic'
loop_
_space_group_symop_operation_xyz
x,y,z
-x,y,-z
-x,-y,-z
x,-y,z
1/2+x,1/2+y,z
1/2-x,1/2+y,-z
1/2-x,1/2-y,-z
1/2+x,1/2-y,z
loop_
_atom_site_type_symbol
_atom_site_label
_atom_site_fract_x
_atom_site_fract_y
_atom_site_fract_z
Si Si1 0.225912 0.304209 0.540110
Si Si2 0.479476 0.303738 0.666434
Si Si3 0.028631 0.299587 0.852137
Si Si4 0.996977 0.191880 0.549703
Si Si5 0.757583 0.792193 0.935768
Si Si6 0.276353 0.307041 0.848876
Si Si7 0.710359 0.796940 0.240427
O O1 0.237208 0.500000 0.534301
O O2 0.378256 0.238663 0.639846
O O3 0.125458 0.215420 0.441175
O O4 0.139676 0.289712 0.528276
O O5 0.519880 0.500000 0.698164
O O6 0.613038 0.200462 0.743047
O O7 0.007185 0.500000 0.830938
O O8 0.110803 0.235671 0.861274
O O9 0.891601 0.229511 0.787080
O O10 0.135408 0.273731 0.960346
O O11 0.136976 0.269600 0.656259
O O12 0.000000 0.176971 0.500000
O O13 0.986922 0.000000 0.561872
O O14 0.797952 0.733656 0.912159
O O15 0.758153 0.000000 0.935938
O O16 0.324431 0.500000 0.880104
O O17 0.328728 0.230595 0.836167
O O18 0.718046 0.000000 0.251949
#
# Coordination Sequence:
#
# PCOD9193325 Si02
#       7
#     8   8   8   8   8   8   8
#     4  10  20  34  53  77 105 140 183 229 277 324
#     4  10  20  34  53  77 107 142 181 226 274 328
#     4   9  19  38  61  82 109 148 190 229 277 335
#     4  10  21  36  55  79 109 149 192 231 277 333
#     4   9  20  38  59  85 114 144 184 233 280 333
#     4  11  22  35  56  86 117 148 184 231 286 338
#     4  10  21  37  57  82 113 148 188 234 280 335
#
# _framework density 23.674963999999999
#
# number of rings (size 3 to 8) (size 9 to 14) (size 15 to 20)
#    0.000    2.143    1.429    1.286    0.000    5.429 
#    0.000    5.714    0.000    0.000    0.000    0.000 
#    0.000    0.000    0.000    0.000    0.000    0.000 
#
# Total GULP energy -156057.461105 kJ/mol
# GULP energy per Si atom -5573.480754 kJ/mol
# Density = 2.362108 g / cm^3
# Si number density = 23.674964 Si / 1000 Ang^3
#
#
#
# Elastic Constant Matrix: (Units=GPa)
#
#
# Indices 1 2 3 4 5 6 
#
# 1 78.5312 6.1197 2.2985 0.0012 17.7210 -0.0002
# 2 6.1197 34.7333 -8.2180 -0.0004 7.6283 -0.0027
# 3 2.2985 -8.2180 39.7260 0.0006 2.7582 -0.0007
# 4 0.0012 -0.0004 0.0006 13.8423 0.0000 -2.0474
# 5 17.7210 7.6283 2.7582 0.0000 33.9219 0.0000
# 6 -0.0002 -0.0027 -0.0007 -2.0474 0.0000 -4.1205
#
#
#
# Elastic Compliance Matrix: (Units=1/GPa)
#
#
# Indices 1 2 3 4 5 6 
#
# 1 0.014476 -0.001085 -0.000557 -0.000001 -0.007273 0.000001
# 2 -0.001085 0.032297 0.007250 -0.000002 -0.007286 -0.000021
# 3 -0.000557 0.007250 0.026950 -0.000002 -0.003531 -0.000008
# 4 -0.000001 -0.000002 -0.000002 0.067296 0.000001 -0.033438
# 5 -0.007273 -0.007286 -0.003531 0.000001 0.035204 0.000005
# 6 0.000001 -0.000021 -0.000008 -0.033438 0.000005 -0.226072
#
#
# Mechanical properties :
#
#
# Convention : Reuss Voigt Hill
#
# Bulk Modulus (GPa) = 11.77319 17.04343 14.40831
# Shear Modulus (GPa) = -152.66734 18.91477 -66.87628
#
# Velocity S-wave (km/s) = -8.03895 2.82961 -5.32062
# Velocity P-wave (km/s) = 9.01014 4.22968 5.62550
#
# Compressibility (1/GPa) = 0.08493874
#
# Stress axis : x y z
#
# Youngs Moduli (GPa) = 69.08070 30.96217 37.10634
#
# Poissons Ratio (x) = 0.03359 0.02067
# Poissons Ratio (y) = 0.07495 -0.26902
# Poissons Ratio (z) = 0.03848 -0.22447
#
# Static dielectric constant tensor:
#      x y z
#    x 2.013020 0.000000 -0.014120 
#    y 0.000000 1.937710 0.000000 
#    z -0.014120 0.000000 1.882240 
# 
# From -- ./inp_files/380741.got.cif
#   From: 2010.05.17/outbox.cif.g08.bks.cpg/sg12_191_cif.got.tgz:380741.got - 2010.06.03 13:09:07.
