data_PCOD9193746
_publ_section_title
;
Structure prediction by ZEFSAII (Michael W. Deem and Ramdas Pophale) SiO2 
 PCOD9193746
Probable space group: C 2/M
;
_chemical_formula_sum "Si O2"
_cell_formula_units_Z 56
_cell_length_a 20.303540
_cell_length_b 7.870688
_cell_length_c 21.179696
_cell_angle_alpha 90.000000
_cell_angle_beta 54.813254
_cell_angle_gamma 90.000000
_cell_volume 2766.139702
_symmetry_space_group_name_H-M "C 2/M"
_symmetry_group_IT_number 12
_symmetry_cell_setting 'monoclinic'
loop_
_space_group_symop_operation_xyz
x,y,z
-x,y,-z
-x,-y,-z
x,-y,z
1/2+x,1/2+y,z
1/2-x,1/2+y,-z
1/2-x,1/2-y,-z
1/2+x,1/2-y,z
loop_
_atom_site_type_symbol
_atom_site_label
_atom_site_fract_x
_atom_site_fract_y
_atom_site_fract_z
Si Si1 0.789327 0.794942 0.694404
Si Si2 0.945709 0.199407 0.852291
Si Si3 0.158620 0.294878 0.568229
Si Si4 0.684569 0.797906 0.982856
Si Si5 0.625266 0.202262 0.727304
Si Si6 0.416837 0.204546 0.517400
Si Si7 0.181916 0.791830 0.182251
O O1 0.698539 0.733293 0.730180
O O2 0.844900 0.746189 0.604949
O O3 0.824068 0.734039 0.742336
O O4 0.788182 0.000000 0.698911
O O5 0.898625 0.227241 0.944118
O O6 0.888328 0.268195 0.826936
O O7 0.035440 0.269538 0.801336
O O8 0.952147 0.000000 0.837989
O O9 0.152546 0.500000 0.572897
O O10 0.250000 0.250000 0.500000
O O11 0.135319 0.229383 0.650327
O O12 0.103023 0.231161 0.541713
O O13 0.675953 0.000000 0.984721
O O14 0.750000 0.750000 0.000000
O O15 0.730354 0.741077 0.894201
O O16 0.637275 0.000000 0.716623
O O17 0.500000 0.271493 0.500000
O O18 0.422698 0.000000 0.510301
O O19 0.179830 0.000000 0.181629
#
# Coordination Sequence:
#
# PCOD9193746 Si02
#       7
#     8   8   8   8   8   8   8
#     4  10  20  37  56  76 104 136 176 216 257 309
#     4  10  20  34  54  80 107 136 175 217 259 308
#     4  10  20  36  55  76 103 137 178 215 256 310
#     4   9  16  31  54  79 108 138 172 213 261 308
#     4  10  21  35  53  77 104 137 175 216 260 308
#     4  10  22  37  53  76 108 139 170 214 264 312
#     4   8  17  33  54  79 104 133 170 216 258 302
#
# _framework density 20.244820000000001
#
# number of rings (size 3 to 8) (size 9 to 14) (size 15 to 20)
#    0.000    2.429    1.429    1.714    2.000    1.429 
#    0.000    4.286    0.000    4.286    0.000    0.000 
#    0.000    0.000    0.000    0.000    0.000    0.000 
#
# Total GULP energy -156151.252051 kJ/mol
# GULP energy per Si atom -5576.830430 kJ/mol
# Density = 2.019874 g / cm^3
# Si number density = 20.244820 Si / 1000 Ang^3
#
#
#
# Elastic Constant Matrix: (Units=GPa)
#
#
# Indices 1 2 3 4 5 6 
#
# 1 84.6263 7.2652 -4.6666 -0.0002 -18.1422 -0.0007
# 2 7.2652 13.0193 -7.4624 -0.0006 8.1303 -0.0019
# 3 -4.6666 -7.4624 23.6405 0.0001 -17.9261 0.0000
# 4 -0.0002 -0.0006 0.0001 24.2351 0.0001 -7.6010
# 5 -18.1422 8.1303 -17.9261 0.0001 34.5715 -0.0001
# 6 -0.0007 -0.0019 0.0000 -7.6010 -0.0001 15.5681
#
#
#
# Elastic Compliance Matrix: (Units=1/GPa)
#
#
# Indices 1 2 3 4 5 6 
#
# 1 0.018321 -0.014743 0.014638 -0.000001 0.020671 -0.000001
# 2 -0.014743 0.108272 0.010041 0.000008 -0.027993 0.000016
# 3 0.014638 0.010041 0.086341 0.000001 0.050090 0.000003
# 4 -0.000001 0.000008 0.000001 0.048724 -0.000002 0.023789
# 5 0.020671 -0.027993 0.050090 -0.000002 0.072329 -0.000003
# 6 -0.000001 0.000016 0.000003 0.023789 -0.000003 0.075849
#
#
# Mechanical properties :
#
#
# Convention : Reuss Voigt Hill
#
# Bulk Modulus (GPa) = 4.29543 12.39537 8.34540
# Shear Modulus (GPa) = 10.69366 23.28494 16.98930
#
# Velocity S-wave (km/s) = 2.30079 3.39509 2.90002
# Velocity P-wave (km/s) = 3.03060 4.63734 3.91723
#
# Compressibility (1/GPa) = 0.23280555
#
# Stress axis : x y z
#
# Youngs Moduli (GPa) = 54.58206 9.23599 11.58194
#
# Poissons Ratio (x) = 0.13616 -0.16953
# Poissons Ratio (y) = 0.80469 -0.11629
# Poissons Ratio (z) = -0.79895 -0.09274
#
# Static dielectric constant tensor:
#      x y z
#    x 1.725890 0.000000 0.013310 
#    y 0.000000 1.736540 0.000000 
#    z 0.013310 0.000000 1.710070 
# 
# From -- ./inp_files/275077.got.cif
#   From: 2010.05.17/outbox.cif.g08.bks.cpg/sg12_138_cif.got.tgz:275077.got - 2010.06.03 13:09:07.
