data_PCOD9193217
_publ_section_title
;
Structure prediction by ZEFSAII (Michael W. Deem and Ramdas Pophale) SiO2 
 PCOD9193217
Probable space group: C 2/M
;
_chemical_formula_sum "Si O2"
_cell_formula_units_Z 56
_cell_length_a 10.397754
_cell_length_b 17.238275
_cell_length_c 16.367339
_cell_angle_alpha 90.000000
_cell_angle_beta 55.202168
_cell_angle_gamma 90.000000
_cell_volume 2409.045044
_symmetry_space_group_name_H-M "C 2/M"
_symmetry_group_IT_number 12
_symmetry_cell_setting 'monoclinic'
loop_
_space_group_symop_operation_xyz
x,y,z
-x,y,-z
-x,-y,-z
x,-y,z
1/2+x,1/2+y,z
1/2-x,1/2+y,-z
1/2-x,1/2-y,-z
1/2+x,1/2-y,z
loop_
_atom_site_type_symbol
_atom_site_label
_atom_site_fract_x
_atom_site_fract_y
_atom_site_fract_z
Si Si1 0.355380 0.636073 0.389703
Si Si2 0.135519 0.682973 0.788863
Si Si3 0.560870 0.806557 0.571287
Si Si4 0.766191 0.144042 0.242530
Si Si5 0.690626 0.912997 0.921281
Si Si6 0.315438 0.910038 0.897634
Si Si7 0.629142 0.413622 0.385817
O O1 0.392864 0.727485 0.397202
O O2 0.199688 0.631430 0.503059
O O3 0.317299 0.611903 0.311435
O O4 0.509389 0.588748 0.354284
O O5 0.144418 0.774126 0.792714
O O6 0.215869 0.648649 0.841649
O O7 0.239815 0.649812 0.677163
O O8 0.963854 0.647255 0.842706
O O9 0.500000 0.787404 0.500000
O O10 0.417938 0.840800 0.674185
O O11 0.781543 0.102426 0.149973
O O12 0.735105 0.000000 0.879519
O O13 0.500000 0.913544 0.000000
O O14 0.760911 0.896266 0.985357
O O15 0.369396 0.000000 0.880350
O O16 0.500000 0.393816 0.500000
O O17 0.693315 0.500000 0.375400
#
# Coordination Sequence:
#
# PCOD9193217 Si02
#       7
#     8   8   8   8   8   8   8
#     4  10  20  34  53  75 115 156 186 225 281 348
#     4  11  21  36  62  88 116 146 197 245 289 335
#     4   9  18  33  53  78 106 153 196 233 272 334
#     4  11  22  33  57  90 115 148 195 236 289 346
#     4   8  16  35  60  84 111 151 193 235 292 346
#     4  10  22  40  62  86 116 154 195 241 293 350
#     4  11  24  37  55  86 117 150 192 243 289 335
#
# _framework density 23.245725
#
# number of rings (size 3 to 8) (size 9 to 14) (size 15 to 20)
#    0.000    2.000    1.429    3.429    6.000    1.143 
#    0.000    0.000    0.000    2.571    0.000    3.000 
#    0.000    0.000    0.000    0.000    0.000    0.000 
#
# Total GULP energy -156265.421963 kJ/mol
# GULP energy per Si atom -5580.907927 kJ/mol
# Density = 2.319282 g / cm^3
# Si number density = 23.245725 Si / 1000 Ang^3
#
#
#
# Elastic Constant Matrix: (Units=GPa)
#
#
# Indices 1 2 3 4 5 6 
#
# 1 38.2377 -9.3959 4.4094 0.0000 16.0620 0.0000
# 2 -9.3959 44.0825 2.7600 0.0000 -6.9495 0.0000
# 3 4.4094 2.7600 67.2257 0.0000 35.5509 0.0000
# 4 0.0000 0.0000 0.0000 9.9729 0.0000 22.6688
# 5 16.0620 -6.9495 35.5509 0.0000 38.2368 0.0000
# 6 0.0000 0.0000 0.0000 22.6688 0.0000 -7.6574
#
#
#
# Elastic Compliance Matrix: (Units=1/GPa)
#
#
# Indices 1 2 3 4 5 6 
#
# 1 0.035815 0.003229 0.010159 0.000000 -0.023903 0.000000
# 2 0.003229 0.025086 -0.005775 0.000000 0.008572 0.000000
# 3 0.010159 -0.005775 0.033951 0.000000 -0.036883 0.000000
# 4 0.000000 0.000000 0.000000 0.012973 0.000000 0.038406
# 5 -0.023903 0.008572 -0.036883 0.000000 0.072044 0.000000
# 6 0.000000 0.000000 0.000000 0.038406 0.000000 -0.016896
#
#
# Mechanical properties :
#
#
# Convention : Reuss Voigt Hill
#
# Bulk Modulus (GPa) = 9.08442 16.12143 12.60292
# Shear Modulus (GPa) = 27.10935 18.22863 22.66899
#
# Velocity S-wave (km/s) = 3.41868 2.80334 3.12619
# Velocity P-wave (km/s) = 4.41584 4.17476 4.29699
#
# Compressibility (1/GPa) = 0.11007858
#
# Stress axis : x y z
#
# Youngs Moduli (GPa) = 27.92133 39.86297 29.45444
#
# Poissons Ratio (x) = -0.12873 -0.29923
# Poissons Ratio (y) = -0.09017 0.17009
# Poissons Ratio (z) = -0.28365 0.23020
#
# Static dielectric constant tensor:
#      x y z
#    x 2.003930 0.000000 0.100770 
#    y 0.000000 1.823120 0.000000 
#    z 0.100770 0.000000 1.975620 
# 
# From -- ./inp_files/206580.got.cif
#   From: 2010.05.17/outbox.cif.g08.bks.cpg/sg12_104_cif.got.tgz:206580.got - 2010.06.03 13:09:07.
