data_PCOD9193088
_publ_section_title
;
Structure prediction by ZEFSAII (Michael W. Deem and Ramdas Pophale) SiO2 
 PCOD9193088
Probable space group: C 2/M
;
_chemical_formula_sum "Si O2"
_cell_formula_units_Z 48
_cell_length_a 17.374674
_cell_length_b 16.689476
_cell_length_c 12.499898
_cell_angle_alpha 90.000000
_cell_angle_beta 131.464482
_cell_angle_gamma 90.000000
_cell_volume 2716.189188
_symmetry_space_group_name_H-M "C 2/M"
_symmetry_group_IT_number 12
_symmetry_cell_setting 'monoclinic'
loop_
_space_group_symop_operation_xyz
x,y,z
-x,y,-z
-x,-y,-z
x,-y,z
1/2+x,1/2+y,z
1/2-x,1/2+y,-z
1/2-x,1/2-y,-z
1/2+x,1/2-y,z
loop_
_atom_site_type_symbol
_atom_site_label
_atom_site_fract_x
_atom_site_fract_y
_atom_site_fract_z
Si Si1 0.886225 0.779350 0.716574
Si Si2 0.814204 0.824753 0.431692
Si Si3 0.900150 0.000000 0.265709
Si Si4 0.311883 0.670245 0.185789
Si Si5 0.623082 0.408918 0.121885
Si Si6 0.381604 0.260936 0.034978
Si Si7 0.868439 0.000000 0.491863
O O1 0.889060 0.789877 0.591330
O O2 0.794776 0.718421 0.657113
O O3 0.857514 0.863371 0.748120
O O4 0.996164 0.752929 0.863638
O O5 0.850139 0.816704 0.342195
O O6 0.807937 0.918578 0.453749
O O7 0.844167 0.081098 0.180249
O O8 0.893254 0.000000 0.388036
O O9 0.020814 0.000000 0.347059
O O10 0.358674 0.727906 0.139386
O O11 0.190277 0.689550 0.073130
O O12 0.664610 0.500000 0.151269
O O13 0.500000 0.415986 0.000000
O O14 0.652072 0.342484 0.058852
#
# Coordination Sequence:
#
# PCOD9193088 Si02
#       7
#     8   8   4   8   8   8   4
#     4  10  20  34  53  76 106 140 175 217 263 312
#     4  10  20  34  52  77 106 138 175 217 262 311
#     4   9  18  32  51  76 104 129 165 216 262 304
#     4  10  20  34  52  77 106 138 175 217 262 311
#     4   9  18  32  52  77 101 132 172 215 263 304
#     4  10  20  34  53  76 106 140 175 217 263 312
#     4   9  18  32  51  76 104 129 165 216 262 304
#
# _framework density 17.671817999999998
#
# number of rings (size 3 to 8) (size 9 to 14) (size 15 to 20)
#    0.000    2.333    1.667    1.000    2.333    2.000 
#    0.000    0.833    0.000    3.000    0.000    0.000 
#    0.000   14.667    0.000    0.000    0.000    0.000 
#
# Total GULP energy -133652.510402 kJ/mol
# GULP energy per Si atom -5568.854600 kJ/mol
# Density = 1.763160 g / cm^3
# Si number density = 17.671818 Si / 1000 Ang^3
#
#
#
# Elastic Constant Matrix: (Units=GPa)
#
#
# Indices 1 2 3 4 5 6 
#
# 1 20.8571 11.1321 27.4172 0.0000 -7.2731 0.0000
# 2 11.1321 97.3840 38.6871 0.0000 17.7233 0.0000
# 3 27.4172 38.6871 94.0092 0.0000 -8.0293 0.0000
# 4 0.0000 0.0000 0.0000 23.3649 0.0000 5.7553
# 5 -7.2731 17.7233 -8.0293 0.0000 37.5499 0.0000
# 6 0.0000 0.0000 0.0000 5.7553 0.0000 17.0012
#
#
#
# Elastic Compliance Matrix: (Units=1/GPa)
#
#
# Indices 1 2 3 4 5 6 
#
# 1 0.082649 -0.003167 -0.021702 0.000000 0.012863 0.000000
# 2 -0.003167 0.014516 -0.005794 0.000000 -0.008704 0.000000
# 3 -0.021702 -0.005794 0.019583 0.000000 0.002718 0.000000
# 4 0.000000 0.000000 0.000000 0.046693 0.000000 -0.015807
# 5 0.012863 -0.008704 0.002718 0.000000 0.033812 0.000000
# 6 0.000000 0.000000 0.000000 -0.015807 0.000000 0.064170
#
#
# Mechanical properties :
#
#
# Convention : Reuss Voigt Hill
#
# Bulk Modulus (GPa) = 18.04313 40.74698 29.39505
# Shear Modulus (GPa) = 14.65315 24.58412 19.61863
#
# Velocity S-wave (km/s) = 2.88268 3.73386 3.33553
# Velocity P-wave (km/s) = 4.61650 6.45729 5.61287
#
# Compressibility (1/GPa) = 0.05542276
#
# Stress axis : x y z
#
# Youngs Moduli (GPa) = 12.09931 68.88819 51.06491
#
# Poissons Ratio (x) = 0.21818 1.10822
# Poissons Ratio (y) = 0.03832 0.29585
# Poissons Ratio (z) = 0.26258 0.39910
#
# Static dielectric constant tensor:
#      x y z
#    x 1.631910 0.000000 -0.037400 
#    y 0.000000 1.611510 0.000000 
#    z -0.037400 0.000000 1.644530 
# 
# From -- ./inp_files/158043.got.cif
#   From: 2010.05.17/outbox.cif.g08.bks.cpg/sg12_80_cif.got.tgz:158043.got - 2010.06.03 13:09:07.
