data_PCOD9193627
_publ_section_title
;
Structure prediction by ZEFSAII (Michael W. Deem and Ramdas Pophale) SiO2 
 PCOD9193627
Probable space group: C 2/M
;
_chemical_formula_sum "Si O2"
_cell_formula_units_Z 64
_cell_length_a 8.905567
_cell_length_b 10.942240
_cell_length_c 34.958550
_cell_angle_alpha 90.000000
_cell_angle_beta 78.911075
_cell_angle_gamma 90.000000
_cell_volume 3342.998915
_symmetry_space_group_name_H-M "C 2/M"
_symmetry_group_IT_number 12
_symmetry_cell_setting 'monoclinic'
loop_
_space_group_symop_operation_xyz
x,y,z
-x,y,-z
-x,-y,-z
x,-y,z
1/2+x,1/2+y,z
1/2-x,1/2+y,-z
1/2-x,1/2-y,-z
1/2+x,1/2-y,z
loop_
_atom_site_type_symbol
_atom_site_label
_atom_site_fract_x
_atom_site_fract_y
_atom_site_fract_z
Si Si1 0.320363 0.133741 0.017077
Si Si2 0.313388 0.636881 0.892104
Si Si3 0.966250 0.362507 0.456453
Si Si4 0.701141 0.296758 0.279891
Si Si5 0.517809 0.135322 0.229275
Si Si6 0.684628 0.642318 0.579520
Si Si7 0.516622 0.858666 0.858738
Si Si8 0.614985 0.362937 0.668537
O O1 0.282212 0.141625 0.063861
O O2 0.260864 0.000000 0.006697
O O3 0.500000 0.135245 0.000000
O O4 0.250000 0.250000 0.000000
O O5 0.385360 0.500000 0.886721
O O6 0.426224 0.751534 0.884766
O O7 0.192153 0.646955 0.863582
O O8 0.900356 0.500000 0.452457
O O9 0.869248 0.246705 0.447202
O O10 0.000000 0.354680 0.500000
O O11 0.131592 0.356407 0.428129
O O12 0.624268 0.223241 0.248694
O O13 0.847326 0.365250 0.255386
O O14 0.556915 0.362165 0.306471
O O15 0.777218 0.214470 0.309152
O O16 0.502921 0.165901 0.185338
O O17 0.584712 0.000000 0.228887
O O18 0.640274 0.500000 0.572461
O O19 0.618434 0.677399 0.624310
O O20 0.465865 0.000000 0.869042
O O21 0.676066 0.500000 0.665412
#
# Coordination Sequence:
#
# PCOD9193627 Si02
#       8
#     8   8   8   8   8   8   8   8
#     4  10  21  37  57  81 110 143 180 222 268 319
#     4  10  21  37  56  81 111 143 180 222 269 320
#     4  10  21  37  56  80 110 143 180 222 268 319
#     4  10  20  34  54  77 104 138 174 215 266 317
#     4  10  20  35  54  78 105 136 177 219 262 314
#     4  10  21  36  55  80 109 141 180 223 267 319
#     4  10  21  37  57  80 109 143 179 222 268 317
#     4  10  20  35  53  76 106 138 174 218 266 315
#
# _framework density 19.144487000000002
#
# number of rings (size 3 to 8) (size 9 to 14) (size 15 to 20)
#    0.000    2.000    0.000    3.375    0.000    3.000 
#    0.000    6.250    0.000    0.000    0.000    0.000 
#    0.000    0.000    0.000    0.000    0.000    0.000 
#
# Total GULP energy -178418.567851 kJ/mol
# GULP energy per Si atom -5575.580245 kJ/mol
# Density = 1.910091 g / cm^3
# Si number density = 19.144487 Si / 1000 Ang^3
#
#
#
# Elastic Constant Matrix: (Units=GPa)
#
#
# Indices 1 2 3 4 5 6 
#
# 1 42.0476 30.9788 -7.6962 0.0000 3.5342 0.0000
# 2 30.9788 106.8411 26.4315 0.0000 17.3012 0.0000
# 3 -7.6962 26.4315 46.6864 0.0000 1.9933 0.0000
# 4 0.0000 0.0000 0.0000 28.4188 0.0000 0.7380
# 5 3.5342 17.3012 1.9933 0.0000 28.7704 0.0000
# 6 0.0000 0.0000 0.0000 0.7380 0.0000 14.8794
#
#
#
# Elastic Compliance Matrix: (Units=1/GPa)
#
#
# Indices 1 2 3 4 5 6 
#
# 1 0.037073 -0.014854 0.014377 0.000000 0.003382 0.000000
# 2 -0.014854 0.018035 -0.012310 0.000000 -0.008168 0.000000
# 3 0.014377 -0.012310 0.030609 0.000000 0.003516 0.000000
# 4 0.000000 0.000000 0.000000 0.035233 0.000000 -0.001747
# 5 0.003382 -0.008168 0.003516 0.000000 0.039010 0.000000
# 6 0.000000 0.000000 0.000000 -0.001747 0.000000 0.067294
#
#
# Mechanical properties :
#
#
# Convention : Reuss Voigt Hill
#
# Bulk Modulus (GPa) = 16.62733 32.77813 24.70273
# Shear Modulus (GPa) = 18.32331 24.13780 21.23056
#
# Velocity S-wave (km/s) = 3.09707 3.55466 3.33372
# Velocity P-wave (km/s) = 4.63607 5.83147 5.26779
#
# Compressibility (1/GPa) = 0.06014195
#
# Stress axis : x y z
#
# Youngs Moduli (GPa) = 26.97349 55.44879 32.67037
#
# Poissons Ratio (x) = 0.82363 -0.46969
# Poissons Ratio (y) = 0.40066 0.40218
# Poissons Ratio (z) = -0.38779 0.68259
#
# Static dielectric constant tensor:
#      x y z
#    x 1.630910 0.000000 -0.012550 
#    y 0.000000 1.677140 0.000000 
#    z -0.012550 0.000000 1.682340 
# 
# From -- ./inp_files/372168.got.cif
#   From: 2010.05.17/outbox.cif.g08.bks.cpg/sg12_187_cif.got.tgz:372168.got - 2010.06.03 13:09:07.
