data_PCOD9193119
_publ_section_title
;
Structure prediction by ZEFSAII (Michael W. Deem and Ramdas Pophale) SiO2 
 PCOD9193119
Probable space group: C 2/M
;
_chemical_formula_sum "Si O2"
_cell_formula_units_Z 64
_cell_length_a 22.069211
_cell_length_b 7.726161
_cell_length_c 20.491152
_cell_angle_alpha 90.000000
_cell_angle_beta 53.727800
_cell_angle_gamma 90.000000
_cell_volume 2816.878033
_symmetry_space_group_name_H-M "C 2/M"
_symmetry_group_IT_number 12
_symmetry_cell_setting 'monoclinic'
loop_
_space_group_symop_operation_xyz
x,y,z
-x,y,-z
-x,-y,-z
x,-y,z
1/2+x,1/2+y,z
1/2-x,1/2+y,-z
1/2-x,1/2-y,-z
1/2+x,1/2-y,z
loop_
_atom_site_type_symbol
_atom_site_label
_atom_site_fract_x
_atom_site_fract_y
_atom_site_fract_z
Si Si1 0.065433 0.787503 0.722844
Si Si2 0.277200 0.700881 0.892384
Si Si3 0.611511 0.206384 0.968230
Si Si4 0.914246 0.208267 0.546466
Si Si5 0.360596 0.293903 0.190268
Si Si6 0.836472 0.791586 0.462207
Si Si7 0.307334 0.793258 0.734149
Si Si8 0.414873 0.706611 0.876329
O O1 0.105796 0.728048 0.763672
O O2 0.109617 0.729675 0.630778
O O3 0.979560 0.730277 0.786755
O O4 0.065707 0.000000 0.721903
O O5 0.264110 0.500000 0.916409
O O6 0.195638 0.779887 0.930007
O O7 0.321681 0.712426 0.795645
O O8 0.332853 0.779805 0.910386
O O9 0.594365 0.260086 0.905388
O O10 0.612929 0.000000 0.966203
O O11 0.565129 0.260459 0.061155
O O12 0.868926 0.272188 0.511117
O O13 0.867124 0.250502 0.640945
O O14 0.000000 0.272315 0.500000
O O15 0.918346 0.000000 0.537902
O O16 0.356151 0.500000 0.200118
O O17 0.275530 0.228276 0.234473
O O18 0.750000 0.750000 0.500000
O O19 0.840883 0.000000 0.460873
O O20 0.303828 0.000000 0.744563
O O21 0.410276 0.500000 0.871299
#
# Coordination Sequence:
#
# PCOD9193119 Si02
#       8
#     8   8   8   8   8   8   8   8
#     4   9  19  35  57  81 104 137 183 229 269 319
#     4   9  19  34  55  79 107 145 185 223 268 330
#     4  10  20  34  52  78 110 142 178 224 274 324
#     4  10  22  37  58  86 116 152 191 235 286 345
#     4   9  18  35  56  77 103 139 184 225 266 324
#     4  10  21  39  62  87 115 150 193 238 287 344
#     4  10  20  34  56  82 109 143 181 228 281 330
#     4  10  20  34  55  79 105 142 183 225 271 324
#
# _framework density 22.720189000000001
#
# number of rings (size 3 to 8) (size 9 to 14) (size 15 to 20)
#    0.000    2.375    0.000    1.875    1.750    3.750 
#    0.000    4.375    0.000    0.000    0.000    0.000 
#    0.000    0.000    0.000    0.000    0.000    0.000 
#
# Total GULP energy -178706.912347 kJ/mol
# GULP energy per Si atom -5584.591011 kJ/mol
# Density = 2.266848 g / cm^3
# Si number density = 22.720189 Si / 1000 Ang^3
#
#
#
# Elastic Constant Matrix: (Units=GPa)
#
#
# Indices 1 2 3 4 5 6 
#
# 1 99.4563 8.3926 27.3367 0.0019 7.4510 -0.0008
# 2 8.3926 39.7608 -4.2281 0.0023 -2.6359 -0.0004
# 3 27.3367 -4.2281 132.8489 0.0020 10.9945 -0.0023
# 4 0.0019 0.0023 0.0020 16.8545 -0.0007 1.9415
# 5 7.4510 -2.6359 10.9945 -0.0007 31.6262 0.0008
# 6 -0.0008 -0.0004 -0.0023 1.9415 0.0008 9.9419
#
#
#
# Elastic Compliance Matrix: (Units=1/GPa)
#
#
# Indices 1 2 3 4 5 6 
#
# 1 0.011038 -0.002699 -0.002186 -0.000001 -0.002065 0.000001
# 2 -0.002699 0.026005 0.001185 -0.000003 0.002391 0.000002
# 3 -0.002186 0.001185 0.008200 -0.000001 -0.002237 0.000002
# 4 -0.000001 -0.000003 -0.000001 0.060697 0.000002 -0.011853
# 5 -0.002065 0.002391 -0.002237 0.000002 0.033083 -0.000004
# 6 0.000001 0.000002 0.000002 -0.011853 -0.000004 0.102899
#
#
# Mechanical properties :
#
#
# Convention : Reuss Voigt Hill
#
# Bulk Modulus (GPa) = 26.42565 37.22983 31.82774
# Shear Modulus (GPa) = 19.08860 27.72218 23.40539
#
# Velocity S-wave (km/s) = 2.90170 3.49686 3.21309
# Velocity P-wave (km/s) = 4.78358 5.72065 5.27297
#
# Compressibility (1/GPa) = 0.03784201
#
# Stress axis : x y z
#
# Youngs Moduli (GPa) = 90.59517 38.45453 121.95012
#
# Poissons Ratio (x) = 0.10380 0.26662
# Poissons Ratio (y) = 0.24454 -0.14453
# Poissons Ratio (z) = 0.19807 -0.04558
#
# Static dielectric constant tensor:
#      x y z
#    x 1.885810 0.000000 -0.014190 
#    y 0.000000 1.831690 0.000000 
#    z -0.014190 0.000000 1.827270 
# 
# From -- ./inp_files/324160.got.cif
#   From: 2010.05.17/outbox.cif.g08.bks.cpg/sg12_163_cif.got.tgz:324160.got - 2010.06.03 13:09:07.
