data_PCOD9193539
_publ_section_title
;
Structure prediction by ZEFSAII (Michael W. Deem and Ramdas Pophale) SiO2 
 PCOD9193539
Probable space group: C 2/M
;
_chemical_formula_sum "Si O2"
_cell_formula_units_Z 56
_cell_length_a 8.139051
_cell_length_b 21.685049
_cell_length_c 21.510282
_cell_angle_alpha 90.000000
_cell_angle_beta 126.511183
_cell_angle_gamma 90.000000
_cell_volume 3051.379809
_symmetry_space_group_name_H-M "C 2/M"
_symmetry_group_IT_number 12
_symmetry_cell_setting 'monoclinic'
loop_
_space_group_symop_operation_xyz
x,y,z
-x,y,-z
-x,-y,-z
x,-y,z
1/2+x,1/2+y,z
1/2-x,1/2+y,-z
1/2-x,1/2-y,-z
1/2+x,1/2-y,z
loop_
_atom_site_type_symbol
_atom_site_label
_atom_site_fract_x
_atom_site_fract_y
_atom_site_fract_z
Si Si1 0.555454 0.380754 0.759210
Si Si2 0.675164 0.120864 0.751853
Si Si3 0.919846 0.427142 0.914122
Si Si4 0.471015 0.750722 0.683000
Si Si5 0.785648 0.929247 0.335678
Si Si6 0.547169 0.691988 0.581401
Si Si7 0.191103 0.073304 0.087387
O O1 0.333498 0.401566 0.734472
O O2 0.720739 0.390005 0.850083
O O3 0.538319 0.309425 0.735428
O O4 0.647056 0.417319 0.720706
O O5 0.626532 0.192350 0.725133
O O6 0.453998 0.087300 0.706803
O O7 0.783551 0.110178 0.842786
O O8 0.867359 0.500000 0.903160
O O9 0.101732 0.418637 0.905598
O O10 0.000000 0.410406 0.000000
O O11 0.405769 0.724731 0.600037
O O12 0.260035 0.781548 0.656546
O O13 0.926292 0.881187 0.404927
O O14 0.818901 0.000000 0.359258
O O15 0.500000 0.706035 0.500000
O O16 0.170229 0.000000 0.097623
O O17 0.000000 0.089864 0.000000
#
# Coordination Sequence:
#
# PCOD9193539 Si02
#       7
#     8   8   8   8   8   8   8
#     4  11  21  36  59  83 117 156 193 241 290 336
#     4  11  21  36  59  83 117 156 193 241 290 336
#     4  10  20  34  53  81 115 151 195 242 285 334
#     4  10  21  38  57  88 114 144 198 240 281 350
#     4  10  22  37  56  87 119 150 194 237 287 354
#     4  10  20  37  62  85 112 149 187 240 292 341
#     4  10  20  34  53  81 115 151 195 242 285 334
#
# _framework density 18.352353999999998
#
# number of rings (size 3 to 8) (size 9 to 14) (size 15 to 20)
#    0.000    1.714    2.857    2.143    0.000    3.714 
#    0.000    0.714    0.000    3.429    0.000    4.000 
#    0.000    0.000    0.000    0.000    0.000    0.000 
#
# Total GULP energy -156025.401499 kJ/mol
# GULP energy per Si atom -5572.335768 kJ/mol
# Density = 1.831058 g / cm^3
# Si number density = 18.352354 Si / 1000 Ang^3
#
#
#
# Elastic Constant Matrix: (Units=GPa)
#
#
# Indices 1 2 3 4 5 6 
#
# 1 94.5152 26.3358 19.9107 0.0000 -4.8461 0.0000
# 2 26.3358 94.3657 32.0116 0.0000 -4.6608 0.0000
# 3 19.9107 32.0116 79.9213 0.0000 -12.6187 0.0000
# 4 0.0000 0.0000 0.0000 3.2665 0.0000 -4.7389
# 5 -4.8461 -4.6608 -12.6187 0.0000 24.0091 0.0000
# 6 0.0000 0.0000 0.0000 -4.7389 0.0000 17.4444
#
#
#
# Elastic Compliance Matrix: (Units=1/GPa)
#
#
# Indices 1 2 3 4 5 6 
#
# 1 0.011727 -0.002645 -0.001711 0.000000 0.000954 0.000000
# 2 -0.002645 0.012861 -0.004561 0.000000 -0.000434 0.000000
# 3 -0.001711 -0.004561 0.015890 0.000000 0.007121 0.000000
# 4 0.000000 0.000000 0.000000 0.505273 0.000000 0.137262
# 5 0.000954 -0.000434 0.007121 0.000000 0.045501 0.000000
# 6 0.000000 0.000000 0.000000 0.137262 0.000000 0.094614
#
#
# Mechanical properties :
#
#
# Convention : Reuss Voigt Hill
#
# Bulk Modulus (GPa) = 44.16431 47.25758 45.71095
# Shear Modulus (GPa) = 7.02990 21.64695 14.33842
#
# Velocity S-wave (km/s) = 1.95929 3.43814 2.79818
# Velocity P-wave (km/s) = 5.40697 6.44726 5.94989
#
# Compressibility (1/GPa) = 0.02264272
#
# Stress axis : x y z
#
# Youngs Moduli (GPa) = 85.27501 77.75435 62.93362
#
# Poissons Ratio (x) = 0.20566 0.10770
# Poissons Ratio (y) = 0.22556 0.28704
# Poissons Ratio (z) = 0.14594 0.35463
#
# Static dielectric constant tensor:
#      x y z
#    x 1.706190 0.000000 -0.008430 
#    y 0.000000 1.634520 0.000000 
#    z -0.008430 0.000000 1.613610 
# 
# From -- ./inp_files/257606.got.cif
#   From: 2010.05.17/outbox.cif.g08.bks.cpg/sg12_129_cif.got.tgz:257606.got - 2010.06.03 13:09:07.
