data_PCOD9193098
_publ_section_title
;
Structure prediction by ZEFSAII (Michael W. Deem and Ramdas Pophale) SiO2 
 PCOD9193098
Probable space group: C 2/M
;
_chemical_formula_sum "Si O2"
_cell_formula_units_Z 64
_cell_length_a 14.958879
_cell_length_b 8.196059
_cell_length_c 26.429050
_cell_angle_alpha 90.000000
_cell_angle_beta 86.577294
_cell_angle_gamma 90.000000
_cell_volume 3234.523508
_symmetry_space_group_name_H-M "C 2/M"
_symmetry_group_IT_number 12
_symmetry_cell_setting 'monoclinic'
loop_
_space_group_symop_operation_xyz
x,y,z
-x,y,-z
-x,-y,-z
x,-y,z
1/2+x,1/2+y,z
1/2-x,1/2+y,-z
1/2-x,1/2-y,-z
1/2+x,1/2-y,z
loop_
_atom_site_type_symbol
_atom_site_label
_atom_site_fract_x
_atom_site_fract_y
_atom_site_fract_z
Si Si1 0.614891 0.308751 0.407166
Si Si2 0.257178 0.195223 0.942144
Si Si3 0.229782 0.197243 0.215994
Si Si4 0.589415 0.696609 0.137641
Si Si5 0.115747 0.197322 0.863674
Si Si6 0.064934 0.302132 0.620499
Si Si7 0.234814 0.699107 0.672821
Si Si8 0.350797 0.191707 0.487504
O O1 0.626686 0.500000 0.416299
O O2 0.532016 0.275762 0.373397
O O3 0.702429 0.244920 0.375405
O O4 0.598332 0.228669 0.462102
O O5 0.347080 0.258168 0.911676
O O6 0.171361 0.251361 0.911646
O O7 0.258839 0.000000 0.940097
O O8 0.250000 0.250000 0.000000
O O9 0.145444 0.254925 0.185070
O O10 0.320970 0.248215 0.184625
O O11 0.232507 0.255885 0.273664
O O12 0.226629 0.000000 0.216792
O O13 0.585504 0.500000 0.140436
O O14 0.486976 0.756166 0.136552
O O15 0.113279 0.000000 0.864303
O O16 0.056573 0.500000 0.619717
O O17 0.133455 0.257154 0.662387
O O18 0.106576 0.242473 0.565491
O O19 0.239638 0.500000 0.672391
O O20 0.250000 0.250000 0.500000
O O21 0.347477 0.000000 0.480294
#
# Coordination Sequence:
#
# PCOD9193098 Si02
#       8
#     8   8   8   8   8   8   8   8
#     4  11  22  37  56  81 108 138 176 221 265 319
#     4  10  20  34  52  77 110 145 178 219 265 311
#     4   9  18  34  57  78 100 137 179 218 260 314
#     4   9  18  34  55  78 104 139 180 218 262 315
#     4   9  19  35  54  77 108 141 175 221 271 312
#     4  10  21  38  55  75 106 142 173 212 266 321
#     4   9  19  37  55  75 108 141 170 212 271 318
#     4  11  21  36  58  79 105 142 177 214 265 321
#
# _framework density 19.786531
#
# number of rings (size 3 to 8) (size 9 to 14) (size 15 to 20)
#    0.000    2.250    1.250    1.500    0.000    5.000 
#    0.000    5.625    0.000    0.000    0.000    0.000 
#    0.000    0.000    0.000    0.000    0.000    0.000 
#
# Total GULP energy -178558.449588 kJ/mol
# GULP energy per Si atom -5579.951550 kJ/mol
# Density = 1.974150 g / cm^3
# Si number density = 19.786531 Si / 1000 Ang^3
#
#
#
# Elastic Constant Matrix: (Units=GPa)
#
#
# Indices 1 2 3 4 5 6 
#
# 1 116.6556 3.7070 18.8575 0.0000 12.9978 0.0000
# 2 3.7070 6.0636 0.0231 0.0000 1.7937 0.0000
# 3 18.8575 0.0231 89.5749 0.0000 12.4284 0.0000
# 4 0.0000 0.0000 0.0000 19.1836 0.0000 -0.3693
# 5 12.9978 1.7937 12.4284 0.0000 13.1865 0.0000
# 6 0.0000 0.0000 0.0000 -0.3693 0.0000 24.3862
#
#
#
# Elastic Compliance Matrix: (Units=1/GPa)
#
#
# Indices 1 2 3 4 5 6 
#
# 1 0.009753 -0.003508 -0.000903 0.000000 -0.008285 0.000000
# 2 -0.003508 0.174155 0.004027 0.000000 -0.024028 0.000000
# 3 -0.000903 0.004027 0.013006 0.000000 -0.011917 0.000000
# 4 0.000000 0.000000 0.000000 0.052143 0.000000 0.000790
# 5 -0.008285 -0.024028 -0.011917 0.000000 0.098502 0.000000
# 6 0.000000 0.000000 0.000000 0.000790 0.000000 0.041019
#
#
# Mechanical properties :
#
#
# Convention : Reuss Voigt Hill
#
# Bulk Modulus (GPa) = 5.09821 28.60771 16.85296
# Shear Modulus (GPa) = 10.99563 23.99836 17.49700
#
# Velocity S-wave (km/s) = 2.35991 3.48640 2.97692
# Velocity P-wave (km/s) = 3.16351 5.54041 4.51132
#
# Compressibility (1/GPa) = 0.19614709
#
# Stress axis : x y z
#
# Youngs Moduli (GPa) = 102.53486 5.74202 76.88616
#
# Poissons Ratio (x) = 0.02014 0.06941
# Poissons Ratio (y) = 0.35969 -0.30965
# Poissons Ratio (z) = 0.09256 -0.02313
#
# Static dielectric constant tensor:
#      x y z
#    x 1.713010 0.000000 0.022830 
#    y 0.000000 1.694030 0.000000 
#    z 0.022830 0.000000 1.722400 
# 
# From -- ./inp_files/338693.got.cif
#   From: 2010.05.17/outbox.cif.g08.bks.cpg/sg12_170_cif.got.tgz:338693.got - 2010.06.03 13:09:07.
