data_PCOD9193194
_publ_section_title
;
Structure prediction by ZEFSAII (Michael W. Deem and Ramdas Pophale) SiO2 
 PCOD9193194
Probable space group: C 2/M
;
_chemical_formula_sum "Si O2"
_cell_formula_units_Z 56
_cell_length_a 13.302950
_cell_length_b 10.995677
_cell_length_c 24.993446
_cell_angle_alpha 90.000000
_cell_angle_beta 132.006753
_cell_angle_gamma 90.000000
_cell_volume 2716.585858
_symmetry_space_group_name_H-M "C 2/M"
_symmetry_group_IT_number 12
_symmetry_cell_setting 'monoclinic'
loop_
_space_group_symop_operation_xyz
x,y,z
-x,y,-z
-x,-y,-z
x,-y,z
1/2+x,1/2+y,z
1/2-x,1/2+y,-z
1/2-x,1/2-y,-z
1/2+x,1/2-y,z
loop_
_atom_site_type_symbol
_atom_site_label
_atom_site_fract_x
_atom_site_fract_y
_atom_site_fract_z
Si Si1 0.604217 0.139400 0.278489
Si Si2 0.295288 0.140260 0.167951
Si Si3 0.360120 0.190688 0.966925
Si Si4 0.065310 0.138633 0.464270
Si Si5 0.307617 0.361281 0.754508
Si Si6 0.391500 0.136510 0.592400
Si Si7 0.914392 0.872108 0.081173
O O1 0.449305 0.154096 0.203293
O O2 0.692342 0.249184 0.286279
O O3 0.596138 0.149837 0.339509
O O4 0.648492 0.000000 0.281599
O O5 0.190943 0.221771 0.098715
O O6 0.288743 0.163176 0.229182
O O7 0.257809 0.000000 0.147388
O O8 0.223019 0.123949 0.933759
O O9 0.500000 0.128941 0.000000
O O10 0.399331 0.265624 0.033765
O O11 0.228971 0.137209 0.525671
O O12 0.039452 0.253093 0.415640
O O13 0.000000 0.157930 0.500000
O O14 0.023737 0.000000 0.432492
O O15 0.284217 0.500000 0.725784
O O16 0.456364 0.361524 0.834833
O O17 0.441052 0.000000 0.595047
O O18 0.926839 0.000000 0.055400
#
# Coordination Sequence:
#
# PCOD9193194 Si02
#       7
#     8   8   8   8   8   8   8
#     4  10  21  38  55  76 109 144 177 215 262 313
#     4  10  20  34  53  74 101 136 176 216 264 322
#     4  11  20  33  53  73  97 128 172 218 270 323
#     4   9  18  34  57  84 113 143 176 215 256 303
#     4  10  20  36  54  75 102 135 177 221 263 314
#     4   9  19  35  55  80 111 145 178 215 256 304
#     4  10  21  34  50  73  99 127 167 220 271 320
#
# _framework density 20.614111000000001
#
# number of rings (size 3 to 8) (size 9 to 14) (size 15 to 20)
#    0.000    2.143    2.857    0.429    0.000    2.857 
#    0.000    1.429    0.000    0.000    0.000    0.000 
#    0.000    0.000    0.000    0.000    0.000    0.000 
#
# Total GULP energy -156080.867742 kJ/mol
# GULP energy per Si atom -5574.316705 kJ/mol
# Density = 2.056719 g / cm^3
# Si number density = 20.614111 Si / 1000 Ang^3
#
#
#
# Elastic Constant Matrix: (Units=GPa)
#
#
# Indices 1 2 3 4 5 6 
#
# 1 82.9236 60.4619 0.7151 0.0000 -4.7506 0.0000
# 2 60.4619 155.2536 31.0443 0.0000 -31.5794 0.0000
# 3 0.7151 31.0443 37.7664 0.0000 -2.8031 0.0000
# 4 0.0000 0.0000 0.0000 36.3926 0.0000 -18.2806
# 5 -4.7506 -31.5794 -2.8031 0.0000 28.0732 0.0000
# 6 0.0000 0.0000 0.0000 -18.2806 0.0000 17.0011
#
#
#
# Elastic Compliance Matrix: (Units=1/GPa)
#
#
# Indices 1 2 3 4 5 6 
#
# 1 0.019371 -0.010752 0.007875 0.000000 -0.008030 0.000000
# 2 -0.010752 0.016071 -0.011888 0.000000 0.015072 0.000000
# 3 0.007875 -0.011888 0.035471 0.000000 -0.008499 0.000000
# 4 0.000000 0.000000 0.000000 0.059750 0.000000 0.064247
# 5 -0.008030 0.015072 -0.008499 0.000000 0.050368 0.000000
# 6 0.000000 0.000000 0.000000 0.064247 0.000000 0.127901
#
#
# Mechanical properties :
#
#
# Convention : Reuss Voigt Hill
#
# Bulk Modulus (GPa) = 24.16447 51.15401 37.65924
# Shear Modulus (GPa) = 14.19419 28.54154 21.36786
#
# Velocity S-wave (km/s) = 2.62690 3.72501 3.22307
# Velocity P-wave (km/s) = 4.57696 6.58558 5.67091
#
# Compressibility (1/GPa) = 0.04138307
#
# Stress axis : x y z
#
# Youngs Moduli (GPa) = 51.62389 62.22321 28.19207
#
# Poissons Ratio (x) = 0.66902 -0.22202
# Poissons Ratio (y) = 0.55506 0.33516
# Poissons Ratio (z) = -0.40656 0.73973
#
# Static dielectric constant tensor:
#      x y z
#    x 1.764770 0.000000 0.029110 
#    y 0.000000 1.874810 0.000000 
#    z 0.029110 0.000000 1.722330 
# 
# From -- ./inp_files/304185.got.cif
#   From: 2010.05.17/outbox.cif.g08.bks.cpg/sg12_153_cif.got.tgz:304185.got - 2010.06.03 13:09:07.
