data_PCOD9193042
_publ_section_title
;
Structure prediction by ZEFSAII (Michael W. Deem and Ramdas Pophale) SiO2 
 PCOD9193042
Probable space group: C 2/M
;
_chemical_formula_sum "Si O2"
_cell_formula_units_Z 58
_cell_length_a 8.367758
_cell_length_b 11.674896
_cell_length_c 29.345667
_cell_angle_alpha 90.000000
_cell_angle_beta 92.226941
_cell_angle_gamma 90.000000
_cell_volume 2864.692394
_symmetry_space_group_name_H-M "C 2/M"
_symmetry_group_IT_number 12
_symmetry_cell_setting 'monoclinic'
loop_
_space_group_symop_operation_xyz
x,y,z
-x,y,-z
-x,-y,-z
x,-y,z
1/2+x,1/2+y,z
1/2-x,1/2+y,-z
1/2-x,1/2-y,-z
1/2+x,1/2-y,z
loop_
_atom_site_type_symbol
_atom_site_label
_atom_site_fract_x
_atom_site_fract_y
_atom_site_fract_z
Si Si1 0.703947 0.686956 0.952816
Si Si2 0.991139 0.370747 0.205020
Si Si3 0.784229 0.702325 0.607895
Si Si4 0.568797 0.869940 0.549488
Si Si5 0.500000 0.500000 0.000000
Si Si6 0.993209 0.125098 0.662871
Si Si7 0.848045 0.130917 0.236251
Si Si8 0.014362 0.376420 0.901606
O O1 0.569879 0.598093 0.965960
O O2 0.860614 0.632576 0.932198
O O3 0.634272 0.777348 0.916566
O O4 0.750000 0.750000 0.000000
O O5 0.917273 0.500000 0.212719
O O6 0.155719 0.367034 0.235041
O O7 0.032677 0.369587 0.151704
O O8 0.897975 0.251453 0.212966
O O9 0.705284 0.788412 0.570511
O O10 0.639402 0.633763 0.628779
O O11 0.922990 0.634074 0.583901
O O12 0.868536 0.777320 0.648191
O O13 0.500000 0.831608 0.500000
O O14 0.627181 0.000000 0.545031
O O15 0.068875 0.136607 0.713594
O O16 0.915660 0.000000 0.658409
O O17 0.888139 0.000000 0.218040
O O18 0.093627 0.500000 0.910679
#
# Coordination Sequence:
#
# PCOD9193042 Si02
#       8
#     8   8   8   8   2   8   8   8
#     4  12  24  40  60  88 115 151 188 231 278 328
#     4  10  22  41  60  87 116 152 191 234 279 342
#     4  10  20  34  53  79 108 141 186 228 277 331
#     4  10  20  34  52  75 107 145 184 228 276 328
#     4  12  24  40  60  88 120 144 190 234 276 328
#     4  10  20  35  56  81 110 144 181 231 281 335
#     4  10  21  39  61  86 117 150 189 234 290 341
#     4  11  24  40  62  84 117 151 189 230 278 328
#
# _framework density 20.246502
#
# number of rings (size 3 to 8) (size 9 to 14) (size 15 to 20)
#    0.000    1.517    2.069    2.897    0.966    1.103 
#    1.241    3.448    0.000    6.621    0.000    0.000 
#    0.000    0.000    0.000    0.000    0.000    0.000 
#
# Total GULP energy -161515.247630 kJ/mol
# GULP energy per Si atom -5569.491298 kJ/mol
# Density = 2.020042 g / cm^3
# Si number density = 20.246502 Si / 1000 Ang^3
#
#
#
# Elastic Constant Matrix: (Units=GPa)
#
#
# Indices 1 2 3 4 5 6 
#
# 1 23.8205 16.5121 -16.8218 0.0000 7.6056 0.0000
# 2 16.5121 130.2114 13.4426 0.0000 1.6193 0.0000
# 3 -16.8218 13.4426 40.2110 0.0000 9.6246 0.0000
# 4 0.0000 0.0000 0.0000 8.8736 0.0000 -6.8847
# 5 7.6056 1.6193 9.6246 0.0000 30.9340 0.0000
# 6 0.0000 0.0000 0.0000 -6.8847 0.0000 -53.8883
#
#
#
# Elastic Compliance Matrix: (Units=1/GPa)
#
#
# Indices 1 2 3 4 5 6 
#
# 1 0.126184 -0.022886 0.073015 0.000000 -0.052543 0.000000
# 2 -0.022886 0.012111 -0.016010 0.000000 0.009974 0.000000
# 3 0.073015 -0.016010 0.070081 0.000000 -0.038918 0.000000
# 4 0.000000 0.000000 0.000000 0.102531 0.000000 -0.013099
# 5 -0.052543 0.009974 -0.038918 0.000000 0.056832 0.000000
# 6 0.000000 0.000000 0.000000 -0.013099 0.000000 -0.016883
#
#
# Mechanical properties :
#
#
# Convention : Reuss Voigt Hill
#
# Bulk Modulus (GPa) = 3.61516 24.50094 14.05805
# Shear Modulus (GPa) = 13.33969 9.25786 11.29877
#
# Velocity S-wave (km/s) = 2.56962 2.14068 2.36489
# Velocity P-wave (km/s) = 3.25475 4.27055 3.79677
#
# Compressibility (1/GPa) = 0.27661313
#
# Stress axis : x y z
#
# Youngs Moduli (GPa) = 7.92496 82.57144 14.26922
#
# Poissons Ratio (x) = 1.88970 -1.04186
# Poissons Ratio (y) = 0.18137 0.22845
# Poissons Ratio (z) = -0.57864 1.32196
#
# Static dielectric constant tensor:
#      x y z
#    x 1.693400 0.000000 0.005540 
#    y 0.000000 1.743130 0.000000 
#    z 0.005540 0.000000 1.695470 
# 
# From -- ./inp_files/355818.got.cif
#   From: 2010.05.17/outbox.cif.g08.bks.cpg/sg12_178_cif.got.tgz:355818.got - 2010.06.03 13:09:07.
