data_PCOD9193367
_publ_section_title
;
Structure prediction by ZEFSAII (Michael W. Deem and Ramdas Pophale) SiO2 
 PCOD9193367
Probable space group: C 2/M
;
_chemical_formula_sum "Si O2"
_cell_formula_units_Z 52
_cell_length_a 7.262090
_cell_length_b 27.238137
_cell_length_c 12.464134
_cell_angle_alpha 90.000000
_cell_angle_beta 87.120971
_cell_angle_gamma 90.000000
_cell_volume 2462.366119
_symmetry_space_group_name_H-M "C 2/M"
_symmetry_group_IT_number 12
_symmetry_cell_setting 'monoclinic'
loop_
_space_group_symop_operation_xyz
x,y,z
-x,y,-z
-x,-y,-z
x,-y,z
1/2+x,1/2+y,z
1/2-x,1/2+y,-z
1/2-x,1/2-y,-z
1/2+x,1/2-y,z
loop_
_atom_site_type_symbol
_atom_site_label
_atom_site_fract_x
_atom_site_fract_y
_atom_site_fract_z
Si Si1 0.383407 0.944359 0.403121
Si Si2 0.672029 0.302013 0.860209
Si Si3 0.657786 0.500000 0.828070
Si Si4 0.235210 0.500000 0.931434
Si Si5 0.886747 0.104403 0.270699
Si Si6 0.500000 0.414977 0.500000
Si Si7 0.683930 0.097149 0.812550
Si Si8 0.734087 0.803090 0.903958
O O1 0.500000 0.926884 0.500000
O O2 0.169265 0.944444 0.443604
O O3 0.407668 0.911377 0.299141
O O4 0.438012 0.000000 0.375685
O O5 0.710115 0.348468 0.782106
O O6 0.685564 0.244077 0.832545
O O7 0.455014 0.308765 0.889518
O O8 0.791259 0.300475 0.966673
O O9 0.443037 0.500000 0.874401
O O10 0.690989 0.550268 0.759929
O O11 0.759278 0.500000 0.940148
O O12 0.150604 0.550056 0.887772
O O13 0.910937 0.111485 0.398315
O O14 0.096251 0.100575 0.218777
O O15 0.636331 0.148302 0.866215
#
# Coordination Sequence:
#
# PCOD9193367 Si02
#       8
#     8   8   4   4   8   4   8   8
#     4  10  20  34  53  78 106 138 179 217 255 314
#     4   9  17  32  49  75  99 130 170 212 252 308
#     4   9  16  23  42  77 102 128 162 206 249 313
#     4   9  14  24  43  73 107 128 157 202 261 305
#     4   9  18  29  48  73 103 130 170 209 255 307
#     4  10  21  34  56  74 106 142 174 217 264 304
#     4   9  16  29  49  73 101 134 163 209 259 310
#     4   9  17  30  53  72  99 132 168 210 257 305
#
# _framework density 21.117898
#
# number of rings (size 3 to 8) (size 9 to 14) (size 15 to 20)
#    0.000    2.769    0.769    1.154    4.308    3.692 
#    2.769    0.000    1.692    2.769    0.000    1.077 
#    0.000    0.000    0.000    0.000    0.000    0.000 
#
# Total GULP energy -144951.571021 kJ/mol
# GULP energy per Si atom -5575.060424 kJ/mol
# Density = 2.106983 g / cm^3
# Si number density = 21.117898 Si / 1000 Ang^3
#
#
#
# Elastic Constant Matrix: (Units=GPa)
#
#
# Indices 1 2 3 4 5 6 
#
# 1 60.6708 14.1748 8.2457 0.0000 -0.1659 0.0000
# 2 14.1748 191.1699 98.7980 0.0000 22.4039 0.0000
# 3 8.2457 98.7980 125.3911 0.0000 29.7820 0.0000
# 4 0.0000 0.0000 0.0000 152.3359 0.0000 -31.4735
# 5 -0.1659 22.4039 29.7820 0.0000 29.9469 0.0000
# 6 0.0000 0.0000 0.0000 -31.4735 0.0000 30.0545
#
#
#
# Elastic Compliance Matrix: (Units=1/GPa)
#
#
# Indices 1 2 3 4 5 6 
#
# 1 0.016828 -0.001126 -0.000578 0.000000 0.001511 0.000000
# 2 -0.001126 0.008903 -0.007014 0.000000 0.000309 0.000000
# 3 -0.000578 -0.007014 0.016096 0.000000 -0.010763 0.000000
# 4 0.000000 0.000000 0.000000 0.008377 0.000000 0.008772
# 5 0.001511 0.000309 -0.010763 0.000000 0.043874 0.000000
# 6 0.000000 0.000000 0.000000 0.008772 0.000000 0.042460
#
#
# Mechanical properties :
#
#
# Convention : Reuss Voigt Hill
#
# Bulk Modulus (GPa) = 40.99951 68.85210 54.92580
# Shear Modulus (GPa) = 30.84414 59.53500 45.18957
#
# Velocity S-wave (km/s) = 3.82588 5.31535 4.63089
# Velocity P-wave (km/s) = 6.24286 8.38719 7.39318
#
# Compressibility (1/GPa) = 0.02439053
#
# Stress axis : x y z
#
# Youngs Moduli (GPa) = 59.42418 112.31730 62.12624
#
# Poissons Ratio (x) = 0.12647 0.03592
# Poissons Ratio (y) = 0.06691 0.43578
# Poissons Ratio (z) = 0.03436 0.78784
#
# Static dielectric constant tensor:
#      x y z
#    x 1.864760 0.000000 -0.008140 
#    y 0.000000 1.766420 0.000000 
#    z -0.008140 0.000000 1.756350 
# 
# From -- ./inp_files/123797.got.cif
#   From: 2010.05.17/outbox.cif.g08.bks.cpg/sg12_62_cif.got.tgz:123797.got - 2010.06.03 13:09:07.
