data_PCOD9193320
_publ_section_title
;
Structure prediction by ZEFSAII (Michael W. Deem and Ramdas Pophale) SiO2 
 PCOD9193320
Probable space group: C 2/M
;
_chemical_formula_sum "Si O2"
_cell_formula_units_Z 64
_cell_length_a 22.493724
_cell_length_b 7.407131
_cell_length_c 19.749543
_cell_angle_alpha 90.000000
_cell_angle_beta 115.691153
_cell_angle_gamma 90.000000
_cell_volume 2965.258912
_symmetry_space_group_name_H-M "C 2/M"
_symmetry_group_IT_number 12
_symmetry_cell_setting 'monoclinic'
loop_
_space_group_symop_operation_xyz
x,y,z
-x,y,-z
-x,-y,-z
x,-y,z
1/2+x,1/2+y,z
1/2-x,1/2+y,-z
1/2-x,1/2-y,-z
1/2+x,1/2-y,z
loop_
_atom_site_type_symbol
_atom_site_label
_atom_site_fract_x
_atom_site_fract_y
_atom_site_fract_z
Si Si1 0.437425 0.294422 0.155037
Si Si2 0.680720 0.785955 0.999207
Si Si3 0.958714 0.219796 0.546875
Si Si4 0.968724 0.218613 0.912554
Si Si5 0.182706 0.288569 0.151816
Si Si6 0.791802 0.779056 0.310907
Si Si7 0.694030 0.715990 0.529430
Si Si8 0.575351 0.719973 0.700165
O O1 0.459284 0.500000 0.179601
O O2 0.373841 0.297832 0.075890
O O3 0.491667 0.210644 0.132629
O O4 0.421459 0.216683 0.220659
O O5 0.666410 0.000000 0.995223
O O6 0.750000 0.750000 0.000000
O O7 0.684507 0.711526 0.077006
O O8 0.882479 0.280547 0.517172
O O9 0.000000 0.275753 0.500000
O O10 0.006156 0.271799 0.632221
O O11 0.956544 0.000000 0.542895
O O12 0.893202 0.270231 0.866274
O O13 0.973694 0.000000 0.916097
O O14 0.000000 0.280172 0.000000
O O15 0.200034 0.500000 0.153368
O O16 0.233589 0.216663 0.232275
O O17 0.784363 0.720391 0.384968
O O18 0.862065 0.722678 0.313897
O O19 0.791077 0.000000 0.311587
O O20 0.688882 0.500000 0.529705
O O21 0.750000 0.750000 0.500000
O O22 0.578816 0.500000 0.701105
#
# Coordination Sequence:
#
# PCOD9193320 Si02
#       8
#     8   8   8   8   8   8   8   8
#     4  10  20  34  53  77 105 139 177 222 270 319
#     4  11  22  35  53  77 105 138 176 220 267 318
#     4   9  15  28  53  84 107 135 182 233 272 312
#     4  10  20  35  53  74 106 144 176 215 275 327
#     4  10  21  35  54  77 102 141 187 221 261 321
#     4   9  17  32  52  78 109 139 175 227 278 316
#     4  10  20  34  56  84 115 146 180 223 277 332
#     4   9  16  29  53  81 108 135 179 236 276 309
#
# _framework density 21.583276000000001
#
# number of rings (size 3 to 8) (size 9 to 14) (size 15 to 20)
#    0.000    2.250    2.500    1.125    0.000    4.250 
#    0.000    1.875    0.000    1.875    0.000    0.000 
#    0.000    0.000    0.000    0.000    0.000    0.000 
#
# Total GULP energy -178588.266594 kJ/mol
# GULP energy per Si atom -5580.883331 kJ/mol
# Density = 2.153415 g / cm^3
# Si number density = 21.583276 Si / 1000 Ang^3
#
#
#
# Elastic Constant Matrix: (Units=GPa)
#
#
# Indices 1 2 3 4 5 6 
#
# 1 188.7772 -12.2170 117.6486 0.0000 -10.4257 0.0000
# 2 -12.2170 72.6838 3.1394 0.0000 -5.2690 0.0000
# 3 117.6486 3.1394 204.8687 0.0000 -7.1228 0.0000
# 4 0.0000 0.0000 0.0000 -34.2719 0.0000 -24.4965
# 5 -10.4257 -5.2690 -7.1228 0.0000 45.2179 0.0000
# 6 0.0000 0.0000 0.0000 -24.4965 0.0000 -10.1556
#
#
#
# Elastic Compliance Matrix: (Units=1/GPa)
#
#
# Indices 1 2 3 4 5 6 
#
# 1 0.008525 0.001745 -0.004873 0.000000 0.001401 0.000000
# 2 0.001745 0.014238 -0.001155 0.000000 0.001879 0.000000
# 3 -0.004873 -0.001155 0.007696 0.000000 -0.000046 0.000000
# 4 0.000000 0.000000 0.000000 0.040296 0.000000 -0.097199
# 5 0.001401 0.001879 -0.000046 0.000000 0.022650 0.000000
# 6 0.000000 0.000000 0.000000 -0.097199 0.000000 0.135986
#
#
# Mechanical properties :
#
#
# Convention : Reuss Voigt Hill
#
# Bulk Modulus (GPa) = 45.67980 75.94128 60.81054
# Shear Modulus (GPa) = 20.38699 24.00866 22.19782
#
# Velocity S-wave (km/s) = 3.07673 3.33884 3.21046
# Velocity P-wave (km/s) = 5.81653 7.07993 6.47910
#
# Compressibility (1/GPa) = 0.02189151
#
# Stress axis : x y z
#
# Youngs Moduli (GPa) = 117.30490 70.23631 129.93853
#
# Poissons Ratio (x) = -0.12256 0.63326
# Poissons Ratio (y) = -0.20469 0.15007
# Poissons Ratio (z) = 0.57169 0.08112
#
# Static dielectric constant tensor:
#      x y z
#    x 1.928850 0.000000 0.043010 
#    y 0.000000 1.881220 0.000000 
#    z 0.043010 0.000000 1.818780 
# 
# From -- ./inp_files/320011.got.cif
#   From: 2010.05.17/outbox.cif.g08.bks.cpg/sg12_161_cif.got.tgz:320011.got - 2010.06.03 13:09:07.
