data_PCOD9193163
_publ_section_title
;
Structure prediction by ZEFSAII (Michael W. Deem and Ramdas Pophale) SiO2 
 PCOD9193163
Probable space group: C 2/M
;
_chemical_formula_sum "Si O2"
_cell_formula_units_Z 42
_cell_length_a 14.953567
_cell_length_b 7.744124
_cell_length_c 21.840333
_cell_angle_alpha 90.000000
_cell_angle_beta 140.346091
_cell_angle_gamma 90.000000
_cell_volume 1613.980291
_symmetry_space_group_name_H-M "C 2/M"
_symmetry_group_IT_number 12
_symmetry_cell_setting 'monoclinic'
loop_
_space_group_symop_operation_xyz
x,y,z
-x,y,-z
-x,-y,-z
x,-y,z
1/2+x,1/2+y,z
1/2-x,1/2+y,-z
1/2-x,1/2-y,-z
1/2+x,1/2-y,z
loop_
_atom_site_type_symbol
_atom_site_label
_atom_site_fract_x
_atom_site_fract_y
_atom_site_fract_z
Si Si1 0.697619 0.192184 0.073585
Si Si2 0.542941 0.798722 0.860310
Si Si3 0.500000 0.500000 0.000000
Si Si4 0.977220 0.697748 0.649723
Si Si5 0.800891 0.210770 0.437971
Si Si6 0.267105 0.294762 0.286959
O O1 0.860443 0.213609 0.140571
O O2 0.671934 0.000000 0.085828
O O3 0.623099 0.205348 0.967299
O O4 0.622607 0.347538 0.068605
O O5 0.389976 0.722651 0.793588
O O6 0.531247 0.000000 0.836943
O O7 0.995671 0.500000 0.675442
O O8 0.894689 0.715371 0.541440
O O9 0.860435 0.767591 0.634829
O O10 0.131114 0.766403 0.716300
O O11 0.837617 0.260704 0.388325
O O12 0.809143 0.000000 0.447744
O O13 0.252002 0.500000 0.283290
#
# Coordination Sequence:
#
# PCOD9193163 Si02
#       6
#     8   8   2   8   8   8
#     4  10  21  39  64  90 122 157 200 241 300 359
#     4   9  19  39  60  84 117 159 195 243 299 362
#     4  12  22  40  64  98 116 158 198 256 292 358
#     4  10  20  34  52  80 113 146 190 244 290 341
#     4   9  19  36  55  76 107 152 194 234 291 353
#     4  10  20  36  58  82 111 151 193 234 293 353
#
# _framework density 26.022622999999999
#
# number of rings (size 3 to 8) (size 9 to 14) (size 15 to 20)
#    0.000    2.286    0.952    1.429    1.333    4.571 
#    3.429    0.000    0.000    0.000    0.000    0.000 
#    0.000    0.000    0.000    0.000    0.000    0.000 
#
# Total GULP energy -117228.021793 kJ/mol
# GULP energy per Si atom -5582.286752 kJ/mol
# Density = 2.596339 g / cm^3
# Si number density = 26.022623 Si / 1000 Ang^3
#
#
#
# Elastic Constant Matrix: (Units=GPa)
#
#
# Indices 1 2 3 4 5 6 
#
# 1 153.9561 25.1442 34.0714 0.0000 19.4041 0.0000
# 2 25.1442 93.1155 5.4107 0.0000 8.8010 0.0000
# 3 34.0714 5.4107 85.1708 0.0000 22.0738 0.0000
# 4 0.0000 0.0000 0.0000 18.0584 0.0000 19.5448
# 5 19.4041 8.8010 22.0738 0.0000 57.3366 0.0000
# 6 0.0000 0.0000 0.0000 19.5448 0.0000 21.3214
#
#
#
# Elastic Compliance Matrix: (Units=1/GPa)
#
#
# Indices 1 2 3 4 5 6 
#
# 1 0.007511 -0.001758 -0.002560 0.000000 -0.001287 0.000000
# 2 -0.001758 0.011315 0.000311 0.000000 -0.001262 0.000000
# 3 -0.002560 0.000311 0.013922 0.000000 -0.004541 0.000000
# 4 0.000000 0.000000 0.000000 7.037057 0.000000 -6.450712
# 5 -0.001287 -0.001262 -0.004541 0.000000 0.019818 0.000000
# 6 0.000000 0.000000 0.000000 -6.450712 0.000000 5.960124
#
#
# Mechanical properties :
#
#
# Convention : Reuss Voigt Hill
#
# Bulk Modulus (GPa) = 40.42607 51.27722 45.85165
# Shear Modulus (GPa) = 0.38267 37.18435 18.78351
#
# Velocity S-wave (km/s) = 0.38389 3.78421 2.68958
# Velocity P-wave (km/s) = 3.97054 6.23228 5.22525
#
# Compressibility (1/GPa) = 0.02473651
#
# Stress axis : x y z
#
# Youngs Moduli (GPa) = 133.13677 88.37667 71.82738
#
# Poissons Ratio (x) = 0.15536 0.18385
# Poissons Ratio (y) = 0.23404 -0.02237
# Poissons Ratio (z) = 0.34077 -0.02752
#
# Static dielectric constant tensor:
#      x y z
#    x 2.043340 0.000000 0.014630 
#    y 0.000000 2.022530 0.000000 
#    z 0.014630 0.000000 2.132930 
# 
# From -- ./inp_files/221182.got.cif
#   From: 2010.05.17/outbox.cif.g08.bks.cpg/sg12_111_cif.got.tgz:221182.got - 2010.06.03 13:09:07.
