data_PCOD9193762
_publ_section_title
;
Structure prediction by ZEFSAII (Michael W. Deem and Ramdas Pophale) SiO2 
 PCOD9193762
Probable space group: C 2/M
;
_chemical_formula_sum "Si O2"
_cell_formula_units_Z 56
_cell_length_a 19.614206
_cell_length_b 8.771459
_cell_length_c 19.182259
_cell_angle_alpha 90.000000
_cell_angle_beta 74.897701
_cell_angle_gamma 90.000000
_cell_volume 3186.233395
_symmetry_space_group_name_H-M "C 2/M"
_symmetry_group_IT_number 12
_symmetry_cell_setting 'monoclinic'
loop_
_space_group_symop_operation_xyz
x,y,z
-x,y,-z
-x,-y,-z
x,-y,z
1/2+x,1/2+y,z
1/2-x,1/2+y,-z
1/2-x,1/2-y,-z
1/2+x,1/2-y,z
loop_
_atom_site_type_symbol
_atom_site_label
_atom_site_fract_x
_atom_site_fract_y
_atom_site_fract_z
Si Si1 0.615628 0.818338 0.344604
Si Si2 0.436245 0.315255 0.064354
Si Si3 0.083564 0.175601 0.496673
Si Si4 0.259676 0.682014 0.779935
Si Si5 0.777456 0.816761 0.064804
Si Si6 0.610225 0.316395 0.773302
Si Si7 0.952746 0.317998 0.350838
O O1 0.620464 0.762866 0.423339
O O2 0.673197 0.735785 0.282045
O O3 0.535993 0.782699 0.339660
O O4 0.625224 0.000000 0.338578
O O5 0.440298 0.500000 0.063021
O O6 0.359954 0.275450 0.053276
O O7 0.434629 0.269518 0.145962
O O8 0.500000 0.256240 0.000000
O O9 0.088067 0.253779 0.570678
O O10 0.000000 0.177710 0.500000
O O11 0.106526 0.000000 0.493389
O O12 0.255297 0.500000 0.783022
O O13 0.262260 0.747902 0.857687
O O14 0.188498 0.750346 0.764650
O O15 0.771562 0.000000 0.067417
O O16 0.750000 0.750000 0.000000
O O17 0.614287 0.500000 0.770897
O O18 0.576193 0.255261 0.711890
O O19 0.945419 0.500000 0.350454
#
# Coordination Sequence:
#
# PCOD9193762 Si02
#       7
#     8   8   8   8   8   8   8
#     4  10  20  35  55  80 110 141 177 222 269 316
#     4   8  16  32  53  76 101 132 171 213 257 307
#     4   9  17  31  52  78 107 139 177 218 262 314
#     4  11  22  37  56  77 106 144 183 222 268 319
#     4  10  20  35  55  79 107 139 175 218 268 318
#     4  10  20  35  55  78 108 143 177 218 268 320
#     4  10  20  34  54  80 109 141 177 219 267 317
#
# _framework density 17.575610999999999
#
# number of rings (size 3 to 8) (size 9 to 14) (size 15 to 20)
#    0.000    2.286    0.000    4.286    0.000    4.571 
#    0.000    2.143    0.000   14.571    0.000    0.000 
#    0.000    0.000    0.000    0.000    0.000    0.000 
#
# Total GULP energy -156239.501785 kJ/mol
# GULP energy per Si atom -5579.982207 kJ/mol
# Density = 1.753561 g / cm^3
# Si number density = 17.575611 Si / 1000 Ang^3
#
#
#
# Elastic Constant Matrix: (Units=GPa)
#
#
# Indices 1 2 3 4 5 6 
#
# 1 57.5556 46.6150 87.8124 0.0000 13.1581 0.0000
# 2 46.6150 92.1288 72.6267 0.0000 7.4576 0.0000
# 3 87.8124 72.6267 193.1353 0.0000 16.2153 0.0000
# 4 0.0000 0.0000 0.0000 32.8553 0.0000 5.4909
# 5 13.1581 7.4576 16.2153 0.0000 31.3908 0.0000
# 6 0.0000 0.0000 0.0000 5.4909 0.0000 24.8080
#
#
#
# Elastic Compliance Matrix: (Units=1/GPa)
#
#
# Indices 1 2 3 4 5 6 
#
# 1 0.072617 -0.014950 -0.026277 0.000000 -0.013313 0.000000
# 2 -0.014950 0.018520 -0.000338 0.000000 0.002042 0.000000
# 3 -0.026277 -0.000338 0.017061 0.000000 0.002282 0.000000
# 4 0.000000 0.000000 0.000000 0.031606 0.000000 -0.006995
# 5 -0.013313 0.002042 0.002282 0.000000 0.035773 0.000000
# 6 0.000000 0.000000 0.000000 -0.006995 0.000000 0.041858
#
#
# Mechanical properties :
#
#
# Convention : Reuss Voigt Hill
#
# Bulk Modulus (GPa) = 39.89327 84.10311 61.99819
# Shear Modulus (GPa) = 16.18529 26.86188 21.52358
#
# Velocity S-wave (km/s) = 3.03792 3.91367 3.50326
# Velocity P-wave (km/s) = 5.92052 8.26913 7.19135
#
# Compressibility (1/GPa) = 0.02506689
#
# Stress axis : x y z
#
# Youngs Moduli (GPa) = 13.77080 53.99455 58.61427
#
# Poissons Ratio (x) = 0.80724 1.54021
# Poissons Ratio (y) = 0.20588 0.01983
# Poissons Ratio (z) = 0.36186 0.01827
#
# Static dielectric constant tensor:
#      x y z
#    x 1.578340 0.000000 -0.007210 
#    y 0.000000 1.586930 0.000000 
#    z -0.007210 0.000000 1.588010 
# 
# From -- ./inp_files/275068.got.cif
#   From: 2010.05.17/outbox.cif.g08.bks.cpg/sg12_138_cif.got.tgz:275068.got - 2010.06.03 13:09:07.
