data_PCOD9193196
_publ_section_title
;
Structure prediction by ZEFSAII (Michael W. Deem and Ramdas Pophale) SiO2 
 PCOD9193196
Probable space group: C 2/M
;
_chemical_formula_sum "Si O2"
_cell_formula_units_Z 48
_cell_length_a 15.700250
_cell_length_b 7.539075
_cell_length_c 19.989069
_cell_angle_alpha 90.000000
_cell_angle_beta 79.129435
_cell_angle_gamma 90.000000
_cell_volume 2323.557007
_symmetry_space_group_name_H-M "C 2/M"
_symmetry_group_IT_number 12
_symmetry_cell_setting 'monoclinic'
loop_
_space_group_symop_operation_xyz
x,y,z
-x,y,-z
-x,-y,-z
x,-y,z
1/2+x,1/2+y,z
1/2-x,1/2+y,-z
1/2-x,1/2-y,-z
1/2+x,1/2-y,z
loop_
_atom_site_type_symbol
_atom_site_label
_atom_site_fract_x
_atom_site_fract_y
_atom_site_fract_z
Si Si1 0.582246 0.287556 0.672042
Si Si2 0.456910 0.282223 0.172747
Si Si3 0.675074 0.286735 0.921277
Si Si4 0.242263 0.712896 0.422319
Si Si5 0.050134 0.286881 0.426389
Si Si6 0.868971 0.788649 0.924392
O O1 0.590943 0.500000 0.675853
O O2 0.560335 0.221277 0.749341
O O3 0.673023 0.217767 0.628638
O O4 0.505985 0.252955 0.630523
O O5 0.457557 0.500000 0.173670
O O6 0.381797 0.225470 0.132562
O O7 0.548950 0.222081 0.129045
O O8 0.668187 0.500000 0.923896
O O9 0.776627 0.243212 0.903261
O O10 0.639546 0.219087 0.998233
O O11 0.242328 0.500000 0.414329
O O12 0.250000 0.750000 0.500000
O O13 0.148970 0.779786 0.410888
O O14 0.054627 0.500000 0.431877
O O15 0.000000 0.220174 0.500000
O O16 0.880587 0.000000 0.928545
#
# Coordination Sequence:
#
# PCOD9193196 Si02
#       6
#     8   8   8   8   8   8
#     4  10  21  35  52  76 101 131 171 210 247 296
#     4   9  18  33  51  72 103 137 169 204 248 301
#     4   9  17  31  53  77 100 133 173 208 245 293
#     4  10  20  34  53  74  97 126 162 204 249 296
#     4  10  20  35  54  75 101 130 161 204 257 305
#     4   9  17  31  52  76 102 133 170 209 248 292
#
# _framework density 20.657983000000002
#
# number of rings (size 3 to 8) (size 9 to 14) (size 15 to 20)
#    0.000    2.500    1.667    0.500    0.000    4.333 
#    0.000    4.167    0.000    4.000    0.000    0.000 
#    0.000    0.000    0.000    0.000    0.000    0.000 
#
# Total GULP energy -134007.243206 kJ/mol
# GULP energy per Si atom -5583.635134 kJ/mol
# Density = 2.061096 g / cm^3
# Si number density = 20.657983 Si / 1000 Ang^3
#
#
#
# Elastic Constant Matrix: (Units=GPa)
#
#
# Indices 1 2 3 4 5 6 
#
# 1 284.4367 17.6151 226.8795 0.0000 -47.8486 0.0000
# 2 17.6151 54.2840 21.7147 0.0000 -16.1255 0.0000
# 3 226.8795 21.7147 274.5105 0.0000 -50.1416 0.0000
# 4 0.0000 0.0000 0.0000 7.7222 0.0000 3.5453
# 5 -47.8486 -16.1255 -50.1416 0.0000 61.0276 0.0000
# 6 0.0000 0.0000 0.0000 3.5453 0.0000 20.9264
#
#
#
# Elastic Compliance Matrix: (Units=1/GPa)
#
#
# Indices 1 2 3 4 5 6 
#
# 1 0.010410 0.000384 -0.008383 0.000000 0.001376 0.000000
# 2 0.000384 0.020128 -0.001039 0.000000 0.004766 0.000000
# 3 -0.008383 -0.001039 0.011063 0.000000 0.002243 0.000000
# 4 0.000000 0.000000 0.000000 0.140418 0.000000 -0.023790
# 5 0.001376 0.004766 0.002243 0.000000 0.020567 0.000000
# 6 0.000000 0.000000 0.000000 -0.023790 0.000000 0.051817
#
#
# Mechanical properties :
#
#
# Convention : Reuss Voigt Hill
#
# Bulk Modulus (GPa) = 42.50677 127.29440 84.90059
# Shear Modulus (GPa) = 17.83677 41.07005 29.45341
#
# Velocity S-wave (km/s) = 2.94161 4.46364 3.78003
# Velocity P-wave (km/s) = 5.67085 9.39783 7.76137
#
# Compressibility (1/GPa) = 0.02352567
#
# Stress axis : x y z
#
# Youngs Moduli (GPa) = 96.06460 49.68091 90.39390
#
# Poissons Ratio (x) = -0.01908 0.75773
# Poissons Ratio (y) = -0.03689 0.09392
# Poissons Ratio (z) = 0.80526 0.05162
#
# Static dielectric constant tensor:
#      x y z
#    x 1.492000 0.000000 -0.059600 
#    y 0.000000 1.797450 0.000000 
#    z -0.059600 0.000000 1.700590 
# 
# From -- ./inp_files/212653.got.cif
#   From: 2010.05.17/outbox.cif.g08.bks.cpg/sg12_107_cif.got.tgz:212653.got - 2010.06.03 13:09:07.
