data_PCOD9193357
_publ_section_title
;
Structure prediction by ZEFSAII (Michael W. Deem and Ramdas Pophale) SiO2 
 PCOD9193357
Probable space group: C 2/M
;
_chemical_formula_sum "Si O2"
_cell_formula_units_Z 42
_cell_length_a 18.330120
_cell_length_b 8.072463
_cell_length_c 14.495464
_cell_angle_alpha 90.000000
_cell_angle_beta 133.025419
_cell_angle_gamma 90.000000
_cell_volume 1568.018588
_symmetry_space_group_name_H-M "C 2/M"
_symmetry_group_IT_number 12
_symmetry_cell_setting 'monoclinic'
loop_
_space_group_symop_operation_xyz
x,y,z
-x,y,-z
-x,-y,-z
x,-y,z
1/2+x,1/2+y,z
1/2-x,1/2+y,-z
1/2-x,1/2-y,-z
1/2+x,1/2-y,z
loop_
_atom_site_type_symbol
_atom_site_label
_atom_site_fract_x
_atom_site_fract_y
_atom_site_fract_z
Si Si1 0.792479 0.686479 0.794980
Si Si2 0.139721 0.311376 0.810613
Si Si3 0.000000 0.000000 0.500000
Si Si4 0.348683 0.307096 0.661589
Si Si5 0.415898 0.185722 0.533197
Si Si6 0.939747 0.194956 0.071088
O O1 0.796760 0.500000 0.766500
O O2 0.706625 0.714292 0.795941
O O3 0.777781 0.792726 0.689942
O O4 0.891410 0.727945 0.939054
O O5 0.176260 0.500000 0.848418
O O6 0.132891 0.230926 0.905247
O O7 0.027491 0.313395 0.674842
O O8 0.073457 0.149008 0.519576
O O9 0.360543 0.500000 0.646659
O O10 0.345070 0.207179 0.562778
O O11 0.452559 0.247415 0.800291
O O12 0.404272 0.000000 0.481873
O O13 0.947332 0.000000 0.061363
#
# Coordination Sequence:
#
# PCOD9193357 Si02
#       6
#     8   8   2   8   8   8
#     4  12  23  32  51  81 117 165 199 236 284 340
#     4  10  21  37  56  81 116 153 195 243 283 339
#     4  12  22  40  72  94 114 144 184 246 296 362
#     4  10  20  37  57  82 117 156 196 244 290 338
#     4  10  22  40  65  95 116 146 189 239 295 354
#     4  10  20  34  53  77 115 156 206 244 277 328
#
# _framework density 26.785395999999999
#
# number of rings (size 3 to 8) (size 9 to 14) (size 15 to 20)
#    0.000    1.524    0.952    4.857    2.667    4.571 
#    0.000    0.000    0.000    1.143    0.000    0.000 
#    0.000    0.000    0.000    0.000    0.000    0.000 
#
# Total GULP energy -117446.350714 kJ/mol
# GULP energy per Si atom -5592.683367 kJ/mol
# Density = 2.672443 g / cm^3
# Si number density = 26.785396 Si / 1000 Ang^3
#
#
#
# Elastic Constant Matrix: (Units=GPa)
#
#
# Indices 1 2 3 4 5 6 
#
# 1 120.0294 23.8171 3.2725 0.0000 -41.1754 0.0000
# 2 23.8171 147.7936 39.3146 0.0000 -11.9653 0.0000
# 3 3.2725 39.3146 128.7674 0.0000 -36.8132 0.0000
# 4 0.0000 0.0000 0.0000 34.3423 0.0000 -6.7385
# 5 -41.1754 -11.9653 -36.8132 0.0000 41.9360 0.0000
# 6 0.0000 0.0000 0.0000 -6.7385 0.0000 40.7427
#
#
#
# Elastic Compliance Matrix: (Units=1/GPa)
#
#
# Indices 1 2 3 4 5 6 
#
# 1 0.015416 -0.002485 0.005996 0.000000 0.019691 0.000000
# 2 -0.002485 0.007766 -0.003167 0.000000 -0.003004 0.000000
# 3 0.005996 -0.003167 0.013358 0.000000 0.016710 0.000000
# 4 0.000000 0.000000 0.000000 0.030095 0.000000 0.004977
# 5 0.019691 -0.003004 0.016710 0.000000 0.056991 0.000000
# 6 0.000000 0.000000 0.000000 0.004977 0.000000 0.025367
#
#
# Mechanical properties :
#
#
# Convention : Reuss Voigt Hill
#
# Bulk Modulus (GPa) = 26.86123 58.82209 42.84166
# Shear Modulus (GPa) = 31.11114 45.41662 38.26388
#
# Velocity S-wave (km/s) = 3.41177 4.12220 3.78370
# Velocity P-wave (km/s) = 5.05671 6.68318 5.92601
#
# Compressibility (1/GPa) = 0.03722838
#
# Stress axis : x y z
#
# Youngs Moduli (GPa) = 64.86820 128.76874 74.86343
#
# Poissons Ratio (x) = 0.32002 -0.44892
# Poissons Ratio (y) = 0.16121 0.23708
# Poissons Ratio (z) = -0.38898 0.40778
#
# Static dielectric constant tensor:
#      x y z
#    x 4.216960 0.000000 -0.206950 
#    y 0.000000 1.955110 0.000000 
#    z -0.206950 0.000000 2.155580 
# 
# From -- ./inp_files/220684.got.cif
#   From: 2010.05.17/outbox.cif.g08.bks.cpg/sg12_111_cif.got.tgz:220684.got - 2010.06.03 13:09:07.
