data_PCOD9193100
_publ_section_title
;
Structure prediction by ZEFSAII (Michael W. Deem and Ramdas Pophale) SiO2 
 PCOD9193100
Probable space group: C 2/M
;
_chemical_formula_sum "Si O2"
_cell_formula_units_Z 64
_cell_length_a 28.367046
_cell_length_b 9.105350
_cell_length_c 18.605357
_cell_angle_alpha 90.000000
_cell_angle_beta 45.070066
_cell_angle_gamma 90.000000
_cell_volume 3402.234226
_symmetry_space_group_name_H-M "C 2/M"
_symmetry_group_IT_number 12
_symmetry_cell_setting 'monoclinic'
loop_
_space_group_symop_operation_xyz
x,y,z
-x,y,-z
-x,-y,-z
x,-y,z
1/2+x,1/2+y,z
1/2-x,1/2+y,-z
1/2-x,1/2-y,-z
1/2+x,1/2-y,z
loop_
_atom_site_type_symbol
_atom_site_label
_atom_site_fract_x
_atom_site_fract_y
_atom_site_fract_z
Si Si1 0.431082 0.677106 0.534101
Si Si2 0.575187 0.175035 0.771677
Si Si3 0.047717 0.173111 0.654873
Si Si4 0.222429 0.333594 0.097583
Si Si5 0.921548 0.672498 0.979123
Si Si6 0.583988 0.834438 0.176446
Si Si7 0.156859 0.175541 0.807742
Si Si8 0.793858 0.322430 0.728211
O O1 0.500000 0.721748 0.500000
O O2 0.426513 0.500000 0.545891
O O3 0.432897 0.713650 0.447195
O O4 0.364884 0.750961 0.636553
O O5 0.580520 0.239408 0.685551
O O6 0.500084 0.206618 0.882559
O O7 0.626840 0.249303 0.769779
O O8 0.582842 0.000000 0.762710
O O9 0.970095 0.214943 0.745468
O O10 0.058204 0.000000 0.653381
O O11 0.248470 0.500000 0.068154
O O12 0.143332 0.336585 0.168574
O O13 0.232807 0.270803 0.165237
O O14 0.250000 0.250000 0.000000
O O15 0.916323 0.500000 0.004329
O O16 0.891222 0.692303 0.931756
O O17 0.885800 0.767016 0.078099
O O18 0.553422 0.000000 0.207345
O O19 0.234678 0.211908 0.736529
O O20 0.150674 0.000000 0.810150
O O21 0.801263 0.500000 0.723766
#
# Coordination Sequence:
#
# PCOD9193100 Si02
#       8
#     8   8   8   8   8   8   8   8
#     4  10  22  40  62  88 114 141 178 224 274 330
#     4  10  21  37  57  81 110 146 188 228 271 328
#     4  10  20  35  57  84 110 135 173 226 276 323
#     4  10  20  34  52  77 110 148 187 223 264 318
#     4   9  18  32  51  78 110 145 186 227 269 325
#     4   9  18  32  51  77 109 144 182 222 267 326
#     4  11  22  35  52  78 112 147 187 233 277 322
#     4  10  23  39  55  81 114 147 187 231 273 326
#
# _framework density 18.811167999999999
#
# number of rings (size 3 to 8) (size 9 to 14) (size 15 to 20)
#    0.000    2.125    0.000    3.750    0.000    7.250 
#    0.000    0.625    0.000    0.000    0.000    0.000 
#    0.000    0.000    0.000    0.000    0.000    0.000 
#
# Total GULP energy -178570.780798 kJ/mol
# GULP energy per Si atom -5580.336900 kJ/mol
# Density = 1.876835 g / cm^3
# Si number density = 18.811168 Si / 1000 Ang^3
#
#
#
# Elastic Constant Matrix: (Units=GPa)
#
#
# Indices 1 2 3 4 5 6 
#
# 1 120.7249 37.7475 41.5014 -0.0047 2.5444 0.0062
# 2 37.7475 45.5916 42.3496 -0.0091 3.3584 0.0174
# 3 41.5014 42.3496 96.6527 -0.0041 7.6241 0.0074
# 4 -0.0047 -0.0091 -0.0041 29.3407 0.0019 -0.8954
# 5 2.5444 3.3584 7.6241 0.0019 21.8337 -0.0042
# 6 0.0062 0.0174 0.0074 -0.8954 -0.0042 26.3170
#
#
#
# Elastic Compliance Matrix: (Units=1/GPa)
#
#
# Indices 1 2 3 4 5 6 
#
# 1 0.011271 -0.008156 -0.001297 -0.000001 0.000394 0.000003
# 2 -0.008156 0.042890 -0.015266 0.000009 -0.000316 -0.000022
# 3 -0.001297 -0.015266 0.017888 -0.000002 -0.003747 0.000005
# 4 -0.000001 0.000009 -0.000002 0.034118 -0.000003 0.001161
# 5 0.000394 -0.000316 -0.003747 -0.000003 0.047112 0.000009
# 6 0.000003 -0.000022 0.000005 0.001161 0.000009 0.038038
#
#
# Mechanical properties :
#
#
# Convention : Reuss Voigt Hill
#
# Bulk Modulus (GPa) = 44.22598 56.24070 50.23334
# Shear Modulus (GPa) = 20.13762 24.92299 22.53030
#
# Velocity S-wave (km/s) = 3.27542 3.64387 3.46455
# Velocity P-wave (km/s) = 6.15354 6.90407 6.53958
#
# Compressibility (1/GPa) = 0.02261114
#
# Stress axis : x y z
#
# Youngs Moduli (GPa) = 88.72282 23.31528 55.90413
#
# Poissons Ratio (x) = 0.19016 0.07251
# Poissons Ratio (y) = 0.72363 0.85343
# Poissons Ratio (z) = 0.11508 0.35593
#
# Static dielectric constant tensor:
#      x y z
#    x 1.671810 0.000000 0.002350 
#    y 0.000000 1.643830 0.000000 
#    z 0.002350 0.000000 1.639420 
# 
# From -- ./inp_files/295486.got.cif
#   From: 2010.05.17/outbox.cif.g08.bks.cpg/sg12_148_cif.got.tgz:295486.got - 2010.06.03 13:09:07.
