data_PCOD9193989
_publ_section_title
;
Structure prediction by ZEFSAII (Michael W. Deem and Ramdas Pophale) SiO2 
 PCOD9193989
Probable space group: C 2/M
;
_chemical_formula_sum "Si O2"
_cell_formula_units_Z 64
_cell_length_a 31.789168
_cell_length_b 17.773632
_cell_length_c 9.571895
_cell_angle_alpha 90.000000
_cell_angle_beta 140.249570
_cell_angle_gamma 90.000000
_cell_volume 3458.249417
_symmetry_space_group_name_H-M "C 2/M"
_symmetry_group_IT_number 12
_symmetry_cell_setting 'monoclinic'
loop_
_space_group_symop_operation_xyz
x,y,z
-x,y,-z
-x,-y,-z
x,-y,z
1/2+x,1/2+y,z
1/2-x,1/2+y,-z
1/2-x,1/2-y,-z
1/2+x,1/2-y,z
loop_
_atom_site_type_symbol
_atom_site_label
_atom_site_fract_x
_atom_site_fract_y
_atom_site_fract_z
Si Si1 0.714822 0.323315 0.719357
Si Si2 0.565774 0.246095 0.985848
Si Si3 0.255475 0.585958 0.460545
Si Si4 0.693226 0.688744 0.162369
Si Si5 0.421231 0.752963 0.643403
Si Si6 0.602788 0.081415 0.081532
Si Si7 0.385052 0.081526 0.550796
Si Si8 0.739030 0.586608 0.053656
O O1 0.705837 0.384965 0.575016
O O2 0.762240 0.257986 0.779373
O O3 0.644196 0.287920 0.575371
O O4 0.745341 0.364499 0.930305
O O5 0.624178 0.284149 0.048836
O O6 0.580711 0.250249 0.191048
O O7 0.566381 0.157402 0.949580
O O8 0.492241 0.277227 0.778235
O O9 0.271371 0.500000 0.542251
O O10 0.268827 0.645004 0.617217
O O11 0.178299 0.587602 0.225769
O O12 0.688078 0.629179 0.023902
O O13 0.417214 0.840471 0.588645
O O14 0.607228 0.080082 0.261805
O O15 0.576017 0.000000 0.968286
O O16 0.308665 0.086422 0.312861
O O17 0.409791 0.000000 0.561897
O O18 0.721791 0.500000 0.980292
#
# Coordination Sequence:
#
# PCOD9193989 Si02
#       8
#     8   8   8   8   8   8   8   8
#     4  12  22  36  59  86 116 147 190 239 286 330
#     4  10  20  34  54  85 116 152 186 233 282 337
#     4  11  20  33  57  86 115 144 183 238 288 329
#     4  12  20  36  61  85 111 149 195 237 278 334
#     4  10  20  34  55  83 119 149 186 234 287 333
#     4   9  16  29  51  84 117 146 180 222 278 341
#     4   9  17  31  53  80 113 150 184 220 275 345
#     4  11  23  38  58  86 117 148 188 238 293 339
#
# _framework density 18.506473
#
# number of rings (size 3 to 8) (size 9 to 14) (size 15 to 20)
#    0.000    1.500    5.000    2.250    0.000    0.500 
#    0.000    3.125    0.000    4.500    0.000    1.750 
#    0.000    0.000    0.000    0.000    0.000    0.000 
#
# Total GULP energy -178498.696713 kJ/mol
# GULP energy per Si atom -5578.084272 kJ/mol
# Density = 1.846435 g / cm^3
# Si number density = 18.506473 Si / 1000 Ang^3
#
#
#
# Elastic Constant Matrix: (Units=GPa)
#
#
# Indices 1 2 3 4 5 6 
#
# 1 80.5665 47.7452 35.4569 0.0000 15.4272 0.0000
# 2 47.7452 89.7034 22.8277 0.0000 11.0195 0.0000
# 3 35.4569 22.8277 21.8509 0.0000 14.2990 0.0000
# 4 0.0000 0.0000 0.0000 16.5067 0.0000 0.4366
# 5 15.4272 11.0195 14.2990 0.0000 29.8733 0.0000
# 6 0.0000 0.0000 0.0000 0.4366 0.0000 13.8751
#
#
#
# Elastic Compliance Matrix: (Units=1/GPa)
#
#
# Indices 1 2 3 4 5 6 
#
# 1 0.053249 -0.007539 -0.090794 0.000000 0.018741 0.000000
# 2 -0.007539 0.016427 -0.005111 0.000000 0.000280 0.000000
# 3 -0.090794 -0.005111 0.242463 0.000000 -0.067283 0.000000
# 4 0.000000 0.000000 0.000000 0.060632 0.000000 -0.001908
# 5 0.018741 0.000280 -0.067283 0.000000 0.055898 0.000000
# 6 0.000000 0.000000 0.000000 -0.001908 0.000000 0.072132
#
#
# Mechanical properties :
#
#
# Convention : Reuss Voigt Hill
#
# Bulk Modulus (GPa) = 9.50113 44.90892 27.20502
# Shear Modulus (GPa) = 6.73152 17.79041 12.26096
#
# Velocity S-wave (km/s) = 1.90926 3.10386 2.57674
# Velocity P-wave (km/s) = 3.16314 6.09627 4.85644
#
# Compressibility (1/GPa) = 0.10525064
#
# Stress axis : x y z
#
# Youngs Moduli (GPa) = 18.77953 60.87590 4.12434
#
# Poissons Ratio (x) = 0.45896 0.37447
# Poissons Ratio (y) = 0.14158 0.02108
# Poissons Ratio (z) = 1.70507 0.31113
#
# Static dielectric constant tensor:
#      x y z
#    x 1.650040 0.000000 -0.000300 
#    y 0.000000 1.672880 0.000000 
#    z -0.000300 0.000000 1.651130 
# 
# From -- ./inp_files/112878.got.cif
#   From: 2010.05.17/outbox.cif.g08.bks.cpg/sg12_57_cif.got.tgz:112878.got - 2010.06.03 13:09:07.
