data_PCOD9193328
_publ_section_title
;
Structure prediction by ZEFSAII (Michael W. Deem and Ramdas Pophale) SiO2 
 PCOD9193328
Probable space group: C 2/M
;
_chemical_formula_sum "Si O2"
_cell_formula_units_Z 64
_cell_length_a 16.290765
_cell_length_b 9.219548
_cell_length_c 18.883632
_cell_angle_alpha 90.000000
_cell_angle_beta 88.786879
_cell_angle_gamma 90.000000
_cell_volume 2835.562890
_symmetry_space_group_name_H-M "C 2/M"
_symmetry_group_IT_number 12
_symmetry_cell_setting 'monoclinic'
loop_
_space_group_symop_operation_xyz
x,y,z
-x,y,-z
-x,-y,-z
x,-y,z
1/2+x,1/2+y,z
1/2-x,1/2+y,-z
1/2-x,1/2-y,-z
1/2+x,1/2-y,z
loop_
_atom_site_type_symbol
_atom_site_label
_atom_site_fract_x
_atom_site_fract_y
_atom_site_fract_z
Si Si1 0.717420 0.671904 0.606329
Si Si2 0.542048 0.331459 0.849864
Si Si3 0.122574 0.832941 0.985903
Si Si4 0.368805 0.668471 0.772313
Si Si5 0.373118 0.328461 0.532465
Si Si6 0.545478 0.832137 0.354690
Si Si7 0.291499 0.833709 0.893349
Si Si8 0.626842 0.832681 0.725787
O O1 0.733357 0.500000 0.609859
O O2 0.644004 0.693420 0.550284
O O3 0.793742 0.757731 0.572007
O O4 0.691596 0.737465 0.681620
O O5 0.567955 0.500000 0.842386
O O6 0.550233 0.295294 0.932472
O O7 0.451465 0.321871 0.819046
O O8 0.600385 0.232222 0.801275
O O9 0.203381 0.829057 0.933370
O O10 0.112753 0.000000 0.011520
O O11 0.144952 0.728533 0.049612
O O12 0.354106 0.500000 0.756171
O O13 0.391989 0.757508 0.701987
O O14 0.299197 0.737264 0.823003
O O15 0.376979 0.500000 0.545103
O O16 0.447427 0.251525 0.571443
O O17 0.456774 0.825271 0.319605
O O18 0.566566 0.000000 0.364722
O O19 0.310794 0.000000 0.875150
O O20 0.652042 0.000000 0.730251
#
# Coordination Sequence:
#
# PCOD9193328 Si02
#       8
#     8   8   8   8   8   8   8   8
#     4  10  21  37  57  80 109 143 178 220 268 318
#     4   9  19  36  56  76 101 137 179 220 262 310
#     4   9  19  36  55  75 101 135 175 215 257 310
#     4  10  20  35  55  77 104 138 176 218 261 312
#     4  10  21  37  57  81 108 140 180 223 266 316
#     4  10  21  37  56  79 109 143 178 220 269 318
#     4  10  20  34  53  77 106 137 170 214 265 316
#     4  10  21  36  55  80 110 142 178 221 267 319
#
# _framework density 22.570473
#
# number of rings (size 3 to 8) (size 9 to 14) (size 15 to 20)
#    0.000    2.250    0.000    2.250    0.000    6.500 
#    0.000    8.750    0.000    0.000    0.000    0.000 
#    0.000    0.000    0.000    0.000    0.000    0.000 
#
# Total GULP energy -179029.636783 kJ/mol
# GULP energy per Si atom -5594.676149 kJ/mol
# Density = 2.251910 g / cm^3
# Si number density = 22.570473 Si / 1000 Ang^3
#
#
#
# Elastic Constant Matrix: (Units=GPa)
#
#
# Indices 1 2 3 4 5 6 
#
# 1 55.3186 12.1440 11.0127 0.0000 9.2527 0.0000
# 2 12.1440 114.5174 51.7560 0.0000 -5.7170 0.0000
# 3 11.0127 51.7560 99.1431 0.0000 2.3872 0.0000
# 4 0.0000 0.0000 0.0000 35.1817 0.0000 1.3071
# 5 9.2527 -5.7170 2.3872 0.0000 44.5106 0.0000
# 6 0.0000 0.0000 0.0000 1.3071 0.0000 22.0084
#
#
#
# Elastic Compliance Matrix: (Units=1/GPa)
#
#
# Indices 1 2 3 4 5 6 
#
# 1 0.019390 -0.001751 -0.001139 0.000000 -0.004194 0.000000
# 2 -0.001751 0.011731 -0.005982 0.000000 0.002192 0.000000
# 3 -0.001139 -0.005982 0.013366 0.000000 -0.001248 0.000000
# 4 0.000000 0.000000 0.000000 0.028487 0.000000 -0.001692
# 5 -0.004194 0.002192 -0.001248 0.000000 0.023687 0.000000
# 6 0.000000 0.000000 0.000000 -0.001692 0.000000 0.045538
#
#
# Mechanical properties :
#
#
# Convention : Reuss Voigt Hill
#
# Bulk Modulus (GPa) = 37.39322 46.53384 41.96353
# Shear Modulus (GPa) = 29.61098 33.27790 31.44444
#
# Velocity S-wave (km/s) = 3.62599 3.84396 3.73656
# Velocity P-wave (km/s) = 5.84241 6.35321 6.10315
#
# Compressibility (1/GPa) = 0.02674282
#
# Stress axis : x y z
#
# Youngs Moduli (GPa) = 51.57361 85.24378 74.81713
#
# Poissons Ratio (x) = 0.14926 0.08520
# Poissons Ratio (y) = 0.09030 0.44758
# Poissons Ratio (z) = 0.05873 0.50995
#
# Static dielectric constant tensor:
#      x y z
#    x 1.930970 0.000000 0.041860 
#    y 0.000000 1.753620 0.000000 
#    z 0.041860 0.000000 1.808530 
# 
# From -- ./inp_files/313991.got.cif
#   From: 2010.05.17/outbox.cif.g08.bks.cpg/sg12_157_cif.got.tgz:313991.got - 2010.06.03 13:09:07.
