data_PCOD9193013
_publ_section_title
;
Structure prediction by ZEFSAII (Michael W. Deem and Ramdas Pophale) SiO2 
 PCOD9193013
Probable space group: C 2/M
;
_chemical_formula_sum "Si O2"
_cell_formula_units_Z 64
_cell_length_a 8.909080
_cell_length_b 19.749891
_cell_length_c 22.689485
_cell_angle_alpha 90.000000
_cell_angle_beta 113.119637
_cell_angle_gamma 90.000000
_cell_volume 3671.658133
_symmetry_space_group_name_H-M "C 2/M"
_symmetry_group_IT_number 12
_symmetry_cell_setting 'monoclinic'
loop_
_space_group_symop_operation_xyz
x,y,z
-x,y,-z
-x,-y,-z
x,-y,z
1/2+x,1/2+y,z
1/2-x,1/2+y,-z
1/2-x,1/2-y,-z
1/2+x,1/2-y,z
loop_
_atom_site_type_symbol
_atom_site_label
_atom_site_fract_x
_atom_site_fract_y
_atom_site_fract_z
Si Si1 0.440640 0.823432 0.260688
Si Si2 0.327035 0.082268 0.500000
Si Si3 0.067922 0.822958 0.887403
Si Si4 0.455139 0.419618 0.633876
Si Si5 0.080737 0.823432 0.260688
Si Si6 0.183127 0.077446 1.000000
Si Si7 0.206882 0.677041 0.887403
Si Si8 0.187389 0.580382 0.366125
O O1 0.266020 0.820479 0.266020
O O2 0.525036 0.750000 0.275035
O O3 0.405226 0.839310 0.186426
O O4 0.554694 0.878110 0.309259
O O5 0.500000 0.104333 0.500000
O O6 0.179363 0.103074 0.434812
O O7 0.309738 0.103074 0.565187
O O8 0.325175 0.000000 0.500000
O O9 0.032374 0.839309 0.813574
O O10 0.891321 0.817202 0.891321
O O11 0.166801 0.880250 0.937321
O O12 0.153491 0.750000 0.903493
O O13 0.431282 0.500000 0.640822
O O14 0.436176 0.378110 0.690741
O O15 0.634525 0.410163 0.634525
O O16 0.235435 0.000000 0.999999
O O17 0.292159 0.119749 0.062679
O O18 0.000000 0.075846 0.000000
O O19 0.149638 0.500000 0.359178
#
# Coordination Sequence:
#
# PCOD9193013 Si02
#       8
#     8   8   8   8   8   8   8   8
#     4  10  20  34  52  75 103 135 173 215 259 307
#     4   9  17  31  52  77 104 135 172 211 251 301
#     4   9  18  32  52  74  97 131 170 208 250 301
#     4  10  20  34  53  77 105 137 172 211 256 305
#     4  10  20  34  52  75 103 135 173 215 259 307
#     4   9  17  30  49  75 104 131 164 208 254 297
#     4   9  18  32  52  74  97 131 170 208 250 301
#     4  10  20  34  53  77 105 137 172 211 256 305
#
# _framework density 17.430817000000001
#
# number of rings (size 3 to 8) (size 9 to 14) (size 15 to 20)
#    0.000    2.500    0.000    2.250    0.000    5.000 
#    0.000    3.125    0.000    1.500    0.000    0.000 
#    0.000    0.000    0.000    0.000    0.000    0.000 
#
# Total GULP energy -178515.902829 kJ/mol
# GULP energy per Si atom -5578.621963 kJ/mol
# Density = 1.739114 g / cm^3
# Si number density = 17.430817 Si / 1000 Ang^3
#
#
#
# Elastic Constant Matrix: (Units=GPa)
#
#
# Indices 1 2 3 4 5 6 
#
# 1 57.0343 53.7266 59.1281 0.0000 -1.6000 0.0000
# 2 53.7266 111.4889 106.9913 0.0000 -2.0372 0.0000
# 3 59.1281 106.9913 146.1583 0.0000 -1.8087 0.0000
# 4 0.0000 0.0000 0.0000 39.7373 0.0000 -0.4483
# 5 -1.6000 -2.0372 -1.8087 0.0000 19.8753 0.0000
# 6 0.0000 0.0000 0.0000 -0.4483 0.0000 28.0195
#
#
#
# Elastic Compliance Matrix: (Units=1/GPa)
#
#
# Indices 1 2 3 4 5 6 
#
# 1 0.033551 -0.010540 -0.005844 0.000000 0.001089 0.000000
# 2 -0.010540 0.033484 -0.020237 0.000000 0.000742 0.000000
# 3 -0.005844 -0.020237 0.024016 0.000000 -0.000359 0.000000
# 4 0.000000 0.000000 0.000000 0.025170 0.000000 0.000403
# 5 0.001089 0.000742 -0.000359 0.000000 0.050445 0.000000
# 6 0.000000 0.000000 0.000000 0.000403 0.000000 0.035696
#
#
# Mechanical properties :
#
#
# Convention : Reuss Voigt Hill
#
# Bulk Modulus (GPa) = 56.15662 83.81927 69.98795
# Shear Modulus (GPa) = 17.75944 23.84879 20.80411
#
# Velocity S-wave (km/s) = 3.19541 3.70293 3.45849
# Velocity P-wave (km/s) = 6.77503 8.15313 7.49581
#
# Compressibility (1/GPa) = 0.01780734
#
# Stress axis : x y z
#
# Youngs Moduli (GPa) = 29.80500 29.86541 41.63918
#
# Poissons Ratio (x) = 0.31480 0.24333
# Poissons Ratio (y) = 0.31416 0.84267
# Poissons Ratio (z) = 0.17417 0.60440
#
# Static dielectric constant tensor:
#      x y z
#    x 1.580340 0.000000 -0.000270 
#    y 0.000000 1.565650 0.000000 
#    z -0.000270 0.000000 1.587480 
# 
# From -- ./inp_files/301728.got.cif
#   From: 2010.05.17/outbox.cif.g08.bks.cpg/sg12_151_cif.got.tgz:301728.got - 2010.06.03 13:09:07.
