data_PCOD9193807
_publ_section_title
;
Structure prediction by ZEFSAII (Michael W. Deem and Ramdas Pophale) SiO2 
 PCOD9193807
Probable space group: C 2/M
;
_chemical_formula_sum "Si O2"
_cell_formula_units_Z 50
_cell_length_a 13.583229
_cell_length_b 25.978957
_cell_length_c 12.759370
_cell_angle_alpha 90.000000
_cell_angle_beta 38.550834
_cell_angle_gamma 90.000000
_cell_volume 2805.998915
_symmetry_space_group_name_H-M "C 2/M"
_symmetry_group_IT_number 12
_symmetry_cell_setting 'monoclinic'
loop_
_space_group_symop_operation_xyz
x,y,z
-x,y,-z
-x,-y,-z
x,-y,z
1/2+x,1/2+y,z
1/2-x,1/2+y,-z
1/2-x,1/2-y,-z
1/2+x,1/2-y,z
loop_
_atom_site_type_symbol
_atom_site_label
_atom_site_fract_x
_atom_site_fract_y
_atom_site_fract_z
Si Si1 0.543309 0.130362 0.849178
Si Si2 0.586541 0.351164 0.696654
Si Si3 0.174691 0.317567 0.333023
Si Si4 0.840474 0.200300 0.577247
Si Si5 0.267668 0.443496 0.546741
Si Si6 0.760697 0.688935 0.967181
Si Si7 0.500000 0.500000 0.500000
O O1 0.687643 0.170189 0.743653
O O2 0.613170 0.086718 0.714399
O O3 0.399709 0.161430 0.916488
O O4 0.500000 0.109601 0.000000
O O5 0.687904 0.345066 0.717212
O O6 0.644067 0.310707 0.559259
O O7 0.630234 0.406574 0.612554
O O8 0.404479 0.338475 0.867979
O O9 0.173225 0.259577 0.380243
O O10 0.204867 0.316296 0.184716
O O11 0.000000 0.339668 0.500000
O O12 0.000000 0.180508 0.500000
O O13 0.231987 0.500000 0.529994
O O14 0.378597 0.456116 0.553797
O O15 0.750000 0.750000 0.000000
#
# Coordination Sequence:
#
# PCOD9193807 Si02
#       7
#     8   8   8   8   8   8   2
#     4  11  22  34  57  88 121 153 196 241 299 357
#     4  11  22  37  61  80 115 158 198 240 297 357
#     4  11  21  37  56  81 117 156 201 238 286 348
#     4  10  20  34  54  80 115 157 197 236 287 349
#     4   9  22  39  62  85 114 148 202 246 310 348
#     4  12  24  37  56  89 127 160 195 239 290 356
#     4   8  20  40  66  84 116 148 198 256 316 354
#
# _framework density 17.818966
#
# number of rings (size 3 to 8) (size 9 to 14) (size 15 to 20)
#    0.480    0.960    0.000    7.680    6.720    0.320 
#    0.000    0.800    0.000    6.240    0.000    0.000 
#    0.000    0.000    0.000    0.000    0.000    0.000 
#
# Total GULP energy -139245.224557 kJ/mol
# GULP energy per Si atom -5569.808982 kJ/mol
# Density = 1.777841 g / cm^3
# Si number density = 17.818966 Si / 1000 Ang^3
#
#
#
# Elastic Constant Matrix: (Units=GPa)
#
#
# Indices 1 2 3 4 5 6 
#
# 1 93.8577 44.0135 56.1980 0.0000 -5.4203 0.0000
# 2 44.0135 108.3088 50.7757 0.0000 -15.2959 0.0000
# 3 56.1980 50.7757 124.5821 0.0000 -11.6368 0.0000
# 4 0.0000 0.0000 0.0000 9.1776 0.0000 -8.3538
# 5 -5.4203 -15.2959 -11.6368 0.0000 38.9179 0.0000
# 6 0.0000 0.0000 0.0000 -8.3538 0.0000 20.5162
#
#
#
# Elastic Compliance Matrix: (Units=1/GPa)
#
#
# Indices 1 2 3 4 5 6 
#
# 1 0.015806 -0.003932 -0.005623 0.000000 -0.001025 0.000000
# 2 -0.003932 0.012788 -0.003107 0.000000 0.003550 0.000000
# 3 -0.005623 -0.003107 0.011977 0.000000 0.001577 0.000000
# 4 0.000000 0.000000 0.000000 0.173130 0.000000 0.070495
# 5 -0.001025 0.003550 0.001577 0.000000 0.027419 0.000000
# 6 0.000000 0.000000 0.000000 0.070495 0.000000 0.077447
#
#
# Mechanical properties :
#
#
# Convention : Reuss Voigt Hill
#
# Bulk Modulus (GPa) = 65.58463 69.85811 67.72137
# Shear Modulus (GPa) = 14.32775 25.43976 19.88375
#
# Velocity S-wave (km/s) = 2.83869 3.78256 3.34410
# Velocity P-wave (km/s) = 6.90147 7.63980 7.28000
#
# Compressibility (1/GPa) = 0.01524747
#
# Stress axis : x y z
#
# Youngs Moduli (GPa) = 63.26758 78.19542 83.49275
#
# Poissons Ratio (x) = 0.30743 0.46950
# Poissons Ratio (y) = 0.24874 0.25942
# Poissons Ratio (z) = 0.35577 0.24296
#
# Static dielectric constant tensor:
#      x y z
#    x 1.613060 0.000000 0.005960 
#    y 0.000000 1.611570 0.000000 
#    z 0.005960 0.000000 1.619300 
# 
# From -- ./inp_files/137542.got.cif
#   From: 2010.05.17/outbox.cif.g08.bks.cpg/sg12_69_cif.got.tgz:137542.got - 2010.06.03 13:09:07.
