data_PCOD9193470
_publ_section_title
;
Structure prediction by ZEFSAII (Michael W. Deem and Ramdas Pophale) SiO2 
 PCOD9193470
Probable space group: C 2/M
;
_chemical_formula_sum "Si O2"
_cell_formula_units_Z 56
_cell_length_a 20.080384
_cell_length_b 9.585452
_cell_length_c 15.497646
_cell_angle_alpha 90.000000
_cell_angle_beta 71.418716
_cell_angle_gamma 90.000000
_cell_volume 2827.484892
_symmetry_space_group_name_H-M "C 2/M"
_symmetry_group_IT_number 12
_symmetry_cell_setting 'monoclinic'
loop_
_space_group_symop_operation_xyz
x,y,z
-x,y,-z
-x,-y,-z
x,-y,z
1/2+x,1/2+y,z
1/2-x,1/2+y,-z
1/2-x,1/2-y,-z
1/2+x,1/2-y,z
loop_
_atom_site_type_symbol
_atom_site_label
_atom_site_fract_x
_atom_site_fract_y
_atom_site_fract_z
Si Si1 0.260040 0.657182 0.623346
Si Si2 0.246273 0.834921 0.088716
Si Si3 0.403062 0.668198 0.786880
Si Si4 0.012948 0.834276 0.596972
Si Si5 0.853720 0.664936 0.190156
Si Si6 0.508252 0.667577 0.895329
Si Si7 0.854893 0.657081 0.480003
O O1 0.285595 0.500000 0.634083
O O2 0.207950 0.707008 0.718961
O O3 0.209008 0.647441 0.561471
O O4 0.323797 0.757270 0.573378
O O5 0.177907 0.787863 0.171984
O O6 0.317912 0.818152 0.111967
O O7 0.237219 0.000000 0.075144
O O8 0.250000 0.750000 0.000000
O O9 0.402177 0.500000 0.782228
O O10 0.449196 0.712464 0.685286
O O11 0.443595 0.705289 0.859094
O O12 0.082115 0.744494 0.587578
O O13 0.000000 0.815993 0.500000
O O14 0.025432 0.000000 0.606586
O O15 0.867885 0.500000 0.199610
O O16 0.923092 0.755200 0.168383
O O17 0.516909 0.500000 0.887181
O O18 0.500000 0.704607 0.000000
O O19 0.877059 0.500000 0.492747
#
# Coordination Sequence:
#
# PCOD9193470 Si02
#       7
#     8   8   8   8   8   8   8
#     4   9  19  35  55  79 107 142 182 222 272 332
#     4  10  21  38  59  82 112 145 184 230 278 331
#     4   9  19  36  57  82 110 145 189 231 273 330
#     4  10  21  35  56  79 104 147 194 228 267 325
#     4  10  21  35  57  84 109 141 182 231 278 325
#     4  10  20  35  57  82 110 145 182 227 283 340
#     4  10  20  34  53  79 112 143 176 226 279 321
#
# _framework density 19.805586999999999
#
# number of rings (size 3 to 8) (size 9 to 14) (size 15 to 20)
#    0.000    2.286    0.000    2.143    2.000    3.429 
#    0.000    1.429    0.000    0.000    0.000    0.000 
#    0.000    0.000    0.000    0.000    0.000    0.000 
#
# Total GULP energy -156258.411760 kJ/mol
# GULP energy per Si atom -5580.657563 kJ/mol
# Density = 1.976051 g / cm^3
# Si number density = 19.805587 Si / 1000 Ang^3
#
#
#
# Elastic Constant Matrix: (Units=GPa)
#
#
# Indices 1 2 3 4 5 6 
#
# 1 59.7668 18.4279 -3.7575 0.0000 -11.3643 0.0000
# 2 18.4279 29.5465 8.1416 0.0000 -6.5587 0.0000
# 3 -3.7575 8.1416 58.9331 0.0000 -7.1849 0.0000
# 4 0.0000 0.0000 0.0000 22.5818 0.0000 -9.3908
# 5 -11.3643 -6.5587 -7.1849 0.0000 23.3363 0.0000
# 6 0.0000 0.0000 0.0000 -9.3908 0.0000 14.7613
#
#
#
# Elastic Compliance Matrix: (Units=1/GPa)
#
#
# Indices 1 2 3 4 5 6 
#
# 1 0.022822 -0.013517 0.004379 0.000000 0.008663 0.000000
# 2 -0.013517 0.044985 -0.006585 0.000000 0.004033 0.000000
# 3 0.004379 -0.006585 0.018901 0.000000 0.006101 0.000000
# 4 0.000000 0.000000 0.000000 0.060214 0.000000 0.038307
# 5 0.008663 0.004033 0.006101 0.000000 0.050082 0.000000
# 6 0.000000 0.000000 0.000000 0.038307 0.000000 0.092115
#
#
# Mechanical properties :
#
#
# Convention : Reuss Voigt Hill
#
# Bulk Modulus (GPa) = 18.09587 21.54115 19.81851
# Shear Modulus (GPa) = 14.74984 20.49818 17.62401
#
# Velocity S-wave (km/s) = 2.73194 3.22058 2.98627
# Velocity P-wave (km/s) = 4.37126 4.97287 4.68174
#
# Compressibility (1/GPa) = 0.05526123
#
# Stress axis : x y z
#
# Youngs Moduli (GPa) = 43.81744 22.22947 52.90703
#
# Poissons Ratio (x) = 0.30048 -0.23166
# Poissons Ratio (y) = 0.59230 0.34838
# Poissons Ratio (z) = -0.19186 0.14638
#
# Static dielectric constant tensor:
#      x y z
#    x 1.702450 0.000000 0.020280 
#    y 0.000000 1.672050 0.000000 
#    z 0.020280 0.000000 1.732030 
# 
# From -- ./inp_files/238280.got.cif
#   From: 2010.05.17/outbox.cif.g08.bks.cpg/sg12_120_cif.got.tgz:238280.got - 2010.06.03 13:09:07.
