data_PCOD9193397
_publ_section_title
;
Structure prediction by ZEFSAII (Michael W. Deem and Ramdas Pophale) SiO2 
 PCOD9193397
Probable space group: C 2/M
;
_chemical_formula_sum "Si O2"
_cell_formula_units_Z 58
_cell_length_a 19.479452
_cell_length_b 7.464359
_cell_length_c 19.447827
_cell_angle_alpha 90.000000
_cell_angle_beta 49.805303
_cell_angle_gamma 90.000000
_cell_volume 2159.989785
_symmetry_space_group_name_H-M "C 2/M"
_symmetry_group_IT_number 12
_symmetry_cell_setting 'monoclinic'
loop_
_space_group_symop_operation_xyz
x,y,z
-x,y,-z
-x,-y,-z
x,-y,z
1/2+x,1/2+y,z
1/2-x,1/2+y,-z
1/2-x,1/2-y,-z
1/2+x,1/2-y,z
loop_
_atom_site_type_symbol
_atom_site_label
_atom_site_fract_x
_atom_site_fract_y
_atom_site_fract_z
Si Si1 0.526856 0.216572 0.093251
Si Si2 0.500000 0.500000 0.000000
Si Si3 0.723744 0.214613 0.911045
Si Si4 0.173024 0.296816 0.650297
Si Si5 0.243945 0.720923 0.740854
Si Si6 0.865274 0.709199 0.472772
Si Si7 0.078671 0.704370 0.207156
Si Si8 0.939892 0.200624 0.625861
O O1 0.521258 0.259217 0.178085
O O2 0.512733 0.000000 0.093316
O O3 0.476461 0.341227 0.072515
O O4 0.630650 0.263059 0.006250
O O5 0.720905 0.272725 0.833219
O O6 0.815993 0.290253 0.881678
O O7 0.731419 0.000000 0.908478
O O8 0.140019 0.500000 0.679096
O O9 0.178324 0.216937 0.722922
O O10 0.127534 0.220903 0.610933
O O11 0.279509 0.301263 0.561630
O O12 0.243940 0.500000 0.739584
O O13 0.346527 0.785850 0.661683
O O14 0.841919 0.500000 0.482994
O O15 0.960630 0.724191 0.448641
O O16 0.055477 0.500000 0.239385
O O17 0.071753 0.804919 0.283418
O O18 0.939861 0.000000 0.599348
#
# Coordination Sequence:
#
# PCOD9193397 Si02
#       8
#     8   2   8   8   8   8   8   8
#     4  10  23  41  60  87 119 160 201 243 292 347
#     4  12  26  40  64  78 128 160 202 242 296 354
#     4   9  18  35  60  86 115 145 190 244 292 347
#     4   9  18  35  56  75 102 142 187 226 273 339
#     4   8  16  33  56  81 105 140 185 233 280 333
#     4  10  20  34  53  78 108 142 183 229 280 338
#     4  10  20  35  59  87 116 146 190 242 291 344
#     4  10  20  35  56  81 111 143 184 234 284 339
#
# _framework density 26.851979
#
# number of rings (size 3 to 8) (size 9 to 14) (size 15 to 20)
#    0.000    2.483    0.000    2.690    2.897    1.103 
#    2.483    6.207    0.000    0.000    0.000    0.000 
#    0.000    0.000    0.000    0.000    0.000    0.000 
#
# Total GULP energy -162035.367752 kJ/mol
# GULP energy per Si atom -5587.426474 kJ/mol
# Density = 2.679086 g / cm^3
# Si number density = 26.851979 Si / 1000 Ang^3
#
#
#
# Elastic Constant Matrix: (Units=GPa)
#
#
# Indices 1 2 3 4 5 6 
#
# 1 158.2310 6.5084 21.3252 0.0000 0.2541 0.0002
# 2 6.5084 92.6385 4.7242 0.0003 3.3665 0.0018
# 3 21.3252 4.7242 91.8418 -0.0001 8.8150 -0.0002
# 4 0.0000 0.0003 -0.0001 6.9772 0.0000 5.9133
# 5 0.2541 3.3665 8.8150 0.0000 62.4880 0.0000
# 6 0.0002 0.0018 -0.0002 5.9133 0.0000 11.9318
#
#
#
# Elastic Compliance Matrix: (Units=1/GPa)
#
#
# Indices 1 2 3 4 5 6 
#
# 1 0.006540 -0.000390 -0.001519 0.000000 0.000209 0.000000
# 2 -0.000390 0.010862 -0.000418 0.000002 -0.000525 -0.000002
# 3 -0.001519 -0.000418 0.011414 0.000000 -0.001581 0.000000
# 4 0.000000 0.000002 0.000000 0.247117 0.000000 -0.122468
# 5 0.000209 -0.000525 -0.001581 0.000000 0.016254 0.000000
# 6 0.000000 -0.000002 0.000000 -0.122468 0.000000 0.144503
#
#
# Mechanical properties :
#
#
# Convention : Reuss Voigt Hill
#
# Bulk Modulus (GPa) = 41.38296 45.31411 43.34853
# Shear Modulus (GPa) = 11.12599 36.95631 24.04115
#
# Velocity S-wave (km/s) = 2.03776 3.71387 2.99544
# Velocity P-wave (km/s) = 4.58056 5.94160 5.30491
#
# Compressibility (1/GPa) = 0.02416454
#
# Stress axis : x y z
#
# Youngs Moduli (GPa) = 152.89987 92.06065 87.61028
#
# Poissons Ratio (x) = 0.03587 0.13304
# Poissons Ratio (y) = 0.05957 0.03661
# Poissons Ratio (z) = 0.23219 0.03847
#
# Static dielectric constant tensor:
#      x y z
#    x 2.110790 0.000000 -0.032010 
#    y 0.000000 2.034750 0.000000 
#    z -0.032010 0.000000 2.162130 
# 
# From -- ./inp_files/314748.got.cif
#   From: 2010.05.17/outbox.cif.g08.bks.cpg/sg12_158_cif.got.tgz:314748.got - 2010.06.03 13:09:07.
