data_PCOD9193884
_publ_section_title
;
Structure prediction by ZEFSAII (Michael W. Deem and Ramdas Pophale) SiO2 
 PCOD9193884
Probable space group: C 2/M
;
_chemical_formula_sum "Si O2"
_cell_formula_units_Z 56
_cell_length_a 15.213218
_cell_length_b 8.879702
_cell_length_c 25.037509
_cell_angle_alpha 90.000000
_cell_angle_beta 117.181625
_cell_angle_gamma 90.000000
_cell_volume 3008.758086
_symmetry_space_group_name_H-M "C 2/M"
_symmetry_group_IT_number 12
_symmetry_cell_setting 'monoclinic'
loop_
_space_group_symop_operation_xyz
x,y,z
-x,y,-z
-x,-y,-z
x,-y,z
1/2+x,1/2+y,z
1/2-x,1/2+y,-z
1/2-x,1/2-y,-z
1/2+x,1/2-y,z
loop_
_atom_site_type_symbol
_atom_site_label
_atom_site_fract_x
_atom_site_fract_y
_atom_site_fract_z
Si Si1 0.890767 0.181658 0.214574
Si Si2 0.491067 0.181098 0.654744
Si Si3 0.770179 0.680243 0.563718
Si Si4 0.415321 0.819364 0.433060
Si Si5 0.532374 0.682392 0.880706
Si Si6 0.885121 0.172868 0.987672
Si Si7 0.170549 0.679541 0.133798
O O1 0.775752 0.226546 0.187314
O O2 0.956565 0.247121 0.279987
O O3 0.931041 0.228226 0.167469
O O4 0.894330 0.000000 0.217233
O O5 0.377256 0.227477 0.615320
O O6 0.547146 0.220093 0.615391
O O7 0.493247 0.000000 0.660565
O O8 0.770231 0.500000 0.558665
O O9 0.750000 0.750000 0.500000
O O10 0.683876 0.735411 0.578391
O O11 0.500000 0.782860 0.500000
O O12 0.399935 0.000000 0.431474
O O13 0.528178 0.500000 0.882158
O O14 0.606795 0.729086 0.949260
O O15 0.423888 0.745230 0.864313
O O16 0.849366 0.000000 0.976213
O O17 0.830273 0.272468 0.928762
O O18 0.000000 0.170431 0.000000
O O19 0.160997 0.500000 0.134714
#
# Coordination Sequence:
#
# PCOD9193884 Si02
#       7
#     8   8   8   8   8   8   8
#     4  10  23  40  56  78 112 151 190 231 276 333
#     4  10  23  41  59  82 116 151 187 231 278 333
#     4  11  22  38  61  90 118 147 184 229 280 333
#     4  10  20  39  62  86 118 150 181 226 281 333
#     4   9  19  37  57  77 108 150 190 227 276 338
#     4   8  15  30  53  79 107 143 185 228 277 336
#     4  10  20  34  54  82 113 142 181 237 287 326
#
# _framework density 18.61233
#
# number of rings (size 3 to 8) (size 9 to 14) (size 15 to 20)
#    0.000    2.286    1.429    1.714    0.000    8.000 
#    0.000    5.714    0.000    0.000    0.000    0.000 
#    0.000    0.000    0.000    0.000    0.000    0.000 
#
# Total GULP energy -156314.238355 kJ/mol
# GULP energy per Si atom -5582.651370 kJ/mol
# Density = 1.856997 g / cm^3
# Si number density = 18.612330 Si / 1000 Ang^3
#
#
#
# Elastic Constant Matrix: (Units=GPa)
#
#
# Indices 1 2 3 4 5 6 
#
# 1 75.4303 15.9685 18.6763 0.0000 9.4317 0.0000
# 2 15.9685 13.8298 10.9056 0.0000 5.2347 0.0000
# 3 18.6763 10.9056 83.4161 0.0000 8.5337 0.0000
# 4 0.0000 0.0000 0.0000 35.5576 0.0000 -0.1933
# 5 9.4317 5.2347 8.5337 0.0000 31.9811 0.0000
# 6 0.0000 0.0000 0.0000 -0.1933 0.0000 25.8089
#
#
#
# Elastic Compliance Matrix: (Units=1/GPa)
#
#
# Indices 1 2 3 4 5 6 
#
# 1 0.017797 -0.018806 -0.001341 0.000000 -0.001813 0.000000
# 2 -0.018806 0.104200 -0.008466 0.000000 -0.009250 0.000000
# 3 -0.001341 -0.008466 0.013584 0.000000 -0.001844 0.000000
# 4 0.000000 0.000000 0.000000 0.028125 0.000000 0.000211
# 5 -0.001813 -0.009250 -0.001844 0.000000 0.033809 0.000000
# 6 0.000000 0.000000 0.000000 0.000211 0.000000 0.038748
#
#
# Mechanical properties :
#
#
# Convention : Reuss Voigt Hill
#
# Bulk Modulus (GPa) = 12.76241 29.30858 21.03549
# Shear Modulus (GPa) = 15.64429 27.14457 21.39443
#
# Velocity S-wave (km/s) = 2.90234 3.82307 3.39407
# Velocity P-wave (km/s) = 4.25480 5.93876 5.16586
#
# Compressibility (1/GPa) = 0.07835511
#
# Stress axis : x y z
#
# Youngs Moduli (GPa) = 56.18900 9.59697 73.61802
#
# Poissons Ratio (x) = 0.18048 0.09869
# Poissons Ratio (y) = 1.05670 0.62324
# Poissons Ratio (z) = 0.07532 0.08125
#
# Static dielectric constant tensor:
#      x y z
#    x 1.640770 0.000000 -0.006070 
#    y 0.000000 1.625640 0.000000 
#    z -0.006070 0.000000 1.629140 
# 
# From -- ./inp_files/339096.got.cif
#   From: 2010.05.17/outbox.cif.g08.bks.cpg/sg12_170_cif.got.tgz:339096.got - 2010.06.03 13:09:07.
