data_PCOD9193090
_publ_section_title
;
Structure prediction by ZEFSAII (Michael W. Deem and Ramdas Pophale) SiO2 
 PCOD9193090
Probable space group: C 2/M
;
_chemical_formula_sum "Si O2"
_cell_formula_units_Z 48
_cell_length_a 14.390330
_cell_length_b 22.981551
_cell_length_c 13.277482
_cell_angle_alpha 90.000000
_cell_angle_beta 146.182924
_cell_angle_gamma 90.000000
_cell_volume 2443.794768
_symmetry_space_group_name_H-M "C 2/M"
_symmetry_group_IT_number 12
_symmetry_cell_setting 'monoclinic'
loop_
_space_group_symop_operation_xyz
x,y,z
-x,y,-z
-x,-y,-z
x,-y,z
1/2+x,1/2+y,z
1/2-x,1/2+y,-z
1/2-x,1/2-y,-z
1/2+x,1/2-y,z
loop_
_atom_site_type_symbol
_atom_site_label
_atom_site_fract_x
_atom_site_fract_y
_atom_site_fract_z
Si Si1 0.253191 0.568850 0.569759
Si Si2 0.579041 0.833909 0.173716
Si Si3 0.442320 0.154027 0.250810
Si Si4 0.338595 0.568668 0.422567
Si Si5 0.876029 0.249575 0.468894
Si Si6 0.684965 0.645490 0.188445
O O1 0.223097 0.500000 0.549323
O O2 0.084360 0.605908 0.401570
O O3 0.358701 0.579779 0.561762
O O4 0.324089 0.593004 0.739084
O O5 0.432357 0.843260 0.122060
O O6 0.680354 0.893340 0.245740
O O7 0.723752 0.793384 0.354096
O O8 0.500000 0.810560 0.000000
O O9 0.509781 0.218015 0.346027
O O10 0.283633 0.135617 0.173374
O O11 0.500000 0.581811 0.500000
O O12 0.304141 0.500000 0.381230
O O13 0.790107 0.304128 0.336570
O O14 0.000000 0.220313 0.500000
O O15 0.500000 0.665598 0.000000
#
# Coordination Sequence:
#
# PCOD9193090 Si02
#       6
#     8   8   8   8   8   8
#     4   9  18  34  56  77 100 138 180 211 250 312
#     4  11  21  33  53  81 107 133 174 217 258 306
#     4   9  20  36  53  74 105 142 172 211 260 309
#     4   9  19  36  55  76 105 141 176 209 251 306
#     4   9  18  36  56  74 101 139 176 206 251 314
#     4  10  20  34  52  77 108 133 166 220 271 301
#
# _framework density 19.641584000000002
#
# number of rings (size 3 to 8) (size 9 to 14) (size 15 to 20)
#    0.000    2.500    0.000    3.000    0.000    3.333 
#    0.000    9.167    0.000    0.000    0.000    0.000 
#    0.000    0.000    0.000    0.000    0.000    0.000 
#
# Total GULP energy -133669.750200 kJ/mol
# GULP energy per Si atom -5569.572925 kJ/mol
# Density = 1.959688 g / cm^3
# Si number density = 19.641584 Si / 1000 Ang^3
#
#
#
# Elastic Constant Matrix: (Units=GPa)
#
#
# Indices 1 2 3 4 5 6 
#
# 1 162.6944 26.7876 32.6184 0.0000 19.3256 0.0000
# 2 26.7876 74.3266 -3.9271 0.0000 1.1986 0.0000
# 3 32.6184 -3.9271 34.1016 0.0000 1.2482 0.0000
# 4 0.0000 0.0000 0.0000 -2.3515 0.0000 6.5242
# 5 19.3256 1.1986 1.2482 0.0000 24.3122 0.0000
# 6 0.0000 0.0000 0.0000 6.5242 0.0000 16.9011
#
#
#
# Elastic Compliance Matrix: (Units=1/GPa)
#
#
# Indices 1 2 3 4 5 6 
#
# 1 0.009423 -0.003772 -0.009198 0.000000 -0.006832 0.000000
# 2 -0.003772 0.015060 0.005269 0.000000 0.001985 0.000000
# 3 -0.009198 0.005269 0.038543 0.000000 0.005073 0.000000
# 4 0.000000 0.000000 0.000000 -0.205341 0.000000 0.079266
# 5 -0.006832 0.001985 0.005073 0.000000 0.046204 0.000000
# 6 0.000000 0.000000 0.000000 0.079266 0.000000 0.028569
#
#
# Mechanical properties :
#
#
# Convention : Reuss Voigt Hill
#
# Bulk Modulus (GPa) = 20.99698 42.45339 31.72519
# Shear Modulus (GPa) = -137.86757 22.14863 -57.85947
#
# Velocity S-wave (km/s) = -8.38714 3.36168 -5.43338
# Velocity P-wave (km/s) = 9.11476 6.06043 4.81404
#
# Compressibility (1/GPa) = 0.04762589
#
# Stress axis : x y z
#
# Youngs Moduli (GPa) = 106.12215 66.40131 25.94516
#
# Poissons Ratio (x) = 0.25046 0.23863
# Poissons Ratio (y) = 0.40028 -0.13672
# Poissons Ratio (z) = 0.97606 -0.34990
#
# Static dielectric constant tensor:
#      x y z
#    x 1.744370 0.000000 -0.035930 
#    y 0.000000 1.693640 0.000000 
#    z -0.035930 0.000000 1.699870 
# 
# From -- ./inp_files/77268.got.cif
#   From: 2010.05.17/outbox.cif.g08.bks.cpg/sg12_39_cif.got.tgz:77268.got - 2010.06.03 13:09:07.
