data_PCOD9193295
_publ_section_title
;
Structure prediction by ZEFSAII (Michael W. Deem and Ramdas Pophale) SiO2 
 PCOD9193295
Probable space group: C 2/M
;
_chemical_formula_sum "Si O2"
_cell_formula_units_Z 48
_cell_length_a 8.473981
_cell_length_b 11.846773
_cell_length_c 27.331269
_cell_angle_alpha 90.000000
_cell_angle_beta 112.318006
_cell_angle_gamma 90.000000
_cell_volume 2538.233282
_symmetry_space_group_name_H-M "C 2/M"
_symmetry_group_IT_number 12
_symmetry_cell_setting 'monoclinic'
loop_
_space_group_symop_operation_xyz
x,y,z
-x,y,-z
-x,-y,-z
x,-y,z
1/2+x,1/2+y,z
1/2-x,1/2+y,-z
1/2-x,1/2-y,-z
1/2+x,1/2-y,z
loop_
_atom_site_type_symbol
_atom_site_label
_atom_site_fract_x
_atom_site_fract_y
_atom_site_fract_z
Si Si1 0.685849 0.203216 0.791735
Si Si2 0.077092 0.308091 0.460871
Si Si3 0.440753 0.623748 0.144707
Si Si4 0.791343 0.873308 0.397514
Si Si5 0.187141 0.372754 0.274395
Si Si6 0.344488 0.629060 0.019797
O O1 0.652774 0.280067 0.835523
O O2 0.718682 0.285280 0.749630
O O3 0.513624 0.135523 0.761114
O O4 0.858263 0.134389 0.820516
O O5 0.250000 0.250000 0.500000
O O6 0.139532 0.370416 0.419542
O O7 0.000000 0.368460 0.500000
O O8 0.937596 0.214951 0.429037
O O9 0.379007 0.500000 0.153186
O O10 0.408355 0.634467 0.083253
O O11 0.720698 0.847401 0.335268
O O12 0.864152 0.000000 0.405883
O O13 0.247581 0.500000 0.272030
O O14 0.262539 0.500000 0.004911
O O15 0.500000 0.628509 0.000000
O O16 0.250000 0.750000 0.000000
#
# Coordination Sequence:
#
# PCOD9193295 Si02
#       6
#     8   8   8   8   8   8
#     4  10  20  34  54  77 105 136 171 214 259 305
#     4   9  19  34  52  75 101 130 169 209 248 301
#     4  10  20  35  54  77 106 139 176 217 263 314
#     4  10  20  35  54  75 103 136 167 207 257 303
#     4  10  20  34  53  77 103 134 171 208 253 308
#     4  10  21  37  56  80 110 144 183 226 274 326
#
# _framework density 18.910789999999999
#
# number of rings (size 3 to 8) (size 9 to 14) (size 15 to 20)
#    0.000    2.167    0.000    3.000    0.000    3.667 
#    0.000    6.667    0.000   14.000    0.000    0.000 
#    0.000    0.000    0.000    0.000    0.000    0.000 
#
# Total GULP energy -133719.954155 kJ/mol
# GULP energy per Si atom -5571.664756 kJ/mol
# Density = 1.886775 g / cm^3
# Si number density = 18.910790 Si / 1000 Ang^3
#
#
#
# Elastic Constant Matrix: (Units=GPa)
#
#
# Indices 1 2 3 4 5 6 
#
# 1 45.7031 19.6398 9.5471 0.0000 -13.2342 0.0000
# 2 19.6398 109.0456 42.5382 0.0000 -0.6225 0.0000
# 3 9.5471 42.5382 100.7141 0.0000 -21.3745 0.0000
# 4 0.0000 0.0000 0.0000 21.5816 0.0000 -5.1999
# 5 -13.2342 -0.6225 -21.3745 0.0000 30.2596 0.0000
# 6 0.0000 0.0000 0.0000 -5.1999 0.0000 14.2944
#
#
#
# Elastic Compliance Matrix: (Units=1/GPa)
#
#
# Indices 1 2 3 4 5 6 
#
# 1 0.028003 -0.006109 0.002939 0.000000 0.014197 0.000000
# 2 -0.006109 0.012654 -0.006208 0.000000 -0.006796 0.000000
# 3 0.002939 -0.006208 0.014726 0.000000 0.011559 0.000000
# 4 0.000000 0.000000 0.000000 0.050787 0.000000 0.018475
# 5 0.014197 -0.006796 0.011559 0.000000 0.047282 0.000000
# 6 0.000000 0.000000 0.000000 0.018475 0.000000 0.076678
#
#
# Mechanical properties :
#
#
# Convention : Reuss Voigt Hill
#
# Bulk Modulus (GPa) = 27.30283 44.32366 35.81324
# Shear Modulus (GPa) = 19.15027 25.47631 22.31329
#
# Velocity S-wave (km/s) = 3.18569 3.67438 3.43873
# Velocity P-wave (km/s) = 5.29155 6.44132 5.89454
#
# Compressibility (1/GPa) = 0.03662624
#
# Stress axis : x y z
#
# Youngs Moduli (GPa) = 35.71097 79.02942 67.90849
#
# Poissons Ratio (x) = 0.48277 -0.19956
# Poissons Ratio (y) = 0.21815 0.42156
# Poissons Ratio (z) = -0.10494 0.49059
#
# Static dielectric constant tensor:
#      x y z
#    x 1.632560 0.000000 -0.014570 
#    y 0.000000 1.673540 0.000000 
#    z -0.014570 0.000000 1.633030 
# 
# From -- ./inp_files/331979.got.cif
#   From: 2010.05.17/outbox.cif.g08.bks.cpg/sg12_166_cif.got.tgz:331979.got - 2010.06.03 13:09:07.
