data_PCOD9193589
_publ_section_title
;
Structure prediction by ZEFSAII (Michael W. Deem and Ramdas Pophale) SiO2 
 PCOD9193589
Probable space group: C 2/M
;
_chemical_formula_sum "Si O2"
_cell_formula_units_Z 52
_cell_length_a 9.053886
_cell_length_b 10.719326
_cell_length_c 29.086878
_cell_angle_alpha 90.000000
_cell_angle_beta 108.029262
_cell_angle_gamma 90.000000
_cell_volume 2684.317022
_symmetry_space_group_name_H-M "C 2/M"
_symmetry_group_IT_number 12
_symmetry_cell_setting 'monoclinic'
loop_
_space_group_symop_operation_xyz
x,y,z
-x,y,-z
-x,-y,-z
x,-y,z
1/2+x,1/2+y,z
1/2-x,1/2+y,-z
1/2-x,1/2-y,-z
1/2+x,1/2-y,z
loop_
_atom_site_type_symbol
_atom_site_label
_atom_site_fract_x
_atom_site_fract_y
_atom_site_fract_z
Si Si1 0.162850 0.359507 0.179070
Si Si2 0.161786 0.360522 0.435943
Si Si3 0.637267 0.361445 0.976303
Si Si4 0.152274 0.353758 0.328226
Si Si5 0.500000 0.704540 0.500000
Si Si6 0.934013 0.858756 0.136960
Si Si7 0.580493 0.641482 0.716035
O O1 0.094856 0.500000 0.175415
O O2 0.262164 0.349310 0.141778
O O3 0.290600 0.349061 0.231595
O O4 0.039460 0.249240 0.168382
O O5 0.098989 0.500000 0.431683
O O6 0.342498 0.361997 0.468497
O O7 0.155188 0.319890 0.382317
O O8 0.061691 0.281652 0.462045
O O9 0.711856 0.500000 0.985064
O O10 0.573601 0.344803 0.918571
O O11 0.500000 0.360799 0.000000
O O12 0.750000 0.250000 0.000000
O O13 0.102973 0.500000 0.318289
O O14 0.041721 0.253146 0.293209
O O15 0.321941 0.346584 0.321753
O O16 0.990019 0.000000 0.153309
O O17 0.513759 0.500000 0.711999
#
# Coordination Sequence:
#
# PCOD9193589 Si02
#       7
#     8   8   8   8   4   8   8
#     4  10  21  36  55  79 107 138 175 217 261 312
#     4  10  20  35  53  76 104 134 171 213 255 305
#     4  10  21  36  54  78 107 139 177 219 262 312
#     4  10  21  36  55  79 107 138 175 216 259 310
#     4  10  20  34  54  76 102 136 170 208 260 306
#     4  10  21  36  54  79 108 138 176 219 262 312
#     4  10  21  37  55  79 108 138 175 217 260 311
#
# _framework density 19.371780000000001
#
# number of rings (size 3 to 8) (size 9 to 14) (size 15 to 20)
#    0.000    2.000    0.000    3.231    0.000    2.769 
#    0.000    3.846    0.000    0.000    0.000    0.000 
#    0.000    0.000    0.000    0.000    0.000    0.000 
#
# Total GULP energy -145050.515771 kJ/mol
# GULP energy per Si atom -5578.865991 kJ/mol
# Density = 1.932769 g / cm^3
# Si number density = 19.371780 Si / 1000 Ang^3
#
#
#
# Elastic Constant Matrix: (Units=GPa)
#
#
# Indices 1 2 3 4 5 6 
#
# 1 42.3922 37.7618 -3.5971 0.0000 -2.9724 0.0000
# 2 37.7618 119.7848 11.8697 0.0000 23.4648 0.0000
# 3 -3.5971 11.8697 53.5816 0.0000 -13.4166 0.0000
# 4 0.0000 0.0000 0.0000 26.8872 0.0000 5.9518
# 5 -2.9724 23.4648 -13.4166 0.0000 30.1917 0.0000
# 6 0.0000 0.0000 0.0000 5.9518 0.0000 27.0933
#
#
#
# Elastic Compliance Matrix: (Units=1/GPa)
#
#
# Indices 1 2 3 4 5 6 
#
# 1 0.045698 -0.021254 0.014671 0.000000 0.027537 0.000000
# 2 -0.021254 0.020861 -0.011963 0.000000 -0.023622 0.000000
# 3 0.014671 -0.011963 0.028116 0.000000 0.023236 0.000000
# 4 0.000000 0.000000 0.000000 0.039093 0.000000 -0.008588
# 5 0.027537 -0.023622 0.023236 0.000000 0.064517 0.000000
# 6 0.000000 0.000000 0.000000 -0.008588 0.000000 0.038796
#
#
# Mechanical properties :
#
#
# Convention : Reuss Voigt Hill
#
# Bulk Modulus (GPa) = 17.36598 34.20304 25.78451
# Shear Modulus (GPa) = 17.04340 28.14939 22.59640
#
# Velocity S-wave (km/s) = 2.96937 3.81611 3.41905
# Velocity P-wave (km/s) = 4.55415 6.09191 5.37827
#
# Compressibility (1/GPa) = 0.05758386
#
# Stress axis : x y z
#
# Youngs Moduli (GPa) = 21.88298 47.93541 35.56632
#
# Poissons Ratio (x) = 1.01883 -0.52181
# Poissons Ratio (y) = 0.46510 0.42548
# Poissons Ratio (z) = -0.32105 0.57345
#
# Static dielectric constant tensor:
#      x y z
#    x 1.639550 0.000000 -0.019140 
#    y 0.000000 1.678610 0.000000 
#    z -0.019140 0.000000 1.699160 
# 
# From -- ./inp_files/355559.got.cif
#   From: 2010.05.17/outbox.cif.g08.bks.cpg/sg12_178_cif.got.tgz:355559.got - 2010.06.03 13:09:07.
