data_PCOD9193907
_publ_section_title
;
Structure prediction by ZEFSAII (Michael W. Deem and Ramdas Pophale) SiO2 
 PCOD9193907
Probable space group: C 2/M
;
_chemical_formula_sum "Si O2"
_cell_formula_units_Z 48
_cell_length_a 20.302634
_cell_length_b 7.879504
_cell_length_c 21.428074
_cell_angle_alpha 90.000000
_cell_angle_beta 39.126716
_cell_angle_gamma 90.000000
_cell_volume 2163.164950
_symmetry_space_group_name_H-M "C 2/M"
_symmetry_group_IT_number 12
_symmetry_cell_setting 'monoclinic'
loop_
_space_group_symop_operation_xyz
x,y,z
-x,y,-z
-x,-y,-z
x,-y,z
1/2+x,1/2+y,z
1/2-x,1/2+y,-z
1/2-x,1/2-y,-z
1/2+x,1/2-y,z
loop_
_atom_site_type_symbol
_atom_site_label
_atom_site_fract_x
_atom_site_fract_y
_atom_site_fract_z
Si Si1 0.680539 0.705236 0.639410
Si Si2 0.690484 0.295635 0.980482
Si Si3 0.095928 0.700248 0.567561
Si Si4 0.076116 0.806136 0.391406
Si Si5 0.548550 0.707883 0.856317
Si Si6 0.217792 0.201272 0.824431
O O1 0.681122 0.500000 0.636770
O O2 0.801459 0.758920 0.546207
O O3 0.623879 0.769513 0.618871
O O4 0.619124 0.759426 0.745602
O O5 0.689662 0.500000 0.980517
O O6 0.739131 0.233828 0.878750
O O7 0.750000 0.250000 0.000000
O O8 0.570037 0.236503 0.066294
O O9 0.079957 0.500000 0.569041
O O10 0.994396 0.795494 0.618717
O O11 0.186589 0.726811 0.293217
O O12 0.000000 0.726770 0.500000
O O13 0.095762 0.000000 0.395217
O O14 0.546466 0.500000 0.859506
O O15 0.610925 0.766582 0.871838
O O16 0.203802 0.000000 0.840915
#
# Coordination Sequence:
#
# PCOD9193907 Si02
#       6
#     8   8   8   8   8   8
#     4   9  18  33  55  83 114 153 195 239 295 348
#     4  10  22  39  61  90 121 155 197 245 296 351
#     4  10  20  34  54  82 117 154 197 244 288 345
#     4  11  24  39  57  83 118 156 196 242 299 355
#     4   9  18  36  62  86 113 154 198 241 290 348
#     4  10  21  39  63  89 118 155 203 247 291 349
#
# _framework density 22.189708
#
# number of rings (size 3 to 8) (size 9 to 14) (size 15 to 20)
#    0.000    2.167    0.000    2.500    2.333    6.000 
#    0.000    1.667    0.000    2.000    0.000    0.000 
#    0.000    0.000    0.000    0.000    0.000    0.000 
#
# Total GULP energy -134053.196231 kJ/mol
# GULP energy per Si atom -5585.549843 kJ/mol
# Density = 2.213920 g / cm^3
# Si number density = 22.189708 Si / 1000 Ang^3
#
#
#
# Elastic Constant Matrix: (Units=GPa)
#
#
# Indices 1 2 3 4 5 6 
#
# 1 145.8511 10.4727 71.5534 0.0000 -7.7990 0.0000
# 2 10.4727 27.0930 8.9155 0.0001 2.8945 -0.0003
# 3 71.5534 8.9155 120.1907 0.0000 10.2056 0.0000
# 4 0.0000 0.0001 0.0000 12.1985 0.0000 7.4422
# 5 -7.7990 2.8945 10.2056 0.0000 30.5876 0.0000
# 6 0.0000 -0.0003 0.0000 7.4422 0.0000 16.8453
#
#
#
# Elastic Compliance Matrix: (Units=1/GPa)
#
#
# Indices 1 2 3 4 5 6 
#
# 1 0.010490 -0.002460 -0.006493 0.000000 0.005074 0.000000
# 2 -0.002460 0.038632 -0.001068 -0.000001 -0.003927 0.000001
# 3 -0.006493 -0.001068 0.012758 0.000000 -0.005811 0.000000
# 4 0.000000 -0.000001 0.000000 0.112226 0.000000 -0.049581
# 5 0.005074 -0.003927 -0.005811 0.000000 0.036297 0.000000
# 6 0.000000 0.000001 0.000000 -0.049581 0.000000 0.081268
#
#
# Mechanical properties :
#
#
# Convention : Reuss Voigt Hill
#
# Bulk Modulus (GPa) = 23.90177 52.77978 38.34077
# Shear Modulus (GPa) = 15.35348 25.40582 20.37965
#
# Velocity S-wave (km/s) = 2.63329 3.38736 3.03385
# Velocity P-wave (km/s) = 4.47667 6.25590 5.43952
#
# Compressibility (1/GPa) = 0.04183790
#
# Stress axis : x y z
#
# Youngs Moduli (GPa) = 95.33054 25.88551 78.37960
#
# Poissons Ratio (x) = 0.06368 0.50894
# Poissons Ratio (y) = 0.23453 0.08368
# Poissons Ratio (z) = 0.61901 0.02764
#
# Static dielectric constant tensor:
#      x y z
#    x 1.810050 0.000000 0.021850 
#    y 0.000000 1.808880 0.000000 
#    z 0.021850 0.000000 1.829770 
# 
# From -- ./inp_files/319558.got.cif
#   From: 2010.05.17/outbox.cif.g08.bks.cpg/sg12_160_cif.got.tgz:319558.got - 2010.06.03 13:09:07.
