data_PCOD9193345
_publ_section_title
;
Structure prediction by ZEFSAII (Michael W. Deem and Ramdas Pophale) SiO2 
 PCOD9193345
Probable space group: C 2/M
;
_chemical_formula_sum "Si O2"
_cell_formula_units_Z 40
_cell_length_a 28.220912
_cell_length_b 8.958769
_cell_length_c 9.808816
_cell_angle_alpha 90.000000
_cell_angle_beta 112.249941
_cell_angle_gamma 90.000000
_cell_volume 2295.258388
_symmetry_space_group_name_H-M "C 2/M"
_symmetry_group_IT_number 12
_symmetry_cell_setting 'monoclinic'
loop_
_space_group_symop_operation_xyz
x,y,z
-x,y,-z
-x,-y,-z
x,-y,z
1/2+x,1/2+y,z
1/2-x,1/2+y,-z
1/2-x,1/2-y,-z
1/2+x,1/2-y,z
loop_
_atom_site_type_symbol
_atom_site_label
_atom_site_fract_x
_atom_site_fract_y
_atom_site_fract_z
Si Si1 0.469021 0.678081 0.216386
Si Si2 0.391239 0.821604 0.336411
Si Si3 0.919963 0.322767 0.675056
Si Si4 0.617380 0.322941 0.101011
Si Si5 0.694195 0.321006 0.944203
O O1 0.469899 0.500000 0.238303
O O2 0.440804 0.756246 0.312594
O O3 0.525469 0.740548 0.257498
O O4 0.433042 0.707738 0.045954
O O5 0.395533 0.789521 0.501253
O O6 0.342346 0.746261 0.212388
O O7 0.389466 0.000000 0.314990
O O8 0.928170 0.500000 0.692491
O O9 0.885989 0.267238 0.763713
O O10 0.617914 0.500000 0.130522
O O11 0.665228 0.287581 0.055353
O O12 0.696350 0.500000 0.932953
O O13 0.750000 0.250000 0.000000
#
# Coordination Sequence:
#
# PCOD9193345 Si02
#       5
#     8   8   8   8   8
#     4  10  20  34  53  77 107 146 185 217 257 311
#     4  10  21  36  53  78 110 140 177 221 260 308
#     4  11  22  33  50  79 112 144 177 216 262 309
#     4   9  20  36  53  77 107 138 176 218 259 311
#     4  10  21  39  62  83 102 132 174 218 267 319
#
# _framework density 17.427232
#
# number of rings (size 3 to 8) (size 9 to 14) (size 15 to 20)
#    0.000    2.000    0.000    4.800    0.000   12.800 
#    0.000    1.000    0.000    0.000    0.000    0.000 
#    0.000    0.000    0.000    0.000    0.000    0.000 
#
# Total GULP energy -111714.259368 kJ/mol
# GULP energy per Si atom -5585.712968 kJ/mol
# Density = 1.738757 g / cm^3
# Si number density = 17.427232 Si / 1000 Ang^3
#
#
#
# Elastic Constant Matrix: (Units=GPa)
#
#
# Indices 1 2 3 4 5 6 
#
# 1 114.7417 50.0834 57.4664 0.0000 -3.0431 0.0000
# 2 50.0834 67.4893 63.2713 0.0000 -16.3668 0.0000
# 3 57.4664 63.2713 102.7602 0.0000 -31.3542 0.0000
# 4 0.0000 0.0000 0.0000 20.1433 0.0000 -19.7271
# 5 -3.0431 -16.3668 -31.3542 0.0000 15.4763 0.0000
# 6 0.0000 0.0000 0.0000 -19.7271 0.0000 7.0020
#
#
#
# Elastic Compliance Matrix: (Units=1/GPa)
#
#
# Indices 1 2 3 4 5 6 
#
# 1 0.022224 -0.006153 -0.024335 0.000000 -0.051438 0.000000
# 2 -0.006153 0.038644 -0.021613 0.000000 -0.004129 0.000000
# 3 -0.024335 -0.021613 0.073888 0.000000 0.122051 0.000000
# 4 0.000000 0.000000 0.000000 -0.028221 0.000000 -0.079508
# 5 -0.051438 -0.004129 0.122051 0.000000 0.297403 0.000000
# 6 0.000000 0.000000 0.000000 -0.079508 0.000000 -0.081186
#
#
# Mechanical properties :
#
#
# Convention : Reuss Voigt Hill
#
# Bulk Modulus (GPa) = 32.72739 69.62594 51.17666
# Shear Modulus (GPa) = 11.43806 16.13568 13.78687
#
# Velocity S-wave (km/s) = 2.56468 3.04614 2.81572
# Velocity P-wave (km/s) = 5.25265 7.23955 6.32461
#
# Compressibility (1/GPa) = 0.03055545
#
# Stress axis : x y z
#
# Youngs Moduli (GPa) = 44.99585 25.87746 13.53407
#
# Poissons Ratio (x) = 0.15922 0.32935
# Poissons Ratio (y) = 0.27685 0.29251
# Poissons Ratio (z) = 1.09496 0.55928
#
# Static dielectric constant tensor:
#      x y z
#    x 1.564740 0.000000 -0.008690 
#    y 0.000000 1.578590 0.000000 
#    z -0.008690 0.000000 1.585050 
# 
# From -- ./inp_files/92722.got.cif
#   From: 2010.05.17/outbox.cif.g08.bks.cpg/sg12_47_cif.got.tgz:92722.got - 2010.06.03 13:09:07.
