data_PCOD9193151
_publ_section_title
;
Structure prediction by ZEFSAII (Michael W. Deem and Ramdas Pophale) SiO2 
 PCOD9193151
Probable space group: C 2/M
;
_chemical_formula_sum "Si O2"
_cell_formula_units_Z 56
_cell_length_a 9.077314
_cell_length_b 11.566991
_cell_length_c 28.401373
_cell_angle_alpha 90.000000
_cell_angle_beta 107.298627
_cell_angle_gamma 90.000000
_cell_volume 2847.179924
_symmetry_space_group_name_H-M "C 2/M"
_symmetry_group_IT_number 12
_symmetry_cell_setting 'monoclinic'
loop_
_space_group_symop_operation_xyz
x,y,z
-x,y,-z
-x,-y,-z
x,-y,z
1/2+x,1/2+y,z
1/2-x,1/2+y,-z
1/2-x,1/2-y,-z
1/2+x,1/2-y,z
loop_
_atom_site_type_symbol
_atom_site_label
_atom_site_fract_x
_atom_site_fract_y
_atom_site_fract_z
Si Si1 0.860643 0.628410 0.322503
Si Si2 0.270046 0.866263 0.205649
Si Si3 0.093414 0.867068 0.828820
Si Si4 0.359162 0.128561 0.040369
Si Si5 0.924881 0.134137 0.444099
Si Si6 0.318053 0.205995 0.930137
Si Si7 0.860785 0.213418 0.618492
O O1 0.926386 0.500000 0.332888
O O2 0.789212 0.640824 0.263961
O O3 0.729611 0.644192 0.349680
O O4 0.000533 0.715685 0.344247
O O5 0.357950 0.751938 0.194189
O O6 0.088094 0.856892 0.176815
O O7 0.320183 0.000000 0.196854
O O8 0.207056 0.858676 0.884247
O O9 0.112743 0.000000 0.810198
O O10 0.505199 0.205422 0.067045
O O11 0.230425 0.162608 0.064978
O O12 0.414245 0.000000 0.050074
O O13 0.311020 0.150237 0.981903
O O14 0.772257 0.205109 0.416112
O O15 0.000000 0.176895 0.500000
O O16 0.052907 0.145917 0.415140
O O17 0.883709 0.000000 0.446116
#
# Coordination Sequence:
#
# PCOD9193151 Si02
#       7
#     8   8   8   8   8   8   8
#     4  10  20  37  56  77 106 138 179 227 271 318
#     4  10  23  39  57  82 111 142 181 231 280 329
#     4  11  22  38  58  82 111 145 182 223 278 335
#     4  10  20  36  54  77 108 140 176 221 266 313
#     4  10  20  34  52  79 113 144 177 218 262 312
#     4  10  20  35  56  79 106 141 179 218 266 325
#     4  10  20  34  56  80 104 142 183 218 265 317
#
# _framework density 19.668585
#
# number of rings (size 3 to 8) (size 9 to 14) (size 15 to 20)
#    0.000    1.857    0.000    4.714    0.000    1.143 
#    0.000   10.714    0.000    6.857    0.000    0.000 
#    0.000    0.000    0.000    0.000    0.000    0.000 
#
# Total GULP energy -156040.502954 kJ/mol
# GULP energy per Si atom -5572.875105 kJ/mol
# Density = 1.962382 g / cm^3
# Si number density = 19.668585 Si / 1000 Ang^3
#
#
#
# Elastic Constant Matrix: (Units=GPa)
#
#
# Indices 1 2 3 4 5 6 
#
# 1 50.6767 16.5496 2.5887 0.0000 4.9109 0.0000
# 2 16.5496 77.8202 18.3098 0.0000 -10.6710 0.0000
# 3 2.5887 18.3098 51.9871 0.0000 11.9627 0.0000
# 4 0.0000 0.0000 0.0000 22.2114 0.0000 0.7220
# 5 4.9109 -10.6710 11.9627 0.0000 22.8604 0.0000
# 6 0.0000 0.0000 0.0000 0.7220 0.0000 23.8070
#
#
#
# Elastic Compliance Matrix: (Units=1/GPa)
#
#
# Indices 1 2 3 4 5 6 
#
# 1 0.022859 -0.007133 0.003718 0.000000 -0.010186 0.000000
# 2 -0.007133 0.018795 -0.009818 0.000000 0.015443 0.000000
# 3 0.003718 -0.009818 0.026998 0.000000 -0.019509 0.000000
# 4 0.000000 0.000000 0.000000 0.045066 0.000000 -0.001367
# 5 -0.010186 0.015443 -0.019509 0.000000 0.063350 0.000000
# 6 0.000000 0.000000 0.000000 -0.001367 0.000000 0.042046
#
#
# Mechanical properties :
#
#
# Convention : Reuss Voigt Hill
#
# Bulk Modulus (GPa) = 23.70473 28.37558 26.04015
# Shear Modulus (GPa) = 19.25732 23.31147 21.28440
#
# Velocity S-wave (km/s) = 3.13244 3.44643 3.29318
# Velocity P-wave (km/s) = 5.01609 5.50412 5.26576
#
# Compressibility (1/GPa) = 0.04218567
#
# Stress axis : x y z
#
# Youngs Moduli (GPa) = 43.74551 53.20665 37.04042
#
# Poissons Ratio (x) = 0.37951 -0.13771
# Poissons Ratio (y) = 0.31203 0.36366
# Poissons Ratio (z) = -0.16263 0.52238
#
# Static dielectric constant tensor:
#      x y z
#    x 1.664000 0.000000 -0.015540 
#    y 0.000000 1.708450 0.000000 
#    z -0.015540 0.000000 1.691490 
# 
# From -- ./inp_files/355856.got.cif
#   From: 2010.05.17/outbox.cif.g08.bks.cpg/sg12_178_cif.got.tgz:355856.got - 2010.06.03 13:09:07.
