data_PCOD9193821
_publ_section_title
;
Structure prediction by ZEFSAII (Michael W. Deem and Ramdas Pophale) SiO2 
 PCOD9193821
Probable space group: C 2/M
;
_chemical_formula_sum "Si O2"
_cell_formula_units_Z 64
_cell_length_a 21.206028
_cell_length_b 7.862220
_cell_length_c 25.377681
_cell_angle_alpha 90.000000
_cell_angle_beta 51.574866
_cell_angle_gamma 90.000000
_cell_volume 3314.756350
_symmetry_space_group_name_H-M "C 2/M"
_symmetry_group_IT_number 12
_symmetry_cell_setting 'monoclinic'
loop_
_space_group_symop_operation_xyz
x,y,z
-x,y,-z
-x,-y,-z
x,-y,z
1/2+x,1/2+y,z
1/2-x,1/2+y,-z
1/2-x,1/2-y,-z
1/2+x,1/2-y,z
loop_
_atom_site_type_symbol
_atom_site_label
_atom_site_fract_x
_atom_site_fract_y
_atom_site_fract_z
Si Si1 0.468576 0.791836 0.211198
Si Si2 0.539001 0.197426 0.286749
Si Si3 0.620191 0.795970 0.071194
Si Si4 0.261447 0.206350 0.078264
Si Si5 0.714772 0.793832 0.709995
Si Si6 0.117795 0.800924 0.579474
Si Si7 0.782763 0.800722 0.784905
Si Si8 0.230722 0.298203 0.431031
O O1 0.502912 0.736872 0.250117
O O2 0.532223 0.734731 0.133887
O O3 0.377455 0.735508 0.249547
O O4 0.467497 0.000000 0.212130
O O5 0.466979 0.213768 0.365886
O O6 0.621046 0.286461 0.260677
O O7 0.559555 0.000000 0.268371
O O8 0.682218 0.755807 0.086260
O O9 0.615356 0.000000 0.069321
O O10 0.662525 0.732418 0.995780
O O11 0.254034 0.271058 0.141682
O O12 0.263563 0.000000 0.078360
O O13 0.750632 0.729514 0.746506
O O14 0.764717 0.739678 0.632819
O O15 0.714829 0.000000 0.710343
O O16 0.156394 0.777849 0.501946
O O17 0.186640 0.733492 0.584050
O O18 0.106191 0.000000 0.596119
O O19 0.761080 0.000000 0.795738
O O20 0.228429 0.500000 0.440778
#
# Coordination Sequence:
#
# PCOD9193821 Si02
#       8
#     8   8   8   8   8   8   8   8
#     4   9  17  30  51  77 101 132 176 218 258 305
#     4  11  20  33  55  80 106 136 176 223 260 304
#     4   9  16  29  49  74 101 132 172 219 264 306
#     4   9  17  29  47  73 104 134 171 215 262 312
#     4  10  20  36  54  73 106 145 177 212 262 320
#     4  10  20  34  55  82 110 137 169 214 264 312
#     4  10  21  35  51  75 108 144 176 214 266 318
#     4  10  20  34  54  81 109 137 173 215 259 308
#
# _framework density 19.307604000000001
#
# number of rings (size 3 to 8) (size 9 to 14) (size 15 to 20)
#    0.000    2.250    2.500    1.125    0.000    1.500 
#    0.000    1.875    0.000    7.500    0.000    0.000 
#    0.000    6.000    0.000    0.000    0.000    0.000 
#
# Total GULP energy -178548.232466 kJ/mol
# GULP energy per Si atom -5579.632265 kJ/mol
# Density = 1.926366 g / cm^3
# Si number density = 19.307604 Si / 1000 Ang^3
#
#
#
# Elastic Constant Matrix: (Units=GPa)
#
#
# Indices 1 2 3 4 5 6 
#
# 1 86.7124 -6.4055 57.0253 -0.0003 14.8599 -0.0011
# 2 -6.4055 22.8182 -8.3173 0.0002 1.5221 -0.0020
# 3 57.0253 -8.3173 149.9005 -0.0002 14.2071 0.0003
# 4 -0.0003 0.0002 -0.0002 13.1254 0.0002 2.2778
# 5 14.8599 1.5221 14.2071 0.0002 27.1121 -0.0002
# 6 -0.0011 -0.0020 0.0003 2.2778 -0.0002 14.7287
#
#
#
# Elastic Compliance Matrix: (Units=1/GPa)
#
#
# Indices 1 2 3 4 5 6 
#
# 1 0.016449 0.003037 -0.005491 0.000000 -0.006309 0.000002
# 2 0.003037 0.045708 0.001875 -0.000002 -0.005213 0.000006
# 3 -0.005491 0.001875 0.009038 0.000000 -0.001831 0.000000
# 4 0.000000 -0.000002 0.000000 0.078289 -0.000001 -0.012108
# 5 -0.006309 -0.005213 -0.001831 -0.000001 0.041594 -0.000001
# 6 0.000002 0.000006 0.000000 -0.012108 -0.000001 0.069767
#
#
# Mechanical properties :
#
#
# Convention : Reuss Voigt Hill
#
# Bulk Modulus (GPa) = 14.27832 38.22623 26.25227
# Shear Modulus (GPa) = 17.52236 25.46847 21.49542
#
# Velocity S-wave (km/s) = 3.01580 3.63587 3.34026
# Velocity P-wave (km/s) = 4.42018 6.12108 5.33880
#
# Compressibility (1/GPa) = 0.07003623
#
# Stress axis : x y z
#
# Youngs Moduli (GPa) = 60.79398 21.87785 110.64827
#
# Poissons Ratio (x) = -0.06644 0.60758
# Poissons Ratio (y) = -0.18462 -0.20746
# Poissons Ratio (z) = 0.33383 -0.04102
#
# Static dielectric constant tensor:
#      x y z
#    x 1.644680 0.000000 0.008940 
#    y 0.000000 1.713170 0.000000 
#    z 0.008940 0.000000 1.696650 
# 
# From -- ./inp_files/346023.got.cif
#   From: 2010.05.17/outbox.cif.g08.bks.cpg/sg12_174_cif.got.tgz:346023.got - 2010.06.03 13:09:07.
