data_PCOD9193474
_publ_section_title
;
Structure prediction by ZEFSAII (Michael W. Deem and Ramdas Pophale) SiO2 
 PCOD9193474
Probable space group: C 2/M
;
_chemical_formula_sum "Si O2"
_cell_formula_units_Z 64
_cell_length_a 15.487679
_cell_length_b 14.824105
_cell_length_c 25.441313
_cell_angle_alpha 90.000000
_cell_angle_beta 33.555969
_cell_angle_gamma 90.000000
_cell_volume 3228.673381
_symmetry_space_group_name_H-M "C 2/M"
_symmetry_group_IT_number 12
_symmetry_cell_setting 'monoclinic'
loop_
_space_group_symop_operation_xyz
x,y,z
-x,y,-z
-x,-y,-z
x,-y,z
1/2+x,1/2+y,z
1/2-x,1/2+y,-z
1/2-x,1/2-y,-z
1/2+x,1/2-y,z
loop_
_atom_site_type_symbol
_atom_site_label
_atom_site_fract_x
_atom_site_fract_y
_atom_site_fract_z
Si Si1 0.561576 0.396326 0.228441
Si Si2 0.496100 0.608297 0.376546
Si Si3 0.712537 0.796674 0.718126
Si Si4 0.351165 0.599035 0.231165
Si Si5 0.068220 0.135817 0.021144
Si Si6 0.403042 0.098878 0.896295
Si Si7 0.173462 0.896465 0.437448
Si Si8 0.627984 0.843015 0.973150
O O1 0.617973 0.500000 0.207272
O O2 0.477000 0.368979 0.325087
O O3 0.453889 0.396897 0.232072
O O4 0.711352 0.336370 0.139912
O O5 0.502445 0.500000 0.378436
O O6 0.661900 0.646819 0.311970
O O7 0.359930 0.635689 0.486231
O O8 0.743070 0.692275 0.716457
O O9 0.535650 0.826168 0.820947
O O10 0.736058 0.827326 0.645748
O O11 0.272289 0.500000 0.269940
O O12 0.462487 0.605192 0.123633
O O13 0.067634 0.244279 0.019146
O O14 0.247967 0.109780 0.940265
O O15 0.000000 0.103986 0.000000
O O16 0.347990 0.105398 0.984702
O O17 0.473520 0.000000 0.850958
O O18 0.000000 0.901211 0.500000
O O19 0.236157 0.000000 0.404444
O O20 0.500000 0.886156 0.000000
#
# Coordination Sequence:
#
# PCOD9193474 Si02
#       8
#     8   8   8   8   8   8   8   8
#     4  10  20  34  53  79 112 147 184 224 274 338
#     4   9  18  34  60  91 118 145 175 214 279 354
#     4  11  20  34  55  87 116 144 179 232 281 329
#     4  11  23  40  56  73 103 150 199 236 273 323
#     4  11  24  41  57  72 105 157 206 240 270 322
#     4  12  22  34  55  84 116 147 184 232 285 335
#     4   8  15  31  56  86 120 148 172 210 273 351
#     4  11  21  33  52  81 114 146 182 229 282 337
#
# _framework density 19.822382999999999
#
# number of rings (size 3 to 8) (size 9 to 14) (size 15 to 20)
#    0.000    1.625    2.500    4.500    1.750    3.000 
#    0.000    0.625    0.000    3.375    0.000    0.000 
#    0.000    0.000    0.000    0.000    0.000    0.000 
#
# Total GULP energy -178515.878943 kJ/mol
# GULP energy per Si atom -5578.621217 kJ/mol
# Density = 1.977727 g / cm^3
# Si number density = 19.822383 Si / 1000 Ang^3
#
#
#
# Elastic Constant Matrix: (Units=GPa)
#
#
# Indices 1 2 3 4 5 6 
#
# 1 72.4270 11.7793 16.4929 -0.0002 33.2982 -0.0002
# 2 11.7793 77.4955 25.3398 -0.0003 10.5697 0.0005
# 3 16.4929 25.3398 87.4297 -0.0014 41.6522 0.0006
# 4 -0.0002 -0.0003 -0.0014 15.2842 0.0003 -5.3233
# 5 33.2982 10.5697 41.6522 0.0003 34.1587 -0.0001
# 6 -0.0002 0.0005 0.0006 -5.3233 -0.0001 34.3991
#
#
#
# Elastic Compliance Matrix: (Units=1/GPa)
#
#
# Indices 1 2 3 4 5 6 
#
# 1 0.043923 -0.006068 0.030964 0.000005 -0.078696 0.000000
# 2 -0.006068 0.015125 -0.009133 -0.000001 0.012371 0.000000
# 3 0.030964 -0.009133 0.050771 0.000007 -0.089268 0.000000
# 4 0.000005 -0.000001 0.000007 0.069154 -0.000013 0.010702
# 5 -0.078696 0.012371 -0.089268 -0.000013 0.211011 0.000000
# 6 0.000000 0.000000 0.000000 0.010702 0.000000 0.030727
#
#
# Mechanical properties :
#
#
# Convention : Reuss Voigt Hill
#
# Bulk Modulus (GPa) = 7.07477 38.28626 22.68052
# Shear Modulus (GPa) = 11.46001 29.01775 20.23888
#
# Velocity S-wave (km/s) = 2.40705 3.83023 3.19879
# Velocity P-wave (km/s) = 3.36185 6.23839 5.01096
#
# Compressibility (1/GPa) = 0.14134742
#
# Stress axis : x y z
#
# Youngs Moduli (GPa) = 22.76709 66.11458 19.69617
#
# Poissons Ratio (x) = 0.40116 -0.60988
# Poissons Ratio (y) = 0.13814 0.17988
# Poissons Ratio (z) = -0.70497 0.60381
#
# Static dielectric constant tensor:
#      x y z
#    x 1.698470 0.000000 0.040060 
#    y 0.000000 1.763500 0.000000 
#    z 0.040060 0.000000 1.700380 
# 
# From -- ./inp_files/340139.got.cif
#   From: 2010.05.17/outbox.cif.g08.bks.cpg/sg12_171_cif.got.tgz:340139.got - 2010.06.03 13:09:07.
