data_PCOD9193253
_publ_section_title
;
Structure prediction by ZEFSAII (Michael W. Deem and Ramdas Pophale) SiO2 
 PCOD9193253
Probable space group: C 2/M
;
_chemical_formula_sum "Si O2"
_cell_formula_units_Z 48
_cell_length_a 14.545292
_cell_length_b 8.401802
_cell_length_c 23.170768
_cell_angle_alpha 90.000000
_cell_angle_beta 71.080230
_cell_angle_gamma 90.000000
_cell_volume 2678.639704
_symmetry_space_group_name_H-M "C 2/M"
_symmetry_group_IT_number 12
_symmetry_cell_setting 'monoclinic'
loop_
_space_group_symop_operation_xyz
x,y,z
-x,y,-z
-x,-y,-z
x,-y,z
1/2+x,1/2+y,z
1/2-x,1/2+y,-z
1/2-x,1/2-y,-z
1/2+x,1/2-y,z
loop_
_atom_site_type_symbol
_atom_site_label
_atom_site_fract_x
_atom_site_fract_y
_atom_site_fract_z
Si Si1 0.961570 0.693831 0.069391
Si Si2 0.238414 0.690006 0.833464
Si Si3 0.947404 0.689965 0.828970
Si Si4 0.699842 0.692165 0.597386
Si Si5 0.397611 0.807734 0.495542
Si Si6 0.643176 0.690123 0.736709
O O1 0.961275 0.500000 0.067774
O O2 0.851925 0.743695 0.107826
O O3 0.029012 0.740411 0.109856
O O4 0.000000 0.751475 0.000000
O O5 0.245752 0.500000 0.836240
O O6 0.340207 0.764045 0.831168
O O7 0.206851 0.734989 0.775034
O O8 0.959464 0.500000 0.823688
O O9 0.031479 0.766431 0.772681
O O10 0.698883 0.500000 0.597612
O O11 0.624164 0.750564 0.564681
O O12 0.806204 0.744706 0.553418
O O13 0.674971 0.746436 0.666853
O O14 0.500000 0.751657 0.500000
O O15 0.398258 0.000000 0.495291
O O16 0.654659 0.500000 0.737000
#
# Coordination Sequence:
#
# PCOD9193253 Si02
#       6
#     8   8   8   8   8   8
#     4   8  16  32  52  74 102 135 170 209 252 301
#     4  10  20  34  53  77 105 136 171 210 255 306
#     4  10  20  34  53  76 103 135 172 213 258 306
#     4   9  19  34  51  74 101 130 165 206 250 295
#     4   9  18  33  52  74 101 132 165 201 244 297
#     4  10  20  35  53  74 104 137 173 215 255 300
#
# _framework density 17.919543000000001
#
# number of rings (size 3 to 8) (size 9 to 14) (size 15 to 20)
#    0.000    2.667    0.000    2.500    0.000    3.667 
#    0.000    1.667    0.000   17.000    0.000    0.000 
#    0.000    0.000    0.000    0.000    0.000    0.000 
#
# Total GULP energy -133859.124144 kJ/mol
# GULP energy per Si atom -5577.463506 kJ/mol
# Density = 1.787876 g / cm^3
# Si number density = 17.919543 Si / 1000 Ang^3
#
#
#
# Elastic Constant Matrix: (Units=GPa)
#
#
# Indices 1 2 3 4 5 6 
#
# 1 116.7778 -9.4226 42.8222 0.0000 2.4525 0.0000
# 2 -9.4226 9.1186 -0.8596 0.0000 -2.1633 0.0000
# 3 42.8222 -0.8596 145.0372 0.0000 1.9141 0.0000
# 4 0.0000 0.0000 0.0000 21.1454 0.0000 4.4461
# 5 2.4525 -2.1633 1.9141 0.0000 6.6275 0.0000
# 6 0.0000 0.0000 0.0000 4.4461 0.0000 17.4782
#
#
#
# Elastic Compliance Matrix: (Units=1/GPa)
#
#
# Indices 1 2 3 4 5 6 
#
# 1 0.010538 0.010715 -0.003054 0.000000 0.000480 0.000000
# 2 0.010715 0.129771 -0.002912 0.000000 0.039234 0.000000
# 3 -0.003054 -0.002912 0.007807 0.000000 -0.002075 0.000000
# 4 0.000000 0.000000 0.000000 0.049964 0.000000 -0.012710
# 5 0.000480 0.039234 -0.002075 0.000000 0.164115 0.000000
# 6 0.000000 0.000000 0.000000 -0.012710 0.000000 0.060447
#
#
# Mechanical properties :
#
#
# Convention : Reuss Voigt Hill
#
# Bulk Modulus (GPa) = 6.34467 37.33485 21.83976
# Shear Modulus (GPa) = 10.73693 24.94312 17.84002
#
# Velocity S-wave (km/s) = 2.45046 3.73493 3.15868
# Velocity P-wave (km/s) = 3.39922 6.28328 5.05145
#
# Compressibility (1/GPa) = 0.15761257
#
# Stress axis : x y z
#
# Youngs Moduli (GPa) = 94.89750 7.70588 128.09639
#
# Poissons Ratio (x) = -0.08257 0.39122
# Poissons Ratio (y) = -1.01682 0.37305
# Poissons Ratio (z) = 0.28982 0.02244
#
# Static dielectric constant tensor:
#      x y z
#    x 1.585950 0.000000 -0.008310 
#    y 0.000000 1.613820 0.000000 
#    z -0.008310 0.000000 1.607040 
# 
# From -- ./inp_files/308308.got.cif
#   From: 2010.05.17/outbox.cif.g08.bks.cpg/sg12_155_cif.got.tgz:308308.got - 2010.06.03 13:09:07.
