data_PCOD9193843
_publ_section_title
;
Structure prediction by ZEFSAII (Michael W. Deem and Ramdas Pophale) SiO2 
 PCOD9193843
Probable space group: C 2/M
;
_chemical_formula_sum "Si O2"
_cell_formula_units_Z 64
_cell_length_a 29.125410
_cell_length_b 17.780301
_cell_length_c 14.330625
_cell_angle_alpha 90.000000
_cell_angle_beta 151.745035
_cell_angle_gamma 90.000000
_cell_volume 3513.183802
_symmetry_space_group_name_H-M "C 2/M"
_symmetry_group_IT_number 12
_symmetry_cell_setting 'monoclinic'
loop_
_space_group_symop_operation_xyz
x,y,z
-x,y,-z
-x,-y,-z
x,-y,z
1/2+x,1/2+y,z
1/2-x,1/2+y,-z
1/2-x,1/2-y,-z
1/2+x,1/2-y,z
loop_
_atom_site_type_symbol
_atom_site_label
_atom_site_fract_x
_atom_site_fract_y
_atom_site_fract_z
Si Si1 0.066089 0.918121 0.321524
Si Si2 0.605255 0.199595 0.964563
Si Si3 0.228713 0.085366 0.454504
Si Si4 0.905224 0.916360 0.264810
Si Si5 0.597031 0.088200 0.114138
Si Si6 0.580642 0.335792 0.063558
Si Si7 0.712797 0.698645 0.847952
Si Si8 0.531158 0.707593 0.397844
O O1 0.149064 0.920918 0.393180
O O2 0.085811 0.848261 0.424168
O O3 0.061006 0.000000 0.360058
O O4 0.968835 0.899574 0.089716
O O5 0.516210 0.220555 0.736152
O O6 0.592558 0.126628 0.005839
O O7 0.602889 0.266526 0.036437
O O8 0.703649 0.197196 0.080536
O O9 0.320408 0.120895 0.669994
O O10 0.177878 0.133882 0.284484
O O11 0.250963 0.000000 0.461339
O O12 0.815150 0.883683 0.161794
O O13 0.000000 0.923090 0.500000
O O14 0.940547 0.847404 0.262869
O O15 0.886093 0.000000 0.191769
O O16 0.619853 0.000000 0.142680
O O17 0.500000 0.095416 0.000000
O O18 0.500000 0.318046 0.000000
O O19 0.609091 0.725149 0.617940
O O20 0.750000 0.750000 0.000000
#
# Coordination Sequence:
#
# PCOD9193843 Si02
#       8
#     8   8   8   8   8   8   8   8
#     4   9  16  28  50  82 113 138 169 211 268 337
#     4  11  22  35  55  80 107 143 183 226 279 327
#     4   9  17  31  51  75 109 145 174 216 267 317
#     4   9  18  34  57  82 107 137 172 220 279 334
#     4  10  22  38  54  74 103 144 194 237 267 306
#     4   9  18  31  50  80 112 140 174 212 270 338
#     4  11  22  37  56  80 112 143 181 225 281 337
#     4  10  20  34  54  81 111 143 175 225 279 333
#
# _framework density 18.217093999999999
#
# number of rings (size 3 to 8) (size 9 to 14) (size 15 to 20)
#    0.000    2.250    1.250    1.875    0.000    4.000 
#    0.000    0.000    0.000    0.750    0.000    1.750 
#    0.000    0.000    0.000    0.000    0.000    0.000 
#
# Total GULP energy -178256.854883 kJ/mol
# GULP energy per Si atom -5570.526715 kJ/mol
# Density = 1.817563 g / cm^3
# Si number density = 18.217094 Si / 1000 Ang^3
#
#
#
# Elastic Constant Matrix: (Units=GPa)
#
#
# Indices 1 2 3 4 5 6 
#
# 1 56.1024 21.3055 16.4647 0.0000 -8.4814 0.0000
# 2 21.3055 48.5163 41.2774 0.0000 -0.3359 0.0000
# 3 16.4647 41.2774 110.1913 0.0000 -17.0073 0.0000
# 4 0.0000 0.0000 0.0000 17.7338 0.0000 -10.3825
# 5 -8.4814 -0.3359 -17.0073 0.0000 17.2008 0.0000
# 6 0.0000 0.0000 0.0000 -10.3825 0.0000 32.3299
#
#
#
# Elastic Compliance Matrix: (Units=1/GPa)
#
#
# Indices 1 2 3 4 5 6 
#
# 1 0.024339 -0.014017 0.004041 0.000000 0.015723 0.000000
# 2 -0.014017 0.040801 -0.016678 0.000000 -0.022606 0.000000
# 3 0.004041 -0.016678 0.017673 0.000000 0.019141 0.000000
# 4 0.000000 0.000000 0.000000 0.069447 0.000000 0.022302
# 5 0.015723 -0.022606 0.019141 0.000000 0.084374 0.000000
# 6 0.000000 0.000000 0.000000 0.022302 0.000000 0.038093
#
#
# Mechanical properties :
#
#
# Convention : Reuss Voigt Hill
#
# Bulk Modulus (GPa) = 33.89472 41.43392 37.66432
# Shear Modulus (GPa) = 14.79857 22.50373 18.65115
#
# Velocity S-wave (km/s) = 2.85326 3.51851 3.20320
# Velocity P-wave (km/s) = 5.43150 6.26901 5.86522
#
# Compressibility (1/GPa) = 0.02950312
#
# Stress axis : x y z
#
# Youngs Moduli (GPa) = 41.08672 24.50943 56.58219
#
# Poissons Ratio (x) = 0.34355 -0.22864
# Poissons Ratio (y) = 0.57592 0.94370
# Poissons Ratio (z) = -0.16603 0.40878
#
# Static dielectric constant tensor:
#      x y z
#    x 1.671130 0.000000 -0.007270 
#    y 0.000000 1.662420 0.000000 
#    z -0.007270 0.000000 1.643580 
# 
# From -- ./inp_files/251669.got.cif
#   From: 2010.05.17/outbox.cif.g08.bks.cpg/sg12_126_cif.got.tgz:251669.got - 2010.06.03 13:09:07.
