data_PCOD9193144
_publ_section_title
;
Structure prediction by ZEFSAII (Michael W. Deem and Ramdas Pophale) SiO2 
 PCOD9193144
Probable space group: C 2/M
;
_chemical_formula_sum "Si O2"
_cell_formula_units_Z 56
_cell_length_a 32.529242
_cell_length_b 7.876864
_cell_length_c 13.033642
_cell_angle_alpha 90.000000
_cell_angle_beta 127.323600
_cell_angle_gamma 90.000000
_cell_volume 2655.721028
_symmetry_space_group_name_H-M "C 2/M"
_symmetry_group_IT_number 12
_symmetry_cell_setting 'monoclinic'
loop_
_space_group_symop_operation_xyz
x,y,z
-x,y,-z
-x,-y,-z
x,-y,z
1/2+x,1/2+y,z
1/2-x,1/2+y,-z
1/2-x,1/2-y,-z
1/2+x,1/2-y,z
loop_
_atom_site_type_symbol
_atom_site_label
_atom_site_fract_x
_atom_site_fract_y
_atom_site_fract_z
Si Si1 0.341675 0.807780 0.796603
Si Si2 0.197093 0.816157 0.464074
Si Si3 0.058260 0.792400 0.557974
Si Si4 0.667689 0.703895 0.818381
Si Si5 0.597250 0.708418 0.395482
Si Si6 0.442934 0.294623 0.888088
Si Si7 0.274419 0.703623 0.886875
O O1 0.333898 0.681351 0.689892
O O2 0.402048 0.779036 0.908107
O O3 0.302227 0.771007 0.827432
O O4 0.334142 0.000000 0.748351
O O5 0.250000 0.750000 0.500000
O O6 0.156838 0.727815 0.479014
O O7 0.207958 0.000000 0.524909
O O8 0.109854 0.736595 0.699937
O O9 0.069627 0.741757 0.457739
O O10 0.000000 0.737270 0.500000
O O11 0.058079 0.000000 0.562955
O O12 0.664433 0.500000 0.819090
O O13 0.714576 0.744934 0.810793
O O14 0.691595 0.764879 0.963485
O O15 0.599759 0.500000 0.398759
O O16 0.569907 0.759328 0.248411
O O17 0.441432 0.500000 0.890799
O O18 0.500000 0.237623 0.000000
O O19 0.276431 0.500000 0.887701
#
# Coordination Sequence:
#
# PCOD9193144 Si02
#       7
#     8   8   8   8   8   8   8
#     4  11  22  35  53  78 108 142 181 228 277 332
#     4  10  20  34  52  79 111 144 181 221 273 332
#     4   9  17  30  51  80 110 141 181 225 270 328
#     4   9  19  34  54  79 108 142 182 230 283 336
#     4   8  16  30  48  74 108 141 176 219 264 318
#     4   9  18  34  55  78 108 145 182 225 277 333
#     4  10  20  35  54  79 109 142 182 232 284 341
#
# _framework density 21.086552000000001
#
# number of rings (size 3 to 8) (size 9 to 14) (size 15 to 20)
#    0.000    2.571    0.000    3.000    2.000    2.000 
#    0.000    4.286    0.000    0.429    0.000    0.000 
#    0.000    0.000    0.000    0.000    0.000    0.000 
#
# Total GULP energy -155946.687445 kJ/mol
# GULP energy per Si atom -5569.524552 kJ/mol
# Density = 2.103856 g / cm^3
# Si number density = 21.086552 Si / 1000 Ang^3
#
#
#
# Elastic Constant Matrix: (Units=GPa)
#
#
# Indices 1 2 3 4 5 6 
#
# 1 201.5766 5.3183 59.1317 0.0000 18.3501 0.0000
# 2 5.3183 31.0648 2.9925 0.0000 4.3371 0.0000
# 3 59.1317 2.9925 74.8649 0.0000 19.9266 0.0000
# 4 0.0000 0.0000 0.0000 6.9268 0.0000 3.6942
# 5 18.3501 4.3371 19.9266 0.0000 41.7272 0.0000
# 6 0.0000 0.0000 0.0000 3.6942 0.0000 22.9943
#
#
#
# Elastic Compliance Matrix: (Units=1/GPa)
#
#
# Indices 1 2 3 4 5 6 
#
# 1 0.006475 -0.000571 -0.004982 0.000000 -0.000409 0.000000
# 2 -0.000571 0.032729 -0.000021 0.000000 -0.003141 0.000000
# 3 -0.004982 -0.000021 0.019143 0.000000 -0.006948 0.000000
# 4 0.000000 0.000000 0.000000 0.157896 0.000000 -0.025367
# 5 -0.000409 -0.003141 -0.006948 0.000000 0.027789 0.000000
# 6 0.000000 0.000000 0.000000 -0.025367 0.000000 0.047564
#
#
# Mechanical properties :
#
#
# Convention : Reuss Voigt Hill
#
# Bulk Modulus (GPa) = 21.18773 49.15457 35.17115
# Shear Modulus (GPa) = 15.69962 30.33392 23.01677
#
# Velocity S-wave (km/s) = 2.73157 3.79693 3.30743
# Velocity P-wave (km/s) = 4.47420 6.52562 5.59474
#
# Compressibility (1/GPa) = 0.04719712
#
# Stress axis : x y z
#
# Youngs Moduli (GPa) = 154.44608 30.55388 52.23833
#
# Poissons Ratio (x) = 0.01746 0.26028
# Poissons Ratio (y) = 0.08826 0.00109
# Poissons Ratio (z) = 0.76952 0.00064
#
# Static dielectric constant tensor:
#      x y z
#    x 1.877490 0.000000 0.122140 
#    y 0.000000 1.776040 0.000000 
#    z 0.122140 0.000000 1.855260 
# 
# From -- ./inp_files/187703.got.cif
#   From: 2010.05.17/outbox.cif.g08.bks.cpg/sg12_94_cif.got.tgz:187703.got - 2010.06.03 13:09:07.
