data_PCOD9193541
_publ_section_title
;
Structure prediction by ZEFSAII (Michael W. Deem and Ramdas Pophale) SiO2 
 PCOD9193541
Probable space group: C 2/M
;
_chemical_formula_sum "Si O2"
_cell_formula_units_Z 48
_cell_length_a 27.331758
_cell_length_b 7.640017
_cell_length_c 11.901429
_cell_angle_alpha 90.000000
_cell_angle_beta 122.033302
_cell_angle_gamma 90.000000
_cell_volume 2106.801655
_symmetry_space_group_name_H-M "C 2/M"
_symmetry_group_IT_number 12
_symmetry_cell_setting 'monoclinic'
loop_
_space_group_symop_operation_xyz
x,y,z
-x,y,-z
-x,-y,-z
x,-y,z
1/2+x,1/2+y,z
1/2-x,1/2+y,-z
1/2-x,1/2-y,-z
1/2+x,1/2-y,z
loop_
_atom_site_type_symbol
_atom_site_label
_atom_site_fract_x
_atom_site_fract_y
_atom_site_fract_z
Si Si1 0.412148 0.211367 0.127829
Si Si2 0.759062 0.699519 0.328733
Si Si3 0.867758 0.715271 0.588343
Si Si4 0.302659 0.295924 0.146794
Si Si5 0.479782 0.213787 0.598072
Si Si6 0.370850 0.201274 0.839455
O O1 0.361502 0.256389 0.153364
O O2 0.472929 0.269129 0.252614
O O3 0.413112 0.000000 0.122467
O O4 0.396491 0.280287 0.984708
O O5 0.744255 0.500000 0.340043
O O6 0.804011 0.773076 0.474049
O O7 0.793365 0.699069 0.252653
O O8 0.698767 0.795983 0.237854
O O9 0.865794 0.500000 0.586758
O O10 0.884316 0.776235 0.733212
O O11 0.916279 0.769212 0.558623
O O12 0.299956 0.500000 0.169685
O O13 0.250000 0.250000 0.000000
O O14 0.500000 0.272724 0.500000
O O15 0.479494 0.000000 0.595800
O O16 0.390852 0.000000 0.860436
#
# Coordination Sequence:
#
# PCOD9193541 Si02
#       6
#     8   8   8   8   8   8
#     4  10  20  34  56  84 113 147 186 231 283 331
#     4  11  21  35  57  82 112 150 190 232 281 333
#     4   9  19  34  54  82 113 149 193 235 276 327
#     4  12  23  36  56  82 113 145 182 228 279 333
#     4   9  17  32  55  81 110 146 190 237 278 325
#     4  10  20  34  53  81 116 148 187 237 282 332
#
# _framework density 22.783348
#
# number of rings (size 3 to 8) (size 9 to 14) (size 15 to 20)
#    0.000    1.833    1.667    3.500    0.000    3.333 
#    0.000    4.167    0.000    6.500    0.000    2.333 
#    0.000    0.000    0.000    0.000    0.000    0.000 
#
# Total GULP energy -134182.852043 kJ/mol
# GULP energy per Si atom -5590.952168 kJ/mol
# Density = 2.273149 g / cm^3
# Si number density = 22.783348 Si / 1000 Ang^3
#
#
#
# Elastic Constant Matrix: (Units=GPa)
#
#
# Indices 1 2 3 4 5 6 
#
# 1 72.3309 -8.2382 47.9648 0.0000 -9.5386 0.0000
# 2 -8.2382 61.0828 5.2442 0.0000 0.5823 0.0000
# 3 47.9648 5.2442 113.4080 0.0000 -6.7393 0.0000
# 4 0.0000 0.0000 0.0000 3.4935 0.0000 4.4821
# 5 -9.5386 0.5823 -6.7393 0.0000 44.5432 0.0000
# 6 0.0000 0.0000 0.0000 4.4821 0.0000 12.6223
#
#
#
# Elastic Compliance Matrix: (Units=1/GPa)
#
#
# Indices 1 2 3 4 5 6 
#
# 1 0.020292 0.003443 -0.008563 0.000000 0.003005 0.000000
# 2 0.003443 0.017026 -0.002233 0.000000 0.000177 0.000000
# 3 -0.008563 -0.002233 0.012548 0.000000 0.000094 0.000000
# 4 0.000000 0.000000 0.000000 0.525768 0.000000 -0.186696
# 5 0.003005 0.000177 0.000094 0.000000 0.023105 0.000000
# 6 0.000000 0.000000 0.000000 -0.186696 0.000000 0.145519
#
#
# Mechanical properties :
#
#
# Convention : Reuss Voigt Hill
#
# Bulk Modulus (GPa) = 28.44107 37.41814 32.92960
# Shear Modulus (GPa) = 6.48774 25.58852 16.03813
#
# Velocity S-wave (km/s) = 1.68931 3.35494 2.65607
# Velocity P-wave (km/s) = 4.03923 5.60951 4.88784
#
# Compressibility (1/GPa) = 0.03516043
#
# Stress axis : x y z
#
# Youngs Moduli (GPa) = 49.27997 58.73486 79.69245
#
# Poissons Ratio (x) = -0.20224 0.68241
# Poissons Ratio (y) = -0.16969 0.17796
# Poissons Ratio (z) = 0.42199 0.13116
#
# Static dielectric constant tensor:
#      x y z
#    x 1.807610 0.000000 -0.019900 
#    y 0.000000 1.870930 0.000000 
#    z -0.019900 0.000000 1.843650 
# 
# From -- ./inp_files/172050.got.cif
#   From: 2010.05.17/outbox.cif.g08.bks.cpg/sg12_87_cif.got.tgz:172050.got - 2010.06.03 13:09:07.
