data_PCOD9193709
_publ_section_title
;
Structure prediction by ZEFSAII (Michael W. Deem and Ramdas Pophale) SiO2 
 PCOD9193709
Probable space group: C 2/M
;
_chemical_formula_sum "Si O2"
_cell_formula_units_Z 56
_cell_length_a 16.128165
_cell_length_b 9.516184
_cell_length_c 20.187884
_cell_angle_alpha 90.000000
_cell_angle_beta 100.609064
_cell_angle_gamma 90.000000
_cell_volume 3045.444433
_symmetry_space_group_name_H-M "C 2/M"
_symmetry_group_IT_number 12
_symmetry_cell_setting 'monoclinic'
loop_
_space_group_symop_operation_xyz
x,y,z
-x,y,-z
-x,-y,-z
x,-y,z
1/2+x,1/2+y,z
1/2-x,1/2+y,-z
1/2-x,1/2-y,-z
1/2+x,1/2-y,z
loop_
_atom_site_type_symbol
_atom_site_label
_atom_site_fract_x
_atom_site_fract_y
_atom_site_fract_z
Si Si1 0.989028 0.167780 0.420562
Si Si2 0.196258 0.168399 0.661614
Si Si3 0.120881 0.668705 0.348508
Si Si4 0.167679 0.334777 0.788987
Si Si5 0.025282 0.663511 0.202908
Si Si6 0.545118 0.337796 0.072886
Si Si7 0.758745 0.838283 0.934958
O O1 0.893610 0.205204 0.384412
O O2 0.000000 0.195629 0.500000
O O3 0.058938 0.250723 0.388885
O O4 0.999471 0.000000 0.411155
O O5 0.279836 0.203058 0.631440
O O6 0.200886 0.246486 0.732448
O O7 0.197709 0.000000 0.672074
O O8 0.109886 0.500000 0.354759
O O9 0.092113 0.704361 0.269123
O O10 0.190310 0.500000 0.785113
O O11 0.203894 0.285552 0.864939
O O12 0.066751 0.323820 0.777614
O O13 0.038895 0.500000 0.187934
O O14 0.027713 0.753204 0.136828
O O15 0.517022 0.500000 0.077218
O O16 0.644539 0.336699 0.073697
O O17 0.500000 0.281273 0.000000
O O18 0.733454 0.000000 0.944263
O O19 0.750000 0.750000 0.000000
#
# Coordination Sequence:
#
# PCOD9193709 Si02
#       7
#     8   8   8   8   8   8   8
#     4  10  22  40  60  86 120 153 189 235 286 343
#     4  10  21  37  59  86 115 150 192 235 282 339
#     4  10  21  38  59  86 117 149 191 237 282 339
#     4  10  20  35  55  80 110 144 186 236 284 334
#     4  10  20  34  54  79 107 140 181 231 281 331
#     4  10  21  35  50  73 105 140 181 228 278 334
#     4  10  21  35  51  74 104 140 183 230 281 337
#
# _framework density 18.388120000000001
#
# number of rings (size 3 to 8) (size 9 to 14) (size 15 to 20)
#    0.000    2.000    1.429    1.714    0.000    4.000 
#    0.000    0.000    0.000    0.000    0.000    0.000 
#    0.000    0.000    0.000    0.000    0.000    0.000 
#
# Total GULP energy -156294.952711 kJ/mol
# GULP energy per Si atom -5581.962597 kJ/mol
# Density = 1.834627 g / cm^3
# Si number density = 18.388120 Si / 1000 Ang^3
#
#
#
# Elastic Constant Matrix: (Units=GPa)
#
#
# Indices 1 2 3 4 5 6 
#
# 1 112.0278 42.5827 63.5256 0.0000 -2.8512 0.0000
# 2 42.5827 43.6684 57.6426 0.0000 -10.4954 0.0000
# 3 63.5256 57.6426 122.0291 0.0000 -5.7015 0.0000
# 4 0.0000 0.0000 0.0000 32.0138 0.0000 0.2674
# 5 -2.8512 -10.4954 -5.7015 0.0000 24.4196 0.0000
# 6 0.0000 0.0000 0.0000 0.2674 0.0000 -11.6036
#
#
#
# Elastic Compliance Matrix: (Units=1/GPa)
#
#
# Indices 1 2 3 4 5 6 
#
# 1 0.014809 -0.013419 -0.001576 0.000000 -0.004406 0.000000
# 2 -0.013419 0.084001 -0.031423 0.000000 0.027200 0.000000
# 3 -0.001576 -0.031423 0.023475 0.000000 -0.008209 0.000000
# 4 0.000000 0.000000 0.000000 0.031231 0.000000 0.000720
# 5 -0.004406 0.027200 -0.008209 0.000000 0.050210 0.000000
# 6 0.000000 0.000000 0.000000 0.000720 0.000000 -0.086163
#
#
# Mechanical properties :
#
#
# Convention : Reuss Voigt Hill
#
# Bulk Modulus (GPa) = 33.95761 67.24746 50.60254
# Shear Modulus (GPa) = 22.70515 16.56423 19.63469
#
# Velocity S-wave (km/s) = 3.51775 3.00461 3.27125
# Velocity P-wave (km/s) = 5.91664 6.97764 6.46893
#
# Compressibility (1/GPa) = 0.02944848
#
# Stress axis : x y z
#
# Youngs Moduli (GPa) = 67.52806 11.90463 42.59833
#
# Poissons Ratio (x) = 0.15974 0.06715
# Poissons Ratio (y) = 0.90614 1.33857
# Poissons Ratio (z) = 0.10645 0.37408
#
# Static dielectric constant tensor:
#      x y z
#    x 1.647870 0.000000 0.030060 
#    y 0.000000 1.626220 0.000000 
#    z 0.030060 0.000000 1.604310 
# 
# From -- ./inp_files/308965.got.cif
#   From: 2010.05.17/outbox.cif.g08.bks.cpg/sg12_155_cif.got.tgz:308965.got - 2010.06.03 13:09:07.
