data_PCOD9193626
_publ_section_title
;
Structure prediction by ZEFSAII (Michael W. Deem and Ramdas Pophale) SiO2 
 PCOD9193626
Probable space group: C 2/M
;
_chemical_formula_sum "Si O2"
_cell_formula_units_Z 40
_cell_length_a 14.468973
_cell_length_b 27.005187
_cell_length_c 14.920683
_cell_angle_alpha 90.000000
_cell_angle_beta 159.754170
_cell_angle_gamma 90.000000
_cell_volume 2017.487786
_symmetry_space_group_name_H-M "C 2/M"
_symmetry_group_IT_number 12
_symmetry_cell_setting 'monoclinic'
loop_
_space_group_symop_operation_xyz
x,y,z
-x,y,-z
-x,-y,-z
x,-y,z
1/2+x,1/2+y,z
1/2-x,1/2+y,-z
1/2-x,1/2-y,-z
1/2+x,1/2-y,z
loop_
_atom_site_type_symbol
_atom_site_label
_atom_site_fract_x
_atom_site_fract_y
_atom_site_fract_z
Si Si1 0.177568 0.732477 0.581985
Si Si2 0.788739 0.941631 0.227802
Si Si3 0.707579 0.619452 0.265426
Si Si4 0.510529 0.193869 0.776428
Si Si5 0.986240 0.873463 0.721857
O O1 0.277410 0.679373 0.708845
O O2 0.415422 0.767243 0.764602
O O3 0.005546 0.720043 0.335912
O O4 0.000000 0.755082 0.500000
O O5 0.885883 0.910916 0.231423
O O6 0.000000 0.935842 0.500000
O O7 0.769461 0.000000 0.188221
O O8 0.500000 0.924735 0.000000
O O9 0.610920 0.601435 0.274273
O O10 0.000000 0.603346 0.500000
O O11 0.500000 0.606986 0.000000
O O12 0.273963 0.153231 0.555635
O O13 0.789790 0.167674 0.050038
#
# Coordination Sequence:
#
# PCOD9193626 Si02
#       5
#     8   8   8   8   8
#     4   9  19  34  49  71 108 147 183 220 262 309
#     4  10  22  40  61  84 110 142 178 217 273 340
#     4  10  20  34  54  77 103 142 183 215 259 317
#     4  10  22  33  51  78 105 141 183 222 265 314
#     4  11  21  37  56  79 109 138 177 230 271 313
#
# _framework density 19.826637000000002
#
# number of rings (size 3 to 8) (size 9 to 14) (size 15 to 20)
#    0.000    2.000    0.000    4.800    0.000   12.800 
#    0.000    0.000    0.000    1.200    0.000    0.000 
#    0.000    0.800    0.000    0.000    0.000    0.000 
#
# Total GULP energy -111812.413266 kJ/mol
# GULP energy per Si atom -5590.620663 kJ/mol
# Density = 1.978151 g / cm^3
# Si number density = 19.826637 Si / 1000 Ang^3
#
#
#
# Elastic Constant Matrix: (Units=GPa)
#
#
# Indices 1 2 3 4 5 6 
#
# 1 186.4003 53.1460 36.6200 0.0229 25.9909 0.0452
# 2 53.1460 27.8189 19.1510 0.0122 5.2060 0.0138
# 3 36.6200 19.1510 92.7993 0.0554 23.7134 0.1224
# 4 0.0229 0.0122 0.0554 -16.6780 0.0266 25.3261
# 5 25.9909 5.2060 23.7134 0.0266 19.8171 0.0539
# 6 0.0452 0.0138 0.1224 25.3261 0.0539 49.2586
#
#
#
# Elastic Compliance Matrix: (Units=1/GPa)
#
#
# Indices 1 2 3 4 5 6 
#
# 1 0.015113 -0.028637 0.004449 -0.000006 -0.017622 0.000005
# 2 -0.028637 0.096175 -0.016837 0.000020 0.032439 -0.000005
# 3 0.004449 -0.016837 0.018518 -0.000007 -0.023571 -0.000016
# 4 -0.000006 0.000020 -0.000007 -0.033671 0.000008 0.017312
# 5 -0.017622 0.032439 -0.023571 0.000008 0.093256 -0.000041
# 6 0.000005 -0.000005 -0.000016 0.017312 -0.000041 0.011400
#
#
# Mechanical properties :
#
#
# Convention : Reuss Voigt Hill
#
# Bulk Modulus (GPa) = 20.93929 58.31694 39.62812
# Shear Modulus (GPa) = 16.73590 23.68630 20.21110
#
# Velocity S-wave (km/s) = 2.90851 3.46015 3.19625
# Velocity P-wave (km/s) = 4.67583 6.74098 5.80104
#
# Compressibility (1/GPa) = 0.04775711
#
# Stress axis : x y z
#
# Youngs Moduli (GPa) = 66.16978 10.39774 54.00123
#
# Poissons Ratio (x) = 0.29776 -0.24025
# Poissons Ratio (y) = 1.89488 0.90919
# Poissons Ratio (z) = -0.29439 0.17506
#
# Static dielectric constant tensor:
#      x y z
#    x 1.713290 0.000000 0.012190 
#    y 0.000000 1.682650 0.000000 
#    z 0.012190 0.000000 1.700950 
# 
# From -- ./inp_files/12246.got.cif
#   From: 2010.05.17/outbox.cif.g08.bks.cpg/sg12_7_cif.got.tgz:12246.got - 2010.06.03 13:09:07.
