data_PCOD9193331
_publ_section_title
;
Structure prediction by ZEFSAII (Michael W. Deem and Ramdas Pophale) SiO2 
 PCOD9193331
Probable space group: C 2/M
;
_chemical_formula_sum "Si O2"
_cell_formula_units_Z 48
_cell_length_a 31.798563
_cell_length_b 9.010265
_cell_length_c 18.468948
_cell_angle_alpha 90.000000
_cell_angle_beta 30.378428
_cell_angle_gamma 90.000000
_cell_volume 2676.010980
_symmetry_space_group_name_H-M "C 2/M"
_symmetry_group_IT_number 12
_symmetry_cell_setting 'monoclinic'
loop_
_space_group_symop_operation_xyz
x,y,z
-x,y,-z
-x,-y,-z
x,-y,z
1/2+x,1/2+y,z
1/2-x,1/2+y,-z
1/2-x,1/2-y,-z
1/2+x,1/2-y,z
loop_
_atom_site_type_symbol
_atom_site_label
_atom_site_fract_x
_atom_site_fract_y
_atom_site_fract_z
Si Si1 0.256319 0.178533 0.911525
Si Si2 0.590155 0.678371 0.399807
Si Si3 0.417698 0.678385 0.419420
Si Si4 0.671821 0.176002 0.577471
Si Si5 0.085811 0.177978 0.085820
Si Si6 0.500071 0.823189 0.082437
O O1 0.337514 0.238624 0.750383
O O2 0.258344 0.000000 0.914214
O O3 0.250000 0.250000 0.000000
O O4 0.173699 0.221533 0.989213
O O5 0.500000 0.712425 0.500000
O O6 0.602313 0.500000 0.375299
O O7 0.590832 0.717402 0.483838
O O8 0.410247 0.500000 0.424041
O O9 0.350332 0.754288 0.467453
O O10 0.509060 0.720245 0.252838
O O11 0.750000 0.250000 0.500000
O O12 0.590065 0.202873 0.748055
O O13 0.684026 0.000000 0.552830
O O14 0.066358 0.247695 0.036881
O O15 0.084432 0.000000 0.081547
O O16 0.515219 0.000000 0.059540
O O17 0.500000 0.769528 0.000000
#
# Coordination Sequence:
#
# PCOD9193331 Si02
#       6
#     8   8   8   8   8   8
#     4  11  23  38  57  83 113 144 182 225 270 323
#     4  10  21  38  59  82 110 145 183 223 271 326
#     4   9  18  35  57  77 103 141 180 219 267 320
#     4  10  20  34  53  77 106 139 177 221 267 318
#     4   9  19  36  56  78 105 139 179 221 266 318
#     4   9  19  35  54  77 105 138 177 219 263 314
#
# _framework density 17.937145999999998
#
# number of rings (size 3 to 8) (size 9 to 14) (size 15 to 20)
#    0.000    2.333    0.000    2.000    0.000    7.333 
#    0.000    8.333    0.000    0.000    0.000    0.000 
#    0.000    0.000    0.000    0.000    0.000    0.000 
#
# Total GULP energy -133979.296980 kJ/mol
# GULP energy per Si atom -5582.470707 kJ/mol
# Density = 1.789632 g / cm^3
# Si number density = 17.937146 Si / 1000 Ang^3
#
#
#
# Elastic Constant Matrix: (Units=GPa)
#
#
# Indices 1 2 3 4 5 6 
#
# 1 218.5674 74.1787 106.1169 0.0003 -0.8711 -0.0007
# 2 74.1787 38.0650 52.7566 0.0003 -3.7224 -0.0018
# 3 106.1169 52.7566 101.1306 0.0005 -2.1158 -0.0006
# 4 0.0003 0.0003 0.0005 27.6977 -0.0003 -0.0671
# 5 -0.8711 -3.7224 -2.1158 -0.0003 39.6024 0.0003
# 6 -0.0007 -0.0018 -0.0006 -0.0671 0.0003 35.3543
#
#
#
# Elastic Compliance Matrix: (Units=1/GPa)
#
#
# Indices 1 2 3 4 5 6 
#
# 1 0.013757 -0.025086 -0.001393 0.000000 -0.002130 -0.000001
# 2 -0.025086 0.142176 -0.047630 -0.000001 0.010267 0.000006
# 3 -0.001393 -0.047630 0.036144 0.000000 -0.002577 -0.000002
# 4 0.000000 -0.000001 0.000000 0.036104 0.000000 0.000069
# 5 -0.002130 0.010267 -0.002577 0.000000 0.026032 0.000000
# 6 -0.000001 0.000006 -0.000002 0.000069 0.000000 0.028285
#
#
# Mechanical properties :
#
#
# Convention : Reuss Voigt Hill
#
# Bulk Modulus (GPa) = 22.80177 91.54081 57.17129
# Shear Modulus (GPa) = 11.22746 28.84495 20.03621
#
# Velocity S-wave (km/s) = 2.50458 4.01448 3.34582
# Velocity P-wave (km/s) = 4.59386 8.52250 6.84604
#
# Compressibility (1/GPa) = 0.04385624
#
# Stress axis : x y z
#
# Youngs Moduli (GPa) = 72.68932 7.03355 27.66746
#
# Poissons Ratio (x) = 0.17645 0.03855
# Poissons Ratio (y) = 1.82351 1.31781
# Poissons Ratio (z) = 0.10127 0.33501
#
# Static dielectric constant tensor:
#      x y z
#    x 1.589890 0.000000 0.004040 
#    y 0.000000 1.601620 0.000000 
#    z 0.004040 0.000000 1.595070 
# 
# From -- ./inp_files/274044.got.cif
#   From: 2010.05.17/outbox.cif.g08.bks.cpg/sg12_138_cif.got.tgz:274044.got - 2010.06.03 13:09:07.
