data_PCOD9193282
_publ_section_title
;
Structure prediction by ZEFSAII (Michael W. Deem and Ramdas Pophale) SiO2 
 PCOD9193282
Probable space group: C 2/M
;
_chemical_formula_sum "Si O2"
_cell_formula_units_Z 56
_cell_length_a 15.476227
_cell_length_b 7.902038
_cell_length_c 22.688036
_cell_angle_alpha 90.000000
_cell_angle_beta 127.787785
_cell_angle_gamma 90.000000
_cell_volume 2192.730260
_symmetry_space_group_name_H-M "C 2/M"
_symmetry_group_IT_number 12
_symmetry_cell_setting 'monoclinic'
loop_
_space_group_symop_operation_xyz
x,y,z
-x,y,-z
-x,-y,-z
x,-y,z
1/2+x,1/2+y,z
1/2-x,1/2+y,-z
1/2-x,1/2-y,-z
1/2+x,1/2-y,z
loop_
_atom_site_type_symbol
_atom_site_label
_atom_site_fract_x
_atom_site_fract_y
_atom_site_fract_z
Si Si1 0.831769 0.297144 0.170970
Si Si2 0.370119 0.805724 0.319458
Si Si3 0.416446 0.693914 0.534842
Si Si4 0.197470 0.292939 0.394172
Si Si5 0.623872 0.699507 0.938786
Si Si6 0.858462 0.309105 0.752518
Si Si7 0.590289 0.305042 0.099382
O O1 0.824286 0.500000 0.162933
O O2 0.887765 0.262132 0.257456
O O3 0.893484 0.238847 0.137950
O O4 0.704682 0.231124 0.121843
O O5 0.474356 0.792551 0.404596
O O6 0.273366 0.685455 0.299154
O O7 0.330958 0.000000 0.303800
O O8 0.444144 0.500000 0.534237
O O9 0.326103 0.753311 0.450116
O O10 0.353288 0.706665 0.570394
O O11 0.191107 0.500000 0.396527
O O12 0.129174 0.243741 0.308180
O O13 0.617376 0.500000 0.944016
O O14 0.534418 0.769073 0.949409
O O15 0.750000 0.750000 0.000000
O O16 0.902722 0.500000 0.777333
O O17 0.890081 0.200076 0.821720
O O18 0.587565 0.500000 0.078527
#
# Coordination Sequence:
#
# PCOD9193282 Si02
#       7
#     8   8   8   8   8   8   8
#     4   9  20  40  62  84 117 157 194 237 292 346
#     4  10  21  37  56  80 113 148 187 234 290 346
#     4  10  20  34  53  76 107 147 192 238 285 344
#     4   9  20  36  51  75 110 147 187 237 295 342
#     4  11  24  41  63  92 123 154 195 236 284 349
#     4  10  20  35  57  82 109 144 190 237 285 342
#     4   9  21  41  61  86 121 159 194 238 294 350
#
# _framework density 25.538936
#
# number of rings (size 3 to 8) (size 9 to 14) (size 15 to 20)
#    0.000    2.286    0.000    2.571    2.000    6.857 
#    0.000    5.714    0.000    0.000    0.000    0.000 
#    0.000    0.000    0.000    0.000    0.000    0.000 
#
# Total GULP energy -156336.182341 kJ/mol
# GULP energy per Si atom -5583.435084 kJ/mol
# Density = 2.548081 g / cm^3
# Si number density = 25.538936 Si / 1000 Ang^3
#
#
#
# Elastic Constant Matrix: (Units=GPa)
#
#
# Indices 1 2 3 4 5 6 
#
# 1 150.9849 10.3383 -4.9702 0.0000 1.6498 0.0000
# 2 10.3383 38.4497 6.6186 0.0000 2.8881 0.0000
# 3 -4.9702 6.6186 61.0543 0.0000 1.4141 0.0000
# 4 0.0000 0.0000 0.0000 20.6690 0.0000 9.4115
# 5 1.6498 2.8881 1.4141 0.0000 46.4338 0.0000
# 6 0.0000 0.0000 0.0000 9.4115 0.0000 16.5040
#
#
#
# Elastic Compliance Matrix: (Units=1/GPa)
#
#
# Indices 1 2 3 4 5 6 
#
# 1 0.006783 -0.001945 0.000766 0.000000 -0.000143 0.000000
# 2 -0.001945 0.027174 -0.003069 0.000000 -0.001528 0.000000
# 3 0.000766 -0.003069 0.016782 0.000000 -0.000347 0.000000
# 4 0.000000 0.000000 0.000000 0.065351 0.000000 -0.037266
# 5 -0.000143 -0.001528 -0.000347 0.000000 0.021647 0.000000
# 6 0.000000 0.000000 0.000000 -0.037266 0.000000 0.081842
#
#
# Mechanical properties :
#
#
# Convention : Reuss Voigt Hill
#
# Bulk Modulus (GPa) = 23.67181 30.49579 27.08380
# Shear Modulus (GPa) = 20.64794 32.62153 26.63474
#
# Velocity S-wave (km/s) = 2.84648 3.57785 3.23291
# Velocity P-wave (km/s) = 4.48244 5.38839 4.95616
#
# Compressibility (1/GPa) = 0.04224434
#
# Stress axis : x y z
#
# Youngs Moduli (GPa) = 147.42408 36.79996 59.58781
#
# Poissons Ratio (x) = 0.07158 -0.04567
# Poissons Ratio (y) = 0.28674 0.18286
# Poissons Ratio (z) = -0.11298 0.11293
#
# Static dielectric constant tensor:
#      x y z
#    x 2.104520 0.000000 0.033590 
#    y 0.000000 1.937510 0.000000 
#    z 0.033590 0.000000 2.131510 
# 
# From -- ./inp_files/342564.got.cif
#   From: 2010.05.17/outbox.cif.g08.bks.cpg/sg12_172_cif.got.tgz:342564.got - 2010.06.03 13:09:07.
