data_PCOD9193197
_publ_section_title
;
Structure prediction by ZEFSAII (Michael W. Deem and Ramdas Pophale) SiO2 
 PCOD9193197
Probable space group: C 2/M
;
_chemical_formula_sum "Si O2"
_cell_formula_units_Z 64
_cell_length_a 16.200716
_cell_length_b 9.454208
_cell_length_c 20.757208
_cell_angle_alpha 90.000000
_cell_angle_beta 113.469340
_cell_angle_gamma 90.000000
_cell_volume 2916.265507
_symmetry_space_group_name_H-M "C 2/M"
_symmetry_group_IT_number 12
_symmetry_cell_setting 'monoclinic'
loop_
_space_group_symop_operation_xyz
x,y,z
-x,y,-z
-x,-y,-z
x,-y,z
1/2+x,1/2+y,z
1/2-x,1/2+y,-z
1/2-x,1/2-y,-z
1/2+x,1/2-y,z
loop_
_atom_site_type_symbol
_atom_site_label
_atom_site_fract_x
_atom_site_fract_y
_atom_site_fract_z
Si Si1 0.607146 0.167330 0.532969
Si Si2 0.898093 0.664666 0.790416
Si Si3 0.170971 0.838138 0.827144
Si Si4 0.383949 0.834358 0.924170
Si Si5 0.154689 0.167899 0.967376
Si Si6 0.756266 0.162550 0.670443
Si Si7 0.891003 0.836382 0.590385
Si Si8 0.534274 0.836006 0.712590
O O1 0.500000 0.185829 0.500000
O O2 0.658325 0.207860 0.614637
O O3 0.641392 0.258530 0.483805
O O4 0.625864 0.000000 0.528922
O O5 0.874265 0.500000 0.790224
O O6 0.928911 0.711400 0.870964
O O7 0.810525 0.746221 0.738346
O O8 0.972872 0.673279 0.758309
O O9 0.277283 0.823448 0.873057
O O10 0.126342 0.816996 0.884085
O O11 0.128474 0.731093 0.763137
O O12 0.152814 0.000000 0.801357
O O13 0.401854 0.000000 0.944033
O O14 0.400333 0.740403 0.992085
O O15 0.166311 0.000000 0.982830
O O16 0.250000 0.250000 0.000000
O O17 0.817477 0.168709 0.624465
O O18 0.752612 0.000000 0.690995
O O19 0.978323 0.753701 0.643768
O O20 0.911458 0.000000 0.583678
O O21 0.541189 0.000000 0.695323
#
# Coordination Sequence:
#
# PCOD9193197 Si02
#       8
#     8   8   8   8   8   8   8   8
#     4  10  21  36  53  77 108 133 159 203 251 293
#     4   9  19  35  53  74 100 131 168 209 250 292
#     4   9  18  32  50  73 101 131 165 208 253 297
#     4   9  18  33  52  74 101 132 168 210 251 294
#     4   9  17  30  49  73 100 132 169 207 249 297
#     4   9  19  35  54  75  99 132 170 204 243 293
#     4  10  20  35  55  75  98 132 171 206 242 292
#     4  10  20  34  53  75 100 132 168 206 250 298
#
# _framework density 21.945875000000001
#
# number of rings (size 3 to 8) (size 9 to 14) (size 15 to 20)
#    0.000    2.625    0.000    2.250    0.000    5.750 
#    0.000    3.125    0.000    3.750    0.000    0.000 
#    0.000    0.000    0.000    0.000    0.000    0.000 
#
# Total GULP energy -178785.712018 kJ/mol
# GULP energy per Si atom -5587.053501 kJ/mol
# Density = 2.189593 g / cm^3
# Si number density = 21.945875 Si / 1000 Ang^3
#
#
#
# Elastic Constant Matrix: (Units=GPa)
#
#
# Indices 1 2 3 4 5 6 
#
# 1 67.8730 20.4046 16.7750 0.0000 8.0305 0.0000
# 2 20.4046 72.3256 52.0069 0.0000 8.2518 0.0000
# 3 16.7750 52.0069 98.7596 0.0000 9.4819 0.0000
# 4 0.0000 0.0000 0.0000 37.6802 0.0000 -4.0066
# 5 8.0305 8.2518 9.4819 0.0000 44.5719 0.0000
# 6 0.0000 0.0000 0.0000 -4.0066 0.0000 7.4348
#
#
#
# Elastic Compliance Matrix: (Units=1/GPa)
#
#
# Indices 1 2 3 4 5 6 
#
# 1 0.016306 -0.004047 -0.000438 0.000000 -0.002096 0.000000
# 2 -0.004047 0.023378 -0.011513 0.000000 -0.001150 0.000000
# 3 -0.000438 -0.011513 0.016385 0.000000 -0.001275 0.000000
# 4 0.000000 0.000000 0.000000 0.028152 0.000000 0.015171
# 5 -0.002096 -0.001150 -0.001275 0.000000 0.023297 0.000000
# 6 0.000000 0.000000 0.000000 0.015171 0.000000 0.142677
#
#
# Mechanical properties :
#
#
# Convention : Reuss Voigt Hill
#
# Bulk Modulus (GPa) = 41.53748 46.37012 43.95380
# Shear Modulus (GPa) = 17.22860 27.92218 22.57539
#
# Velocity S-wave (km/s) = 2.80491 3.57083 3.21079
# Velocity P-wave (km/s) = 5.42756 6.17870 5.81527
#
# Compressibility (1/GPa) = 0.02407464
#
# Stress axis : x y z
#
# Youngs Moduli (GPa) = 61.32712 42.77567 61.03088
#
# Poissons Ratio (x) = 0.17309 0.02671
# Poissons Ratio (y) = 0.24816 0.70265
# Poissons Ratio (z) = 0.02684 0.49248
#
# Static dielectric constant tensor:
#      x y z
#    x 1.898730 0.000000 -0.038510 
#    y 0.000000 1.735110 0.000000 
#    z -0.038510 0.000000 1.780310 
# 
# From -- ./inp_files/320072.got.cif
#   From: 2010.05.17/outbox.cif.g08.bks.cpg/sg12_161_cif.got.tgz:320072.got - 2010.06.03 13:09:07.
