data_PCOD9193170
_publ_section_title
;
Structure prediction by ZEFSAII (Michael W. Deem and Ramdas Pophale) SiO2 
 PCOD9193170
Probable space group: C 2/M
;
_chemical_formula_sum "Si O2"
_cell_formula_units_Z 44
_cell_length_a 14.136096
_cell_length_b 7.245730
_cell_length_c 16.672300
_cell_angle_alpha 90.000000
_cell_angle_beta 69.736353
_cell_angle_gamma 90.000000
_cell_volume 1601.992177
_symmetry_space_group_name_H-M "C 2/M"
_symmetry_group_IT_number 12
_symmetry_cell_setting 'monoclinic'
loop_
_space_group_symop_operation_xyz
x,y,z
-x,y,-z
-x,-y,-z
x,-y,z
1/2+x,1/2+y,z
1/2-x,1/2+y,-z
1/2-x,1/2-y,-z
1/2+x,1/2-y,z
loop_
_atom_site_type_symbol
_atom_site_label
_atom_site_fract_x
_atom_site_fract_y
_atom_site_fract_z
Si Si1 0.229938 0.222880 0.752688
Si Si2 0.462594 0.220537 0.389582
Si Si3 0.246537 0.500000 0.874484
Si Si4 0.661563 0.221968 0.434025
Si Si5 0.391624 0.282086 0.986478
Si Si6 0.006117 0.783803 0.805703
O O1 0.291151 0.339789 0.798521
O O2 0.252357 0.277990 0.653699
O O3 0.115372 0.284085 0.803508
O O4 0.241534 0.000000 0.756235
O O5 0.561033 0.269325 0.412435
O O6 0.364469 0.289596 0.468434
O O7 0.483959 0.269725 0.292306
O O8 0.456413 0.000000 0.392576
O O9 0.809599 0.661402 0.055178
O O10 0.668079 0.000000 0.436471
O O11 0.361915 0.500000 0.991610
O O12 0.419565 0.210918 0.889080
O O13 0.500000 0.272955 0.000000
O O14 0.004331 0.000000 0.824871
#
# Coordination Sequence:
#
# PCOD9193170 Si02
#       6
#     8   8   4   8   8   8
#     4  10  21  36  55  82 121 148 182 233 288 332
#     4   9  18  34  62  82 106 146 198 227 274 342
#     4  12  21  32  58  89 106 150 196 228 279 343
#     4   8  17  38  57  81 111 152 184 231 284 336
#     4  10  20  34  52  80 117 148 184 233 282 331
#     4  10  21  34  51  85 114 147 179 231 288 329
#
# _framework density 27.465803999999999
#
# number of rings (size 3 to 8) (size 9 to 14) (size 15 to 20)
#    0.000    2.364    1.818    1.909    2.545    0.727 
#    3.273    0.909    0.000    1.091    0.000    0.000 
#    0.000    0.000    0.000    0.000    0.000    0.000 
#
# Total GULP energy -122613.878034 kJ/mol
# GULP energy per Si atom -5573.358092 kJ/mol
# Density = 2.740329 g / cm^3
# Si number density = 27.465804 Si / 1000 Ang^3
#
#
#
# Elastic Constant Matrix: (Units=GPa)
#
#
# Indices 1 2 3 4 5 6 
#
# 1 61.6959 11.9618 53.3417 0.0000 3.5374 0.0000
# 2 11.9618 165.8575 44.5397 0.0000 -11.8255 0.0000
# 3 53.3417 44.5397 288.6394 0.0000 -16.0245 0.0000
# 4 0.0000 0.0000 0.0000 30.0072 0.0000 4.0730
# 5 3.5374 -11.8255 -16.0245 0.0000 37.7651 0.0000
# 6 0.0000 0.0000 0.0000 4.0730 0.0000 -11.5970
#
#
#
# Elastic Compliance Matrix: (Units=1/GPa)
#
#
# Indices 1 2 3 4 5 6 
#
# 1 0.019799 -0.000680 -0.003757 0.000000 -0.003662 0.000000
# 2 -0.000680 0.006409 -0.000766 0.000000 0.001745 0.000000
# 3 -0.003757 -0.000766 0.004387 0.000000 0.001973 0.000000
# 4 0.000000 0.000000 0.000000 0.031809 0.000000 0.011172
# 5 -0.003662 0.001745 0.001973 0.000000 0.028206 0.000000
# 6 0.000000 0.000000 0.000000 0.011172 0.000000 -0.082305
#
#
# Mechanical properties :
#
#
# Convention : Reuss Voigt Hill
#
# Bulk Modulus (GPa) = 49.53718 81.76435 65.65077
# Shear Modulus (GPa) = 196.54035 38.32502 117.43268
#
# Velocity S-wave (km/s) = 8.46839 3.73952 6.54590
# Velocity P-wave (km/s) = 10.66270 6.96272 9.00479
#
# Compressibility (1/GPa) = 0.02018686
#
# Stress axis : x y z
#
# Youngs Moduli (GPa) = 50.50803 156.04173 227.96212
#
# Poissons Ratio (x) = 0.10611 0.85651
# Poissons Ratio (y) = 0.03435 0.17470
# Poissons Ratio (z) = 0.18977 0.11958
#
# Static dielectric constant tensor:
#      x y z
#    x 2.349450 0.000000 0.079760 
#    y 0.000000 2.064430 0.000000 
#    z 0.079760 0.000000 2.216160 
# 
# From -- ./inp_files/279801.got.cif
#   From: 2010.05.17/outbox.cif.g08.bks.cpg/sg12_140_cif.got.tgz:279801.got - 2010.06.03 13:09:07.
