data_PCOD9193823
_publ_section_title
;
Structure prediction by ZEFSAII (Michael W. Deem and Ramdas Pophale) SiO2 
 PCOD9193823
Probable space group: C 2/M
;
_chemical_formula_sum "Si O2"
_cell_formula_units_Z 64
_cell_length_a 33.234528
_cell_length_b 8.768720
_cell_length_c 20.548108
_cell_angle_alpha 90.000000
_cell_angle_beta 34.051413
_cell_angle_gamma 90.000000
_cell_volume 3353.022052
_symmetry_space_group_name_H-M "C 2/M"
_symmetry_group_IT_number 12
_symmetry_cell_setting 'monoclinic'
loop_
_space_group_symop_operation_xyz
x,y,z
-x,y,-z
-x,-y,-z
x,-y,z
1/2+x,1/2+y,z
1/2-x,1/2+y,-z
1/2-x,1/2-y,-z
1/2+x,1/2-y,z
loop_
_atom_site_type_symbol
_atom_site_label
_atom_site_fract_x
_atom_site_fract_y
_atom_site_fract_z
Si Si1 0.170280 0.682868 0.417933
Si Si2 0.144394 0.316570 0.170583
Si Si3 0.510134 0.183200 0.651736
Si Si4 0.448280 0.315626 0.010024
Si Si5 0.697068 0.819527 0.832838
Si Si6 0.690410 0.318650 0.532839
Si Si7 0.714276 0.681353 0.947601
Si Si8 0.975607 0.818679 0.225375
O O1 0.173259 0.500000 0.408937
O O2 0.087295 0.735053 0.521114
O O3 0.227038 0.754536 0.292968
O O4 0.192093 0.735930 0.461041
O O5 0.147895 0.500000 0.155706
O O6 0.201815 0.282511 0.149991
O O7 0.061477 0.272723 0.291399
O O8 0.172345 0.234990 0.067962
O O9 0.502937 0.240318 0.735706
O O10 0.512982 0.000000 0.649613
O O11 0.444345 0.500000 0.015479
O O12 0.368404 0.249750 0.120982
O O13 0.500000 0.269546 0.000000
O O14 0.482610 0.266975 0.894882
O O15 0.687161 0.766018 0.920327
O O16 0.696262 0.000000 0.828987
O O17 0.700814 0.500000 0.510352
O O18 0.750000 0.250000 0.500000
O O19 0.609903 0.295014 0.668408
O O20 0.706275 0.500000 0.949565
O O21 0.987859 0.000000 0.216410
#
# Coordination Sequence:
#
# PCOD9193823 Si02
#       8
#     8   8   8   8   8   8   8   8
#     4  10  21  38  58  79 106 146 190 232 284 340
#     4   9  18  34  58  88 119 145 183 236 281 328
#     4   9  18  34  57  83 108 141 182 231 282 327
#     4  10  22  39  59  82 109 146 186 227 277 336
#     4  12  25  40  57  80 114 151 188 233 281 336
#     4  10  20  34  54  81 109 141 182 229 278 327
#     4  10  20  35  57  86 117 154 189 223 278 339
#     4   9  19  34  52  78 109 141 179 221 270 328
#
# _framework density 19.087260000000001
#
# number of rings (size 3 to 8) (size 9 to 14) (size 15 to 20)
#    0.000    2.125    0.000    3.000    1.750    4.750 
#    0.000    0.625    0.000    3.750    0.000    0.000 
#    0.000    0.000    0.000    0.000    0.000    0.000 
#
# Total GULP energy -178669.571209 kJ/mol
# GULP energy per Si atom -5583.424100 kJ/mol
# Density = 1.904382 g / cm^3
# Si number density = 19.087260 Si / 1000 Ang^3
#
#
#
# Elastic Constant Matrix: (Units=GPa)
#
#
# Indices 1 2 3 4 5 6 
#
# 1 86.2726 25.6121 20.2331 -0.0005 -28.6254 -0.0007
# 2 25.6121 37.2336 18.0447 0.0012 -7.8250 0.0009
# 3 20.2331 18.0447 55.9323 -0.0088 -6.4326 0.0021
# 4 -0.0005 0.0012 -0.0088 25.0763 0.0045 2.1542
# 5 -28.6254 -7.8250 -6.4326 0.0045 24.6954 -0.0011
# 6 -0.0007 0.0009 0.0021 2.1542 -0.0011 19.8903
#
#
#
# Elastic Compliance Matrix: (Units=1/GPa)
#
#
# Indices 1 2 3 4 5 6 
#
# 1 0.022396 -0.009525 -0.002464 -0.000004 0.022300 0.000003
# 2 -0.009525 0.037349 -0.008775 -0.000005 -0.001492 -0.000001
# 3 -0.002464 -0.008775 0.021600 0.000008 -0.000010 -0.000003
# 4 -0.000004 -0.000005 0.000008 0.040253 -0.000012 -0.004360
# 5 0.022300 -0.001492 -0.000010 -0.000012 0.065867 0.000006
# 6 0.000003 -0.000001 -0.000003 -0.004360 0.000006 0.050748
#
#
# Mechanical properties :
#
#
# Convention : Reuss Voigt Hill
#
# Bulk Modulus (GPa) = 25.11549 34.13536 29.62543
# Shear Modulus (GPa) = 17.06410 21.63563 19.34987
#
# Velocity S-wave (km/s) = 2.99324 3.37042 3.18741
# Velocity P-wave (km/s) = 5.01326 5.75056 5.39452
#
# Compressibility (1/GPa) = 0.03981607
#
# Stress axis : x y z
#
# Youngs Moduli (GPa) = 44.65103 26.77468 46.29631
#
# Poissons Ratio (x) = 0.25503 0.11407
# Poissons Ratio (y) = 0.42530 0.40627
# Poissons Ratio (z) = 0.11002 0.23496
#
# Static dielectric constant tensor:
#      x y z
#    x 1.660220 0.000000 -0.035420 
#    y 0.000000 1.636220 0.000000 
#    z -0.035420 0.000000 1.677450 
# 
# From -- ./inp_files/295461.got.cif
#   From: 2010.05.17/outbox.cif.g08.bks.cpg/sg12_148_cif.got.tgz:295461.got - 2010.06.03 13:09:07.
