data_PCOD9193845
_publ_section_title
;
Structure prediction by ZEFSAII (Michael W. Deem and Ramdas Pophale) SiO2 
 PCOD9193845
Probable space group: C 2/M
;
_chemical_formula_sum "Si O2"
_cell_formula_units_Z 56
_cell_length_a 22.622205
_cell_length_b 9.280624
_cell_length_c 14.835797
_cell_angle_alpha 90.000000
_cell_angle_beta 64.130231
_cell_angle_gamma 90.000000
_cell_volume 2802.613762
_symmetry_space_group_name_H-M "C 2/M"
_symmetry_group_IT_number 12
_symmetry_cell_setting 'monoclinic'
loop_
_space_group_symop_operation_xyz
x,y,z
-x,y,-z
-x,-y,-z
x,-y,z
1/2+x,1/2+y,z
1/2-x,1/2+y,-z
1/2-x,1/2-y,-z
1/2+x,1/2-y,z
loop_
_atom_site_type_symbol
_atom_site_label
_atom_site_fract_x
_atom_site_fract_y
_atom_site_fract_z
Si Si1 0.575621 0.832886 0.311552
Si Si2 0.792032 0.168944 0.247452
Si Si3 0.944993 0.834413 0.403344
Si Si4 0.701655 0.669036 0.964332
Si Si5 0.561339 0.667351 0.808853
Si Si6 0.429385 0.831900 0.902607
Si Si7 0.668803 0.671002 0.383392
O O1 0.504733 0.770670 0.386812
O O2 0.578753 0.822157 0.200974
O O3 0.630295 0.738400 0.324167
O O4 0.583229 0.000000 0.331489
O O5 0.773406 0.180566 0.154685
O O6 0.867413 0.217725 0.206072
O O7 0.739957 0.256779 0.339990
O O8 0.790470 0.000000 0.273896
O O9 0.936197 0.828987 0.301705
O O10 0.878356 0.798722 0.500079
O O11 0.963065 0.000000 0.415114
O O12 0.697473 0.500000 0.990122
O O13 0.750000 0.750000 0.000000
O O14 0.630196 0.741268 0.017179
O O15 0.551845 0.500000 0.842933
O O16 0.499648 0.762623 0.879370
O O17 0.426101 0.000000 0.929664
O O18 0.675014 0.500000 0.369465
#
# Coordination Sequence:
#
# PCOD9193845 Si02
#       7
#     8   8   8   8   8   8   8
#     4  10  20  34  54  81 111 143 181 223 268 322
#     4  10  23  40  57  79 108 143 184 226 265 318
#     4   9  19  35  55  80 109 142 181 223 268 321
#     4  11  23  39  59  84 112 142 179 221 269 324
#     4   9  19  39  61  79 106 145 184 221 266 318
#     4  10  21  37  58  84 112 142 179 224 271 320
#     4  11  22  34  52  80 112 145 181 224 273 320
#
# _framework density 19.981348000000001
#
# number of rings (size 3 to 8) (size 9 to 14) (size 15 to 20)
#    0.000    2.000    0.000    3.000    0.000   10.857 
#    0.000    2.857    0.000    0.000    0.000    0.000 
#    0.000    0.000    0.000    0.000    0.000    0.000 
#
# Total GULP energy -156500.741228 kJ/mol
# GULP energy per Si atom -5589.312187 kJ/mol
# Density = 1.993587 g / cm^3
# Si number density = 19.981348 Si / 1000 Ang^3
#
#
#
# Elastic Constant Matrix: (Units=GPa)
#
#
# Indices 1 2 3 4 5 6 
#
# 1 77.2288 27.7590 16.8936 0.0000 -26.8096 0.0000
# 2 27.7590 86.2498 50.6235 0.0000 -28.1371 0.0000
# 3 16.8936 50.6235 69.8950 0.0000 -33.1885 0.0000
# 4 0.0000 0.0000 0.0000 27.6966 0.0000 -11.2997
# 5 -26.8096 -28.1371 -33.1885 0.0000 32.8630 0.0000
# 6 0.0000 0.0000 0.0000 -11.2997 0.0000 31.4163
#
#
#
# Elastic Compliance Matrix: (Units=1/GPa)
#
#
# Indices 1 2 3 4 5 6 
#
# 1 0.019996 -0.004534 0.008365 0.000000 0.020878 0.000000
# 2 -0.004534 0.021603 -0.014457 0.000000 0.000197 0.000000
# 3 0.008365 -0.014457 0.038656 0.000000 0.033485 0.000000
# 4 0.000000 0.000000 0.000000 0.042315 0.000000 0.015220
# 5 0.020878 0.000197 0.033485 0.000000 0.081447 0.000000
# 6 0.000000 0.000000 0.000000 0.015220 0.000000 0.037305
#
#
# Mechanical properties :
#
#
# Convention : Reuss Voigt Hill
#
# Bulk Modulus (GPa) = 16.94851 47.10286 32.02569
# Shear Modulus (GPa) = 17.71517 27.60170 22.65844
#
# Velocity S-wave (km/s) = 2.98079 3.72072 3.37111
# Velocity P-wave (km/s) = 4.51081 6.48713 5.58705
#
# Compressibility (1/GPa) = 0.05900223
#
# Stress axis : x y z
#
# Youngs Moduli (GPa) = 50.00909 46.28881 25.86904
#
# Poissons Ratio (x) = 0.20988 -0.21638
# Poissons Ratio (y) = 0.22675 0.37400
# Poissons Ratio (z) = -0.41831 0.66922
#
# Static dielectric constant tensor:
#      x y z
#    x 1.699880 0.000000 0.013730 
#    y 0.000000 1.671280 0.000000 
#    z 0.013730 0.000000 1.709010 
# 
# From -- ./inp_files/281013.got.cif
#   From: 2010.05.17/outbox.cif.g08.bks.cpg/sg12_141_cif.got.tgz:281013.got - 2010.06.03 13:09:07.
