data_PCOD9193409
_publ_section_title
;
Structure prediction by ZEFSAII (Michael W. Deem and Ramdas Pophale) SiO2 
 PCOD9193409
Probable space group: C 2/M
;
_chemical_formula_sum "Si O2"
_cell_formula_units_Z 56
_cell_length_a 15.060831
_cell_length_b 7.589973
_cell_length_c 21.554860
_cell_angle_alpha 90.000000
_cell_angle_beta 119.601202
_cell_angle_gamma 90.000000
_cell_volume 2142.378743
_symmetry_space_group_name_H-M "C 2/M"
_symmetry_group_IT_number 12
_symmetry_cell_setting 'monoclinic'
loop_
_space_group_symop_operation_xyz
x,y,z
-x,y,-z
-x,-y,-z
x,-y,z
1/2+x,1/2+y,z
1/2-x,1/2+y,-z
1/2-x,1/2-y,-z
1/2+x,1/2-y,z
loop_
_atom_site_type_symbol
_atom_site_label
_atom_site_fract_x
_atom_site_fract_y
_atom_site_fract_z
Si Si1 0.369288 0.290157 0.396918
Si Si2 0.408999 0.714858 0.550166
Si Si3 0.327802 0.703213 0.971495
Si Si4 0.928871 0.793219 0.231945
Si Si5 0.711707 0.798538 0.180060
Si Si6 0.508636 0.787906 0.877538
Si Si7 0.348207 0.288727 0.658354
O O1 0.378126 0.500000 0.402195
O O2 0.471955 0.232884 0.397183
O O3 0.381192 0.221767 0.471923
O O4 0.253126 0.254147 0.338375
O O5 0.404606 0.500000 0.547408
O O6 0.340561 0.774303 0.583996
O O7 0.313248 0.500000 0.950248
O O8 0.310026 0.804913 0.901658
O O9 0.250000 0.750000 0.000000
O O10 0.438134 0.732121 0.040582
O O11 0.824897 0.717861 0.225002
O O12 0.923375 0.779259 0.155807
O O13 0.041296 0.717959 0.283560
O O14 0.930743 0.000000 0.250484
O O15 0.607040 0.717648 0.169705
O O16 0.717427 0.000000 0.204929
O O17 0.506406 0.000000 0.875097
O O18 0.354152 0.500000 0.660634
#
# Coordination Sequence:
#
# PCOD9193409 Si02
#       7
#     8   8   8   8   8   8   8
#     4   9  17  32  55  81 107 140 182 228 274 327
#     4   8  16  32  54  79 109 143 181 222 273 337
#     4  12  23  37  61  89 117 147 181 227 282 333
#     4  10  22  39  56  76 109 152 188 225 275 332
#     4  10  22  40  60  83 112 147 187 229 277 336
#     4  11  23  39  61  87 112 143 187 235 280 331
#     4  10  20  34  53  78 109 146 185 224 276 329
#
# _framework density 26.139167
#
# number of rings (size 3 to 8) (size 9 to 14) (size 15 to 20)
#    0.000    2.000    1.429    3.429    0.000    4.571 
#    0.000    5.000    0.000    0.000    0.000    0.000 
#    0.000    0.000    0.000    0.000    0.000    0.000 
#
# Total GULP energy -156590.942392 kJ/mol
# GULP energy per Si atom -5592.533657 kJ/mol
# Density = 2.607967 g / cm^3
# Si number density = 26.139167 Si / 1000 Ang^3
#
#
#
# Elastic Constant Matrix: (Units=GPa)
#
#
# Indices 1 2 3 4 5 6 
#
# 1 191.8245 -3.4153 22.4774 0.0000 26.0704 0.0000
# 2 -3.4153 83.1042 -8.9440 0.0000 2.3922 0.0000
# 3 22.4774 -8.9440 72.5475 0.0000 16.7248 0.0000
# 4 0.0000 0.0000 0.0000 9.6320 0.0000 6.0773
# 5 26.0704 2.3922 16.7248 0.0000 52.8370 0.0000
# 6 0.0000 0.0000 0.0000 6.0773 0.0000 19.5410
#
#
#
# Elastic Compliance Matrix: (Units=1/GPa)
#
#
# Indices 1 2 3 4 5 6 
#
# 1 0.005686 0.000177 -0.001177 0.000000 -0.002441 0.000000
# 2 0.000177 0.012261 0.001731 0.000000 -0.001191 0.000000
# 3 -0.001177 0.001731 0.015368 0.000000 -0.004362 0.000000
# 4 0.000000 0.000000 0.000000 0.129166 0.000000 -0.040171
# 5 -0.002441 -0.001191 -0.004362 0.000000 0.021565 0.000000
# 6 0.000000 0.000000 0.000000 -0.040171 0.000000 0.063668
#
#
# Mechanical properties :
#
#
# Convention : Reuss Voigt Hill
#
# Bulk Modulus (GPa) = 28.75442 40.85695 34.80568
# Shear Modulus (GPa) = 19.39166 38.89256 29.14211
#
# Velocity S-wave (km/s) = 2.72667 3.86152 3.34261
# Velocity P-wave (km/s) = 4.57574 5.96207 5.31430
#
# Compressibility (1/GPa) = 0.03477727
#
# Stress axis : x y z
#
# Youngs Moduli (GPa) = 175.87294 81.55971 65.07108
#
# Poissons Ratio (x) = -0.01446 0.07660
# Poissons Ratio (y) = -0.03117 -0.11265
# Poissons Ratio (z) = 0.20702 -0.14119
#
# Static dielectric constant tensor:
#      x y z
#    x 2.045540 0.000000 0.027240 
#    y 0.000000 1.971610 0.000000 
#    z 0.027240 0.000000 2.184550 
# 
# From -- ./inp_files/339098.got.cif
#   From: 2010.05.17/outbox.cif.g08.bks.cpg/sg12_170_cif.got.tgz:339098.got - 2010.06.03 13:09:07.
