data_PCOD9193666
_publ_section_title
;
Structure prediction by ZEFSAII (Michael W. Deem and Ramdas Pophale) SiO2 
 PCOD9193666
Probable space group: C 2/M
;
_chemical_formula_sum "Si O2"
_cell_formula_units_Z 44
_cell_length_a 8.321957
_cell_length_b 11.445432
_cell_length_c 25.193483
_cell_angle_alpha 90.000000
_cell_angle_beta 64.140168
_cell_angle_gamma 90.000000
_cell_volume 2159.348022
_symmetry_space_group_name_H-M "C 2/M"
_symmetry_group_IT_number 12
_symmetry_cell_setting 'monoclinic'
loop_
_space_group_symop_operation_xyz
x,y,z
-x,y,-z
-x,-y,-z
x,-y,z
1/2+x,1/2+y,z
1/2-x,1/2+y,-z
1/2-x,1/2-y,-z
1/2+x,1/2-y,z
loop_
_atom_site_type_symbol
_atom_site_label
_atom_site_fract_x
_atom_site_fract_y
_atom_site_fract_z
Si Si1 0.581070 0.626079 0.383223
Si Si2 0.663540 0.366602 0.248442
Si Si3 0.500000 0.304054 0.000000
Si Si4 0.812914 0.685319 0.544206
Si Si5 0.795457 0.126852 0.926993
Si Si6 0.118357 0.867082 0.797403
O O1 0.648273 0.500000 0.392867
O O2 0.649236 0.644768 0.313790
O O3 0.366097 0.621536 0.412256
O O4 0.641226 0.724292 0.415474
O O5 0.736182 0.500000 0.226426
O O6 0.764080 0.249829 0.213529
O O7 0.470771 0.364958 0.247998
O O8 0.643641 0.223837 0.948737
O O9 0.389140 0.370436 0.971202
O O10 0.750000 0.750000 0.500000
O O11 0.000000 0.626888 0.500000
O O12 0.951431 0.142923 0.861743
O O13 0.712348 0.000000 0.929585
O O14 0.196495 0.000000 0.794176
#
# Coordination Sequence:
#
# PCOD9193666 Si02
#       6
#     8   8   4   8   8   8
#     4  10  20  36  56  77 108 143 176 221 271 321
#     4  10  21  37  57  82 111 146 186 227 275 331
#     4  10  20  34  54  78 106 142 182 222 270 330
#     4   9  19  34  53  79 106 135 175 216 259 320
#     4  10  20  35  54  78 108 142 180 225 275 325
#     4  10  21  37  57  82 113 145 183 232 279 327
#
# _framework density 20.376522000000001
#
# number of rings (size 3 to 8) (size 9 to 14) (size 15 to 20)
#    0.000    2.182    0.000    2.727    0.000    4.364 
#    0.000    8.182    0.000    0.000    0.000    0.000 
#    0.000    0.000    0.000    0.000    0.000    0.000 
#
# Total GULP energy -122547.749981 kJ/mol
# GULP energy per Si atom -5570.352272 kJ/mol
# Density = 2.033014 g / cm^3
# Si number density = 20.376522 Si / 1000 Ang^3
#
#
#
# Elastic Constant Matrix: (Units=GPa)
#
#
# Indices 1 2 3 4 5 6 
#
# 1 43.6314 21.9172 -8.4822 0.0000 3.3082 0.0000
# 2 21.9172 138.2454 23.7429 0.0000 -13.9396 0.0000
# 3 -8.4822 23.7429 50.0340 0.0000 0.5353 0.0000
# 4 0.0000 0.0000 0.0000 -17.6298 0.0000 -14.6167
# 5 3.3082 -13.9396 0.5353 0.0000 30.5118 0.0000
# 6 0.0000 0.0000 0.0000 -14.6167 0.0000 6.2901
#
#
#
# Elastic Compliance Matrix: (Units=1/GPa)
#
#
# Indices 1 2 3 4 5 6 
#
# 1 0.028152 -0.006437 0.007893 0.000000 -0.006132 0.000000
# 2 -0.006437 0.009779 -0.005788 0.000000 0.005267 0.000000
# 3 0.007893 -0.005788 0.024113 0.000000 -0.003923 0.000000
# 4 0.000000 0.000000 0.000000 -0.019381 0.000000 -0.045038
# 5 -0.006132 0.005267 -0.003923 0.000000 0.035914 0.000000
# 6 0.000000 0.000000 0.000000 -0.045038 0.000000 0.054322
#
#
# Mechanical properties :
#
#
# Convention : Reuss Voigt Hill
#
# Bulk Modulus (GPa) = 18.73378 34.02964 26.38171
# Shear Modulus (GPa) = 31.37606 16.81662 24.09634
#
# Velocity S-wave (km/s) = 3.92830 2.87591 3.44256
# Velocity P-wave (km/s) = 5.45795 5.26920 5.36440
#
# Compressibility (1/GPa) = 0.05337952
#
# Stress axis : x y z
#
# Youngs Moduli (GPa) = 35.52141 102.25765 41.47120
#
# Poissons Ratio (x) = 0.65823 -0.32732
# Poissons Ratio (y) = 0.22865 0.24004
# Poissons Ratio (z) = -0.28036 0.59189
#
# Static dielectric constant tensor:
#      x y z
#    x 1.700490 0.000000 -0.010180 
#    y 0.000000 1.759230 0.000000 
#    z -0.010180 0.000000 1.724310 
# 
# From -- ./inp_files/299306.got.cif
#   From: 2010.05.17/outbox.cif.g08.bks.cpg/sg12_150_cif.got.tgz:299306.got - 2010.06.03 13:09:07.
