data_PCOD9193947
_publ_section_title
;
Structure prediction by ZEFSAII (Michael W. Deem and Ramdas Pophale) SiO2 
 PCOD9193947
Probable space group: C 2/M
;
_chemical_formula_sum "Si O2"
_cell_formula_units_Z 64
_cell_length_a 18.876237
_cell_length_b 9.065498
_cell_length_c 21.080952
_cell_angle_alpha 90.000000
_cell_angle_beta 93.844767
_cell_angle_gamma 90.000000
_cell_volume 3599.306036
_symmetry_space_group_name_H-M "C 2/M"
_symmetry_group_IT_number 12
_symmetry_cell_setting 'monoclinic'
loop_
_space_group_symop_operation_xyz
x,y,z
-x,y,-z
-x,-y,-z
x,-y,z
1/2+x,1/2+y,z
1/2-x,1/2+y,-z
1/2-x,1/2-y,-z
1/2+x,1/2-y,z
loop_
_atom_site_type_symbol
_atom_site_label
_atom_site_fract_x
_atom_site_fract_y
_atom_site_fract_z
Si Si1 0.459687 0.670185 0.065698
Si Si2 0.099685 0.826827 0.457294
Si Si3 0.992498 0.674696 0.654213
Si Si4 0.616229 0.674681 0.260189
Si Si5 0.769010 0.828694 0.623096
Si Si6 0.621344 0.673768 0.605849
Si Si7 0.092897 0.324944 0.129832
Si Si8 0.827139 0.676101 0.998828
O O1 0.449588 0.500000 0.084337
O O2 0.514993 0.754784 0.113929
O O3 0.500000 0.669977 0.000000
O O4 0.384943 0.751500 0.049768
O O5 0.178688 0.807854 0.433703
O O6 0.098580 0.796157 0.531555
O O7 0.049241 0.726544 0.411721
O O8 0.080278 0.000000 0.445708
O O9 0.990353 0.500000 0.660784
O O10 0.071471 0.735026 0.649693
O O11 0.951131 0.751938 0.709245
O O12 0.605125 0.500000 0.252797
O O13 0.681975 0.696070 0.312239
O O14 0.626764 0.749460 0.193146
O O15 0.702335 0.722843 0.617293
O O16 0.745684 0.000000 0.621505
O O17 0.612674 0.500000 0.616280
O O18 0.086387 0.500000 0.138077
O O19 0.140109 0.299264 0.069640
O O20 0.822769 0.500000 0.008804
O O21 0.750000 0.750000 0.000000
#
# Coordination Sequence:
#
# PCOD9193947 Si02
#       8
#     8   8   8   8   8   8   8   8
#     4   9  17  31  53  80 109 142 179 215 254 302
#     4   9  19  35  53  75 104 136 171 214 266 323
#     4  11  22  35  53  76 103 135 174 220 265 313
#     4  10  21  39  59  77 102 138 178 218 262 315
#     4   9  19  35  53  75 104 136 173 218 265 315
#     4  11  21  33  52  77 105 136 171 216 270 322
#     4  10  20  35  57  83 109 140 179 220 260 308
#     4  10  20  34  54  83 118 148 177 218 265 310
#
# _framework density 17.781203999999999
#
# number of rings (size 3 to 8) (size 9 to 14) (size 15 to 20)
#    0.000    2.125    0.000    4.500    0.000    8.000 
#    0.000    1.250    0.000    3.000    0.000    0.000 
#    0.000    0.000    0.000    0.000    0.000    0.000 
#
# Total GULP energy -178651.900367 kJ/mol
# GULP energy per Si atom -5582.871886 kJ/mol
# Density = 1.774073 g / cm^3
# Si number density = 17.781204 Si / 1000 Ang^3
#
#
#
# Elastic Constant Matrix: (Units=GPa)
#
#
# Indices 1 2 3 4 5 6 
#
# 1 80.0798 48.0380 6.0939 0.0000 -9.6189 0.0000
# 2 48.0380 99.1658 38.1092 0.0000 -8.4651 0.0000
# 3 6.0939 38.1092 45.6301 0.0000 -5.7146 0.0000
# 4 0.0000 0.0000 0.0000 26.8561 0.0000 4.0758
# 5 -9.6189 -8.4651 -5.7146 0.0000 7.0614 0.0000
# 6 0.0000 0.0000 0.0000 4.0758 0.0000 34.5642
#
#
#
# Elastic Compliance Matrix: (Units=1/GPa)
#
#
# Indices 1 2 3 4 5 6 
#
# 1 0.022225 -0.012886 0.010739 0.000000 0.023518 0.000000
# 2 -0.012886 0.022811 -0.017920 0.000000 -0.004710 0.000000
# 3 0.010739 -0.017920 0.038490 0.000000 0.024296 0.000000
# 4 0.000000 0.000000 0.000000 0.037914 0.000000 -0.004471
# 5 0.023518 -0.004710 0.024296 0.000000 0.187669 0.000000
# 6 0.000000 0.000000 0.000000 -0.004471 0.000000 0.029459
#
#
# Mechanical properties :
#
#
# Convention : Reuss Voigt Hill
#
# Bulk Modulus (GPa) = 23.04523 45.48422 34.26472
# Shear Modulus (GPa) = 12.71730 22.53864 17.62797
#
# Velocity S-wave (km/s) = 2.67724 3.56414 3.15204
# Velocity P-wave (km/s) = 4.74820 6.52479 5.70606
#
# Compressibility (1/GPa) = 0.04339292
#
# Stress axis : x y z
#
# Youngs Moduli (GPa) = 44.99420 43.83890 25.98058
#
# Poissons Ratio (x) = 0.56489 -0.27901
# Poissons Ratio (y) = 0.57978 0.46557
# Poissons Ratio (z) = -0.48319 0.78559
#
# Static dielectric constant tensor:
#      x y z
#    x 1.598470 0.000000 -0.000400 
#    y 0.000000 1.589850 0.000000 
#    z -0.000400 0.000000 1.600330 
# 
# From -- ./inp_files/314091.got.cif
#   From: 2010.05.17/outbox.cif.g08.bks.cpg/sg12_158_cif.got.tgz:314091.got - 2010.06.03 13:09:07.
