data_PCOD9193018
_publ_section_title
;
Structure prediction by ZEFSAII (Michael W. Deem and Ramdas Pophale) SiO2 
 PCOD9193018
Probable space group: C 2/M
;
_chemical_formula_sum "Si O2"
_cell_formula_units_Z 56
_cell_length_a 23.868470
_cell_length_b 8.550949
_cell_length_c 20.296179
_cell_angle_alpha 90.000000
_cell_angle_beta 128.690547
_cell_angle_gamma 90.000000
_cell_volume 3233.290741
_symmetry_space_group_name_H-M "C 2/M"
_symmetry_group_IT_number 12
_symmetry_cell_setting 'monoclinic'
loop_
_space_group_symop_operation_xyz
x,y,z
-x,y,-z
-x,-y,-z
x,-y,z
1/2+x,1/2+y,z
1/2-x,1/2+y,-z
1/2-x,1/2-y,-z
1/2+x,1/2-y,z
loop_
_atom_site_type_symbol
_atom_site_label
_atom_site_fract_x
_atom_site_fract_y
_atom_site_fract_z
Si Si1 0.699624 0.687519 0.403888
Si Si2 0.428370 0.809436 0.483447
Si Si3 0.321821 0.812223 0.017492
Si Si4 0.598933 0.312680 0.805267
Si Si5 0.756477 0.188190 0.166425
Si Si6 0.054680 0.312362 0.352604
Si Si7 0.726289 0.188764 0.677455
O O1 0.702879 0.500000 0.408368
O O2 0.750000 0.750000 0.500000
O O3 0.618731 0.743997 0.356000
O O4 0.729509 0.739135 0.354615
O O5 0.500000 0.754347 0.500000
O O6 0.429446 0.763002 0.560432
O O7 0.355851 0.758182 0.394476
O O8 0.428723 0.000000 0.482399
O O9 0.307571 0.767236 0.931081
O O10 0.324742 0.000000 0.023730
O O11 0.250000 0.750000 0.000000
O O12 0.384795 0.741242 0.107938
O O13 0.596853 0.500000 0.801522
O O14 0.666990 0.260372 0.809839
O O15 0.524138 0.244252 0.725415
O O16 0.747643 0.251482 0.233069
O O17 0.758624 0.000000 0.169824
O O18 0.057088 0.500000 0.351555
O O19 0.726931 0.000000 0.679103
#
# Coordination Sequence:
#
# PCOD9193018 Si02
#       7
#     8   8   8   8   8   8   8
#     4  11  22  38  56  75 102 138 183 228 265 309
#     4   9  17  30  48  73 104 135 169 209 253 309
#     4   9  17  31  51  77 109 143 177 214 260 316
#     4  10  20  34  52  80 113 142 176 216 264 320
#     4   9  19  33  51  79 112 140 172 215 263 314
#     4  11  21  35  55  77 104 140 180 220 267 314
#     4  10  20  34  52  75 103 139 180 217 259 314
#
# _framework density 17.319814999999998
#
# number of rings (size 3 to 8) (size 9 to 14) (size 15 to 20)
#    0.000    2.143    1.429    3.429    0.000    5.714 
#    0.000    0.000    0.000    3.857    0.000    6.000 
#    0.000    0.000    0.000    0.000    0.000    0.000 
#
# Total GULP energy -156172.956105 kJ/mol
# GULP energy per Si atom -5577.605575 kJ/mol
# Density = 1.728039 g / cm^3
# Si number density = 17.319815 Si / 1000 Ang^3
#
#
#
# Elastic Constant Matrix: (Units=GPa)
#
#
# Indices 1 2 3 4 5 6 
#
# 1 72.2618 11.7652 15.7186 0.0000 -28.1436 0.0000
# 2 11.7652 27.9387 13.6660 0.0000 -7.7999 0.0000
# 3 15.7186 13.6660 98.8360 0.0000 -33.8281 0.0000
# 4 0.0000 0.0000 0.0000 29.9758 0.0000 0.1674
# 5 -28.1436 -7.7999 -33.8281 0.0000 24.5564 0.0000
# 6 0.0000 0.0000 0.0000 0.1674 0.0000 23.1363
#
#
#
# Elastic Compliance Matrix: (Units=1/GPa)
#
#
# Indices 1 2 3 4 5 6 
#
# 1 0.034287 -0.005577 0.015443 0.000000 0.058798 0.000000
# 2 -0.005577 0.040436 -0.004722 0.000000 -0.000054 0.000000
# 3 0.015443 -0.004722 0.026223 0.000000 0.052322 0.000000
# 4 0.000000 0.000000 0.000000 0.033362 0.000000 -0.000241
# 5 0.058798 -0.000054 0.052322 0.000000 0.180170 0.000000
# 6 0.000000 0.000000 0.000000 -0.000241 0.000000 0.043224
#
#
# Mechanical properties :
#
#
# Convention : Reuss Voigt Hill
#
# Bulk Modulus (GPa) = 8.99021 31.25955 20.12488
# Shear Modulus (GPa) = 13.00414 26.05946 19.53180
#
# Velocity S-wave (km/s) = 2.74309 3.88313 3.36179
# Velocity P-wave (km/s) = 3.90317 6.18001 5.16852
#
# Compressibility (1/GPa) = 0.11123209
#
# Stress axis : x y z
#
# Youngs Moduli (GPa) = 29.16535 24.73029 38.13473
#
# Poissons Ratio (x) = 0.13793 -0.58890
# Poissons Ratio (y) = 0.16266 0.18009
# Poissons Ratio (z) = -0.45039 0.11679
#
# Static dielectric constant tensor:
#      x y z
#    x 1.573190 0.000000 -0.012920 
#    y 0.000000 1.597990 0.000000 
#    z -0.012920 0.000000 1.593290 
# 
# From -- ./inp_files/288233.got.cif
#   From: 2010.05.17/outbox.cif.g08.bks.cpg/sg12_145_cif.got.tgz:288233.got - 2010.06.03 13:09:07.
