data_PCOD9193247
_publ_section_title
;
Structure prediction by ZEFSAII (Michael W. Deem and Ramdas Pophale) SiO2 
 PCOD9193247
Probable space group: C 2/M
;
_chemical_formula_sum "Si O2"
_cell_formula_units_Z 48
_cell_length_a 14.422984
_cell_length_b 9.095406
_cell_length_c 21.410926
_cell_angle_alpha 90.000000
_cell_angle_beta 91.470300
_cell_angle_gamma 90.000000
_cell_volume 2807.822509
_symmetry_space_group_name_H-M "C 2/M"
_symmetry_group_IT_number 12
_symmetry_cell_setting 'monoclinic'
loop_
_space_group_symop_operation_xyz
x,y,z
-x,y,-z
-x,-y,-z
x,-y,z
1/2+x,1/2+y,z
1/2-x,1/2+y,-z
1/2-x,1/2-y,-z
1/2+x,1/2-y,z
loop_
_atom_site_type_symbol
_atom_site_label
_atom_site_fract_x
_atom_site_fract_y
_atom_site_fract_z
Si Si1 0.402882 0.675912 0.343032
Si Si2 0.750688 0.675024 0.100287
Si Si3 0.884248 0.175449 0.675777
Si Si4 0.734103 0.825212 0.566031
Si Si5 0.892567 0.324260 0.991851
Si Si6 0.253308 0.675085 0.233778
O O1 0.398921 0.500000 0.354273
O O2 0.509427 0.717488 0.333981
O O3 0.354360 0.758504 0.399521
O O4 0.340732 0.706828 0.280670
O O5 0.742518 0.500000 0.107162
O O6 0.836193 0.705951 0.054684
O O7 0.763996 0.750077 0.167109
O O8 0.660469 0.739772 0.063981
O O9 0.821590 0.203128 0.613421
O O10 0.835788 0.260655 0.731551
O O11 0.880920 0.000000 0.688346
O O12 0.750000 0.750000 0.500000
O O13 0.724303 0.000000 0.558727
O O14 0.886832 0.500000 0.980116
O O15 0.000000 0.283658 0.000000
O O16 0.245360 0.500000 0.226928
#
# Coordination Sequence:
#
# PCOD9193247 Si02
#       6
#     8   8   8   8   8   8
#     4   9  19  36  55  75 101 133 170 211 254 301
#     4  10  20  34  53  76 104 136 169 207 251 303
#     4   9  19  36  55  75 101 134 171 210 254 303
#     4  10  20  34  53  76 104 136 170 210 254 303
#     4   9  19  36  55  76 103 134 170 212 255 298
#     4  10  20  34  53  76 103 133 167 210 254 299
#
# _framework density 17.095096999999999
#
# number of rings (size 3 to 8) (size 9 to 14) (size 15 to 20)
#    0.000    2.500    0.000    1.500    0.000    5.000 
#    0.000    6.667    0.000    0.000    0.000    0.000 
#    0.000    0.000    0.000    0.000    0.000    0.000 
#
# Total GULP energy -133928.055546 kJ/mol
# GULP energy per Si atom -5580.335648 kJ/mol
# Density = 1.705619 g / cm^3
# Si number density = 17.095097 Si / 1000 Ang^3
#
#
#
# Elastic Constant Matrix: (Units=GPa)
#
#
# Indices 1 2 3 4 5 6 
#
# 1 130.6254 44.5428 37.7360 0.0000 -8.5552 0.0000
# 2 44.5428 52.1061 60.1998 0.0000 -4.1478 0.0000
# 3 37.7360 60.1998 113.5591 0.0000 -8.3438 0.0000
# 4 0.0000 0.0000 0.0000 35.5106 0.0000 -2.3740
# 5 -8.5552 -4.1478 -8.3438 0.0000 7.3965 0.0000
# 6 0.0000 0.0000 0.0000 -2.3740 0.0000 26.4722
#
#
#
# Elastic Compliance Matrix: (Units=1/GPa)
#
#
# Indices 1 2 3 4 5 6 
#
# 1 0.012085 -0.014834 0.004649 0.000000 0.010904 0.000000
# 2 -0.014834 0.067758 -0.032122 0.000000 -0.015396 0.000000
# 3 0.004649 -0.032122 0.025472 0.000000 0.016099 0.000000
# 4 0.000000 0.000000 0.000000 0.028330 0.000000 0.002541
# 5 0.010904 -0.015396 0.016099 0.000000 0.157339 0.000000
# 6 0.000000 0.000000 0.000000 0.002541 0.000000 0.038003
#
#
# Mechanical properties :
#
#
# Convention : Reuss Voigt Hill
#
# Bulk Modulus (GPa) = 48.30447 64.58309 56.44378
# Shear Modulus (GPa) = 11.89057 24.13000 18.01028
#
# Velocity S-wave (km/s) = 2.64020 3.76109 3.24934
# Velocity P-wave (km/s) = 6.13285 7.53139 6.86781
#
# Compressibility (1/GPa) = 0.02070202
#
# Stress axis : x y z
#
# Youngs Moduli (GPa) = 82.74790 14.75841 39.25839
#
# Poissons Ratio (x) = 0.21893 -0.18252
# Poissons Ratio (y) = 1.22749 1.26104
# Poissons Ratio (z) = -0.38471 0.47406
#
# Static dielectric constant tensor:
#      x y z
#    x 1.561610 0.000000 0.004260 
#    y 0.000000 1.568450 0.000000 
#    z 0.004260 0.000000 1.546300 
# 
# From -- ./inp_files/307994.got.cif
#   From: 2010.05.17/outbox.cif.g08.bks.cpg/sg12_154_cif.got.tgz:307994.got - 2010.06.03 13:09:07.
