data_PCOD9193757
_publ_section_title
;
Structure prediction by ZEFSAII (Michael W. Deem and Ramdas Pophale) SiO2 
 PCOD9193757
Probable space group: C 2/M
;
_chemical_formula_sum "Si O2"
_cell_formula_units_Z 64
_cell_length_a 16.196822
_cell_length_b 9.113729
_cell_length_c 26.359290
_cell_angle_alpha 90.000000
_cell_angle_beta 134.547468
_cell_angle_gamma 90.000000
_cell_volume 2772.986869
_symmetry_space_group_name_H-M "C 2/M"
_symmetry_group_IT_number 12
_symmetry_cell_setting 'monoclinic'
loop_
_space_group_symop_operation_xyz
x,y,z
-x,y,-z
-x,-y,-z
x,-y,z
1/2+x,1/2+y,z
1/2-x,1/2+y,-z
1/2-x,1/2-y,-z
1/2+x,1/2-y,z
loop_
_atom_site_type_symbol
_atom_site_label
_atom_site_fract_x
_atom_site_fract_y
_atom_site_fract_z
Si Si1 0.894373 0.832512 0.011441
Si Si2 0.867396 0.172695 0.270885
Si Si3 0.587881 0.169918 0.611832
Si Si4 0.107011 0.330222 0.351166
Si Si5 0.830590 0.166626 0.104591
Si Si6 0.058619 0.670008 0.216327
Si Si7 0.669461 0.169347 0.530265
Si Si8 0.642800 0.674711 0.151919
O O1 0.860204 0.836861 0.056793
O O2 0.029600 0.788849 0.069316
O O3 0.881920 0.000000 0.987072
O O4 0.799280 0.726730 0.946487
O O5 0.853056 0.222182 0.323285
O O6 0.764237 0.246563 0.194595
O O7 0.993379 0.235127 0.312245
O O8 0.862270 0.000000 0.263725
O O9 0.633223 0.179892 0.574088
O O10 0.449771 0.201299 0.550374
O O11 0.604679 0.000000 0.635293
O O12 0.084539 0.500000 0.353570
O O13 0.124390 0.318942 0.297890
O O14 0.220564 0.272825 0.428633
O O15 0.343790 0.500000 0.129258
O O16 0.926800 0.275733 0.168216
O O17 0.059572 0.500000 0.199998
O O18 0.107351 0.772225 0.193118
O O19 0.701629 0.000000 0.534232
O O20 0.656591 0.500000 0.156930
#
# Coordination Sequence:
#
# PCOD9193757 Si02
#       8
#     8   8   8   8   8   8   8   8
#     4   8  15  27  45  72 104 137 172 213 263 318
#     4  12  25  38  55  79 108 144 183 223 267 316
#     4   9  19  38  62  86 113 142 174 215 264 318
#     4  11  24  39  55  77 108 146 183 223 269 315
#     4   9  16  26  45  74 106 139 173 216 269 316
#     4  10  20  34  54  80 108 140 181 224 267 319
#     4   9  19  37  62  88 111 140 176 216 264 316
#     4  10  20  35  56  80 108 142 178 220 271 322
#
# _framework density 23.079806999999999
#
# number of rings (size 3 to 8) (size 9 to 14) (size 15 to 20)
#    0.000    2.250    0.000    4.875    0.000    9.000 
#    0.000    1.250    0.000    0.750    0.000    5.250 
#    0.000    0.000    0.000    0.000    0.000    0.000 
#
# Total GULP energy -179073.584835 kJ/mol
# GULP energy per Si atom -5596.049526 kJ/mol
# Density = 2.302728 g / cm^3
# Si number density = 23.079807 Si / 1000 Ang^3
#
#
#
# Elastic Constant Matrix: (Units=GPa)
#
#
# Indices 1 2 3 4 5 6 
#
# 1 79.0342 29.1176 24.1197 0.0000 15.9040 0.0000
# 2 29.1176 115.9586 71.4400 0.0000 24.8604 0.0000
# 3 24.1197 71.4400 120.2053 0.0000 20.4338 0.0000
# 4 0.0000 0.0000 0.0000 34.9085 0.0000 12.8385
# 5 15.9040 24.8604 20.4338 0.0000 52.0142 0.0000
# 6 0.0000 0.0000 0.0000 12.8385 0.0000 24.2786
#
#
#
# Elastic Compliance Matrix: (Units=1/GPa)
#
#
# Indices 1 2 3 4 5 6 
#
# 1 0.014414 -0.002401 -0.000976 0.000000 -0.002876 0.000000
# 2 -0.002401 0.014651 -0.007672 0.000000 -0.003254 0.000000
# 3 -0.000976 -0.007672 0.013288 0.000000 -0.001255 0.000000
# 4 0.000000 0.000000 0.000000 0.035562 0.000000 -0.018805
# 5 -0.002876 -0.003254 -0.001255 0.000000 0.022153 0.000000
# 6 0.000000 0.000000 0.000000 -0.018805 0.000000 0.051133
#
#
# Mechanical properties :
#
#
# Convention : Reuss Voigt Hill
#
# Bulk Modulus (GPa) = 49.37425 62.72807 56.05116
# Shear Modulus (GPa) = 27.76955 34.94164 31.35559
#
# Velocity S-wave (km/s) = 3.47248 3.89517 3.68988
# Velocity P-wave (km/s) = 6.12509 6.88967 6.51860
#
# Compressibility (1/GPa) = 0.02025347
#
# Stress axis : x y z
#
# Youngs Moduli (GPa) = 69.37635 68.25316 75.25512
#
# Poissons Ratio (x) = 0.16391 0.07346
# Poissons Ratio (y) = 0.16660 0.57739
# Poissons Ratio (z) = 0.06772 0.52367
#
# Static dielectric constant tensor:
#      x y z
#    x 1.957780 0.000000 -0.038680 
#    y 0.000000 1.770730 0.000000 
#    z -0.038680 0.000000 1.862130 
# 
# From -- ./inp_files/378274.got.cif
#   From: 2010.05.17/outbox.cif.g08.bks.cpg/sg12_190_cif.got.tgz:378274.got - 2010.06.03 13:09:07.
