data_PCOD9193354
_publ_section_title
;
Structure prediction by ZEFSAII (Michael W. Deem and Ramdas Pophale) SiO2 
 PCOD9193354
Probable space group: C 2/M
;
_chemical_formula_sum "Si O2"
_cell_formula_units_Z 44
_cell_length_a 9.194090
_cell_length_b 13.253020
_cell_length_c 18.106286
_cell_angle_alpha 90.000000
_cell_angle_beta 87.371215
_cell_angle_gamma 90.000000
_cell_volume 2203.919418
_symmetry_space_group_name_H-M "C 2/M"
_symmetry_group_IT_number 12
_symmetry_cell_setting 'monoclinic'
loop_
_space_group_symop_operation_xyz
x,y,z
-x,y,-z
-x,-y,-z
x,-y,z
1/2+x,1/2+y,z
1/2-x,1/2+y,-z
1/2-x,1/2-y,-z
1/2+x,1/2-y,z
loop_
_atom_site_type_symbol
_atom_site_label
_atom_site_fract_x
_atom_site_fract_y
_atom_site_fract_z
Si Si1 0.065245 0.113358 0.649818
Si Si2 0.003005 0.881903 0.911260
Si Si3 0.267274 0.245934 0.835689
Si Si4 0.000000 0.776833 0.500000
Si Si5 0.388783 0.111820 0.602559
Si Si6 0.023116 0.692861 0.736589
O O1 0.039766 0.152840 0.567473
O O2 0.239670 0.117213 0.651670
O O3 0.001640 0.191750 0.709013
O O4 0.012966 0.000000 0.660693
O O5 0.146360 0.822048 0.879637
O O6 0.862191 0.822129 0.883279
O O7 0.004887 0.000000 0.887899
O O8 0.000000 0.879073 0.000000
O O9 0.172930 0.308153 0.777444
O O10 0.387688 0.174643 0.793689
O O11 0.888533 0.697153 0.539996
O O12 0.514274 0.131637 0.660287
O O13 0.398710 0.000000 0.570615
#
# Coordination Sequence:
#
# PCOD9193354 Si02
#       6
#     8   8   8   4   8   8
#     4  10  20  35  56  78 108 149 196 247 304 360
#     4  10  22  41  66  95 127 165 205 246 296 358
#     4  10  21  38  63  91 125 161 199 251 302 354
#     4  10  20  34  54  76 108 144 200 250 300 362
#     4  10  20  34  53  77 111 150 191 242 306 362
#     4  10  20  36  57  85 118 150 198 247 297 357
#
# _framework density 19.964431000000001
#
# number of rings (size 3 to 8) (size 9 to 14) (size 15 to 20)
#    0.000    2.000    1.818    1.636    0.000    4.364 
#    0.000    2.727    0.000    9.818    0.000    0.000 
#    0.000    0.000    0.000    0.000    0.000    0.000 
#
# Total GULP energy -122657.969132 kJ/mol
# GULP energy per Si atom -5575.362233 kJ/mol
# Density = 1.991899 g / cm^3
# Si number density = 19.964431 Si / 1000 Ang^3
#
#
#
# Elastic Constant Matrix: (Units=GPa)
#
#
# Indices 1 2 3 4 5 6 
#
# 1 91.2842 26.0174 27.4573 0.0000 3.8743 0.0000
# 2 26.0174 107.5709 26.4169 0.0000 8.3706 0.0000
# 3 27.4573 26.4169 76.6505 0.0000 17.2097 0.0000
# 4 0.0000 0.0000 0.0000 8.9596 0.0000 -5.1576
# 5 3.8743 8.3706 17.2097 0.0000 34.4087 0.0000
# 6 0.0000 0.0000 0.0000 -5.1576 0.0000 16.3117
#
#
#
# Elastic Compliance Matrix: (Units=1/GPa)
#
#
# Indices 1 2 3 4 5 6 
#
# 1 0.012751 -0.002172 -0.004073 0.000000 0.001130 0.000000
# 2 -0.002172 0.010546 -0.002631 0.000000 -0.001005 0.000000
# 3 -0.004073 -0.002631 0.017084 0.000000 -0.007446 0.000000
# 4 0.000000 0.000000 0.000000 0.136449 0.000000 0.043144
# 5 0.001130 -0.001005 -0.007446 0.000000 0.032904 0.000000
# 6 0.000000 0.000000 0.000000 0.043144 0.000000 0.074947
#
#
# Mechanical properties :
#
#
# Convention : Reuss Voigt Hill
#
# Bulk Modulus (GPa) = 44.18989 48.36542 46.27766
# Shear Modulus (GPa) = 16.13040 24.97694 20.55367
#
# Velocity S-wave (km/s) = 2.84554 3.54089 3.21209
# Velocity P-wave (km/s) = 5.74269 6.40278 6.08170
#
# Compressibility (1/GPa) = 0.02262961
#
# Stress axis : x y z
#
# Youngs Moduli (GPa) = 78.42621 94.82498 58.53565
#
# Poissons Ratio (x) = 0.20593 0.23840
# Poissons Ratio (y) = 0.17032 0.15400
# Poissons Ratio (z) = 0.31941 0.24948
#
# Static dielectric constant tensor:
#      x y z
#    x 1.734280 0.000000 0.000460 
#    y 0.000000 1.700770 0.000000 
#    z 0.000460 0.000000 1.725900 
# 
# From -- ./inp_files/255446.got.cif
#   From: 2010.05.17/outbox.cif.g08.bks.cpg/sg12_128_cif.got.tgz:255446.got - 2010.06.03 13:09:07.
