data_PCOD9193281
_publ_section_title
;
Structure prediction by ZEFSAII (Michael W. Deem and Ramdas Pophale) SiO2 
 PCOD9193281
Probable space group: C 2/M
;
_chemical_formula_sum "Si O2"
_cell_formula_units_Z 56
_cell_length_a 9.681515
_cell_length_b 16.599199
_cell_length_c 20.464353
_cell_angle_alpha 90.000000
_cell_angle_beta 123.248051
_cell_angle_gamma 90.000000
_cell_volume 2750.382307
_symmetry_space_group_name_H-M "C 2/M"
_symmetry_group_IT_number 12
_symmetry_cell_setting 'monoclinic'
loop_
_space_group_symop_operation_xyz
x,y,z
-x,y,-z
-x,-y,-z
x,-y,z
1/2+x,1/2+y,z
1/2-x,1/2+y,-z
1/2-x,1/2-y,-z
1/2+x,1/2-y,z
loop_
_atom_site_type_symbol
_atom_site_label
_atom_site_fract_x
_atom_site_fract_y
_atom_site_fract_z
Si Si1 0.417865 0.637138 0.284151
Si Si2 0.609043 0.862657 0.971199
Si Si3 0.024257 0.824586 0.930566
Si Si4 0.651097 0.406169 0.585107
Si Si5 0.503879 0.824279 0.312460
Si Si6 0.057429 0.409308 0.192924
Si Si7 0.329319 0.593457 0.763693
O O1 0.407117 0.600644 0.354413
O O2 0.464475 0.730373 0.306156
O O3 0.231993 0.621642 0.209779
O O4 0.545990 0.602452 0.264943
O O5 0.540934 0.772363 0.937776
O O6 0.582114 0.909010 0.897592
O O7 0.500000 0.898505 0.000000
O O8 0.795790 0.856330 0.042290
O O9 0.895993 0.855806 0.843502
O O10 0.000000 0.849921 0.000000
O O11 0.500000 0.380672 0.500000
O O12 0.689119 0.500000 0.581031
O O13 0.815520 0.352831 0.616987
O O14 0.508230 0.849939 0.237693
O O15 0.349942 0.872516 0.302537
O O16 0.080318 0.500000 0.224674
O O17 0.316811 0.500000 0.779294
#
# Coordination Sequence:
#
# PCOD9193281 Si02
#       7
#     8   8   8   8   8   8   8
#     4  11  22  39  62  88 118 153 195 238 284 342
#     4  10  20  34  53  76 106 149 200 247 291 345
#     4  10  21  35  51  76 113 154 193 240 301 352
#     4  10  22  43  67  90 121 157 189 227 284 351
#     4  11  22  39  62  87 117 155 195 231 281 350
#     4  11  22  38  59  83 116 157 201 245 294 352
#     4  12  23  36  58  88 119 148 192 251 297 337
#
# _framework density 20.360804999999999
#
# number of rings (size 3 to 8) (size 9 to 14) (size 15 to 20)
#    0.000    1.286    0.000    8.571    0.000    4.000 
#    0.000    0.714    0.000    2.571    0.000    0.000 
#    0.000    0.000    0.000    0.000    0.000    0.000 
#
# Total GULP energy -156445.240664 kJ/mol
# GULP energy per Si atom -5587.330024 kJ/mol
# Density = 2.031446 g / cm^3
# Si number density = 20.360805 Si / 1000 Ang^3
#
#
#
# Elastic Constant Matrix: (Units=GPa)
#
#
# Indices 1 2 3 4 5 6 
#
# 1 81.0541 5.4642 7.1257 0.0000 4.0709 0.0000
# 2 5.4642 85.2273 7.1716 0.0000 15.8980 0.0000
# 3 7.1257 7.1716 85.1149 0.0000 20.1490 0.0000
# 4 0.0000 0.0000 0.0000 18.2377 0.0000 9.7624
# 5 4.0709 15.8980 20.1490 0.0000 24.1811 0.0000
# 6 0.0000 0.0000 0.0000 9.7624 0.0000 16.3491
#
#
#
# Elastic Compliance Matrix: (Units=1/GPa)
#
#
# Indices 1 2 3 4 5 6 
#
# 1 0.012495 -0.000525 -0.000729 0.000000 -0.001150 0.000000
# 2 -0.000525 0.013493 0.001228 0.000000 -0.009806 0.000000
# 3 -0.000729 0.001228 0.014785 0.000000 -0.013004 0.000000
# 4 0.000000 0.000000 0.000000 0.080591 0.000000 -0.048123
# 5 -0.001150 -0.009806 -0.013004 0.000000 0.058831 0.000000
# 6 0.000000 0.000000 0.000000 -0.048123 0.000000 0.089901
#
#
# Mechanical properties :
#
#
# Convention : Reuss Voigt Hill
#
# Bulk Modulus (GPa) = 24.55779 32.32435 28.44107
# Shear Modulus (GPa) = 17.62295 27.19591 22.40943
#
# Velocity S-wave (km/s) = 2.94519 3.65869 3.32115
# Velocity P-wave (km/s) = 4.86343 5.81018 5.35776
#
# Compressibility (1/GPa) = 0.04072028
#
# Stress axis : x y z
#
# Youngs Moduli (GPa) = 80.03366 74.11341 67.63674
#
# Poissons Ratio (x) = 0.03892 0.04934
# Poissons Ratio (y) = 0.04203 -0.08309
# Poissons Ratio (z) = 0.05838 -0.09105
#
# Static dielectric constant tensor:
#      x y z
#    x 1.737400 0.000000 0.005380 
#    y 0.000000 1.744400 0.000000 
#    z 0.005380 0.000000 1.702910 
# 
# From -- ./inp_files/300884.got.cif
#   From: 2010.05.17/outbox.cif.g08.bks.cpg/sg12_151_cif.got.tgz:300884.got - 2010.06.03 13:09:07.
