data_PCOD9193663
_publ_section_title
;
Structure prediction by ZEFSAII (Michael W. Deem and Ramdas Pophale) SiO2 
 PCOD9193663
Probable space group: C 2/M
;
_chemical_formula_sum "Si O2"
_cell_formula_units_Z 44
_cell_length_a 8.237588
_cell_length_b 11.512666
_cell_length_c 23.989538
_cell_angle_alpha 90.000000
_cell_angle_beta 111.626648
_cell_angle_gamma 90.000000
_cell_volume 2114.931901
_symmetry_space_group_name_H-M "C 2/M"
_symmetry_group_IT_number 12
_symmetry_cell_setting 'monoclinic'
loop_
_space_group_symop_operation_xyz
x,y,z
-x,y,-z
-x,-y,-z
x,-y,z
1/2+x,1/2+y,z
1/2-x,1/2+y,-z
1/2-x,1/2-y,-z
1/2+x,1/2-y,z
loop_
_atom_site_type_symbol
_atom_site_label
_atom_site_fract_x
_atom_site_fract_y
_atom_site_fract_z
Si Si1 0.554297 0.131397 0.745179
Si Si2 0.304198 0.624230 0.881994
Si Si3 0.617440 0.374064 0.426667
Si Si4 0.854817 0.132417 0.702475
Si Si5 0.419142 0.184630 0.045085
Si Si6 0.000000 0.695868 0.500000
O O1 0.705235 0.138399 0.811223
O O2 0.656198 0.134618 0.699278
O O3 0.441452 0.248657 0.736695
O O4 0.473402 0.000000 0.740533
O O5 0.399231 0.500000 0.893997
O O6 0.438192 0.725185 0.913517
O O7 0.156267 0.620404 0.910995
O O8 0.539002 0.500000 0.429168
O O9 0.623771 0.359440 0.361127
O O10 0.514508 0.276882 0.447275
O O11 0.818021 0.370532 0.472809
O O12 0.919845 0.000000 0.726922
O O13 0.500000 0.126420 0.000000
O O14 0.250000 0.250000 0.000000
#
# Coordination Sequence:
#
# PCOD9193663 Si02
#       6
#     8   8   8   8   8   4
#     4  10  21  37  57  82 110 144 185 226 272 327
#     4  10  20  36  56  76 106 142 175 219 270 318
#     4  10  20  35  54  78 107 140 178 221 270 321
#     4  10  21  37  57  81 111 144 181 227 275 324
#     4   9  19  34  53  79 106 135 175 216 259 320
#     4  10  20  34  54  78 106 140 178 220 266 322
#
# _framework density 20.804452999999999
#
# number of rings (size 3 to 8) (size 9 to 14) (size 15 to 20)
#    0.000    2.182    0.000    2.727    0.000    4.364 
#    0.000    8.182    0.000    0.000    0.000    0.000 
#    0.000    0.000    0.000    0.000    0.000    0.000 
#
# Total GULP energy -122551.193885 kJ/mol
# GULP energy per Si atom -5570.508813 kJ/mol
# Density = 2.075710 g / cm^3
# Si number density = 20.804453 Si / 1000 Ang^3
#
#
#
# Elastic Constant Matrix: (Units=GPa)
#
#
# Indices 1 2 3 4 5 6 
#
# 1 46.5316 19.3215 -9.3748 0.0000 -10.4148 0.0000
# 2 19.3215 154.3276 17.6031 0.0000 15.8978 0.0000
# 3 -9.3748 17.6031 41.4595 0.0000 -12.2557 0.0000
# 4 0.0000 0.0000 0.0000 21.1697 0.0000 0.8503
# 5 -10.4148 15.8978 -12.2557 0.0000 31.0303 0.0000
# 6 0.0000 0.0000 0.0000 0.8503 0.0000 7.6157
#
#
#
# Elastic Compliance Matrix: (Units=1/GPa)
#
#
# Indices 1 2 3 4 5 6 
#
# 1 0.033900 -0.008683 0.018150 0.000000 0.022995 0.000000
# 2 -0.008683 0.009881 -0.009642 0.000000 -0.011785 0.000000
# 3 0.018150 -0.009642 0.040282 0.000000 0.026941 0.000000
# 4 0.000000 0.000000 0.000000 0.047450 0.000000 -0.005298
# 5 0.022995 -0.011785 0.026941 0.000000 0.056623 0.000000
# 6 0.000000 0.000000 0.000000 -0.005298 0.000000 0.131900
#
#
# Mechanical properties :
#
#
# Convention : Reuss Voigt Hill
#
# Bulk Modulus (GPa) = 11.94592 33.04649 22.49621
# Shear Modulus (GPa) = 14.35584 26.28107 20.31846
#
# Velocity S-wave (km/s) = 2.62971 3.55807 3.12851
# Velocity P-wave (km/s) = 3.86975 5.72701 4.88741
#
# Compressibility (1/GPa) = 0.08371057
#
# Stress axis : x y z
#
# Youngs Moduli (GPa) = 29.49878 101.20776 24.82501
#
# Poissons Ratio (x) = 0.87880 -0.45056
# Poissons Ratio (y) = 0.25614 0.23937
# Poissons Ratio (z) = -0.53539 0.97588
#
# Static dielectric constant tensor:
#      x y z
#    x 1.729520 0.000000 -0.037110 
#    y 0.000000 1.791300 0.000000 
#    z -0.037110 0.000000 1.743980 
# 
# From -- ./inp_files/299276.got.cif
#   From: 2010.05.17/outbox.cif.g08.bks.cpg/sg12_150_cif.got.tgz:299276.got - 2010.06.03 13:09:07.
