data_PCOD9193676
_publ_section_title
;
Structure prediction by ZEFSAII (Michael W. Deem and Ramdas Pophale) SiO2 
 PCOD9193676
Probable space group: C 2/M
;
_chemical_formula_sum "Si O2"
_cell_formula_units_Z 64
_cell_length_a 23.301933
_cell_length_b 13.601194
_cell_length_c 14.093232
_cell_angle_alpha 90.000000
_cell_angle_beta 54.895370
_cell_angle_gamma 90.000000
_cell_volume 3654.161211
_symmetry_space_group_name_H-M "C 2/M"
_symmetry_group_IT_number 12
_symmetry_cell_setting 'monoclinic'
loop_
_space_group_symop_operation_xyz
x,y,z
-x,y,-z
-x,-y,-z
x,-y,z
1/2+x,1/2+y,z
1/2-x,1/2+y,-z
1/2-x,1/2-y,-z
1/2+x,1/2-y,z
loop_
_atom_site_type_symbol
_atom_site_label
_atom_site_fract_x
_atom_site_fract_y
_atom_site_fract_z
Si Si1 0.825550 0.309779 0.053474
Si Si2 0.693722 0.880491 0.647274
Si Si3 0.581779 0.773271 0.405718
Si Si4 0.309409 0.882249 0.566822
Si Si5 0.927480 0.386634 0.105935
Si Si6 0.648621 0.887161 0.175554
Si Si7 0.209641 0.110552 0.833946
Si Si8 0.698480 0.382914 0.287680
O O1 0.874981 0.381344 0.067069
O O2 0.836518 0.199567 0.082624
O O3 0.746633 0.340979 0.156867
O O4 0.840644 0.325390 0.929672
O O5 0.702280 0.850500 0.530326
O O6 0.620250 0.844302 0.763428
O O7 0.757694 0.857127 0.657885
O O8 0.690308 0.000000 0.651826
O O9 0.500000 0.760585 0.500000
O O10 0.623466 0.831032 0.449275
O O11 0.594622 0.836585 0.298381
O O12 0.624719 0.671833 0.356133
O O13 0.242329 0.866168 0.699339
O O14 0.321097 0.000000 0.557241
O O15 0.943143 0.500000 0.116899
O O16 0.000000 0.340479 0.000000
O O17 0.722059 0.890489 0.162778
O O18 0.629212 0.000000 0.171608
O O19 0.179579 0.000000 0.862221
O O20 0.693066 0.500000 0.286181
#
# Coordination Sequence:
#
# PCOD9193676 Si02
#       8
#     8   8   8   8   8   8   8   8
#     4  11  18  34  56  79 102 135 174 216 269 317
#     4   8  16  31  54  78 100 131 174 220 267 312
#     4  11  23  36  49  74 111 150 180 214 258 321
#     4   9  17  33  53  75 103 134 169 217 273 316
#     4   9  18  31  47  74 107 133 167 216 268 321
#     4  10  20  34  54  79 104 132 172 219 264 310
#     4   9  18  31  50  78 107 130 163 216 262 309
#     4  10  20  35  54  79 105 137 183 230 263 306
#
# _framework density 17.514279999999999
#
# number of rings (size 3 to 8) (size 9 to 14) (size 15 to 20)
#    0.000    2.375    2.500    3.375    0.000    2.750 
#    0.000    1.250    0.000    0.375    0.000    0.000 
#    0.000    0.000    0.000    0.000    0.000    0.000 
#
# Total GULP energy -178342.267588 kJ/mol
# GULP energy per Si atom -5573.195862 kJ/mol
# Density = 1.747442 g / cm^3
# Si number density = 17.514280 Si / 1000 Ang^3
#
#
#
# Elastic Constant Matrix: (Units=GPa)
#
#
# Indices 1 2 3 4 5 6 
#
# 1 33.4534 18.3402 53.5808 0.0000 0.6448 0.0000
# 2 18.3402 102.6181 37.6995 0.0000 -4.5525 0.0000
# 3 53.5808 37.6995 114.2664 0.0000 15.4674 0.0000
# 4 0.0000 0.0000 0.0000 11.9688 0.0000 3.5121
# 5 0.6448 -4.5525 15.4674 0.0000 30.0639 0.0000
# 6 0.0000 0.0000 0.0000 3.5121 0.0000 14.4173
#
#
#
# Elastic Compliance Matrix: (Units=1/GPa)
#
#
# Indices 1 2 3 4 5 6 
#
# 1 0.148425 0.002766 -0.075387 0.000000 0.036021 0.000000
# 2 0.002766 0.011566 -0.005742 0.000000 0.004646 0.000000
# 3 -0.075387 -0.005742 0.049330 0.000000 -0.024632 0.000000
# 4 0.000000 0.000000 0.000000 0.089982 0.000000 -0.021920
# 5 0.036021 0.004646 -0.024632 0.000000 0.045867 0.000000
# 6 0.000000 0.000000 0.000000 -0.021920 0.000000 0.074701
#
#
# Mechanical properties :
#
#
# Convention : Reuss Voigt Hill
#
# Bulk Modulus (GPa) = 19.01277 52.17543 35.59410
# Shear Modulus (GPa) = 8.41569 20.67116 14.54343
#
# Velocity S-wave (km/s) = 2.19442 3.43920 2.88475
# Velocity P-wave (km/s) = 4.15930 6.75468 5.60916
#
# Compressibility (1/GPa) = 0.05259622
#
# Stress axis : x y z
#
# Youngs Moduli (GPa) = 6.73740 86.45961 20.27165
#
# Poissons Ratio (x) = -0.23919 1.52822
# Poissons Ratio (y) = -0.01864 0.11640
# Poissons Ratio (z) = 0.50791 0.49646
#
# Static dielectric constant tensor:
#      x y z
#    x 1.574020 0.000000 0.013640 
#    y 0.000000 1.645060 0.000000 
#    z 0.013640 0.000000 1.613500 
# 
# From -- ./inp_files/246326.got.cif
#   From: 2010.05.17/outbox.cif.g08.bks.cpg/sg12_124_cif.got.tgz:246326.got - 2010.06.03 13:09:07.
