data_PCOD9193330
_publ_section_title
;
Structure prediction by ZEFSAII (Michael W. Deem and Ramdas Pophale) SiO2 
 PCOD9193330
Probable space group: C 2/M
;
_chemical_formula_sum "Si O2"
_cell_formula_units_Z 48
_cell_length_a 31.855404
_cell_length_b 8.735315
_cell_length_c 18.559868
_cell_angle_alpha 90.000000
_cell_angle_beta 30.617024
_cell_angle_gamma 90.000000
_cell_volume 2630.315288
_symmetry_space_group_name_H-M "C 2/M"
_symmetry_group_IT_number 12
_symmetry_cell_setting 'monoclinic'
loop_
_space_group_symop_operation_xyz
x,y,z
-x,y,-z
-x,-y,-z
x,-y,z
1/2+x,1/2+y,z
1/2-x,1/2+y,-z
1/2-x,1/2-y,-z
1/2+x,1/2-y,z
loop_
_atom_site_type_symbol
_atom_site_label
_atom_site_fract_x
_atom_site_fract_y
_atom_site_fract_z
Si Si1 0.169112 0.817980 0.583476
Si Si2 0.921274 0.315506 0.414446
Si Si3 0.414679 0.186702 0.589543
Si Si4 0.410601 0.816817 0.916620
Si Si5 0.000526 0.816139 0.916111
Si Si6 0.248433 0.316012 0.082770
O O1 0.250000 0.750000 0.500000
O O2 0.147491 0.750457 0.537280
O O3 0.089698 0.781579 0.750229
O O4 0.176401 0.000000 0.567816
O O5 0.916734 0.500000 0.419196
O O6 0.911436 0.264094 0.511163
O O7 0.010903 0.272513 0.249583
O O8 0.500000 0.237223 0.500000
O O9 0.334883 0.233631 0.752907
O O10 0.415549 0.000000 0.588017
O O11 0.434047 0.762312 0.962264
O O12 0.402918 0.000000 0.925667
O O13 0.328247 0.741197 0.008068
O O14 0.988023 0.000000 0.931794
O O15 0.000000 0.767914 0.000000
O O16 0.248698 0.500000 0.078987
O O17 0.250000 0.250000 0.000000
#
# Coordination Sequence:
#
# PCOD9193330 Si02
#       6
#     8   8   8   8   8   8
#     4  10  20  34  53  77 106 138 174 217 263 310
#     4   9  18  35  57  77 101 137 179 217 255 304
#     4   9  18  34  56  79 102 134 176 214 250 301
#     4  10  20  35  56  80 107 138 173 217 266 313
#     4   9  19  36  56  77 104 141 182 219 257 307
#     4  11  22  36  56  80 107 138 173 215 261 311
#
# _framework density 18.248763
#
# number of rings (size 3 to 8) (size 9 to 14) (size 15 to 20)
#    0.000    2.333    0.000    2.500    0.000    5.667 
#    0.000    8.333    0.000    3.500    0.000    0.000 
#    0.000    0.000    0.000    0.000    0.000    0.000 
#
# Total GULP energy -133981.999859 kJ/mol
# GULP energy per Si atom -5582.583327 kJ/mol
# Density = 1.820723 g / cm^3
# Si number density = 18.248763 Si / 1000 Ang^3
#
#
#
# Elastic Constant Matrix: (Units=GPa)
#
#
# Indices 1 2 3 4 5 6 
#
# 1 217.2491 49.8056 116.1960 -0.0010 0.1444 0.0004
# 2 49.8056 25.7644 37.1009 -0.0032 -4.3282 0.0025
# 3 116.1960 37.1009 114.1637 -0.0016 -2.5688 0.0011
# 4 -0.0010 -0.0032 -0.0016 23.8554 0.0012 -2.7035
# 5 0.1444 -4.3282 -2.5688 0.0012 42.1703 -0.0005
# 6 0.0004 0.0025 0.0011 -2.7035 -0.0005 37.1570
#
#
#
# Elastic Compliance Matrix: (Units=1/GPa)
#
#
# Indices 1 2 3 4 5 6 
#
# 1 0.011418 -0.010444 -0.008264 -0.000001 -0.001614 0.000001
# 2 -0.010444 0.084083 -0.016522 0.000009 0.007659 -0.000004
# 3 -0.008264 -0.016522 0.022533 -0.000001 -0.000295 0.000000
# 4 -0.000001 0.000009 -0.000001 0.042268 0.000000 0.003075
# 5 -0.001614 0.007659 -0.000295 0.000000 0.024487 0.000000
# 6 0.000001 -0.000004 0.000000 0.003075 0.000000 0.027137
#
#
# Mechanical properties :
#
#
# Convention : Reuss Voigt Hill
#
# Bulk Modulus (GPa) = 21.02043 84.82023 52.92033
# Shear Modulus (GPa) = 16.76477 30.90819 23.83648
#
# Velocity S-wave (km/s) = 3.03426 4.11994 3.61806
# Velocity P-wave (km/s) = 4.88052 8.31942 6.82027
#
# Compressibility (1/GPa) = 0.04757277
#
# Stress axis : x y z
#
# Youngs Moduli (GPa) = 87.57761 11.89306 44.37921
#
# Poissons Ratio (x) = 0.12422 0.36674
# Poissons Ratio (y) = 0.91470 0.73325
# Poissons Ratio (z) = 0.72372 0.19650
#
# Static dielectric constant tensor:
#      x y z
#    x 1.598660 0.000000 0.010120 
#    y 0.000000 1.618870 0.000000 
#    z 0.010120 0.000000 1.615930 
# 
# From -- ./inp_files/244759.got.cif
#   From: 2010.05.17/outbox.cif.g08.bks.cpg/sg12_123_cif.got.tgz:244759.got - 2010.06.03 13:09:07.
