data_PCOD9193879
_publ_section_title
;
Structure prediction by ZEFSAII (Michael W. Deem and Ramdas Pophale) SiO2 
 PCOD9193879
Probable space group: C 2/M
;
_chemical_formula_sum "Si O2"
_cell_formula_units_Z 56
_cell_length_a 14.470041
_cell_length_b 22.937092
_cell_length_c 13.015264
_cell_angle_alpha 90.000000
_cell_angle_beta 135.818514
_cell_angle_gamma 90.000000
_cell_volume 3010.595339
_symmetry_space_group_name_H-M "C 2/M"
_symmetry_group_IT_number 12
_symmetry_cell_setting 'monoclinic'
loop_
_space_group_symop_operation_xyz
x,y,z
-x,y,-z
-x,-y,-z
x,-y,z
1/2+x,1/2+y,z
1/2-x,1/2+y,-z
1/2-x,1/2-y,-z
1/2+x,1/2-y,z
loop_
_atom_site_type_symbol
_atom_site_label
_atom_site_fract_x
_atom_site_fract_y
_atom_site_fract_z
Si Si1 0.843584 0.876019 0.894768
Si Si2 0.797212 0.822125 0.154260
Si Si3 0.785001 0.932737 0.638511
Si Si4 0.081956 0.664310 0.459500
Si Si5 0.044021 0.276269 0.834850
Si Si6 0.596733 0.569086 0.844011
Si Si7 0.274974 0.741588 0.732844
O O1 0.784640 0.917440 0.759704
O O2 0.791435 0.811118 0.829298
O O3 0.833275 0.905276 0.997209
O O4 0.000000 0.872340 0.000000
O O5 0.895708 0.784226 0.160644
O O6 0.842213 0.888721 0.192329
O O7 0.795129 0.793728 0.264324
O O8 0.653191 0.809453 0.990009
O O9 0.674543 0.890290 0.504670
O O10 0.937281 0.921439 0.725347
O O11 0.755666 0.000000 0.597230
O O12 0.183673 0.715768 0.570805
O O13 0.000000 0.653079 0.500000
O O14 0.994739 0.684902 0.294631
O O15 0.915748 0.260464 0.799904
O O16 0.618495 0.500000 0.851889
#
# Coordination Sequence:
#
# PCOD9193879 Si02
#       7
#     8   8   8   8   8   8   8
#     4   9  15  28  50  81 108 137 177 225 280 335
#     4  11  21  35  58  85 112 146 190 228 283 336
#     4   9  19  34  54  77 111 153 187 227 282 338
#     4  11  22  37  53  84 120 148 189 231 281 344
#     4  11  22  37  57  85 116 150 181 234 286 338
#     4  10  20  34  54  82 112 147 191 235 280 329
#     4  11  21  36  58  83 117 148 187 232 288 339
#
# _framework density 18.600973
#
# number of rings (size 3 to 8) (size 9 to 14) (size 15 to 20)
#    0.000    1.714    1.429    6.429    2.000    2.000 
#    0.000    0.714    0.000    2.571    0.000    4.000 
#    0.000    0.000    0.000    0.000    0.000    0.000 
#
# Total GULP energy -156344.770630 kJ/mol
# GULP energy per Si atom -5583.741808 kJ/mol
# Density = 1.855864 g / cm^3
# Si number density = 18.600973 Si / 1000 Ang^3
#
#
#
# Elastic Constant Matrix: (Units=GPa)
#
#
# Indices 1 2 3 4 5 6 
#
# 1 70.3736 42.7556 -8.8468 0.0000 13.3278 0.0000
# 2 42.7556 97.8891 30.5283 0.0000 2.2924 0.0000
# 3 -8.8468 30.5283 41.6266 0.0000 1.2115 0.0000
# 4 0.0000 0.0000 0.0000 16.3595 0.0000 9.5008
# 5 13.3278 2.2924 1.2115 0.0000 16.5842 0.0000
# 6 0.0000 0.0000 0.0000 9.5008 0.0000 26.5672
#
#
#
# Elastic Compliance Matrix: (Units=1/GPa)
#
#
# Indices 1 2 3 4 5 6 
#
# 1 0.037509 -0.023930 0.026359 0.000000 -0.028762 0.000000
# 2 -0.023930 0.028533 -0.026512 0.000000 0.017224 0.000000
# 3 0.026359 -0.026512 0.049684 0.000000 -0.021148 0.000000
# 4 0.000000 0.000000 0.000000 0.077149 0.000000 -0.027590
# 5 -0.028762 0.017224 -0.021148 0.000000 0.082577 0.000000
# 6 0.000000 0.000000 0.000000 -0.027590 0.000000 0.047507
#
#
# Mechanical properties :
#
#
# Convention : Reuss Voigt Hill
#
# Bulk Modulus (GPa) = 14.80194 37.64039 26.22117
# Shear Modulus (GPa) = 12.70178 21.59901 17.15040
#
# Velocity S-wave (km/s) = 2.61599 3.41130 3.03977
# Velocity P-wave (km/s) = 4.13514 5.98294 5.14271
#
# Compressibility (1/GPa) = 0.06755870
#
# Stress axis : x y z
#
# Youngs Moduli (GPa) = 26.66012 35.04761 20.12709
#
# Poissons Ratio (x) = 0.83869 -0.53052
# Poissons Ratio (y) = 0.63797 0.53362
# Poissons Ratio (z) = -0.70272 0.92920
#
# Static dielectric constant tensor:
#      x y z
#    x 1.663740 0.000000 0.002470 
#    y 0.000000 1.637660 0.000000 
#    z 0.002470 0.000000 1.663230 
# 
# From -- ./inp_files/217730.got.cif
#   From: 2010.05.17/outbox.cif.g08.bks.cpg/sg12_109_cif.got.tgz:217730.got - 2010.06.03 13:09:07.
