data_PCOD9193621
_publ_section_title
;
Structure prediction by ZEFSAII (Michael W. Deem and Ramdas Pophale) SiO2 
 PCOD9193621
Probable space group: C 2/M
;
_chemical_formula_sum "Si O2"
_cell_formula_units_Z 56
_cell_length_a 8.839247
_cell_length_b 11.085805
_cell_length_c 32.198606
_cell_angle_alpha 90.000000
_cell_angle_beta 110.681082
_cell_angle_gamma 90.000000
_cell_volume 2951.831348
_symmetry_space_group_name_H-M "C 2/M"
_symmetry_group_IT_number 12
_symmetry_cell_setting 'monoclinic'
loop_
_space_group_symop_operation_xyz
x,y,z
-x,y,-z
-x,-y,-z
x,-y,z
1/2+x,1/2+y,z
1/2-x,1/2+y,-z
1/2-x,1/2-y,-z
1/2+x,1/2-y,z
loop_
_atom_site_type_symbol
_atom_site_label
_atom_site_fract_x
_atom_site_fract_y
_atom_site_fract_z
Si Si1 0.319272 0.366780 0.760512
Si Si2 0.137847 0.363225 0.978527
Si Si3 0.791235 0.860506 0.659895
Si Si4 0.324428 0.699983 0.182549
Si Si5 0.931488 0.863874 0.377291
Si Si6 0.967799 0.367215 0.125816
Si Si7 0.143109 0.866615 0.480265
O O1 0.252304 0.500000 0.761400
O O2 0.300385 0.339318 0.710064
O O3 0.510286 0.366482 0.789436
O O4 0.227522 0.277515 0.782339
O O5 0.211900 0.500000 0.985656
O O6 0.063960 0.342468 0.925608
O O7 0.250000 0.250000 0.000000
O O8 0.000000 0.365070 0.000000
O O9 0.686180 0.750655 0.631318
O O10 0.966371 0.855572 0.655266
O O11 0.731936 0.000000 0.647203
O O12 0.159034 0.634634 0.153869
O O13 0.376846 0.777640 0.147679
O O14 0.060546 0.857200 0.427191
O O15 0.856943 0.000000 0.372282
O O16 0.902979 0.500000 0.128591
O O17 0.250000 0.750000 0.500000
O O18 0.000000 0.867107 0.500000
O O19 0.224587 0.000000 0.490674
#
# Coordination Sequence:
#
# PCOD9193621 Si02
#       7
#     8   8   8   8   8   8   8
#     4  10  20  35  53  76 105 135 172 216 260 309
#     4  10  21  37  56  80 109 140 177 219 262 313
#     4  10  21  36  55  79 107 140 178 219 263 314
#     4  10  20  34  54  77 103 136 172 211 263 312
#     4  10  21  37  55  79 109 140 178 221 264 314
#     4  10  20  35  54  77 105 136 173 215 259 310
#     4  10  21  36  55  80 109 140 177 220 265 316
#
# _framework density 18.971274999999999
#
# number of rings (size 3 to 8) (size 9 to 14) (size 15 to 20)
#    0.000    2.000    0.000    3.429    0.000    1.714 
#    0.000    7.143    0.000    0.000    0.000    0.000 
#    0.000    0.000    0.000    0.000    0.000    0.000 
#
# Total GULP energy -156079.758301 kJ/mol
# GULP energy per Si atom -5574.277082 kJ/mol
# Density = 1.892810 g / cm^3
# Si number density = 18.971275 Si / 1000 Ang^3
#
#
#
# Elastic Constant Matrix: (Units=GPa)
#
#
# Indices 1 2 3 4 5 6 
#
# 1 46.4007 26.5065 -3.7801 0.0000 -9.6742 0.0000
# 2 26.5065 121.9367 28.4709 0.0000 11.4763 0.0000
# 3 -3.7801 28.4709 56.2047 0.0000 -10.6087 0.0000
# 4 0.0000 0.0000 0.0000 23.5820 0.0000 3.8541
# 5 -9.6742 11.4763 -10.6087 0.0000 29.0606 0.0000
# 6 0.0000 0.0000 0.0000 3.8541 0.0000 13.6838
#
#
#
# Elastic Compliance Matrix: (Units=1/GPa)
#
#
# Indices 1 2 3 4 5 6 
#
# 1 0.033771 -0.012144 0.012298 0.000000 0.020527 0.000000
# 2 -0.012144 0.014674 -0.010855 0.000000 -0.013801 0.000000
# 3 0.012298 -0.010855 0.027602 0.000000 0.018457 0.000000
# 4 0.000000 0.000000 0.000000 0.044451 0.000000 -0.012520
# 5 0.020527 -0.013801 0.018457 0.000000 0.053432 0.000000
# 6 0.000000 0.000000 0.000000 -0.012520 0.000000 0.076605
#
#
# Mechanical properties :
#
#
# Convention : Reuss Voigt Hill
#
# Bulk Modulus (GPa) = 18.30061 36.32629 27.31345
# Shear Modulus (GPa) = 17.23230 24.82160 21.02695
#
# Velocity S-wave (km/s) = 3.01713 3.62107 3.33281
# Velocity P-wave (km/s) = 4.66957 6.05578 5.40728
#
# Compressibility (1/GPa) = 0.05464299
#
# Stress axis : x y z
#
# Youngs Moduli (GPa) = 29.61161 68.14635 36.22975
#
# Poissons Ratio (x) = 0.82759 -0.44554
# Poissons Ratio (y) = 0.35961 0.39327
# Poissons Ratio (z) = -0.36415 0.73973
#
# Static dielectric constant tensor:
#      x y z
#    x 1.623290 0.000000 -0.000860 
#    y 0.000000 1.680640 0.000000 
#    z -0.000860 0.000000 1.649750 
# 
# From -- ./inp_files/355754.got.cif
#   From: 2010.05.17/outbox.cif.g08.bks.cpg/sg12_178_cif.got.tgz:355754.got - 2010.06.03 13:09:07.
