data_PCOD9193504
_publ_section_title
;
Structure prediction by ZEFSAII (Michael W. Deem and Ramdas Pophale) SiO2 
 PCOD9193504
Probable space group: C 2/M
;
_chemical_formula_sum "Si O2"
_cell_formula_units_Z 64
_cell_length_a 16.928047
_cell_length_b 18.278878
_cell_length_c 17.197997
_cell_angle_alpha 90.000000
_cell_angle_beta 139.148785
_cell_angle_gamma 90.000000
_cell_volume 3480.778721
_symmetry_space_group_name_H-M "C 2/M"
_symmetry_group_IT_number 12
_symmetry_cell_setting 'monoclinic'
loop_
_space_group_symop_operation_xyz
x,y,z
-x,y,-z
-x,-y,-z
x,-y,z
1/2+x,1/2+y,z
1/2-x,1/2+y,-z
1/2-x,1/2-y,-z
1/2+x,1/2-y,z
loop_
_atom_site_type_symbol
_atom_site_label
_atom_site_fract_x
_atom_site_fract_y
_atom_site_fract_z
Si Si1 0.738355 0.661235 0.197036
Si Si2 0.876318 0.085640 0.028676
Si Si3 0.364410 0.086128 0.048802
Si Si4 0.891586 0.168793 0.736585
Si Si5 0.016521 0.583636 0.605052
Si Si6 0.618262 0.842699 0.265885
Si Si7 0.737000 0.913078 0.497191
Si Si8 0.641084 0.182509 0.107170
O O1 0.696736 0.654975 0.255471
O O2 0.875309 0.635814 0.290006
O O3 0.719569 0.744822 0.157402
O O4 0.652523 0.611355 0.079991
O O5 0.980149 0.135300 0.143332
O O6 0.909709 0.000000 0.056533
O O7 0.751132 0.096014 0.982326
O O8 0.487284 0.119378 0.175600
O O9 0.382813 0.000000 0.050116
O O10 0.341810 0.126638 0.950189
O O11 0.895922 0.256156 0.728975
O O12 0.838762 0.128339 0.622079
O O13 0.052459 0.500000 0.651286
O O14 0.000000 0.588267 0.500000
O O15 0.889603 0.598359 0.551420
O O16 0.712450 0.878988 0.394625
O O17 0.658404 0.850561 0.205812
O O18 0.760016 0.000000 0.510950
O O19 0.500000 0.206575 0.000000
#
# Coordination Sequence:
#
# PCOD9193504 Si02
#       8
#     8   8   8   8   8   8   8   8
#     4  11  20  35  56  81 115 147 183 225 267 325
#     4  11  23  35  54  84 113 147 187 221 267 333
#     4  10  21  38  58  83 112 140 179 233 284 325
#     4  11  23  38  54  78 116 153 180 223 277 322
#     4  10  20  34  53  80 112 148 183 219 266 318
#     4  10  21  37  58  84 108 138 188 233 272 328
#     4  11  22  37  58  82 111 148 188 226 271 325
#     4   9  20  37  58  84 111 140 178 230 286 331
#
# _framework density 18.386690000000002
#
# number of rings (size 3 to 8) (size 9 to 14) (size 15 to 20)
#    0.000    1.625    1.250    4.875    0.000    9.750 
#    0.000    0.000    0.000    0.000    0.000    2.625 
#    0.000    0.000    0.000    0.000    0.000    0.000 
#
# Total GULP energy -178831.160552 kJ/mol
# GULP energy per Si atom -5588.473767 kJ/mol
# Density = 1.834484 g / cm^3
# Si number density = 18.386690 Si / 1000 Ang^3
#
#
#
# Elastic Constant Matrix: (Units=GPa)
#
#
# Indices 1 2 3 4 5 6 
#
# 1 17.9447 20.9218 5.7244 0.0000 -3.9132 0.0000
# 2 20.9218 75.2957 40.7070 0.0000 -0.1154 0.0000
# 3 5.7244 40.7070 98.7986 0.0000 -15.4554 0.0000
# 4 0.0000 0.0000 0.0000 32.0392 0.0000 10.1662
# 5 -3.9132 -0.1154 -15.4554 0.0000 25.6015 0.0000
# 6 0.0000 0.0000 0.0000 10.1662 0.0000 11.4279
#
#
#
# Elastic Compliance Matrix: (Units=1/GPa)
#
#
# Indices 1 2 3 4 5 6 
#
# 1 0.094213 -0.032119 0.011049 0.000000 0.020926 0.000000
# 2 -0.032119 0.028544 -0.011758 0.000000 -0.011879 0.000000
# 3 0.011049 -0.011758 0.016103 0.000000 0.011357 0.000000
# 4 0.000000 0.000000 0.000000 0.043487 0.000000 -0.038685
# 5 0.020926 -0.011879 0.011357 0.000000 0.049061 0.000000
# 6 0.000000 0.000000 0.000000 -0.038685 0.000000 0.121919
#
#
# Mechanical properties :
#
#
# Convention : Reuss Voigt Hill
#
# Bulk Modulus (GPa) = 13.66075 36.30504 24.98289
# Shear Modulus (GPa) = 11.27687 22.12612 16.70149
#
# Velocity S-wave (km/s) = 2.47921 3.47274 3.01715
# Velocity P-wave (km/s) = 3.95489 5.98899 5.07490
#
# Compressibility (1/GPa) = 0.07320243
#
# Stress axis : x y z
#
# Youngs Moduli (GPa) = 10.61421 35.03336 62.10189
#
# Poissons Ratio (x) = 1.12525 -0.68614
# Poissons Ratio (y) = 0.34092 0.73020
# Poissons Ratio (z) = -0.11727 0.41192
#
# Static dielectric constant tensor:
#      x y z
#    x 1.630600 0.000000 -0.014940 
#    y 0.000000 1.613810 0.000000 
#    z -0.014940 0.000000 1.625500 
# 
# From -- ./inp_files/278195.got.cif
#   From: 2010.05.17/outbox.cif.g08.bks.cpg/sg12_140_cif.got.tgz:278195.got - 2010.06.03 13:09:07.
