data_PCOD9193595
_publ_section_title
;
Structure prediction by ZEFSAII (Michael W. Deem and Ramdas Pophale) SiO2 
 PCOD9193595
Probable space group: C 2/M
;
_chemical_formula_sum "Si O2"
_cell_formula_units_Z 56
_cell_length_a 13.890334
_cell_length_b 10.750869
_cell_length_c 21.026858
_cell_angle_alpha 90.000000
_cell_angle_beta 82.620599
_cell_angle_gamma 90.000000
_cell_volume 3113.999761
_symmetry_space_group_name_H-M "C 2/M"
_symmetry_group_IT_number 12
_symmetry_cell_setting 'monoclinic'
loop_
_space_group_symop_operation_xyz
x,y,z
-x,y,-z
-x,-y,-z
x,-y,z
1/2+x,1/2+y,z
1/2-x,1/2+y,-z
1/2-x,1/2-y,-z
1/2+x,1/2-y,z
loop_
_atom_site_type_symbol
_atom_site_label
_atom_site_fract_x
_atom_site_fract_y
_atom_site_fract_z
Si Si1 0.781595 0.643546 0.233043
Si Si2 0.615273 0.642883 0.987178
Si Si3 0.400035 0.798658 0.534719
Si Si4 0.595457 0.357174 0.337401
Si Si5 0.606739 0.353217 0.712817
Si Si6 0.737751 0.141433 0.912704
Si Si7 0.316894 0.363789 0.428402
O O1 0.816936 0.500000 0.239635
O O2 0.693080 0.664524 0.289263
O O3 0.859618 0.752332 0.238712
O O4 0.744642 0.651699 0.163805
O O5 0.634029 0.500000 0.963198
O O6 0.665246 0.749804 0.940951
O O7 0.500000 0.659794 0.000000
O O8 0.666159 0.653445 0.052112
O O9 0.500000 0.857449 0.500000
O O10 0.417069 0.731221 0.600722
O O11 0.368541 0.704981 0.481384
O O12 0.298584 0.870168 0.551846
O O13 0.598085 0.500000 0.360431
O O14 0.505772 0.345092 0.296581
O O15 0.629368 0.500000 0.725118
O O16 0.661157 0.311815 0.643021
O O17 0.699670 0.000000 0.927675
O O18 0.360774 0.500000 0.422675
#
# Coordination Sequence:
#
# PCOD9193595 Si02
#       7
#     8   8   8   8   8   8   8
#     4  10  21  38  55  76 110 148 182 216 264 322
#     4   9  18  34  59  89 115 142 179 221 260 305
#     4  11  20  33  53  74 100 131 175 224 281 335
#     4  10  20  34  54  76 102 138 180 223 273 329
#     4  10  20  36  55  77 103 136 181 230 272 317
#     4   9  19  35  55  81 115 149 178 216 262 313
#     4  10  21  34  50  74 101 129 170 225 279 329
#
# _framework density 17.983302999999999
#
# number of rings (size 3 to 8) (size 9 to 14) (size 15 to 20)
#    0.000    2.143    2.857    0.429    0.000    2.857 
#    0.000    4.286    0.000    0.000    0.000    0.000 
#    0.000    0.000    0.000    0.000    0.000    0.000 
#
# Total GULP energy -155900.813613 kJ/mol
# GULP energy per Si atom -5567.886200 kJ/mol
# Density = 1.794237 g / cm^3
# Si number density = 17.983303 Si / 1000 Ang^3
#
#
#
# Elastic Constant Matrix: (Units=GPa)
#
#
# Indices 1 2 3 4 5 6 
#
# 1 86.4622 45.3332 14.7941 0.0000 4.9974 0.0000
# 2 45.3332 91.9805 54.9819 0.0000 6.9808 0.0000
# 3 14.7941 54.9819 63.0687 0.0000 11.9813 0.0000
# 4 0.0000 0.0000 0.0000 -43.2849 0.0000 -35.0052
# 5 4.9974 6.9808 11.9813 0.0000 11.7409 0.0000
# 6 0.0000 0.0000 0.0000 -35.0052 0.0000 -4.1388
#
#
#
# Elastic Compliance Matrix: (Units=1/GPa)
#
#
# Indices 1 2 3 4 5 6 
#
# 1 0.017648 -0.013711 0.009541 0.000000 -0.009096 0.000000
# 2 -0.013711 0.034027 -0.029416 0.000000 0.015622 0.000000
# 3 0.009541 -0.029416 0.045539 0.000000 -0.033042 0.000000
# 4 0.000000 0.000000 0.000000 0.003956 0.000000 -0.033459
# 5 -0.009096 0.015622 -0.033042 0.000000 0.113474 0.000000
# 6 0.000000 0.000000 0.000000 -0.033459 0.000000 0.041373
#
#
# Mechanical properties :
#
#
# Convention : Reuss Voigt Hill
#
# Bulk Modulus (GPa) = 33.28590 52.41442 42.85016
# Shear Modulus (GPa) = 15.00594 1.29024 8.14809
#
# Velocity S-wave (km/s) = 2.89180 0.84795 2.13091
# Velocity P-wave (km/s) = 5.44973 5.49255 5.47118
#
# Compressibility (1/GPa) = 0.03004275
#
# Stress axis : x y z
#
# Youngs Moduli (GPa) = 56.66496 29.38850 21.95931
#
# Poissons Ratio (x) = 0.40293 -0.20951
# Poissons Ratio (y) = 0.77691 0.64595
# Poissons Ratio (z) = -0.54063 0.86448
#
# Static dielectric constant tensor:
#      x y z
#    x 1.617920 0.000000 -0.000340 
#    y 0.000000 1.623120 0.000000 
#    z -0.000340 0.000000 1.617110 
# 
# From -- ./inp_files/304216.got.cif
#   From: 2010.05.17/outbox.cif.g08.bks.cpg/sg12_153_cif.got.tgz:304216.got - 2010.06.03 13:09:07.
