data_PCOD9193605
_publ_section_title
;
Structure prediction by ZEFSAII (Michael W. Deem and Ramdas Pophale) SiO2 
 PCOD9193605
Probable space group: C 2/M
;
_chemical_formula_sum "Si O2"
_cell_formula_units_Z 48
_cell_length_a 24.662892
_cell_length_b 7.398560
_cell_length_c 21.593453
_cell_angle_alpha 90.000000
_cell_angle_beta 151.303871
_cell_angle_gamma 90.000000
_cell_volume 1891.921469
_symmetry_space_group_name_H-M "C 2/M"
_symmetry_group_IT_number 12
_symmetry_cell_setting 'monoclinic'
loop_
_space_group_symop_operation_xyz
x,y,z
-x,y,-z
-x,-y,-z
x,-y,z
1/2+x,1/2+y,z
1/2-x,1/2+y,-z
1/2-x,1/2-y,-z
1/2+x,1/2-y,z
loop_
_atom_site_type_symbol
_atom_site_label
_atom_site_fract_x
_atom_site_fract_y
_atom_site_fract_z
Si Si1 0.645689 0.794817 0.666426
Si Si2 0.354363 0.780274 0.466783
Si Si3 0.503920 0.220874 0.732440
Si Si4 0.860611 0.293774 0.813748
Si Si5 0.469969 0.212243 0.107932
Si Si6 0.207225 0.718763 0.857627
O O1 0.596620 0.722034 0.552121
O O2 0.780470 0.798486 0.783856
O O3 0.644163 0.712119 0.732482
O O4 0.607346 0.000000 0.635350
O O5 0.419651 0.722518 0.593216
O O6 0.225906 0.713462 0.332032
O O7 0.354360 0.000000 0.465538
O O8 0.479842 0.285854 0.777426
O O9 0.630301 0.275549 0.838104
O O10 0.501534 0.000000 0.731292
O O11 0.874272 0.500000 0.849157
O O12 0.975493 0.215185 0.900940
O O13 0.497803 0.000000 0.132155
O O14 0.336266 0.225612 0.982580
O O15 0.205903 0.500000 0.855101
#
# Coordination Sequence:
#
# PCOD9193605 Si02
#       6
#     8   8   8   8   8   8
#     4   8  17  33  52  77 101 127 165 208 251 295
#     4   8  16  33  54  76 101 128 163 208 253 293
#     4   9  18  34  55  76 100 132 168 205 248 299
#     4   9  18  33  51  74 103 133 166 203 249 299
#     4  10  21  35  51  74 104 136 168 203 246 298
#     4  10  20  34  54  77 100 131 170 208 246 294
#
# _framework density 25.371033000000001
#
# number of rings (size 3 to 8) (size 9 to 14) (size 15 to 20)
#    1.000    2.000    0.000    0.500    0.000    4.000 
#    0.000    8.333    0.000    1.000    0.000    0.000 
#    0.000    0.000    0.000    0.000    0.000    0.000 
#
# Total GULP energy -133840.184720 kJ/mol
# GULP energy per Si atom -5576.674363 kJ/mol
# Density = 2.531329 g / cm^3
# Si number density = 25.371033 Si / 1000 Ang^3
#
#
#
# Elastic Constant Matrix: (Units=GPa)
#
#
# Indices 1 2 3 4 5 6 
#
# 1 103.9212 4.1403 -6.0156 0.0000 -7.2502 0.0000
# 2 4.1403 96.6794 -8.2432 0.0000 -0.0587 0.0000
# 3 -6.0156 -8.2432 73.2065 0.0000 -6.1434 0.0000
# 4 0.0000 0.0000 0.0000 14.5056 0.0000 9.4846
# 5 -7.2502 -0.0587 -6.1434 0.0000 43.8035 0.0000
# 6 0.0000 0.0000 0.0000 9.4846 0.0000 -22.7904
#
#
#
# Elastic Compliance Matrix: (Units=1/GPa)
#
#
# Indices 1 2 3 4 5 6 
#
# 1 0.009811 -0.000341 0.000915 0.000000 0.001752 0.000000
# 2 -0.000341 0.010457 0.001160 0.000000 0.000120 0.000000
# 3 0.000915 0.001160 0.014044 0.000000 0.002123 0.000000
# 4 0.000000 0.000000 0.000000 0.054192 0.000000 0.022553
# 5 0.001752 0.000120 0.002123 0.000000 0.023417 0.000000
# 6 0.000000 0.000000 0.000000 0.022553 0.000000 -0.034492
#
#
# Mechanical properties :
#
#
# Convention : Reuss Voigt Hill
#
# Bulk Modulus (GPa) = 26.46986 28.17446 27.32216
# Shear Modulus (GPa) = 57.76618 26.03211 41.89915
#
# Velocity S-wave (km/s) = 4.77682 3.20669 4.06822
# Velocity P-wave (km/s) = 6.39373 4.98393 5.73233
#
# Compressibility (1/GPa) = 0.03777882
#
# Stress axis : x y z
#
# Youngs Moduli (GPa) = 101.92183 95.62959 71.20553
#
# Poissons Ratio (x) = 0.03262 -0.06514
# Poissons Ratio (y) = 0.03477 -0.08256
# Poissons Ratio (z) = -0.09324 -0.11089
#
# Static dielectric constant tensor:
#      x y z
#    x 2.018110 0.000000 0.023930 
#    y 0.000000 1.747030 0.000000 
#    z 0.023930 0.000000 2.084220 
# 
# From -- ./inp_files/323860.got.cif
#   From: 2010.05.17/outbox.cif.g08.bks.cpg/sg12_162_cif.got.tgz:323860.got - 2010.06.03 13:09:07.
