data_PCOD9193020
_publ_section_title
;
Structure prediction by ZEFSAII (Michael W. Deem and Ramdas Pophale) SiO2 
 PCOD9193020
Probable space group: C 2/M
;
_chemical_formula_sum "Si O2"
_cell_formula_units_Z 48
_cell_length_a 18.830607
_cell_length_b 7.522419
_cell_length_c 21.259961
_cell_angle_alpha 90.000000
_cell_angle_beta 131.558328
_cell_angle_gamma 90.000000
_cell_volume 2253.455004
_symmetry_space_group_name_H-M "C 2/M"
_symmetry_group_IT_number 12
_symmetry_cell_setting 'monoclinic'
loop_
_space_group_symop_operation_xyz
x,y,z
-x,y,-z
-x,-y,-z
x,-y,z
1/2+x,1/2+y,z
1/2-x,1/2+y,-z
1/2-x,1/2-y,-z
1/2+x,1/2-y,z
loop_
_atom_site_type_symbol
_atom_site_label
_atom_site_fract_x
_atom_site_fract_y
_atom_site_fract_z
Si Si1 0.516862 0.717425 0.081711
Si Si2 0.269537 0.790170 0.408978
Si Si3 0.108633 0.291728 0.750515
Si Si4 0.143400 0.788848 0.915402
Si Si5 0.272568 0.718284 0.755054
Si Si6 0.899794 0.715861 0.596964
O O1 0.515239 0.500000 0.080722
O O2 0.433826 0.778588 0.079752
O O3 0.620394 0.773606 0.166348
O O4 0.500000 0.773580 0.000000
O O5 0.260084 0.719953 0.333060
O O6 0.170633 0.767161 0.387915
O O7 0.350724 0.719442 0.503556
O O8 0.288054 0.000000 0.413614
O O9 0.104287 0.500000 0.731820
O O10 0.125036 0.278119 0.834402
O O11 0.197682 0.220785 0.763532
O O12 0.005916 0.217609 0.671053
O O13 0.132136 0.000000 0.906097
O O14 0.250000 0.750000 0.000000
O O15 0.274598 0.500000 0.756042
O O16 0.900518 0.500000 0.595987
#
# Coordination Sequence:
#
# PCOD9193020 Si02
#       6
#     8   8   8   8   8   8
#     4   9  17  30  50  74  97 125 164 205 244 291
#     4   9  17  31  51  73  99 135 178 215 250 301
#     4  10  20  34  52  75 104 134 166 209 258 303
#     4  11  22  36  56  79 103 132 166 205 249 299
#     4   9  17  30  50  74  99 132 174 214 250 294
#     4   9  18  31  49  75 104 133 167 213 264 304
#
# _framework density 21.300626000000001
#
# number of rings (size 3 to 8) (size 9 to 14) (size 15 to 20)
#    0.000    2.500    0.000    2.500    0.000    5.333 
#    0.000    4.167    0.000   11.000    0.000    5.833 
#    0.000    0.000    0.000    0.000    0.000    0.000 
#
# Total GULP energy -134048.968283 kJ/mol
# GULP energy per Si atom -5585.373678 kJ/mol
# Density = 2.125215 g / cm^3
# Si number density = 21.300626 Si / 1000 Ang^3
#
#
#
# Elastic Constant Matrix: (Units=GPa)
#
#
# Indices 1 2 3 4 5 6 
#
# 1 191.6701 -14.9934 129.0139 0.0000 -1.4688 0.0000
# 2 -14.9934 45.4120 -13.7101 0.0000 -0.8432 0.0000
# 3 129.0139 -13.7101 175.5146 0.0000 2.1305 0.0000
# 4 0.0000 0.0000 0.0000 5.3526 0.0000 -0.3255
# 5 -1.4688 -0.8432 2.1305 0.0000 44.6044 0.0000
# 6 0.0000 0.0000 0.0000 -0.3255 0.0000 17.0404
#
#
#
# Elastic Compliance Matrix: (Units=1/GPa)
#
#
# Indices 1 2 3 4 5 6 
#
# 1 0.010409 0.001165 -0.007569 0.000000 0.000726 0.000000
# 2 0.001165 0.022688 0.000911 0.000000 0.000424 0.000000
# 3 -0.007569 0.000911 0.011342 0.000000 -0.000774 0.000000
# 4 0.000000 0.000000 0.000000 0.187042 0.000000 0.003572
# 5 0.000726 0.000424 -0.000774 0.000000 0.022488 0.000000
# 6 0.000000 0.000000 0.000000 0.003572 0.000000 0.058752
#
#
# Mechanical properties :
#
#
# Convention : Reuss Voigt Hill
#
# Bulk Modulus (GPa) = 29.89336 68.13526 49.01431
# Shear Modulus (GPa) = 14.93175 34.21857 24.57516
#
# Velocity S-wave (km/s) = 2.65051 4.01241 3.40034
# Velocity P-wave (km/s) = 4.84060 7.31593 6.20299
#
# Compressibility (1/GPa) = 0.03345225
#
# Stress axis : x y z
#
# Youngs Moduli (GPa) = 96.07515 44.07598 88.17150
#
# Poissons Ratio (x) = -0.05135 0.66734
# Poissons Ratio (y) = -0.11192 -0.08031
# Poissons Ratio (z) = 0.72716 -0.04014
#
# Static dielectric constant tensor:
#      x y z
#    x 1.730110 0.000000 0.007150 
#    y 0.000000 1.800580 0.000000 
#    z 0.007150 0.000000 1.731090 
# 
# From -- ./inp_files/313574.got.cif
#   From: 2010.05.17/outbox.cif.g08.bks.cpg/sg12_157_cif.got.tgz:313574.got - 2010.06.03 13:09:07.
