data_PCOD9193508
_publ_section_title
;
Structure prediction by ZEFSAII (Michael W. Deem and Ramdas Pophale) SiO2 
 PCOD9193508
Probable space group: C 2/M
;
_chemical_formula_sum "Si O2"
_cell_formula_units_Z 64
_cell_length_a 28.112363
_cell_length_b 7.827759
_cell_length_c 15.685156
_cell_angle_alpha 90.000000
_cell_angle_beta 121.143889
_cell_angle_gamma 90.000000
_cell_volume 2954.146546
_symmetry_space_group_name_H-M "C 2/M"
_symmetry_group_IT_number 12
_symmetry_cell_setting 'monoclinic'
loop_
_space_group_symop_operation_xyz
x,y,z
-x,y,-z
-x,-y,-z
x,-y,z
1/2+x,1/2+y,z
1/2-x,1/2+y,-z
1/2-x,1/2-y,-z
1/2+x,1/2-y,z
loop_
_atom_site_type_symbol
_atom_site_label
_atom_site_fract_x
_atom_site_fract_y
_atom_site_fract_z
Si Si1 0.887741 0.295358 0.329317
Si Si2 0.061312 0.790927 0.087328
Si Si3 0.921190 0.298147 0.177020
Si Si4 0.237843 0.703298 0.763668
Si Si5 0.040395 0.800421 0.250612
Si Si6 0.223101 0.796752 0.564970
Si Si7 0.844743 0.792879 0.959271
Si Si8 0.096044 0.793893 0.471287
O O1 0.884377 0.500000 0.317840
O O2 0.914678 0.230781 0.267167
O O3 0.824396 0.227195 0.279502
O O4 0.918622 0.258836 0.446412
O O5 0.068234 0.729182 0.191005
O O6 0.109086 0.736170 0.067000
O O7 0.061821 0.000000 0.088541
O O8 0.000000 0.738460 0.000000
O O9 0.932126 0.500000 0.189200
O O10 0.974090 0.213233 0.181338
O O11 0.866067 0.266621 0.070784
O O12 0.234940 0.500000 0.773923
O O13 0.252912 0.731335 0.678283
O O14 0.285015 0.769284 0.870971
O O15 0.058720 0.727940 0.358851
O O16 0.055609 0.000000 0.266833
O O17 0.250000 0.750000 0.500000
O O18 0.159256 0.734319 0.511589
O O19 0.221844 0.000000 0.569613
O O20 0.844295 0.000000 0.959506
O O21 0.095264 0.000000 0.470531
#
# Coordination Sequence:
#
# PCOD9193508 Si02
#       8
#     8   8   8   8   8   8   8   8
#     4   9  20  39  57  76 109 147 179 222 278 329
#     4   9  16  30  54  78 104 137 172 216 269 316
#     4  11  23  37  54  78 111 146 180 223 277 331
#     4   9  19  36  58  80 105 141 187 227 268 322
#     4  10  20  36  57  81 108 139 183 228 268 319
#     4  10  20  34  53  80 113 146 182 222 271 322
#     4  10  20  35  58  83 106 141 185 224 268 325
#     4   9  20  36  57  82 107 139 183 233 271 310
#
# _framework density 21.664463999999999
#
# number of rings (size 3 to 8) (size 9 to 14) (size 15 to 20)
#    0.000    2.375    1.250    0.750    1.750    3.500 
#    0.000    3.750    0.000    0.000    0.000    0.000 
#    0.000    0.000    0.000    0.000    0.000    0.000 
#
# Total GULP energy -178635.504873 kJ/mol
# GULP energy per Si atom -5582.359527 kJ/mol
# Density = 2.161515 g / cm^3
# Si number density = 21.664464 Si / 1000 Ang^3
#
#
#
# Elastic Constant Matrix: (Units=GPa)
#
#
# Indices 1 2 3 4 5 6 
#
# 1 22.5941 -1.2413 0.7457 0.0000 -20.4163 0.0000
# 2 -1.2413 25.3864 -2.2804 0.0000 -1.3492 0.0000
# 3 0.7457 -2.2804 114.2649 0.0000 -13.2037 0.0000
# 4 0.0000 0.0000 0.0000 18.5159 0.0000 -1.4396
# 5 -20.4163 -1.3492 -13.2037 0.0000 38.3275 0.0000
# 6 0.0000 0.0000 0.0000 -1.4396 0.0000 9.3498
#
#
#
# Elastic Compliance Matrix: (Units=1/GPa)
#
#
# Indices 1 2 3 4 5 6 
#
# 1 0.089437 0.007494 0.005313 0.000000 0.049735 0.000000
# 2 0.007494 0.040200 0.001435 0.000000 0.005901 0.000000
# 3 0.005313 0.001435 0.009455 0.000000 0.006138 0.000000
# 4 0.000000 0.000000 0.000000 0.054662 0.000000 0.008417
# 5 0.049735 0.005901 0.006138 0.000000 0.054906 0.000000
# 6 0.000000 0.000000 0.000000 0.008417 0.000000 0.108250
#
#
# Mechanical properties :
#
#
# Convention : Reuss Voigt Hill
#
# Bulk Modulus (GPa) = 5.96746 17.41039 11.68892
# Shear Modulus (GPa) = 13.01118 24.24007 18.62562
#
# Velocity S-wave (km/s) = 2.45333 3.34860 2.93530
# Velocity P-wave (km/s) = 3.28414 4.79632 4.11037
#
# Compressibility (1/GPa) = 0.16757559
#
# Stress axis : x y z
#
# Youngs Moduli (GPa) = 11.18107 24.87557 105.76645
#
# Poissons Ratio (x) = -0.18641 -0.56193
# Poissons Ratio (y) = -0.08379 -0.15180
# Poissons Ratio (z) = -0.05940 -0.03570
#
# Static dielectric constant tensor:
#      x y z
#    x 1.781840 0.000000 -0.005000 
#    y 0.000000 1.785000 0.000000 
#    z -0.005000 0.000000 1.809770 
# 
# From -- ./inp_files/249259.got.cif
#   From: 2010.05.17/outbox.cif.g08.bks.cpg/sg12_125_cif.got.tgz:249259.got - 2010.06.03 13:09:07.
