data_PCOD9193431
_publ_section_title
;
Structure prediction by ZEFSAII (Michael W. Deem and Ramdas Pophale) SiO2 
 PCOD9193431
Probable space group: C 2/M
;
_chemical_formula_sum "Si O2"
_cell_formula_units_Z 56
_cell_length_a 29.325272
_cell_length_b 11.666308
_cell_length_c 9.528889
_cell_angle_alpha 90.000000
_cell_angle_beta 107.941289
_cell_angle_gamma 90.000000
_cell_volume 3101.476000
_symmetry_space_group_name_H-M "C 2/M"
_symmetry_group_IT_number 12
_symmetry_cell_setting 'monoclinic'
loop_
_space_group_symop_operation_xyz
x,y,z
-x,y,-z
-x,-y,-z
x,-y,z
1/2+x,1/2+y,z
1/2-x,1/2+y,-z
1/2-x,1/2-y,-z
1/2+x,1/2-y,z
loop_
_atom_site_type_symbol
_atom_site_label
_atom_site_fract_x
_atom_site_fract_y
_atom_site_fract_z
Si Si1 0.591652 0.214163 0.827291
Si Si2 0.510563 0.865113 0.169401
Si Si3 0.898445 0.222532 0.631731
Si Si4 0.638073 0.633499 0.109574
Si Si5 0.253907 0.636197 0.902051
Si Si6 0.449256 0.625547 0.434141
Si Si7 0.657642 0.129331 0.651468
O O1 0.540191 0.155571 0.801693
O O2 0.582878 0.316887 0.711500
O O3 0.628737 0.139086 0.772367
O O4 0.611388 0.272800 0.986494
O O5 0.556507 0.799808 0.274470
O O6 0.521277 0.000000 0.179044
O O7 0.500000 0.826631 0.000000
O O8 0.871518 0.171039 0.739679
O O9 0.922906 0.127389 0.556799
O O10 0.864456 0.291500 0.491166
O O11 0.622162 0.500000 0.074238
O O12 0.693595 0.638727 0.117033
O O13 0.247919 0.500000 0.950062
O O14 0.212253 0.652776 0.747233
O O15 0.250000 0.750000 0.000000
O O16 0.500000 0.688713 0.500000
O O17 0.460049 0.500000 0.390621
O O18 0.653273 0.000000 0.595725
#
# Coordination Sequence:
#
# PCOD9193431 Si02
#       7
#     8   8   8   8   8   8   8
#     4  11  20  37  58  86 116 150 203 242 303 357
#     4  11  22  36  55  83 119 156 196 248 297 355
#     4  11  22  39  56  86 123 158 200 240 304 362
#     4  11  23  39  62  88 121 158 199 254 309 366
#     4  10  21  42  66  95 124 156 205 260 314 371
#     4  10  20  34  53  78 113 154 196 241 285 343
#     4  10  22  39  63  88 119 157 199 254 307 366
#
# _framework density 18.055921000000001
#
# number of rings (size 3 to 8) (size 9 to 14) (size 15 to 20)
#    0.000    1.429    4.286    1.714    0.000    0.571 
#    0.000    5.000    0.000    0.000    0.000    0.000 
#    0.000    0.000    0.000    0.000    0.000    0.000 
#
# Total GULP energy -155869.621278 kJ/mol
# GULP energy per Si atom -5566.772189 kJ/mol
# Density = 1.801482 g / cm^3
# Si number density = 18.055921 Si / 1000 Ang^3
#
#
#
# Elastic Constant Matrix: (Units=GPa)
#
#
# Indices 1 2 3 4 5 6 
#
# 1 70.8520 14.7843 19.4390 0.0000 0.3129 0.0000
# 2 14.7843 64.6929 27.2416 0.0000 11.4879 0.0000
# 3 19.4390 27.2416 82.6941 0.0000 -3.4799 0.0000
# 4 0.0000 0.0000 0.0000 -3.8989 0.0000 -20.7072
# 5 0.3129 11.4879 -3.4799 0.0000 34.0528 0.0000
# 6 0.0000 0.0000 0.0000 -20.7072 0.0000 -8.4414
#
#
#
# Elastic Compliance Matrix: (Units=1/GPa)
#
#
# Indices 1 2 3 4 5 6 
#
# 1 0.015384 -0.002400 -0.002810 0.000000 0.000381 0.000000
# 2 -0.002400 0.019978 -0.006327 0.000000 -0.007364 0.000000
# 3 -0.002810 -0.006327 0.014993 0.000000 0.003692 0.000000
# 4 0.000000 0.000000 0.000000 0.021324 0.000000 -0.052307
# 5 0.000381 -0.007364 0.003692 0.000000 0.032224 0.000000
# 6 0.000000 0.000000 0.000000 -0.052307 0.000000 0.009849
#
#
# Mechanical properties :
#
#
# Convention : Reuss Voigt Hill
#
# Bulk Modulus (GPa) = 36.65525 37.90766 37.28146
# Shear Modulus (GPa) = 34.26559 14.79410 24.52984
#
# Velocity S-wave (km/s) = 4.36104 2.86553 3.68985
# Velocity P-wave (km/s) = 6.76042 5.65584 6.23265
#
# Compressibility (1/GPa) = 0.02728122
#
# Stress axis : x y z
#
# Youngs Moduli (GPa) = 65.00289 50.05474 66.69849
#
# Poissons Ratio (x) = 0.12015 0.18739
# Poissons Ratio (y) = 0.15603 0.42200
# Poissons Ratio (z) = 0.18263 0.31669
#
# Static dielectric constant tensor:
#      x y z
#    x 1.658650 0.000000 0.007390 
#    y 0.000000 1.658860 0.000000 
#    z 0.007390 0.000000 1.609240 
# 
# From -- ./inp_files/103252.got.cif
#   From: 2010.05.17/outbox.cif.g08.bks.cpg/sg12_52_cif.got.tgz:103252.got - 2010.06.03 13:09:07.
