data_PCOD9193396
_publ_section_title
;
Structure prediction by ZEFSAII (Michael W. Deem and Ramdas Pophale) SiO2 
 PCOD9193396
Probable space group: C 2/M
;
_chemical_formula_sum "Si O2"
_cell_formula_units_Z 56
_cell_length_a 15.357897
_cell_length_b 13.435883
_cell_length_c 14.754638
_cell_angle_alpha 90.000000
_cell_angle_beta 83.210365
_cell_angle_gamma 90.000000
_cell_volume 3023.222052
_symmetry_space_group_name_H-M "C 2/M"
_symmetry_group_IT_number 12
_symmetry_cell_setting 'monoclinic'
loop_
_space_group_symop_operation_xyz
x,y,z
-x,y,-z
-x,-y,-z
x,-y,z
1/2+x,1/2+y,z
1/2-x,1/2+y,-z
1/2-x,1/2-y,-z
1/2+x,1/2-y,z
loop_
_atom_site_type_symbol
_atom_site_label
_atom_site_fract_x
_atom_site_fract_y
_atom_site_fract_z
Si Si1 0.187121 0.120996 0.747017
Si Si2 0.736951 0.387117 0.049059
Si Si3 0.410455 0.618022 0.628509
Si Si4 0.075589 0.616130 0.064857
Si Si5 0.618432 0.382613 0.566043
Si Si6 0.651604 0.241877 0.202450
Si Si7 0.078053 0.115210 0.927285
O O1 0.168798 0.157615 0.647300
O O2 0.280532 0.159990 0.769051
O O3 0.110520 0.155818 0.826524
O O4 0.185776 0.000000 0.749584
O O5 0.738437 0.500000 0.084392
O O6 0.707160 0.312213 0.129062
O O7 0.831784 0.364679 0.996538
O O8 0.664926 0.384079 0.978290
O O9 0.390603 0.500000 0.646439
O O10 0.367927 0.653529 0.538278
O O11 0.515100 0.624380 0.600966
O O12 0.383819 0.688130 0.713909
O O13 0.074955 0.500000 0.093592
O O14 0.077258 0.687975 0.151270
O O15 0.000000 0.628282 0.000000
O O16 0.639029 0.500000 0.559135
O O17 0.051390 0.000000 0.912546
O O18 0.000000 0.157108 0.000000
#
# Coordination Sequence:
#
# PCOD9193396 Si02
#       7
#     8   8   8   8   8   8   8
#     4  10  20  34  53  78 108 142 181 221 266 321
#     4  10  21  37  51  74 112 143 179 224 267 323
#     4   9  19  36  56  82 109 136 173 219 276 335
#     4  10  22  40  56  71 106 157 195 222 257 311
#     4   8  17  36  58  77 106 139 171 220 279 333
#     4  12  22  32  54  82 108 140 180 227 272 315
#     4   9  18  31  50  76 108 140 171 219 275 323
#
# _framework density 18.523284
#
# number of rings (size 3 to 8) (size 9 to 14) (size 15 to 20)
#    0.000    2.286    1.429    2.143    2.000    2.286 
#    0.000    0.000    0.000    0.429    0.000    8.000 
#    0.000    0.000    0.000    0.000    0.000    0.000 
#
# Total GULP energy -156204.819502 kJ/mol
# GULP energy per Si atom -5578.743554 kJ/mol
# Density = 1.848112 g / cm^3
# Si number density = 18.523284 Si / 1000 Ang^3
#
#
#
# Elastic Constant Matrix: (Units=GPa)
#
#
# Indices 1 2 3 4 5 6 
#
# 1 72.6634 15.5809 46.0185 0.0000 6.2693 0.0000
# 2 15.5809 71.4053 62.6792 0.0000 -5.3372 0.0000
# 3 46.0185 62.6792 132.9227 0.0000 20.3684 0.0000
# 4 0.0000 0.0000 0.0000 28.8746 0.0000 1.2373
# 5 6.2693 -5.3372 20.3684 0.0000 22.6703 0.0000
# 6 0.0000 0.0000 0.0000 1.2373 0.0000 93.6036
#
#
#
# Elastic Compliance Matrix: (Units=1/GPa)
#
#
# Indices 1 2 3 4 5 6 
#
# 1 0.018110 0.003998 -0.008734 0.000000 0.003780 0.000000
# 2 0.003998 0.033746 -0.021274 0.000000 0.025953 0.000000
# 3 -0.008734 -0.021274 0.024325 0.000000 -0.024448 0.000000
# 4 0.000000 0.000000 0.000000 0.034652 0.000000 -0.000458
# 5 0.003780 0.025953 -0.024448 0.000000 0.071141 0.000000
# 6 0.000000 0.000000 0.000000 -0.000458 0.000000 0.010689
#
#
# Mechanical properties :
#
#
# Convention : Reuss Voigt Hill
#
# Bulk Modulus (GPa) = 41.38971 58.39428 49.89199
# Shear Modulus (GPa) = 19.78332 39.21054 29.49693
#
# Velocity S-wave (km/s) = 3.27161 4.60589 3.99485
# Velocity P-wave (km/s) = 6.05512 7.73814 6.94778
#
# Compressibility (1/GPa) = 0.02416060
#
# Stress axis : x y z
#
# Youngs Moduli (GPa) = 55.21753 29.63297 41.11012
#
# Poissons Ratio (x) = -0.11846 0.35906
# Poissons Ratio (y) = -0.22074 0.87457
# Poissons Ratio (z) = 0.48228 0.63041
#
# Static dielectric constant tensor:
#      x y z
#    x 1.639550 0.000000 0.023560 
#    y 0.000000 1.668280 0.000000 
#    z 0.023560 0.000000 1.663420 
# 
# From -- ./inp_files/214200.got.cif
#   From: 2010.05.17/outbox.cif.g08.bks.cpg/sg12_108_cif.got.tgz:214200.got - 2010.06.03 13:09:07.
