data_PCOD9193675
_publ_section_title
;
Structure prediction by ZEFSAII (Michael W. Deem and Ramdas Pophale) SiO2 
 PCOD9193675
Probable space group: C 2/M
;
_chemical_formula_sum "Si O2"
_cell_formula_units_Z 48
_cell_length_a 30.128661
_cell_length_b 8.772878
_cell_length_c 15.907207
_cell_angle_alpha 90.000000
_cell_angle_beta 31.606425
_cell_angle_gamma 90.000000
_cell_volume 2203.507894
_symmetry_space_group_name_H-M "C 2/M"
_symmetry_group_IT_number 12
_symmetry_cell_setting 'monoclinic'
loop_
_space_group_symop_operation_xyz
x,y,z
-x,y,-z
-x,-y,-z
x,-y,z
1/2+x,1/2+y,z
1/2-x,1/2+y,-z
1/2-x,1/2-y,-z
1/2+x,1/2-y,z
loop_
_atom_site_type_symbol
_atom_site_label
_atom_site_fract_x
_atom_site_fract_y
_atom_site_fract_z
Si Si1 0.762027 0.318292 0.266260
Si Si2 0.157533 0.316909 0.135849
Si Si3 0.901998 0.816991 0.143074
Si Si4 0.508072 0.183722 0.268791
Si Si5 0.371721 0.683316 0.375264
Si Si6 0.372092 0.181894 0.631846
O O1 0.764162 0.500000 0.259597
O O2 0.853925 0.257096 0.142600
O O3 0.699692 0.266492 0.443412
O O4 0.714809 0.257430 0.260112
O O5 0.163738 0.500000 0.119345
O O6 0.101078 0.264936 0.148049
O O7 0.110118 0.280671 0.300227
O O8 0.250000 0.250000 0.000000
O O9 0.858020 0.766967 0.301749
O O10 0.896283 0.000000 0.144095
O O11 0.000000 0.777949 0.000000
O O12 0.461911 0.258187 0.264215
O O13 0.446208 0.222557 0.447369
O O14 0.508571 0.000000 0.257930
O O15 0.373349 0.500000 0.373238
O O16 0.361751 0.000000 0.643278
#
# Coordination Sequence:
#
# PCOD9193675 Si02
#       6
#     8   8   8   8   8   8
#     4  10  20  34  54  79 104 130 167 216 261 300
#     4  10  21  35  52  77 107 138 171 208 253 304
#     4  10  21  36  53  74 103 139 174 206 248 307
#     4   9  18  34  56  78  99 130 175 218 252 294
#     4   9  19  35  54  77 103 132 169 212 257 304
#     4   9  18  35  57  76  99 135 175 212 251 299
#
# _framework density 21.783449000000001
#
# number of rings (size 3 to 8) (size 9 to 14) (size 15 to 20)
#    0.000    2.500    0.000    1.500    0.000    6.333 
#    0.000    5.000    0.000    5.000    0.000    0.000 
#    0.000    0.000    0.000    0.000    0.000    0.000 
#
# Total GULP energy -134028.960785 kJ/mol
# GULP energy per Si atom -5584.540033 kJ/mol
# Density = 2.173387 g / cm^3
# Si number density = 21.783449 Si / 1000 Ang^3
#
#
#
# Elastic Constant Matrix: (Units=GPa)
#
#
# Indices 1 2 3 4 5 6 
#
# 1 118.7158 13.0028 11.6861 0.0000 -36.1853 0.0000
# 2 13.0028 -14.1846 4.6520 -0.0004 -3.5075 0.0000
# 3 11.6861 4.6520 47.8865 -0.0001 -21.3145 0.0000
# 4 0.0000 -0.0004 -0.0001 21.9239 0.0000 -9.7244
# 5 -36.1853 -3.5075 -21.3145 0.0000 39.1818 0.0000
# 6 0.0000 0.0000 0.0000 -9.7244 0.0000 28.8259
#
#
#
# Elastic Compliance Matrix: (Units=1/GPa)
#
#
# Indices 1 2 3 4 5 6 
#
# 1 0.011008 0.007761 0.001839 0.000000 0.011861 0.000000
# 2 0.007761 -0.062527 0.006438 -0.000001 0.005072 0.000000
# 3 0.001839 0.006438 0.027473 0.000000 0.017220 0.000000
# 4 0.000000 -0.000001 0.000000 0.053638 0.000000 0.018095
# 5 0.011861 0.005072 0.017220 0.000000 0.046298 0.000000
# 6 0.000000 0.000000 0.000000 0.018095 0.000000 0.040795
#
#
# Mechanical properties :
#
#
# Convention : Reuss Voigt Hill
#
# Bulk Modulus (GPa) = 124.53801 23.45550 73.99675
# Shear Modulus (GPa) = 57.28331 26.19144 41.73738
#
# Velocity S-wave (km/s) = 5.13360 3.47126 4.38198
# Velocity P-wave (km/s) = 9.61423 5.18239 7.72304
#
# Compressibility (1/GPa) = 0.00802968
#
# Stress axis : x y z
#
# Youngs Moduli (GPa) = 90.84510 -15.99300 36.39914
#
# Poissons Ratio (x) = 0.12412 -0.06695
# Poissons Ratio (y) = -0.70503 -0.23434
# Poissons Ratio (z) = -0.16708 0.10296
#
# Static dielectric constant tensor:
#      x y z
#    x 1.772250 0.000000 0.027950 
#    y 0.000000 1.726000 0.000000 
#    z 0.027950 0.000000 1.871980 
# 
# From -- ./inp_files/274025.got.cif
#   From: 2010.05.17/outbox.cif.g08.bks.cpg/sg12_138_cif.got.tgz:274025.got - 2010.06.03 13:09:07.
