data_PCOD9193883
_publ_section_title
;
Structure prediction by ZEFSAII (Michael W. Deem and Ramdas Pophale) SiO2 
 PCOD9193883
Probable space group: C 2/M
;
_chemical_formula_sum "Si O2"
_cell_formula_units_Z 56
_cell_length_a 19.134953
_cell_length_b 8.745256
_cell_length_c 23.175103
_cell_angle_alpha 90.000000
_cell_angle_beta 52.043413
_cell_angle_gamma 90.000000
_cell_volume 3057.810989
_symmetry_space_group_name_H-M "C 2/M"
_symmetry_group_IT_number 12
_symmetry_cell_setting 'monoclinic'
loop_
_space_group_symop_operation_xyz
x,y,z
-x,y,-z
-x,-y,-z
x,-y,z
1/2+x,1/2+y,z
1/2-x,1/2+y,-z
1/2-x,1/2-y,-z
1/2+x,1/2-y,z
loop_
_atom_site_type_symbol
_atom_site_label
_atom_site_fract_x
_atom_site_fract_y
_atom_site_fract_z
Si Si1 0.358442 0.183243 0.792051
Si Si2 0.517600 0.317104 0.367278
Si Si3 0.993397 0.313651 0.069830
Si Si4 0.823057 0.183064 0.627248
Si Si5 0.797315 0.684577 0.204626
Si Si6 0.844042 0.315164 0.932607
Si Si7 0.670904 0.181524 0.502360
O O1 0.436487 0.254379 0.713842
O O2 0.266888 0.241920 0.810386
O O3 0.363019 0.227775 0.856682
O O4 0.362401 0.000000 0.785888
O O5 0.510782 0.500000 0.367502
O O6 0.586175 0.280965 0.384497
O O7 0.422774 0.245574 0.427739
O O8 0.994832 0.500000 0.069106
O O9 0.898655 0.268233 0.144329
O O10 0.076810 0.263016 0.065527
O O11 0.000000 0.263750 0.000000
O O12 0.744105 0.221878 0.711902
O O13 0.817834 0.267743 0.569636
O O14 0.821424 0.000000 0.617982
O O15 0.791409 0.500000 0.201395
O O16 0.840156 0.500000 0.937174
O O17 0.750000 0.250000 0.000000
O O18 0.750000 0.250000 0.500000
O O19 0.671464 0.000000 0.506620
#
# Coordination Sequence:
#
# PCOD9193883 Si02
#       7
#     8   8   8   8   8   8   8
#     4  10  20  34  54  82 113 142 177 225 277 329
#     4  10  21  39  62  85 111 146 186 226 275 337
#     4   9  17  31  53  78 103 137 183 226 265 317
#     4   9  19  36  58  83 111 144 183 227 277 336
#     4   9  18  34  57  81 107 143 182 223 272 327
#     4  10  21  35  53  79 109 143 183 227 275 327
#     4  12  25  39  57  82 114 149 187 233 281 330
#
# _framework density 18.313753999999999
#
# number of rings (size 3 to 8) (size 9 to 14) (size 15 to 20)
#    0.000    2.143    0.000    4.286    0.000    8.000 
#    0.000    3.571    0.000    2.571    0.000    0.000 
#    0.000    0.000    0.000    0.000    0.000    0.000 
#
# Total GULP energy -156383.451220 kJ/mol
# GULP energy per Si atom -5585.123258 kJ/mol
# Density = 1.827207 g / cm^3
# Si number density = 18.313754 Si / 1000 Ang^3
#
#
#
# Elastic Constant Matrix: (Units=GPa)
#
#
# Indices 1 2 3 4 5 6 
#
# 1 173.2260 60.4708 143.2854 0.0001 -7.7050 0.0003
# 2 60.4708 51.6577 63.3368 0.0002 3.7636 0.0007
# 3 143.2854 63.3368 168.7334 0.0000 0.4180 0.0000
# 4 0.0001 0.0002 0.0000 29.8479 0.0000 -1.3126
# 5 -7.7050 3.7636 0.4180 0.0000 36.3161 0.0001
# 6 0.0003 0.0007 0.0000 -1.3126 0.0001 27.4981
#
#
#
# Elastic Compliance Matrix: (Units=1/GPa)
#
#
# Indices 1 2 3 4 5 6 
#
# 1 0.020953 -0.005699 -0.015667 0.000000 0.005216 0.000000
# 2 -0.005699 0.037881 -0.009367 0.000000 -0.005027 -0.000001
# 3 -0.015667 -0.009367 0.022753 0.000000 -0.002615 0.000000
# 4 0.000000 0.000000 0.000000 0.033574 0.000000 0.001603
# 5 0.005216 -0.005027 -0.002615 0.000000 0.029194 0.000000
# 6 0.000000 -0.000001 0.000000 0.001603 0.000000 0.036443
#
#
# Mechanical properties :
#
#
# Convention : Reuss Voigt Hill
#
# Bulk Modulus (GPa) = 49.69939 103.08923 76.39431
# Shear Modulus (GPa) = 20.08276 27.16736 23.62506
#
# Velocity S-wave (km/s) = 3.31508 3.85572 3.59558
# Velocity P-wave (km/s) = 6.46913 8.73126 7.68390
#
# Compressibility (1/GPa) = 0.02012097
#
# Stress axis : x y z
#
# Youngs Moduli (GPa) = 47.72543 26.39865 43.95053
#
# Poissons Ratio (x) = 0.15045 0.68856
# Poissons Ratio (y) = 0.27200 0.41168
# Poissons Ratio (z) = 0.74770 0.24727
#
# Static dielectric constant tensor:
#      x y z
#    x 1.603610 0.000000 0.000360 
#    y 0.000000 1.618440 0.000000 
#    z 0.000360 0.000000 1.614440 
# 
# From -- ./inp_files/313696.got.cif
#   From: 2010.05.17/outbox.cif.g08.bks.cpg/sg12_157_cif.got.tgz:313696.got - 2010.06.03 13:09:07.
