data_PCOD9193548
_publ_section_title
;
Structure prediction by ZEFSAII (Michael W. Deem and Ramdas Pophale) SiO2 
 PCOD9193548
Probable space group: C 2/M
;
_chemical_formula_sum "Si O2"
_cell_formula_units_Z 64
_cell_length_a 15.089961
_cell_length_b 8.630594
_cell_length_c 23.834268
_cell_angle_alpha 90.000000
_cell_angle_beta 94.458720
_cell_angle_gamma 90.000000
_cell_volume 3094.669553
_symmetry_space_group_name_H-M "C 2/M"
_symmetry_group_IT_number 12
_symmetry_cell_setting 'monoclinic'
loop_
_space_group_symop_operation_xyz
x,y,z
-x,y,-z
-x,-y,-z
x,-y,z
1/2+x,1/2+y,z
1/2-x,1/2+y,-z
1/2-x,1/2-y,-z
1/2+x,1/2-y,z
loop_
_atom_site_type_symbol
_atom_site_label
_atom_site_fract_x
_atom_site_fract_y
_atom_site_fract_z
Si Si1 0.342566 0.686166 0.349649
Si Si2 0.642845 0.818674 0.768889
Si Si3 0.290241 0.814525 0.559177
Si Si4 0.949452 0.688680 0.052743
Si Si5 0.045777 0.815952 0.374717
Si Si6 0.717882 0.812765 0.893201
Si Si7 0.069893 0.317742 0.257000
Si Si8 0.392463 0.186271 0.861522
O O1 0.343733 0.500000 0.350803
O O2 0.321966 0.736067 0.285126
O O3 0.271956 0.740130 0.392111
O O4 0.443098 0.739713 0.369680
O O5 0.678534 0.762809 0.830520
O O6 0.535570 0.806590 0.761708
O O7 0.664774 0.000000 0.765696
O O8 0.250000 0.750000 0.500000
O O9 0.390037 0.758781 0.576394
O O10 0.288368 0.000000 0.557912
O O11 0.946616 0.500000 0.049144
O O12 0.849933 0.740831 0.061922
O O13 0.012301 0.728491 0.108335
O O14 0.000000 0.745289 0.000000
O O15 0.083937 0.771834 0.315236
O O16 0.045771 0.000000 0.381696
O O17 0.816403 0.747071 0.898592
O O18 0.720229 0.000000 0.894147
O O19 0.091148 0.500000 0.266869
O O20 0.117736 0.258351 0.203114
O O21 0.388876 0.000000 0.859379
#
# Coordination Sequence:
#
# PCOD9193548 Si02
#       8
#     8   8   8   8   8   8   8   8
#     4   9  21  39  58  82 114 149 184 226 280 333
#     4   9  17  32  55  80 110 144 183 228 275 331
#     4  11  24  42  61  84 115 152 192 232 275 331
#     4   9  18  36  59  78 106 152 197 232 275 338
#     4  10  21  38  59  85 114 147 186 230 280 333
#     4  10  20  34  53  82 112 143 185 234 283 331
#     4   9  17  33  55  79 111 147 183 226 276 336
#     4  10  20  34  54  81 110 145 187 229 280 338
#
# _framework density 20.680720999999998
#
# number of rings (size 3 to 8) (size 9 to 14) (size 15 to 20)
#    0.000    2.375    1.250    0.750    1.750    3.500 
#    0.000    3.125    0.000    0.750    0.000    0.000 
#    0.000    0.000    0.000    0.000    0.000    0.000 
#
# Total GULP energy -178656.090132 kJ/mol
# GULP energy per Si atom -5583.002817 kJ/mol
# Density = 2.063365 g / cm^3
# Si number density = 20.680721 Si / 1000 Ang^3
#
#
#
# Elastic Constant Matrix: (Units=GPa)
#
#
# Indices 1 2 3 4 5 6 
#
# 1 53.3359 3.8459 -7.5690 0.0000 -19.2197 0.0000
# 2 3.8459 10.7065 3.7406 0.0000 -1.6668 0.0000
# 3 -7.5690 3.7406 38.5671 0.0000 -12.9313 0.0000
# 4 0.0000 0.0000 0.0000 17.9701 0.0000 -5.2765
# 5 -19.2197 -1.6668 -12.9313 0.0000 26.1808 0.0000
# 6 0.0000 0.0000 0.0000 -5.2765 0.0000 21.4716
#
#
#
# Elastic Compliance Matrix: (Units=1/GPa)
#
#
# Indices 1 2 3 4 5 6 
#
# 1 0.035090 -0.014154 0.019888 0.000000 0.034682 0.000000
# 2 -0.014154 0.102460 -0.016793 0.000000 -0.012162 0.000000
# 3 0.019888 -0.016793 0.043142 0.000000 0.034840 0.000000
# 4 0.000000 0.000000 0.000000 0.059976 0.000000 0.014739
# 5 0.034682 -0.012162 0.034840 0.000000 0.080090 0.000000
# 6 0.000000 0.000000 0.000000 0.014739 0.000000 0.050195
#
#
# Mechanical properties :
#
#
# Convention : Reuss Voigt Hill
#
# Bulk Modulus (GPa) = 6.30625 11.40495 8.85560
# Shear Modulus (GPa) = 11.21253 19.96395 15.58824
#
# Velocity S-wave (km/s) = 2.33099 3.11036 2.74844
# Velocity P-wave (km/s) = 3.20946 4.29254 3.78989
#
# Compressibility (1/GPa) = 0.15857275
#
# Stress axis : x y z
#
# Youngs Moduli (GPa) = 28.49833 9.75993 23.17908
#
# Poissons Ratio (x) = 0.13814 -0.46098
# Poissons Ratio (y) = 0.40337 0.38926
# Poissons Ratio (z) = -0.56677 0.16390
#
# Static dielectric constant tensor:
#      x y z
#    x 1.761740 0.000000 -0.009780 
#    y 0.000000 1.702660 0.000000 
#    z -0.009780 0.000000 1.742120 
# 
# From -- ./inp_files/338689.got.cif
#   From: 2010.05.17/outbox.cif.g08.bks.cpg/sg12_170_cif.got.tgz:338689.got - 2010.06.03 13:09:07.
