data_PCOD9193375
_publ_section_title
;
Structure prediction by ZEFSAII (Michael W. Deem and Ramdas Pophale) SiO2 
 PCOD9193375
Probable space group: C 2/M
;
_chemical_formula_sum "Si O2"
_cell_formula_units_Z 64
_cell_length_a 20.820893
_cell_length_b 8.932167
_cell_length_c 20.018261
_cell_angle_alpha 90.000000
_cell_angle_beta 90.033478
_cell_angle_gamma 90.000000
_cell_volume 3722.909334
_symmetry_space_group_name_H-M "C 2/M"
_symmetry_group_IT_number 12
_symmetry_cell_setting 'monoclinic'
loop_
_space_group_symop_operation_xyz
x,y,z
-x,y,-z
-x,-y,-z
x,-y,z
1/2+x,1/2+y,z
1/2-x,1/2+y,-z
1/2-x,1/2-y,-z
1/2+x,1/2-y,z
loop_
_atom_site_type_symbol
_atom_site_label
_atom_site_fract_x
_atom_site_fract_y
_atom_site_fract_z
Si Si1 0.697072 0.678814 0.202766
Si Si2 0.447562 0.680443 0.444443
Si Si3 0.556318 0.179690 0.699974
Si Si4 0.805592 0.820219 0.295414
Si Si5 0.559019 0.820313 0.046633
Si Si6 0.560255 0.820667 0.202464
Si Si7 0.198930 0.178990 0.549460
Si Si8 0.195641 0.821439 0.045800
O O1 0.699735 0.500000 0.210570
O O2 0.751454 0.755614 0.247147
O O3 0.626309 0.738751 0.221147
O O4 0.706647 0.714963 0.124182
O O5 0.500000 0.719249 0.500000
O O6 0.448926 0.500000 0.434213
O O7 0.459627 0.759735 0.373907
O O8 0.375007 0.720335 0.466497
O O9 0.624434 0.251961 0.719872
O O10 0.499376 0.220336 0.750783
O O11 0.562570 0.000000 0.698983
O O12 0.790526 0.779960 0.372789
O O13 0.808532 0.000000 0.291000
O O14 0.546089 0.786716 0.124652
O O15 0.625669 0.742534 0.027734
O O16 0.566720 0.000000 0.040460
O O17 0.500000 0.773983 0.000000
O O18 0.570197 0.000000 0.207804
O O19 0.250000 0.250000 0.500000
O O20 0.203922 0.000000 0.544583
O O21 0.196121 0.000000 0.038924
O O22 0.250000 0.750000 0.000000
#
# Coordination Sequence:
#
# PCOD9193375 Si02
#       8
#     8   8   8   8   8   8   8   8
#     4  10  21  36  55  79 105 136 177 219 257 306
#     4   9  19  36  54  73 100 134 173 216 261 309
#     4  10  20  34  53  78 107 138 175 217 258 307
#     4  10  21  37  55  77 107 140 174 214 263 314
#     4   9  18  34  55  77 104 139 174 211 258 307
#     4   9  19  35  53  76 107 138 170 212 260 307
#     4   9  19  34  52  75 102 133 169 210 255 305
#     4  10  21  36  54  78 107 138 175 217 259 308
#
# _framework density 17.190856
#
# number of rings (size 3 to 8) (size 9 to 14) (size 15 to 20)
#    0.000    2.500    0.000    2.250    0.000    7.500 
#    0.000    5.000    0.000    0.000    0.000    0.000 
#    0.000    0.000    0.000    0.000    0.000    0.000 
#
# Total GULP energy -178553.577692 kJ/mol
# GULP energy per Si atom -5579.799303 kJ/mol
# Density = 1.715173 g / cm^3
# Si number density = 17.190856 Si / 1000 Ang^3
#
#
#
# Elastic Constant Matrix: (Units=GPa)
#
#
# Indices 1 2 3 4 5 6 
#
# 1 191.9100 72.1844 126.7037 0.0000 0.1486 0.0000
# 2 72.1844 44.9297 54.4318 0.0000 -0.1911 0.0000
# 3 126.7037 54.4318 100.4689 0.0000 -0.4897 0.0000
# 4 0.0000 0.0000 0.0000 27.9596 0.0000 -0.2609
# 5 0.1486 -0.1911 -0.4897 0.0000 43.3560 0.0000
# 6 0.0000 0.0000 0.0000 -0.2609 0.0000 34.8379
#
#
#
# Elastic Compliance Matrix: (Units=1/GPa)
#
#
# Indices 1 2 3 4 5 6 
#
# 1 0.031952 -0.007322 -0.036332 0.000000 -0.000552 0.000000
# 2 -0.007322 0.066446 -0.026765 0.000000 0.000016 0.000000
# 3 -0.036332 -0.026765 0.070277 0.000000 0.000800 0.000000
# 4 0.000000 0.000000 0.000000 0.035768 0.000000 0.000268
# 5 -0.000552 0.000016 0.000800 0.000000 0.023076 0.000000
# 6 0.000000 0.000000 0.000000 0.000268 0.000000 0.028706
#
#
# Mechanical properties :
#
#
# Convention : Reuss Voigt Hill
#
# Bulk Modulus (GPa) = 35.92260 93.77205 64.84733
# Shear Modulus (GPa) = 12.30492 26.82994 19.56743
#
# Velocity S-wave (km/s) = 2.67831 3.95487 3.37745
# Velocity P-wave (km/s) = 5.52324 8.69026 7.28103
#
# Compressibility (1/GPa) = 0.02783763
#
# Stress axis : x y z
#
# Youngs Moduli (GPa) = 31.29685 15.04982 14.22948
#
# Poissons Ratio (x) = 0.11019 0.51698
# Poissons Ratio (y) = 0.22914 0.38086
# Poissons Ratio (z) = 1.13706 0.40281
#
# Static dielectric constant tensor:
#      x y z
#    x 1.554770 0.000000 0.002440 
#    y 0.000000 1.574980 0.000000 
#    z 0.002440 0.000000 1.566580 
# 
# From -- ./inp_files/314118.got.cif
#   From: 2010.05.17/outbox.cif.g08.bks.cpg/sg12_158_cif.got.tgz:314118.got - 2010.06.03 13:09:07.
