data_PCOD9193990
_publ_section_title
;
Structure prediction by ZEFSAII (Michael W. Deem and Ramdas Pophale) SiO2 
 PCOD9193990
Probable space group: C 2/M
;
_chemical_formula_sum "Si O2"
_cell_formula_units_Z 64
_cell_length_a 9.762286
_cell_length_b 22.579579
_cell_length_c 22.346656
_cell_angle_alpha 90.000000
_cell_angle_beta 47.116740
_cell_angle_gamma 90.000000
_cell_volume 3609.365388
_symmetry_space_group_name_H-M "C 2/M"
_symmetry_group_IT_number 12
_symmetry_cell_setting 'monoclinic'
loop_
_space_group_symop_operation_xyz
x,y,z
-x,y,-z
-x,-y,-z
x,-y,z
1/2+x,1/2+y,z
1/2-x,1/2+y,-z
1/2-x,1/2-y,-z
1/2+x,1/2-y,z
loop_
_atom_site_type_symbol
_atom_site_label
_atom_site_fract_x
_atom_site_fract_y
_atom_site_fract_z
Si Si1 0.333315 0.809079 0.003823
Si Si2 0.906497 0.317090 0.175043
Si Si3 0.130611 0.429467 0.606910
Si Si4 0.711650 0.567062 0.572761
Si Si5 0.032230 0.763579 0.559813
Si Si6 0.069404 0.196261 0.183060
Si Si7 0.690695 0.855288 0.344383
Si Si8 0.337456 0.619407 0.660867
O O1 0.170502 0.833497 0.095182
O O2 0.500000 0.793553 0.000000
O O3 0.250000 0.750000 0.000000
O O4 0.435371 0.840963 0.918045
O O5 0.728419 0.297687 0.186966
O O6 0.828897 0.364796 0.244596
O O7 0.990000 0.260206 0.185341
O O8 0.113786 0.500000 0.620156
O O9 0.224477 0.419168 0.513889
O O10 0.255808 0.401897 0.622012
O O11 0.932212 0.396512 0.662323
O O12 0.769726 0.500000 0.569780
O O13 0.795149 0.611546 0.596292
O O14 0.487647 0.572943 0.640543
O O15 0.250000 0.750000 0.500000
O O16 0.000000 0.775533 0.500000
O O17 0.916345 0.706508 0.615005
O O18 0.957669 0.820272 0.617479
O O19 0.896612 0.158782 0.259054
#
# Coordination Sequence:
#
# PCOD9193990 Si02
#       8
#     8   8   8   8   8   8   8   8
#     4   8  16  32  52  77 114 149 178 214 266 332
#     4  10  20  34  55  84 117 149 180 220 275 343
#     4  11  25  41  57  78 106 150 200 245 278 314
#     4  11  23  41  59  76 103 146 200 244 273 315
#     4  12  24  34  50  77 114 147 175 215 280 341
#     4  10  20  34  54  85 117 148 181 221 274 342
#     4  12  22  37  58  82 113 146 187 230 284 335
#     4  12  22  37  57  82 112 146 187 230 282 335
#
# _framework density 17.731649000000001
#
# number of rings (size 3 to 8) (size 9 to 14) (size 15 to 20)
#    0.000    1.250    2.500    5.250    1.750    2.000 
#    0.000    0.000    0.000    0.000    0.000    5.250 
#    0.000    0.000    0.000    0.000    0.000    0.000 
#
# Total GULP energy -178670.793360 kJ/mol
# GULP energy per Si atom -5583.462293 kJ/mol
# Density = 1.769129 g / cm^3
# Si number density = 17.731649 Si / 1000 Ang^3
#
#
#
# Elastic Constant Matrix: (Units=GPa)
#
#
# Indices 1 2 3 4 5 6 
#
# 1 57.7606 20.1788 11.1046 0.0000 -3.3061 0.0001
# 2 20.1788 71.9539 33.0402 0.0000 0.8629 0.0000
# 3 11.1046 33.0402 114.9697 0.0000 -11.7135 0.0000
# 4 0.0000 0.0000 0.0000 19.5515 0.0000 -9.8511
# 5 -3.3061 0.8629 -11.7135 0.0000 24.8383 0.0000
# 6 0.0001 0.0000 0.0000 -9.8511 0.0000 37.7158
#
#
#
# Elastic Compliance Matrix: (Units=1/GPa)
#
#
# Indices 1 2 3 4 5 6 
#
# 1 0.019382 -0.005458 -0.000022 0.000000 0.002759 0.000000
# 2 -0.005458 0.017744 -0.004947 0.000000 -0.003676 0.000000
# 3 -0.000022 -0.004947 0.010651 0.000000 0.005192 0.000000
# 4 0.000000 0.000000 0.000000 0.058898 0.000000 0.015384
# 5 0.002759 -0.003676 0.005192 0.000000 0.043204 0.000000
# 6 0.000000 0.000000 0.000000 0.015384 0.000000 0.030532
#
#
# Mechanical properties :
#
#
# Convention : Reuss Voigt Hill
#
# Bulk Modulus (GPa) = 37.14431 41.48128 39.31280
# Shear Modulus (GPa) = 23.78246 28.44517 26.11381
#
# Velocity S-wave (km/s) = 3.66627 4.00960 3.84177
# Velocity P-wave (km/s) = 6.23823 6.69929 6.47287
#
# Compressibility (1/GPa) = 0.02692202
#
# Stress axis : x y z
#
# Youngs Moduli (GPa) = 51.59451 56.35703 93.89140
#
# Poissons Ratio (x) = 0.30761 0.00210
# Poissons Ratio (y) = 0.28162 0.46444
# Poissons Ratio (z) = 0.00115 0.27878
#
# Static dielectric constant tensor:
#      x y z
#    x 1.612220 0.000000 -0.005730 
#    y 0.000000 1.591460 0.000000 
#    z -0.005730 0.000000 1.643720 
# 
# From -- ./inp_files/302288.got.cif
#   From: 2010.05.17/outbox.cif.g08.bks.cpg/sg12_152_cif.got.tgz:302288.got - 2010.06.03 13:09:07.
