data_PCOD9193591
_publ_section_title
;
Structure prediction by ZEFSAII (Michael W. Deem and Ramdas Pophale) SiO2 
 PCOD9193591
Probable space group: C 2/M
;
_chemical_formula_sum "Si O2"
_cell_formula_units_Z 36
_cell_length_a 8.936799
_cell_length_b 10.882008
_cell_length_c 19.708325
_cell_angle_alpha 90.000000
_cell_angle_beta 101.340628
_cell_angle_gamma 90.000000
_cell_volume 1879.219362
_symmetry_space_group_name_H-M "C 2/M"
_symmetry_group_IT_number 12
_symmetry_cell_setting 'monoclinic'
loop_
_space_group_symop_operation_xyz
x,y,z
-x,y,-z
-x,-y,-z
x,-y,z
1/2+x,1/2+y,z
1/2-x,1/2+y,-z
1/2-x,1/2-y,-z
1/2+x,1/2-y,z
loop_
_atom_site_type_symbol
_atom_site_label
_atom_site_fract_x
_atom_site_fract_y
_atom_site_fract_z
Si Si1 0.682011 0.863255 0.409342
Si Si2 0.213971 0.356998 0.253914
Si Si3 0.500000 0.702270 0.500000
Si Si4 0.150655 0.864275 0.967329
Si Si5 0.505016 0.638999 0.192067
O O1 0.696647 0.828124 0.331955
O O2 0.573114 0.779863 0.445010
O O3 0.852165 0.864097 0.456108
O O4 0.617557 0.000000 0.406028
O O5 0.163986 0.500000 0.237794
O O6 0.388367 0.351816 0.244546
O O7 0.121179 0.251911 0.206187
O O8 0.096061 0.851513 0.884949
O O9 0.225086 0.000000 0.981299
O O10 0.250000 0.750000 0.000000
O O11 0.000000 0.865101 0.000000
O O12 0.573524 0.500000 0.198273
#
# Coordination Sequence:
#
# PCOD9193591 Si02
#       5
#     8   8   4   8   8
#     4  10  20  35  53  76 104 134 172 215 259 310
#     4  10  21  36  55  79 107 139 177 219 262 313
#     4  10  20  34  54  76 102 136 170 210 264 312
#     4  10  21  36  55  80 109 140 177 219 262 312
#     4  10  21  37  55  79 109 140 177 219 262 312
#
# _framework density 19.156891000000002
#
# number of rings (size 3 to 8) (size 9 to 14) (size 15 to 20)
#    0.000    2.000    0.000    3.333    0.000    2.222 
#    0.000    5.556    0.000    0.000    0.000    0.000 
#    0.000    0.000    0.000    0.000    0.000    0.000 
#
# Total GULP energy -100371.585777 kJ/mol
# GULP energy per Si atom -5576.199210 kJ/mol
# Density = 1.911329 g / cm^3
# Si number density = 19.156891 Si / 1000 Ang^3
#
#
#
# Elastic Constant Matrix: (Units=GPa)
#
#
# Indices 1 2 3 4 5 6 
#
# 1 46.0796 27.0070 -5.4501 0.0000 -7.6334 0.0000
# 2 27.0070 108.6424 18.3791 0.0000 18.2432 0.0000
# 3 -5.4501 18.3791 49.0020 0.0000 -11.0221 0.0000
# 4 0.0000 0.0000 0.0000 13.6093 0.0000 8.4086
# 5 -7.6334 18.2432 -11.0221 0.0000 31.0881 0.0000
# 6 0.0000 0.0000 0.0000 8.4086 0.0000 17.7099
#
#
#
# Elastic Compliance Matrix: (Units=1/GPa)
#
#
# Indices 1 2 3 4 5 6 
#
# 1 0.036546 -0.015608 0.015211 0.000000 0.023526 0.000000
# 2 -0.015608 0.018536 -0.013037 0.000000 -0.019332 0.000000
# 3 0.015211 -0.013037 0.032110 0.000000 0.022770 0.000000
# 4 0.000000 0.000000 0.000000 0.103982 0.000000 -0.049370
# 5 0.023526 -0.019332 0.022770 0.000000 0.057361 0.000000
# 6 0.000000 0.000000 0.000000 -0.049370 0.000000 0.079906
#
#
# Mechanical properties :
#
#
# Convention : Reuss Voigt Hill
#
# Bulk Modulus (GPa) = 16.57731 31.51067 24.04399
# Shear Modulus (GPa) = 13.31847 23.40068 18.35958
#
# Velocity S-wave (km/s) = 2.63958 3.49883 3.09913
# Velocity P-wave (km/s) = 4.23817 5.72773 5.03830
#
# Compressibility (1/GPa) = 0.06032341
#
# Stress axis : x y z
#
# Youngs Moduli (GPa) = 27.36286 53.94833 31.14255
#
# Poissons Ratio (x) = 0.84205 -0.47370
# Poissons Ratio (y) = 0.42709 0.40600
# Poissons Ratio (z) = -0.41621 0.70331
#
# Static dielectric constant tensor:
#      x y z
#    x 1.634170 0.000000 -0.013370 
#    y 0.000000 1.678170 0.000000 
#    z -0.013370 0.000000 1.672400 
# 
# From -- ./inp_files/254422.got.cif
#   From: 2010.05.17/outbox.cif.g08.bks.cpg/sg12_128_cif.got.tgz:254422.got - 2010.06.03 13:09:07.
