data_PCOD9193636
_publ_section_title
;
Structure prediction by ZEFSAII (Michael W. Deem and Ramdas Pophale) SiO2 
 PCOD9193636
Probable space group: C 2/M
;
_chemical_formula_sum "Si O2"
_cell_formula_units_Z 40
_cell_length_a 27.792577
_cell_length_b 8.285427
_cell_length_c 8.755446
_cell_angle_alpha 90.000000
_cell_angle_beta 67.893915
_cell_angle_gamma 90.000000
_cell_volume 1867.936460
_symmetry_space_group_name_H-M "C 2/M"
_symmetry_group_IT_number 12
_symmetry_cell_setting 'monoclinic'
loop_
_space_group_symop_operation_xyz
x,y,z
-x,y,-z
-x,-y,-z
x,-y,z
1/2+x,1/2+y,z
1/2-x,1/2+y,-z
1/2-x,1/2-y,-z
1/2+x,1/2-y,z
loop_
_atom_site_type_symbol
_atom_site_label
_atom_site_fract_x
_atom_site_fract_y
_atom_site_fract_z
Si Si1 0.871063 0.806820 0.212011
Si Si2 0.257356 0.309888 0.317916
Si Si3 0.351129 0.310353 0.600046
Si Si4 0.440092 0.000000 0.124294
Si Si5 0.003249 0.500000 0.313086
Si Si6 0.951812 0.818149 0.675570
O O1 0.815566 0.762144 0.200750
O O2 0.863589 0.788134 0.405098
O O3 0.910983 0.666490 0.119862
O O4 0.882951 0.000000 0.171650
O O5 0.259478 0.500000 0.322876
O O6 0.250000 0.250000 0.500000
O O7 0.204856 0.263434 0.294099
O O8 0.344622 0.500000 0.628383
O O9 0.400185 0.266680 0.645562
O O10 0.447744 0.000000 0.299636
O O11 0.500000 0.000000 0.000000
O O12 0.031825 0.667840 0.240051
O O13 0.000000 0.500000 0.500000
O O14 0.000000 0.833954 0.500000
O O15 0.944667 0.000000 0.750036
#
# Coordination Sequence:
#
# PCOD9193636 Si02
#       6
#     8   8   8   4   4   8
#     4   9  19  34  50  72 108 146 182 222 274 326
#     4   9  17  26  43  72 106 143 175 218 280 331
#     4   9  17  27  47  79 110 143 174 219 283 330
#     4  12  26  38  56  82 108 150 191 225 273 319
#     4  10  20  34  54  78 102 140 182 217 273 319
#     4   9  17  29  45  70 107 138 170 211 261 317
#
# _framework density 21.414006000000001
#
# number of rings (size 3 to 8) (size 9 to 14) (size 15 to 20)
#    0.000    2.600    0.000    4.200    8.400    2.800 
#    0.000    0.000    0.000    0.000    0.000    1.400 
#    0.000    0.000    0.000    0.000    0.000    0.000 
#
# Total GULP energy -111366.144932 kJ/mol
# GULP energy per Si atom -5568.307247 kJ/mol
# Density = 2.136527 g / cm^3
# Si number density = 21.414006 Si / 1000 Ang^3
#
#
#
# Elastic Constant Matrix: (Units=GPa)
#
#
# Indices 1 2 3 4 5 6 
#
# 1 148.3888 67.0761 28.5136 0.0000 -44.3390 0.0000
# 2 67.0761 127.6943 34.7344 0.0000 -33.2779 0.0000
# 3 28.5136 34.7344 45.6311 0.0000 -19.2516 0.0000
# 4 0.0000 0.0000 0.0000 -7.5271 0.0000 -14.4587
# 5 -44.3390 -33.2779 -19.2516 0.0000 30.5048 0.0000
# 6 0.0000 0.0000 0.0000 -14.4587 0.0000 47.3495
#
#
#
# Elastic Compliance Matrix: (Units=1/GPa)
#
#
# Indices 1 2 3 4 5 6 
#
# 1 0.012508 -0.002697 0.000908 0.000000 0.015812 0.000000
# 2 -0.002697 0.012242 -0.004978 0.000000 0.006293 0.000000
# 3 0.000908 -0.004978 0.031895 0.000000 0.016017 0.000000
# 4 0.000000 0.000000 0.000000 -0.083737 0.000000 -0.025570
# 5 0.015812 0.006293 0.016017 0.000000 0.072738 0.000000
# 6 0.000000 0.000000 0.000000 -0.025570 0.000000 0.013311
#
#
# Mechanical properties :
#
#
# Convention : Reuss Voigt Hill
#
# Bulk Modulus (GPa) = 23.19636 64.70693 43.95165
# Shear Modulus (GPa) = 57.56183 26.82479 42.19331
#
# Velocity S-wave (km/s) = 5.19026 3.54315 4.44369
# Velocity P-wave (km/s) = 6.83917 6.85721 6.84820
#
# Compressibility (1/GPa) = 0.04311021
#
# Stress axis : x y z
#
# Youngs Moduli (GPa) = 79.94728 81.68610 31.35306
#
# Poissons Ratio (x) = 0.22028 -0.02846
# Poissons Ratio (y) = 0.21559 0.15609
# Poissons Ratio (z) = -0.07256 0.40666
#
# Static dielectric constant tensor:
#      x y z
#    x 1.896790 0.000000 -0.035200 
#    y 0.000000 1.785350 0.000000 
#    z -0.035200 0.000000 1.848620 
# 
# From -- ./inp_files/171404.got.cif
#   From: 2010.05.17/outbox.cif.g08.bks.cpg/sg12_86_cif.got.tgz:171404.got - 2010.06.03 13:09:07.
