data_PCOD9193292
_publ_section_title
;
Structure prediction by ZEFSAII (Michael W. Deem and Ramdas Pophale) SiO2 
 PCOD9193292
Probable space group: C 2/M
;
_chemical_formula_sum "Si O2"
_cell_formula_units_Z 56
_cell_length_a 8.541885
_cell_length_b 11.433168
_cell_length_c 33.253124
_cell_angle_alpha 90.000000
_cell_angle_beta 121.790803
_cell_angle_gamma 90.000000
_cell_volume 2760.324042
_symmetry_space_group_name_H-M "C 2/M"
_symmetry_group_IT_number 12
_symmetry_cell_setting 'monoclinic'
loop_
_space_group_symop_operation_xyz
x,y,z
-x,y,-z
-x,-y,-z
x,-y,z
1/2+x,1/2+y,z
1/2-x,1/2+y,-z
1/2-x,1/2-y,-z
1/2+x,1/2-y,z
loop_
_atom_site_type_symbol
_atom_site_label
_atom_site_fract_x
_atom_site_fract_y
_atom_site_fract_z
Si Si1 0.901463 0.365973 0.423143
Si Si2 0.713313 0.867281 0.904190
Si Si3 0.970140 0.237100 0.262307
Si Si4 0.797623 0.867698 0.453497
Si Si5 0.926856 0.363952 0.800411
Si Si6 0.447607 0.807304 0.035252
Si Si7 0.852644 0.629607 0.320874
O O1 0.841555 0.500000 0.426351
O O2 0.801451 0.253204 0.428514
O O3 0.883421 0.355536 0.372367
O O4 0.123024 0.359035 0.460023
O O5 0.584057 0.816468 0.851436
O O6 0.589686 0.871433 0.927901
O O7 0.892801 0.788352 0.935459
O O8 0.770752 0.000000 0.901901
O O9 0.773743 0.190404 0.221633
O O10 0.954214 0.279328 0.305986
O O11 0.019972 0.340572 0.238521
O O12 0.136061 0.145675 0.282527
O O13 0.000000 0.870919 0.500000
O O14 0.773879 0.000000 0.431083
O O15 0.914890 0.500000 0.807530
O O16 0.500000 0.868057 0.000000
O O17 0.250000 0.750000 0.000000
O O18 0.912787 0.500000 0.317715
#
# Coordination Sequence:
#
# PCOD9193292 Si02
#       7
#     8   8   8   8   8   8   8
#     4  10  21  36  55  80 109 142 182 225 272 327
#     4  10  20  35  54  75 103 135 167 210 257 301
#     4  10  20  34  54  76 104 137 170 212 259 306
#     4  10  21  37  56  80 110 143 182 228 276 327
#     4  10  20  34  53  77 102 133 172 209 253 307
#     4   9  19  34  52  75 101 130 168 207 248 303
#     4  10  20  35  53  76 106 138 174 216 262 313
#
# _framework density 20.287472999999999
#
# number of rings (size 3 to 8) (size 9 to 14) (size 15 to 20)
#    0.000    2.143    0.000    3.000    0.000    3.714 
#    0.000    5.714    0.000   12.000    0.000    0.000 
#    0.000    0.000    0.000    0.000    0.000    0.000 
#
# Total GULP energy -155998.421624 kJ/mol
# GULP energy per Si atom -5571.372201 kJ/mol
# Density = 2.024130 g / cm^3
# Si number density = 20.287473 Si / 1000 Ang^3
#
#
#
# Elastic Constant Matrix: (Units=GPa)
#
#
# Indices 1 2 3 4 5 6 
#
# 1 65.2391 21.3564 -4.7295 0.0000 10.8518 0.0000
# 2 21.3564 96.8906 11.5840 0.0000 -5.0498 0.0000
# 3 -4.7295 11.5840 49.0383 0.0000 10.6992 0.0000
# 4 0.0000 0.0000 0.0000 37.0748 0.0000 -4.6158
# 5 10.8518 -5.0498 10.6992 0.0000 34.0667 0.0000
# 6 0.0000 0.0000 0.0000 -4.6158 0.0000 16.7369
#
#
#
# Elastic Compliance Matrix: (Units=1/GPa)
#
#
# Indices 1 2 3 4 5 6 
#
# 1 0.018728 -0.005133 0.004817 0.000000 -0.008239 0.000000
# 2 -0.005133 0.012236 -0.004442 0.000000 0.004844 0.000000
# 3 0.004817 -0.004442 0.024031 0.000000 -0.009740 0.000000
# 4 0.000000 0.000000 0.000000 0.027932 0.000000 0.007703
# 5 -0.008239 0.004844 -0.009740 0.000000 0.035756 0.000000
# 6 0.000000 0.000000 0.000000 0.007703 0.000000 0.061873
#
#
# Mechanical properties :
#
#
# Convention : Reuss Voigt Hill
#
# Bulk Modulus (GPa) = 21.98902 29.73221 25.86061
# Shear Modulus (GPa) = 24.36250 29.77283 27.06766
#
# Velocity S-wave (km/s) = 3.46911 3.83501 3.65664
# Velocity P-wave (km/s) = 5.18734 5.85637 5.53198
#
# Compressibility (1/GPa) = 0.04547724
#
# Stress axis : x y z
#
# Youngs Moduli (GPa) = 53.39484 81.72608 41.61243
#
# Poissons Ratio (x) = 0.41953 -0.20043
# Poissons Ratio (y) = 0.27409 0.18486
# Poissons Ratio (z) = -0.25718 0.36306
#
# Static dielectric constant tensor:
#      x y z
#    x 1.705570 0.000000 0.000360 
#    y 0.000000 1.699360 0.000000 
#    z 0.000360 0.000000 1.762670 
# 
# From -- ./inp_files/355855.got.cif
#   From: 2010.05.17/outbox.cif.g08.bks.cpg/sg12_178_cif.got.tgz:355855.got - 2010.06.03 13:09:07.
