data_PCOD9193935
_publ_section_title
;
Structure prediction by ZEFSAII (Michael W. Deem and Ramdas Pophale) SiO2 
 PCOD9193935
Probable space group: C 2/M
;
_chemical_formula_sum "Si O2"
_cell_formula_units_Z 64
_cell_length_a 26.071561
_cell_length_b 8.899335
_cell_length_c 13.583690
_cell_angle_alpha 90.000000
_cell_angle_beta 88.516249
_cell_angle_gamma 90.000000
_cell_volume 3150.624981
_symmetry_space_group_name_H-M "C 2/M"
_symmetry_group_IT_number 12
_symmetry_cell_setting 'monoclinic'
loop_
_space_group_symop_operation_xyz
x,y,z
-x,y,-z
-x,-y,-z
x,-y,z
1/2+x,1/2+y,z
1/2-x,1/2+y,-z
1/2-x,1/2-y,-z
1/2+x,1/2-y,z
loop_
_atom_site_type_symbol
_atom_site_label
_atom_site_fract_x
_atom_site_fract_y
_atom_site_fract_z
Si Si1 0.499998 0.821306 0.641256
Si Si2 0.444455 0.330243 0.011458
Si Si3 0.418006 0.681181 0.492644
Si Si4 0.931941 0.167044 0.781139
Si Si5 0.169146 0.321211 0.181419
Si Si6 0.657980 0.178461 0.952881
Si Si7 0.197764 0.818334 0.548064
Si Si8 0.283180 0.679185 0.231244
O O1 0.453471 0.758085 0.574556
O O2 0.552461 0.740978 0.606258
O O3 0.479486 0.769626 0.747820
O O4 0.504206 0.000000 0.630811
O O5 0.449290 0.500000 0.053820
O O6 0.429619 0.345199 0.898295
O O7 0.500000 0.257255 0.000000
O O8 0.399543 0.237715 0.062777
O O9 0.422189 0.500000 0.497014
O O10 0.357664 0.722208 0.496482
O O11 0.877127 0.239483 0.760861
O O12 0.937882 0.000000 0.738467
O O13 0.158929 0.500000 0.183126
O O14 0.222569 0.290002 0.231184
O O15 0.173192 0.277717 0.064821
O O16 0.692707 0.245959 0.865844
O O17 0.659894 0.000000 0.948774
O O18 0.250000 0.750000 0.500000
O O19 0.195272 0.774228 0.663801
O O20 0.202124 0.000000 0.543075
O O21 0.290406 0.500000 0.221321
#
# Coordination Sequence:
#
# PCOD9193935 Si02
#       8
#     8   8   8   8   8   8   8   8
#     4  11  22  37  60  87 113 148 190 237 293 348
#     4   9  19  36  56  78 108 149 188 224 274 335
#     4  10  21  40  61  84 114 146 189 242 292 342
#     4  10  20  34  55  83 113 145 186 233 282 337
#     4   9  19  35  55  82 116 149 188 234 279 332
#     4  10  20  34  54  83 115 146 184 234 281 326
#     4  10  24  42  61  86 117 153 193 239 291 346
#     4  10  21  38  58  81 110 151 191 226 279 340
#
# _framework density 20.31343
#
# number of rings (size 3 to 8) (size 9 to 14) (size 15 to 20)
#    0.000    2.125    0.000    3.375    1.750    4.250 
#    0.000    5.000    0.000    0.000    0.000    0.000 
#    0.000    0.000    0.000    0.000    0.000    0.000 
#
# Total GULP energy -178489.341441 kJ/mol
# GULP energy per Si atom -5577.791920 kJ/mol
# Density = 2.026720 g / cm^3
# Si number density = 20.313430 Si / 1000 Ang^3
#
#
#
# Elastic Constant Matrix: (Units=GPa)
#
#
# Indices 1 2 3 4 5 6 
#
# 1 98.3310 42.0481 11.9125 0.0000 -3.5198 0.0000
# 2 42.0481 42.3391 8.8057 0.0000 -5.8389 0.0000
# 3 11.9125 8.8057 28.9082 0.0000 -10.3120 0.0000
# 4 0.0000 0.0000 0.0000 21.0429 0.0000 -12.4933
# 5 -3.5198 -5.8389 -10.3120 0.0000 27.8138 0.0000
# 6 0.0000 0.0000 0.0000 -12.4933 0.0000 26.5726
#
#
#
# Elastic Compliance Matrix: (Units=1/GPa)
#
#
# Indices 1 2 3 4 5 6 
#
# 1 0.017942 -0.017553 -0.002940 0.000000 -0.002504 0.000000
# 2 -0.017553 0.042581 -0.003851 0.000000 0.005290 0.000000
# 3 -0.002940 -0.003851 0.042127 0.000000 0.014438 0.000000
# 4 0.000000 0.000000 0.000000 0.065923 0.000000 0.030994
# 5 -0.002504 0.005290 0.014438 0.000000 0.042100 0.000000
# 6 0.000000 0.000000 0.000000 0.030994 0.000000 0.052205
#
#
# Mechanical properties :
#
#
# Convention : Reuss Voigt Hill
#
# Bulk Modulus (GPa) = 18.53094 32.79009 25.66051
# Shear Modulus (GPa) = 15.17205 22.20667 18.68936
#
# Velocity S-wave (km/s) = 2.73591 3.30995 3.03652
# Velocity P-wave (km/s) = 4.37294 5.54840 4.99536
#
# Compressibility (1/GPa) = 0.05396382
#
# Stress axis : x y z
#
# Youngs Moduli (GPa) = 55.73484 23.48450 23.73766
#
# Poissons Ratio (x) = 0.41222 0.06979
# Poissons Ratio (y) = 0.97829 0.09140
# Poissons Ratio (z) = 0.16387 0.09043
#
# Static dielectric constant tensor:
#      x y z
#    x 1.727630 0.000000 0.013340 
#    y 0.000000 1.716260 0.000000 
#    z 0.013340 0.000000 1.789870 
# 
# From -- ./inp_files/238717.got.cif
#   From: 2010.05.17/outbox.cif.g08.bks.cpg/sg12_120_cif.got.tgz:238717.got - 2010.06.03 13:09:07.
