data_PCOD9193257
_publ_section_title
;
Structure prediction by ZEFSAII (Michael W. Deem and Ramdas Pophale) SiO2 
 PCOD9193257
Probable space group: C 2/M
;
_chemical_formula_sum "Si O2"
_cell_formula_units_Z 64
_cell_length_a 18.630129
_cell_length_b 7.646176
_cell_length_c 31.505459
_cell_angle_alpha 90.000000
_cell_angle_beta 137.352189
_cell_angle_gamma 90.000000
_cell_volume 3040.526817
_symmetry_space_group_name_H-M "C 2/M"
_symmetry_group_IT_number 12
_symmetry_cell_setting 'monoclinic'
loop_
_space_group_symop_operation_xyz
x,y,z
-x,y,-z
-x,-y,-z
x,-y,z
1/2+x,1/2+y,z
1/2-x,1/2+y,-z
1/2-x,1/2-y,-z
1/2+x,1/2-y,z
loop_
_atom_site_type_symbol
_atom_site_label
_atom_site_fract_x
_atom_site_fract_y
_atom_site_fract_z
Si Si1 0.581813 0.289385 0.431916
Si Si2 0.273211 0.285366 0.185230
Si Si3 0.128748 0.708138 0.936530
Si Si4 0.322711 0.288658 0.692350
Si Si5 0.258208 0.290765 0.571572
Si Si6 0.847853 0.790857 0.310100
Si Si7 0.559702 0.293385 0.811776
Si Si8 0.533319 0.785989 0.061641
O O1 0.579654 0.500000 0.428345
O O2 0.655575 0.223969 0.425158
O O3 0.643203 0.245717 0.501856
O O4 0.462339 0.223462 0.375080
O O5 0.272263 0.500000 0.184602
O O6 0.314301 0.226286 0.249026
O O7 0.352654 0.224462 0.182880
O O8 0.152642 0.230815 0.124337
O O9 0.117702 0.500000 0.930828
O O10 0.096359 0.772902 0.876024
O O11 0.049739 0.774363 0.938843
O O12 0.250000 0.750000 0.000000
O O13 0.326801 0.500000 0.692427
O O14 0.280396 0.224350 0.628390
O O15 0.242780 0.243332 0.695119
O O16 0.441519 0.222272 0.753057
O O17 0.270480 0.500000 0.578280
O O18 0.858365 0.000000 0.310592
O O19 0.553106 0.500000 0.799968
O O20 0.531771 0.000000 0.061063
O O21 0.500000 0.730433 0.000000
#
# Coordination Sequence:
#
# PCOD9193257 Si02
#       8
#     8   8   8   8   8   8   8   8
#     4   9  18  33  53  76 100 131 177 226 264 304
#     4   9  17  32  55  78 100 133 176 217 257 304
#     4  11  22  36  56  82 111 141 175 215 259 307
#     4  10  21  35  52  77 108 139 170 209 263 322
#     4   9  18  34  54  75 102 137 175 215 264 320
#     4  10  20  34  53  76 103 137 178 220 259 307
#     4  10  20  36  58  80 104 136 174 216 261 309
#     4   9  17  30  51  78 103 130 170 213 248 292
#
# _framework density 21.048981999999999
#
# number of rings (size 3 to 8) (size 9 to 14) (size 15 to 20)
#    0.000    2.375    0.000    2.625    0.000    8.000 
#    0.000    3.125    0.000   11.250    0.000    0.000 
#    0.000    0.000    0.000    0.000    0.000    0.000 
#
# Total GULP energy -178759.514049 kJ/mol
# GULP energy per Si atom -5586.234814 kJ/mol
# Density = 2.100107 g / cm^3
# Si number density = 21.048982 Si / 1000 Ang^3
#
#
#
# Elastic Constant Matrix: (Units=GPa)
#
#
# Indices 1 2 3 4 5 6 
#
# 1 196.5094 -6.2434 135.5448 -0.0001 5.1104 0.0001
# 2 -6.2434 33.6715 -8.0801 -0.0003 3.0677 0.0003
# 3 135.5448 -8.0801 224.9872 -0.0001 7.6588 0.0001
# 4 -0.0001 -0.0003 -0.0001 16.6365 0.0001 -2.1974
# 5 5.1104 3.0677 7.6588 0.0001 43.2597 -0.0001
# 6 0.0001 0.0003 0.0001 -2.1974 -0.0001 18.1198
#
#
#
# Elastic Compliance Matrix: (Units=1/GPa)
#
#
# Indices 1 2 3 4 5 6 
#
# 1 0.008712 0.000372 -0.005231 0.000000 -0.000129 0.000000
# 2 0.000372 0.030208 0.000941 0.000001 -0.002353 0.000000
# 3 -0.005231 0.000941 0.007657 0.000000 -0.000804 0.000000
# 4 0.000000 0.000001 0.000000 0.061087 0.000000 0.007408
# 5 -0.000129 -0.002353 -0.000804 0.000000 0.023441 0.000000
# 6 0.000000 0.000000 0.000000 0.007408 0.000000 0.056087
#
#
# Mechanical properties :
#
#
# Convention : Reuss Voigt Hill
#
# Bulk Modulus (GPa) = 25.81244 77.51229 51.66237
# Shear Modulus (GPa) = 24.04521 37.86631 30.95576
#
# Velocity S-wave (km/s) = 3.38353 4.24602 3.83907
# Velocity P-wave (km/s) = 5.24919 7.80659 6.65195
#
# Compressibility (1/GPa) = 0.03874100
#
# Stress axis : x y z
#
# Youngs Moduli (GPa) = 114.78359 33.10404 130.59551
#
# Poissons Ratio (x) = -0.01231 0.68313
# Poissons Ratio (y) = -0.04269 -0.12287
# Poissons Ratio (z) = 0.60042 -0.03115
#
# Static dielectric constant tensor:
#      x y z
#    x 1.721730 0.000000 0.005650 
#    y 0.000000 1.792800 0.000000 
#    z 0.005650 0.000000 1.718750 
# 
# From -- ./inp_files/378317.got.cif
#   From: 2010.05.17/outbox.cif.g08.bks.cpg/sg12_190_cif.got.tgz:378317.got - 2010.06.03 13:09:07.
