data_PCOD9193946
_publ_section_title
;
Structure prediction by ZEFSAII (Michael W. Deem and Ramdas Pophale) SiO2 
 PCOD9193946
Probable space group: C 2/M
;
_chemical_formula_sum "Si O2"
_cell_formula_units_Z 48
_cell_length_a 24.785020
_cell_length_b 12.405611
_cell_length_c 9.603147
_cell_angle_alpha 90.000000
_cell_angle_beta 113.980077
_cell_angle_gamma 90.000000
_cell_volume 2697.853584
_symmetry_space_group_name_H-M "C 2/M"
_symmetry_group_IT_number 12
_symmetry_cell_setting 'monoclinic'
loop_
_space_group_symop_operation_xyz
x,y,z
-x,y,-z
-x,-y,-z
x,-y,z
1/2+x,1/2+y,z
1/2-x,1/2+y,-z
1/2-x,1/2-y,-z
1/2+x,1/2-y,z
loop_
_atom_site_type_symbol
_atom_site_label
_atom_site_fract_x
_atom_site_fract_y
_atom_site_fract_z
Si Si1 0.826685 0.871046 0.328002
Si Si2 0.064102 0.122449 0.075074
Si Si3 0.612099 0.734037 0.876802
Si Si4 0.185556 0.375651 0.175083
Si Si5 0.498811 0.874929 0.666406
Si Si6 0.876403 0.267126 0.637249
O O1 0.856889 0.815056 0.225988
O O2 0.756004 0.864691 0.239226
O O3 0.846366 0.797646 0.479721
O O4 0.841984 0.000000 0.357223
O O5 0.102464 0.179032 0.230226
O O6 0.056691 0.000000 0.108912
O O7 0.092055 0.135773 0.953637
O O8 0.000000 0.176661 0.000000
O O9 0.554108 0.804215 0.777705
O O10 0.654040 0.805326 0.021688
O O11 0.169169 0.500000 0.135716
O O12 0.165056 0.341835 0.309561
O O13 0.500000 0.870794 0.500000
O O14 0.435299 0.829585 0.648852
O O15 0.505117 0.000000 0.716764
#
# Coordination Sequence:
#
# PCOD9193946 Si02
#       6
#     8   8   8   8   8   8
#     4  11  23  40  60  86 117 154 198 241 282 341
#     4  10  20  34  54  83 117 152 187 229 279 342
#     4  11  21  39  60  86 117 154 190 238 291 344
#     4  10  23  40  61  86 116 154 198 240 285 338
#     4  11  22  37  58  87 119 147 187 237 293 350
#     4  11  21  39  60  86 117 154 190 238 291 344
#
# _framework density 17.791920999999999
#
# number of rings (size 3 to 8) (size 9 to 14) (size 15 to 20)
#    0.000    1.333    3.333    3.000    0.000    0.000 
#    0.000    3.333    0.000    8.000    0.000    0.000 
#    0.000    0.000    0.000    0.000    0.000    0.000 
#
# Total GULP energy -133833.850237 kJ/mol
# GULP energy per Si atom -5576.410427 kJ/mol
# Density = 1.775143 g / cm^3
# Si number density = 17.791921 Si / 1000 Ang^3
#
#
#
# Elastic Constant Matrix: (Units=GPa)
#
#
# Indices 1 2 3 4 5 6 
#
# 1 83.6225 25.6392 20.2997 0.0000 -3.6939 0.0000
# 2 25.6392 71.4589 12.3208 0.0000 4.1456 0.0000
# 3 20.2997 12.3208 78.2827 0.0000 -4.1187 0.0000
# 4 0.0000 0.0000 0.0000 11.7192 0.0000 2.3774
# 5 -3.6939 4.1456 -4.1187 0.0000 28.8633 0.0000
# 6 0.0000 0.0000 0.0000 2.3774 0.0000 17.3216
#
#
#
# Elastic Compliance Matrix: (Units=1/GPa)
#
#
# Indices 1 2 3 4 5 6 
#
# 1 0.014185 -0.004724 -0.002825 0.000000 0.002091 0.000000
# 2 -0.004724 0.016125 -0.001478 0.000000 -0.003131 0.000000
# 3 -0.002825 -0.001478 0.013835 0.000000 0.001825 0.000000
# 4 0.000000 0.000000 0.000000 0.087774 0.000000 -0.012047
# 5 0.002091 -0.003131 0.001825 0.000000 0.035624 0.000000
# 6 0.000000 0.000000 0.000000 -0.012047 0.000000 0.059385
#
#
# Mechanical properties :
#
#
# Convention : Reuss Voigt Hill
#
# Bulk Modulus (GPa) = 38.32462 38.87594 38.60028
# Shear Modulus (GPa) = 19.70999 23.25445 21.48222
#
# Velocity S-wave (km/s) = 3.33198 3.61920 3.47856
# Velocity P-wave (km/s) = 6.03242 6.27396 6.15437
#
# Compressibility (1/GPa) = 0.02609289
#
# Stress axis : x y z
#
# Youngs Moduli (GPa) = 70.49728 62.01402 72.27862
#
# Poissons Ratio (x) = 0.29294 0.20418
# Poissons Ratio (y) = 0.33301 0.10681
# Poissons Ratio (z) = 0.19915 0.09164
#
# Static dielectric constant tensor:
#      x y z
#    x 1.627720 0.000000 -0.000390 
#    y 0.000000 1.601970 0.000000 
#    z -0.000390 0.000000 1.582820 
# 
# From -- ./inp_files/94900.got.cif
#   From: 2010.05.17/outbox.cif.g08.bks.cpg/sg12_48_cif.got.tgz:94900.got - 2010.06.03 13:09:07.
