data_PCOD9193412
_publ_section_title
;
Structure prediction by ZEFSAII (Michael W. Deem and Ramdas Pophale) SiO2 
 PCOD9193412
Probable space group: C 2/M
;
_chemical_formula_sum "Si O2"
_cell_formula_units_Z 56
_cell_length_a 20.096345
_cell_length_b 17.660535
_cell_length_c 17.988854
_cell_angle_alpha 90.000000
_cell_angle_beta 27.113562
_cell_angle_gamma 90.000000
_cell_volume 2909.755200
_symmetry_space_group_name_H-M "C 2/M"
_symmetry_group_IT_number 12
_symmetry_cell_setting 'monoclinic'
loop_
_space_group_symop_operation_xyz
x,y,z
-x,y,-z
-x,-y,-z
x,-y,z
1/2+x,1/2+y,z
1/2-x,1/2+y,-z
1/2-x,1/2-y,-z
1/2+x,1/2-y,z
loop_
_atom_site_type_symbol
_atom_site_label
_atom_site_fract_x
_atom_site_fract_y
_atom_site_fract_z
Si Si1 0.108385 0.586649 0.453753
Si Si2 0.837841 0.154767 0.132812
Si Si3 0.581941 0.408590 0.102616
Si Si4 0.255878 0.907499 0.535572
Si Si5 0.281611 0.587374 0.590975
Si Si6 0.133573 0.086783 0.215668
Si Si7 0.825075 0.812342 0.687029
O O1 0.060485 0.500000 0.513016
O O2 0.263622 0.591295 0.258442
O O3 0.134337 0.620993 0.509585
O O4 0.000000 0.620472 0.500000
O O5 0.746842 0.230917 0.234704
O O6 0.842594 0.128308 0.043119
O O7 0.000000 0.167218 0.000000
O O8 0.585351 0.500000 0.092352
O O9 0.410544 0.385975 0.278140
O O10 0.655661 0.389590 0.108344
O O11 0.285867 0.885883 0.420472
O O12 0.258653 0.000000 0.534067
O O13 0.238196 0.500000 0.648881
O O14 0.457151 0.585776 0.402289
O O15 0.258569 0.641281 0.683751
O O16 0.197288 0.140737 0.214931
O O17 0.183469 0.000000 0.176015
O O18 0.000000 0.807290 0.500000
#
# Coordination Sequence:
#
# PCOD9193412 Si02
#       7
#     8   8   8   8   8   8   8
#     4  10  20  34  54  78 104 133 173 226 272 303
#     4  12  23  34  51  72 109 150 183 203 245 313
#     4   9  17  31  54  81 102 131 177 219 256 304
#     4   8  14  28  52  80 103 124 163 220 267 305
#     4   8  14  28  55  83 102 127 170 221 268 310
#     4   8  15  30  56  84 104 126 169 225 270 307
#     4  10  20  34  53  78 110 136 172 216 263 304
#
# _framework density 19.245605000000001
#
# number of rings (size 3 to 8) (size 9 to 14) (size 15 to 20)
#    0.000    2.714    1.429    3.000    0.000    2.857 
#    0.000    0.714    6.286    1.714    0.000    0.000 
#    0.000    0.000    0.000    0.000    0.000    0.000 
#
# Total GULP energy -156042.565266 kJ/mol
# GULP energy per Si atom -5572.948759 kJ/mol
# Density = 1.920180 g / cm^3
# Si number density = 19.245605 Si / 1000 Ang^3
#
#
#
# Elastic Constant Matrix: (Units=GPa)
#
#
# Indices 1 2 3 4 5 6 
#
# 1 159.5898 40.3301 36.6476 -0.0001 29.8481 -0.0031
# 2 40.3301 43.1832 17.2611 -0.0003 14.8680 -0.0047
# 3 36.6476 17.2611 27.2367 0.0000 15.8961 -0.0019
# 4 -0.0001 -0.0003 0.0000 27.3772 0.0000 16.4267
# 5 29.8481 14.8680 15.8961 0.0000 33.3738 0.0000
# 6 -0.0031 -0.0047 -0.0019 16.4267 0.0000 18.8196
#
#
#
# Elastic Compliance Matrix: (Units=1/GPa)
#
#
# Indices 1 2 3 4 5 6 
#
# 1 0.010029 -0.004943 -0.008881 0.000001 -0.002538 -0.000001
# 2 -0.004943 0.034395 -0.012166 -0.000008 -0.005107 0.000013
# 3 -0.008881 -0.012166 0.067278 -0.000003 -0.018682 0.000005
# 4 0.000001 -0.000008 -0.000003 0.076692 0.000004 -0.066941
# 5 -0.002538 -0.005107 -0.018682 0.000004 0.043407 -0.000007
# 6 -0.000001 0.000013 0.000005 -0.066941 -0.000007 0.111565
#
#
# Mechanical properties :
#
#
# Convention : Reuss Voigt Hill
#
# Bulk Modulus (GPa) = 16.74404 46.49859 31.62131
# Shear Modulus (GPa) = 12.04082 24.96552 18.50317
#
# Velocity S-wave (km/s) = 2.50399 3.60558 3.10405
# Velocity P-wave (km/s) = 4.13268 6.44567 5.41414
#
# Compressibility (1/GPa) = 0.05972275
#
# Stress axis : x y z
#
# Youngs Moduli (GPa) = 99.70895 29.07402 14.86368
#
# Poissons Ratio (x) = 0.14371 0.13200
# Poissons Ratio (y) = 0.49286 0.18083
# Poissons Ratio (z) = 0.88550 0.35371
#
# Static dielectric constant tensor:
#      x y z
#    x 1.720420 0.000000 -0.012660 
#    y 0.000000 1.652150 0.000000 
#    z -0.012660 0.000000 1.676200 
# 
# From -- ./inp_files/284977.got.cif
#   From: 2010.05.17/outbox.cif.g08.bks.cpg/sg12_143_cif.got.tgz:284977.got - 2010.06.03 13:09:07.
