data_PCOD9193117
_publ_section_title
;
Structure prediction by ZEFSAII (Michael W. Deem and Ramdas Pophale) SiO2 
 PCOD9193117
Probable space group: C 2/M
;
_chemical_formula_sum "Si O2"
_cell_formula_units_Z 40
_cell_length_a 7.557636
_cell_length_b 31.205099
_cell_length_c 12.849624
_cell_angle_alpha 90.000000
_cell_angle_beta 143.445130
_cell_angle_gamma 90.000000
_cell_volume 1804.891323
_symmetry_space_group_name_H-M "C 2/M"
_symmetry_group_IT_number 12
_symmetry_cell_setting 'monoclinic'
loop_
_space_group_symop_operation_xyz
x,y,z
-x,y,-z
-x,-y,-z
x,-y,z
1/2+x,1/2+y,z
1/2-x,1/2+y,-z
1/2-x,1/2-y,-z
1/2+x,1/2-y,z
loop_
_atom_site_type_symbol
_atom_site_label
_atom_site_fract_x
_atom_site_fract_y
_atom_site_fract_z
Si Si1 0.874912 0.046796 0.322278
Si Si2 0.165804 0.639180 0.794735
Si Si3 0.670271 0.954321 0.802934
Si Si4 0.295942 0.300180 0.506725
Si Si5 0.760445 0.864134 0.205742
O O1 0.526801 0.046156 0.185163
O O2 0.925588 0.089761 0.282330
O O3 0.000000 0.050801 0.500000
O O4 0.959229 0.000000 0.319490
O O5 0.138483 0.591476 0.732413
O O6 0.022096 0.676293 0.656922
O O7 0.927008 0.637518 0.775824
O O8 0.500000 0.645420 0.000000
O O9 0.601699 0.000000 0.716664
O O10 0.000000 0.955150 0.000000
O O11 0.500000 0.303911 0.500000
O O12 0.250000 0.250000 0.500000
O O13 0.498042 0.326406 0.684348
O O14 0.500000 0.860954 0.000000
#
# Coordination Sequence:
#
# PCOD9193117 Si02
#       5
#     8   8   8   8   8
#     4   9  16  28  49  75 103 138 175 206 242 296
#     4   9  18  34  55  77 102 134 173 211 250 306
#     4   8  13  23  43  71  98 124 157 195 234 282
#     4  10  22  39  56  74 100 133 173 219 265 312
#     4  10  20  34  52  78 110 138 167 211 263 309
#
# _framework density 22.162001
#
# number of rings (size 3 to 8) (size 9 to 14) (size 15 to 20)
#    0.000    2.800    0.000    3.000    0.000    2.800 
#    0.000    4.000    0.000    0.000    0.000    0.000 
#    0.000   48.000    0.000    0.000    0.000    0.000 
#
# Total GULP energy -111356.076385 kJ/mol
# GULP energy per Si atom -5567.803819 kJ/mol
# Density = 2.211156 g / cm^3
# Si number density = 22.162001 Si / 1000 Ang^3
#
#
#
# Elastic Constant Matrix: (Units=GPa)
#
#
# Indices 1 2 3 4 5 6 
#
# 1 41.6587 4.2122 4.7137 0.0000 14.5974 0.0000
# 2 4.2122 269.2840 113.2468 0.0000 3.9908 0.0000
# 3 4.7137 113.2468 119.6985 0.0000 14.1491 0.0000
# 4 0.0000 0.0000 0.0000 36.3884 0.0000 18.9099
# 5 14.5974 3.9908 14.1491 0.0000 25.4957 0.0000
# 6 0.0000 0.0000 0.0000 18.9099 0.0000 25.0313
#
#
#
# Elastic Compliance Matrix: (Units=1/GPa)
#
#
# Indices 1 2 3 4 5 6 
#
# 1 0.030283 -0.001011 0.001921 0.000000 -0.018246 0.000000
# 2 -0.001011 0.006345 -0.006330 0.000000 0.003098 0.000000
# 3 0.001921 -0.006330 0.015283 0.000000 -0.008590 0.000000
# 4 0.000000 0.000000 0.000000 0.045243 0.000000 -0.034179
# 5 -0.018246 0.003098 -0.008590 0.000000 0.053951 0.000000
# 6 0.000000 0.000000 0.000000 -0.034179 0.000000 0.065770
#
#
# Mechanical properties :
#
#
# Convention : Reuss Voigt Hill
#
# Bulk Modulus (GPa) = 24.34807 74.99849 49.67328
# Shear Modulus (GPa) = 20.71195 37.94764 29.32980
#
# Velocity S-wave (km/s) = 3.06039 4.14246 3.64184
# Velocity P-wave (km/s) = 4.84750 7.53621 6.33612
#
# Compressibility (1/GPa) = 0.04107102
#
# Stress axis : x y z
#
# Youngs Moduli (GPa) = 33.02184 157.59267 65.43290
#
# Poissons Ratio (x) = 0.15934 -0.12569
# Poissons Ratio (y) = 0.03339 0.41418
# Poissons Ratio (z) = -0.06343 0.99755
#
# Static dielectric constant tensor:
#      x y z
#    x 1.885560 0.000000 -0.003960 
#    y 0.000000 1.913630 0.000000 
#    z -0.003960 0.000000 1.915750 
# 
# From -- ./inp_files/41414.got.cif
#   From: 2010.05.17/outbox.cif.g08.bks.cpg/sg12_21_cif.got.tgz:41414.got - 2010.06.03 13:09:07.
