data_PCOD9193643
_publ_section_title
;
Structure prediction by ZEFSAII (Michael W. Deem and Ramdas Pophale) SiO2 
 PCOD9193643
Probable space group: C 2/M
;
_chemical_formula_sum "Si O2"
_cell_formula_units_Z 56
_cell_length_a 13.954738
_cell_length_b 11.239199
_cell_length_c 16.939480
_cell_angle_alpha 90.000000
_cell_angle_beta 70.528273
_cell_angle_gamma 90.000000
_cell_volume 2504.837198
_symmetry_space_group_name_H-M "C 2/M"
_symmetry_group_IT_number 12
_symmetry_cell_setting 'monoclinic'
loop_
_space_group_symop_operation_xyz
x,y,z
-x,y,-z
-x,-y,-z
x,-y,z
1/2+x,1/2+y,z
1/2-x,1/2+y,-z
1/2-x,1/2-y,-z
1/2+x,1/2-y,z
loop_
_atom_site_type_symbol
_atom_site_label
_atom_site_fract_x
_atom_site_fract_y
_atom_site_fract_z
Si Si1 0.235030 0.366029 0.115036
Si Si2 0.173645 0.718645 0.697488
Si Si3 0.865940 0.211953 0.726631
Si Si4 0.507358 0.367928 0.825027
Si Si5 0.281801 0.864773 0.542487
Si Si6 0.974634 0.631963 0.398569
Si Si7 0.596411 0.219784 0.016275
O O1 0.271815 0.500000 0.112473
O O2 0.178792 0.320518 0.208685
O O3 0.155659 0.358563 0.063913
O O4 0.323176 0.273933 0.067014
O O5 0.268437 0.653239 0.712137
O O6 0.229648 0.830638 0.639081
O O7 0.108519 0.647043 0.650544
O O8 0.093324 0.771947 0.780769
O O9 0.928709 0.137159 0.773158
O O10 0.945570 0.264413 0.641587
O O11 0.548705 0.500000 0.819967
O O12 0.448734 0.328596 0.919456
O O13 0.250000 0.750000 0.500000
O O14 0.403087 0.863017 0.495712
O O15 0.250134 0.000000 0.528618
O O16 0.020190 0.500000 0.379510
O O17 0.500000 0.162271 0.000000
#
# Coordination Sequence:
#
# PCOD9193643 Si02
#       7
#     8   8   8   8   8   8   8
#     4  10  21  36  53  75 104 134 166 209 257 305
#     4  10  20  34  54  78 104 138 177 215 261 314
#     4  10  21  35  52  78 107 135 172 216 260 309
#     4  10  21  36  53  76 106 137 171 213 259 310
#     4   9  18  33  53  78 108 141 179 224 270 318
#     4   9  19  35  53  75 105 138 174 217 262 310
#     4  10  21  36  54  77 102 131 171 212 253 306
#
# _framework density 22.356743000000002
#
# number of rings (size 3 to 8) (size 9 to 14) (size 15 to 20)
#    0.000    2.286    0.000    2.143    0.000    6.000 
#    0.000    1.429    0.000   10.286    0.000   14.000 
#    0.000    0.000    0.000    0.000    0.000    0.000 
#
# Total GULP energy -156280.787229 kJ/mol
# GULP energy per Si atom -5581.456687 kJ/mol
# Density = 2.230586 g / cm^3
# Si number density = 22.356743 Si / 1000 Ang^3
#
#
#
# Elastic Constant Matrix: (Units=GPa)
#
#
# Indices 1 2 3 4 5 6 
#
# 1 129.4143 2.7408 -2.1841 0.0000 12.9431 0.0000
# 2 2.7408 71.5104 9.8712 0.0000 2.8621 0.0000
# 3 -2.1841 9.8712 87.3611 0.0000 -7.2356 0.0000
# 4 0.0000 0.0000 0.0000 2.0757 0.0000 -8.7269
# 5 12.9431 2.8621 -7.2356 0.0000 35.3720 0.0000
# 6 0.0000 0.0000 0.0000 -8.7269 0.0000 3.7397
#
#
#
# Elastic Compliance Matrix: (Units=1/GPa)
#
#
# Indices 1 2 3 4 5 6 
#
# 1 0.008023 -0.000188 -0.000020 0.000000 -0.002925 0.000000
# 2 -0.000188 0.014289 -0.001739 0.000000 -0.001443 0.000000
# 3 -0.000020 -0.001739 0.011856 0.000000 0.002573 0.000000
# 4 0.000000 0.000000 0.000000 -0.054678 0.000000 -0.127593
# 5 -0.002925 -0.001443 0.002573 0.000000 0.029984 0.000000
# 6 0.000000 0.000000 0.000000 -0.127593 0.000000 -0.030348
#
#
# Mechanical properties :
#
#
# Convention : Reuss Voigt Hill
#
# Bulk Modulus (GPa) = 33.03126 34.34905 33.69016
# Shear Modulus (GPa) = -725.84994 26.76134 -349.54430
#
# Velocity S-wave (km/s) = -18.03807 3.46354 -12.51750
# Velocity P-wave (km/s) = 20.47004 5.60288 13.92175
#
# Compressibility (1/GPa) = 0.03027435
#
# Stress axis : x y z
#
# Youngs Moduli (GPa) = 124.63740 69.98416 84.34665
#
# Poissons Ratio (x) = 0.01313 0.00173
# Poissons Ratio (y) = 0.02339 0.14666
# Poissons Ratio (z) = 0.00255 0.12169
#
# Static dielectric constant tensor:
#      x y z
#    x 1.922130 0.000000 0.072650 
#    y 0.000000 1.741650 0.000000 
#    z 0.072650 0.000000 1.825090 
# 
# From -- ./inp_files/268642.got.cif
#   From: 2010.05.17/outbox.cif.g08.bks.cpg/sg12_135_cif.got.tgz:268642.got - 2010.06.03 13:09:07.
