data_PCOD9193911
_publ_section_title
;
Structure prediction by ZEFSAII (Michael W. Deem and Ramdas Pophale) SiO2 
 PCOD9193911
Probable space group: C 2/M
;
_chemical_formula_sum "Si O2"
_cell_formula_units_Z 48
_cell_length_a 15.999055
_cell_length_b 13.818374
_cell_length_c 11.644031
_cell_angle_alpha 90.000000
_cell_angle_beta 104.811771
_cell_angle_gamma 90.000000
_cell_volume 2488.732343
_symmetry_space_group_name_H-M "C 2/M"
_symmetry_group_IT_number 12
_symmetry_cell_setting 'monoclinic'
loop_
_space_group_symop_operation_xyz
x,y,z
-x,y,-z
-x,-y,-z
x,-y,z
1/2+x,1/2+y,z
1/2-x,1/2+y,-z
1/2-x,1/2-y,-z
1/2+x,1/2-y,z
loop_
_atom_site_type_symbol
_atom_site_label
_atom_site_fract_x
_atom_site_fract_y
_atom_site_fract_z
Si Si1 0.129967 0.889245 0.140336
Si Si2 0.353407 0.395332 0.269477
Si Si3 0.661048 0.888220 0.754697
Si Si4 0.349926 0.269594 0.061068
Si Si5 0.829793 0.750146 0.441822
Si Si6 0.057249 0.109538 0.370130
O O1 0.234225 0.886552 0.194480
O O2 0.086170 0.875230 0.248778
O O3 0.108303 0.000000 0.094851
O O4 0.106837 0.803938 0.042591
O O5 0.317265 0.500000 0.277462
O O6 0.351841 0.366222 0.137628
O O7 0.302996 0.318268 0.326127
O O8 0.454029 0.391507 0.339324
O O9 0.622647 0.817345 0.841762
O O10 0.643754 0.845634 0.620118
O O11 0.633357 0.000000 0.756547
O O12 0.250000 0.250000 0.000000
O O13 0.750000 0.750000 0.500000
O O14 0.903541 0.806146 0.538508
O O15 0.087572 0.000000 0.414553
#
# Coordination Sequence:
#
# PCOD9193911 Si02
#       6
#     8   8   8   8   8   8
#     4   9  16  29  51  77 108 138 167 209 266 326
#     4  10  21  35  54  84 114 138 169 219 281 331
#     4   9  18  32  50  73 102 140 182 224 260 299
#     4   9  18  32  52  76 107 140 178 218 261 317
#     4  11  20  32  53  76 107 145 184 218 260 321
#     4  10  20  34  54  82 118 144 164 213 283 336
#
# _framework density 19.286928
#
# number of rings (size 3 to 8) (size 9 to 14) (size 15 to 20)
#    0.000    2.333    1.667    1.500    0.000    3.333 
#    0.000    2.500    0.000    8.000    0.000    4.667 
#    0.000    0.000    0.000    0.000    0.000    0.000 
#
# Total GULP energy -133655.202153 kJ/mol
# GULP energy per Si atom -5568.966756 kJ/mol
# Density = 1.924303 g / cm^3
# Si number density = 19.286928 Si / 1000 Ang^3
#
#
#
# Elastic Constant Matrix: (Units=GPa)
#
#
# Indices 1 2 3 4 5 6 
#
# 1 26.1017 14.8790 16.5287 0.0000 -6.6507 0.0000
# 2 14.8790 104.5964 50.8543 0.0000 -16.3644 0.0000
# 3 16.5287 50.8543 100.7914 0.0000 -20.5659 0.0000
# 4 0.0000 0.0000 0.0000 28.6879 0.0000 0.2304
# 5 -6.6507 -16.3644 -20.5659 0.0000 29.7729 0.0000
# 6 0.0000 0.0000 0.0000 0.2304 0.0000 14.9126
#
#
#
# Elastic Compliance Matrix: (Units=1/GPa)
#
#
# Indices 1 2 3 4 5 6 
#
# 1 0.044363 -0.003303 -0.004606 0.000000 0.004913 0.000000
# 2 -0.003303 0.013143 -0.005548 0.000000 0.002654 0.000000
# 3 -0.004606 -0.005548 0.014719 0.000000 0.006088 0.000000
# 4 0.000000 0.000000 0.000000 0.034862 0.000000 -0.000539
# 5 0.004913 0.002654 0.006088 0.000000 0.040349 0.000000
# 6 0.000000 0.000000 0.000000 -0.000539 0.000000 0.067066
#
#
# Mechanical properties :
#
#
# Convention : Reuss Voigt Hill
#
# Bulk Modulus (GPa) = 22.07002 44.00150 33.03576
# Shear Modulus (GPa) = 19.49169 24.62318 22.05744
#
# Velocity S-wave (km/s) = 3.18247 3.57694 3.38545
# Velocity P-wave (km/s) = 4.99720 6.31847 5.69627
#
# Compressibility (1/GPa) = 0.04531033
#
# Stress axis : x y z
#
# Youngs Moduli (GPa) = 22.54131 76.08568 67.94143
#
# Poissons Ratio (x) = 0.25127 0.31296
# Poissons Ratio (y) = 0.07444 0.37696
# Poissons Ratio (z) = 0.10383 0.42214
#
# Static dielectric constant tensor:
#      x y z
#    x 1.646970 0.000000 0.001600 
#    y 0.000000 1.725240 0.000000 
#    z 0.001600 0.000000 1.719690 
# 
# From -- ./inp_files/164247.got.cif
#   From: 2010.05.17/outbox.cif.g08.bks.cpg/sg12_83_cif.got.tgz:164247.got - 2010.06.03 13:09:07.
