data_PCOD9193973
_publ_section_title
;
Structure prediction by ZEFSAII (Michael W. Deem and Ramdas Pophale) SiO2 
 PCOD9193973
Probable space group: C 2/M
;
_chemical_formula_sum "Si O2"
_cell_formula_units_Z 64
_cell_length_a 30.485254
_cell_length_b 8.856518
_cell_length_c 24.781962
_cell_angle_alpha 90.000000
_cell_angle_beta 150.089971
_cell_angle_gamma 90.000000
_cell_volume 3336.377387
_symmetry_space_group_name_H-M "C 2/M"
_symmetry_group_IT_number 12
_symmetry_cell_setting 'monoclinic'
loop_
_space_group_symop_operation_xyz
x,y,z
-x,y,-z
-x,-y,-z
x,-y,z
1/2+x,1/2+y,z
1/2-x,1/2+y,-z
1/2-x,1/2-y,-z
1/2+x,1/2-y,z
loop_
_atom_site_type_symbol
_atom_site_label
_atom_site_fract_x
_atom_site_fract_y
_atom_site_fract_z
Si Si1 0.129967 0.682923 0.520913
Si Si2 0.033715 0.833057 0.188662
Si Si3 0.115481 0.678424 0.908989
Si Si4 0.437117 0.817137 0.268176
Si Si5 0.763567 0.181101 0.271553
Si Si6 0.082676 0.176384 0.117082
Si Si7 0.225453 0.183017 0.843398
Si Si8 0.737504 0.326176 0.430296
O O1 0.133355 0.500000 0.529945
O O2 0.156429 0.752395 0.607073
O O3 0.205613 0.734276 0.559089
O O4 0.035570 0.723547 0.393734
O O5 0.047304 0.825774 0.139758
O O6 0.133680 0.818514 0.312870
O O7 0.969677 0.711932 0.145671
O O8 0.999429 0.000000 0.167329
O O9 0.129523 0.500000 0.918079
O O10 0.091900 0.735482 0.823329
O O11 0.198635 0.736014 0.033133
O O12 0.365877 0.749589 0.232887
O O13 0.433799 0.000000 0.264733
O O14 0.673827 0.241671 0.203100
O O15 0.761231 0.225782 0.205464
O O16 0.766861 0.000000 0.277471
O O17 0.094337 0.000000 0.112528
O O18 0.000000 0.250723 0.000000
O O19 0.224066 0.000000 0.843578
O O20 0.765098 0.500000 0.463645
O O21 0.750000 0.250000 0.500000
#
# Coordination Sequence:
#
# PCOD9193973 Si02
#       8
#     8   8   8   8   8   8   8   8
#     4  10  21  40  60  82 119 157 195 246 291 342
#     4  10  20  34  54  84 115 148 187 226 276 336
#     4  10  21  39  61  87 119 152 189 240 300 355
#     4  10  22  39  63  89 111 149 201 246 295 352
#     4  11  23  38  58  86 119 157 199 241 291 350
#     4  10  20  36  58  83 115 154 192 234 285 341
#     4  10  23  41  60  85 119 153 189 244 305 354
#     4  10  20  35  55  80 115 151 187 232 282 338
#
# _framework density 19.182483000000001
#
# number of rings (size 3 to 8) (size 9 to 14) (size 15 to 20)
#    0.000    1.875    1.250    2.250    0.000    5.750 
#    0.000    2.500    0.000    0.000    0.000    0.000 
#    0.000    0.000    0.000    0.000    0.000    0.000 
#
# Total GULP energy -178326.144433 kJ/mol
# GULP energy per Si atom -5572.692014 kJ/mol
# Density = 1.913882 g / cm^3
# Si number density = 19.182483 Si / 1000 Ang^3
#
#
#
# Elastic Constant Matrix: (Units=GPa)
#
#
# Indices 1 2 3 4 5 6 
#
# 1 57.5665 -23.1428 70.1838 0.0000 28.5253 0.0000
# 2 -23.1428 -38.5220 63.7622 0.0000 37.4610 0.0000
# 3 70.1838 63.7622 98.3279 0.0000 -53.2169 0.0000
# 4 0.0000 0.0000 0.0000 29.7960 0.0000 2.3629
# 5 28.5253 37.4610 -53.2169 0.0000 -5.8827 0.0000
# 6 0.0000 0.0000 0.0000 2.3629 0.0000 32.4431
#
#
#
# Elastic Compliance Matrix: (Units=1/GPa)
#
#
# Indices 1 2 3 4 5 6 
#
# 1 0.015204 -0.015179 -0.002276 0.000000 -0.002341 0.000000
# 2 -0.015179 0.029549 0.009104 0.000000 0.032207 0.000000
# 3 -0.002276 0.009104 0.005308 0.000000 -0.001079 0.000000
# 4 0.000000 0.000000 0.000000 0.033756 0.000000 -0.002459
# 5 -0.002341 0.032207 -0.001079 0.000000 0.033509 0.000000
# 6 0.000000 0.000000 0.000000 -0.002459 0.000000 0.031002
#
#
# Mechanical properties :
#
#
# Convention : Reuss Voigt Hill
#
# Bulk Modulus (GPa) = 29.97792 37.66430 33.82111
# Shear Modulus (GPa) = 28.38464 11.70923 20.04693
#
# Velocity S-wave (km/s) = 3.85088 2.47333 3.23625
# Velocity P-wave (km/s) = 5.95265 5.27578 5.62441
#
# Compressibility (1/GPa) = 0.03335788
#
# Stress axis : x y z
#
# Youngs Moduli (GPa) = 65.77011 33.84171 188.40941
#
# Poissons Ratio (x) = 0.51369 0.42891
# Poissons Ratio (y) = 0.99834 -1.71528
# Poissons Ratio (z) = 0.14972 -0.30810
#
# Static dielectric constant tensor:
#      x y z
#    x 1.618990 0.000000 -0.004290 
#    y 0.000000 1.680780 0.000000 
#    z -0.004290 0.000000 1.673260 
# 
# From -- ./inp_files/353509.got.cif
#   From: 2010.05.17/outbox.cif.g08.bks.cpg/sg12_177_cif.got.tgz:353509.got - 2010.06.03 13:09:07.
