data_PCOD9193365
_publ_section_title
;
Structure prediction by ZEFSAII (Michael W. Deem and Ramdas Pophale) SiO2 
 PCOD9193365
Probable space group: C 2/M
;
_chemical_formula_sum "Si O2"
_cell_formula_units_Z 56
_cell_length_a 8.707009
_cell_length_b 19.971063
_cell_length_c 22.319859
_cell_angle_alpha 90.000000
_cell_angle_beta 125.813986
_cell_angle_gamma 90.000000
_cell_volume 3147.314714
_symmetry_space_group_name_H-M "C 2/M"
_symmetry_group_IT_number 12
_symmetry_cell_setting 'monoclinic'
loop_
_space_group_symop_operation_xyz
x,y,z
-x,y,-z
-x,-y,-z
x,-y,z
1/2+x,1/2+y,z
1/2-x,1/2+y,-z
1/2-x,1/2-y,-z
1/2+x,1/2-y,z
loop_
_atom_site_type_symbol
_atom_site_label
_atom_site_fract_x
_atom_site_fract_y
_atom_site_fract_z
Si Si1 0.867847 0.676817 0.201354
Si Si2 0.446913 0.421749 0.920413
Si Si3 0.122423 0.676995 0.371691
Si Si4 0.312479 0.423115 0.499999
Si Si5 0.736218 0.823184 0.201354
Si Si6 0.992654 0.176994 0.371692
Si Si7 0.685674 0.921749 0.079587
O O1 0.718434 0.622736 0.144925
O O2 0.774320 0.750000 0.182879
O O3 0.950979 0.662626 0.286698
O O4 0.046071 0.678169 0.197380
O O5 0.389878 0.500000 0.909864
O O6 0.632704 0.416212 0.921803
O O7 0.500000 0.400688 0.000000
O O8 0.156896 0.619437 0.428182
O O9 0.312099 0.680827 0.374732
O O10 0.088162 0.750000 0.392107
O O11 0.500000 0.424613 0.500000
O O12 0.259832 0.500000 0.499999
O O13 0.372347 0.380564 0.571817
O O14 0.909117 0.837375 0.286698
O O15 0.716342 0.877265 0.144925
O O16 0.339714 0.000000 0.909865
O O17 0.500000 0.900687 0.000000
#
# Coordination Sequence:
#
# PCOD9193365 Si02
#       7
#     8   8   8   8   8   8   8
#     4  10  20  34  53  78 106 136 174 217 260 307
#     4  10  21  37  56  78 105 137 172 211 257 309
#     4   9  18  32  52  75 100 134 171 210 254 301
#     4   9  17  30  49  75 104 133 170 212 252 297
#     4  10  20  34  53  78 106 136 174 217 260 307
#     4   9  18  32  52  75 100 134 171 210 254 301
#     4  10  21  37  56  78 105 137 172 211 257 309
#
# _framework density 17.792945
#
# number of rings (size 3 to 8) (size 9 to 14) (size 15 to 20)
#    0.000    2.429    0.000    2.143    0.000    4.571 
#    0.000    5.714    0.000    1.714    0.000    0.000 
#    0.000    0.000    0.000    0.000    0.000    0.000 
#
# Total GULP energy -156259.758818 kJ/mol
# GULP energy per Si atom -5580.705672 kJ/mol
# Density = 1.775245 g / cm^3
# Si number density = 17.792945 Si / 1000 Ang^3
#
#
#
# Elastic Constant Matrix: (Units=GPa)
#
#
# Indices 1 2 3 4 5 6 
#
# 1 27.5098 35.8390 35.3544 0.0000 5.1329 0.0000
# 2 35.8390 145.8008 115.7585 0.0000 10.6684 0.0000
# 3 35.3544 115.7585 131.6717 0.0000 8.7709 0.0000
# 4 0.0000 0.0000 0.0000 79.8403 0.0000 6.5917
# 5 5.1329 10.6684 8.7709 0.0000 15.7895 0.0000
# 6 0.0000 0.0000 0.0000 6.5917 0.0000 30.4640
#
#
#
# Elastic Compliance Matrix: (Units=1/GPa)
#
#
# Indices 1 2 3 4 5 6 
#
# 1 0.058479 -0.005675 -0.010075 0.000000 -0.009580 0.000000
# 2 -0.005675 0.023562 -0.018954 0.000000 -0.003546 0.000000
# 3 -0.010075 -0.018954 0.026887 0.000000 0.001146 0.000000
# 4 0.000000 0.000000 0.000000 0.012753 0.000000 -0.002759
# 5 -0.009580 -0.003546 0.001146 0.000000 0.068207 0.000000
# 6 0.000000 0.000000 0.000000 -0.002759 0.000000 0.033423
#
#
# Mechanical properties :
#
#
# Convention : Reuss Voigt Hill
#
# Bulk Modulus (GPa) = 25.30377 75.43179 50.36778
# Shear Modulus (GPa) = 16.34573 33.08746 24.71660
#
# Velocity S-wave (km/s) = 3.03423 4.31697 3.73114
# Velocity P-wave (km/s) = 5.15049 8.20576 6.85062
#
# Compressibility (1/GPa) = 0.03951981
#
# Stress axis : x y z
#
# Youngs Moduli (GPa) = 17.10029 42.44147 37.19263
#
# Poissons Ratio (x) = 0.24084 0.37471
# Poissons Ratio (y) = 0.09704 0.70496
# Poissons Ratio (z) = 0.17228 0.80445
#
# Static dielectric constant tensor:
#      x y z
#    x 1.594810 0.000000 0.000820 
#    y 0.000000 1.578390 0.000000 
#    z 0.000820 0.000000 1.600950 
# 
# From -- ./inp_files/258248.got.cif
#   From: 2010.05.17/outbox.cif.g08.bks.cpg/sg12_130_cif.got.tgz:258248.got - 2010.06.03 13:09:07.
