data_PCOD9193063
_publ_section_title
;
Structure prediction by ZEFSAII (Michael W. Deem and Ramdas Pophale) SiO2 
 PCOD9193063
Probable space group: C 2/M
;
_chemical_formula_sum "Si O2"
_cell_formula_units_Z 60
_cell_length_a 15.078063
_cell_length_b 7.392987
_cell_length_c 20.264857
_cell_angle_alpha 90.000000
_cell_angle_beta 93.127814
_cell_angle_gamma 90.000000
_cell_volume 2255.597418
_symmetry_space_group_name_H-M "C 2/M"
_symmetry_group_IT_number 12
_symmetry_cell_setting 'monoclinic'
loop_
_space_group_symop_operation_xyz
x,y,z
-x,y,-z
-x,-y,-z
x,-y,z
1/2+x,1/2+y,z
1/2-x,1/2+y,-z
1/2-x,1/2-y,-z
1/2+x,1/2-y,z
loop_
_atom_site_type_symbol
_atom_site_label
_atom_site_fract_x
_atom_site_fract_y
_atom_site_fract_z
Si Si1 0.071312 0.291768 0.948736
Si Si2 0.879826 0.281940 0.550840
Si Si3 0.589475 0.290875 0.260220
Si Si4 0.429494 0.220111 0.403575
Si Si5 0.749605 0.207258 0.651173
Si Si6 0.716608 0.218348 0.150232
Si Si7 0.750000 0.750000 0.000000
Si Si8 0.914481 0.781995 0.197318
O O1 0.102859 0.500000 0.964624
O O2 0.159744 0.183567 0.962545
O O3 0.046211 0.276085 0.872307
O O4 0.000000 0.247097 0.000000
O O5 0.875109 0.500000 0.551783
O O6 0.900065 0.228156 0.476781
O O7 0.790591 0.206901 0.579140
O O8 0.967568 0.225823 0.596773
O O9 0.580900 0.500000 0.280237
O O10 0.669395 0.204000 0.305797
O O11 0.634867 0.286699 0.190050
O O12 0.489373 0.214350 0.251773
O O13 0.349324 0.286694 0.353802
O O14 0.428188 0.000000 0.401064
O O15 0.741097 0.000000 0.673572
O O16 0.709501 0.279343 0.074332
O O17 0.810968 0.275789 0.188536
O O18 0.713839 0.000000 0.149982
O O19 0.913984 0.000000 0.200957
#
# Coordination Sequence:
#
# PCOD9193063 Si02
#       8
#     8   8   8   8   8   8   4   8
#     4  10  20  34  54  79 104 131 166 207 251 306
#     4   9  17  32  54  78 105 140 178 216 262 316
#     4  10  22  38  54  74 105 143 178 215 264 317
#     4   8  16  32  53  77 108 142 175 215 265 316
#     4  10  20  34  52  76 106 140 177 219 265 311
#     4  10  21  37  57  78 102 134 172 214 259 313
#     4  10  20  34  56  82 106 128 160 212 270 312
#     4   9  20  37  52  70 100 135 167 205 258 310
#
# _framework density 26.600491000000002
#
# number of rings (size 3 to 8) (size 9 to 14) (size 15 to 20)
#    0.000    2.533    0.000    2.400    0.000    6.667 
#    0.000    4.667    0.000    0.000    0.000    0.000 
#    0.000    0.000    0.000    0.000    0.000    0.000 
#
# Total GULP energy -167200.436182 kJ/mol
# GULP energy per Si atom -5573.347873 kJ/mol
# Density = 2.653995 g / cm^3
# Si number density = 26.600491 Si / 1000 Ang^3
#
#
#
# Elastic Constant Matrix: (Units=GPa)
#
#
# Indices 1 2 3 4 5 6 
#
# 1 147.9816 13.7634 31.3750 0.0000 23.0981 0.0000
# 2 13.7634 85.8898 9.1481 0.0000 3.7960 0.0000
# 3 31.3750 9.1481 75.2022 0.0000 19.0507 0.0000
# 4 0.0000 0.0000 0.0000 19.8798 0.0000 -1.9933
# 5 23.0981 3.7960 19.0507 0.0000 70.1837 0.0000
# 6 0.0000 0.0000 0.0000 -1.9933 0.0000 6.6339
#
#
#
# Elastic Compliance Matrix: (Units=1/GPa)
#
#
# Indices 1 2 3 4 5 6 
#
# 1 0.007675 -0.000870 -0.002651 0.000000 -0.001759 0.000000
# 2 -0.000870 0.011899 -0.001067 0.000000 -0.000068 0.000000
# 3 -0.002651 -0.001067 0.015353 0.000000 -0.003237 0.000000
# 4 0.000000 0.000000 0.000000 0.051865 0.000000 0.015584
# 5 -0.001759 -0.000068 -0.003237 0.000000 0.015710 0.000000
# 6 0.000000 0.000000 0.000000 0.015584 0.000000 0.155423
#
#
# Mechanical properties :
#
#
# Convention : Reuss Voigt Hill
#
# Bulk Modulus (GPa) = 38.83257 46.40516 42.61887
# Shear Modulus (GPa) = 18.13667 36.32529 27.23098
#
# Velocity S-wave (km/s) = 2.61400 3.69939 3.20301
# Velocity P-wave (km/s) = 4.87245 5.97750 5.45304
#
# Compressibility (1/GPa) = 0.02575158
#
# Stress axis : x y z
#
# Youngs Moduli (GPa) = 130.29148 84.04145 65.13250
#
# Poissons Ratio (x) = 0.07310 0.17264
# Poissons Ratio (y) = 0.11333 0.06953
# Poissons Ratio (z) = 0.34535 0.08971
#
# Static dielectric constant tensor:
#      x y z
#    x 2.090190 0.000000 -0.003000 
#    y 0.000000 2.066830 0.000000 
#    z -0.003000 0.000000 2.128140 
# 
# From -- ./inp_files/338112.got.cif
#   From: 2010.05.17/outbox.cif.g08.bks.cpg/sg12_170_cif.got.tgz:338112.got - 2010.06.03 13:09:07.
