data_PCOD9193769
_publ_section_title
;
Structure prediction by ZEFSAII (Michael W. Deem and Ramdas Pophale) SiO2 
 PCOD9193769
Probable space group: C 2/M
;
_chemical_formula_sum "Si O2"
_cell_formula_units_Z 56
_cell_length_a 23.919639
_cell_length_b 14.487050
_cell_length_c 9.338977
_cell_angle_alpha 90.000000
_cell_angle_beta 111.800530
_cell_angle_gamma 90.000000
_cell_volume 3004.744560
_symmetry_space_group_name_H-M "C 2/M"
_symmetry_group_IT_number 12
_symmetry_cell_setting 'monoclinic'
loop_
_space_group_symop_operation_xyz
x,y,z
-x,y,-z
-x,-y,-z
x,-y,z
1/2+x,1/2+y,z
1/2-x,1/2+y,-z
1/2-x,1/2-y,-z
1/2+x,1/2-y,z
loop_
_atom_site_type_symbol
_atom_site_label
_atom_site_fract_x
_atom_site_fract_y
_atom_site_fract_z
Si Si1 0.470353 0.389509 0.227855
Si Si2 0.362461 0.103345 0.112078
Si Si3 0.862647 0.894406 0.348540
Si Si4 0.772182 0.145872 0.009058
Si Si5 0.119890 0.211568 0.057833
Si Si6 0.905347 0.220766 0.634487
Si Si7 0.570206 0.894268 0.527930
O O1 0.477477 0.500000 0.216341
O O2 0.423295 0.374734 0.314049
O O3 0.533192 0.339174 0.315184
O O4 0.437730 0.341638 0.061843
O O5 0.393346 0.128346 0.292415
O O6 0.384365 0.000000 0.089701
O O7 0.290865 0.095826 0.069143
O O8 0.375082 0.187758 0.014701
O O9 0.807797 0.882922 0.185720
O O10 0.859878 0.827897 0.480825
O O11 0.865797 0.000000 0.399701
O O12 0.750000 0.250000 0.000000
O O13 0.822636 0.149209 0.933887
O O14 0.115719 0.221958 0.222743
O O15 0.916528 0.322443 0.583975
O O16 0.500000 0.888544 0.500000
O O17 0.584371 0.000000 0.501918
#
# Coordination Sequence:
#
# PCOD9193769 Si02
#       7
#     8   8   8   8   8   8   8
#     4  10  21  37  56  78 109 151 190 218 258 326
#     4  10  20  39  63  79 101 145 191 224 264 325
#     4  10  20  34  54  80 109 144 185 224 263 318
#     4   9  18  37  58  76 102 140 186 223 259 317
#     4  10  22  35  54  84 114 142 177 229 278 321
#     4  12  21  33  54  82 117 146 174 224 284 328
#     4  10  21  37  58  82 108 142 186 231 270 318
#
# _framework density 18.637191000000001
#
# number of rings (size 3 to 8) (size 9 to 14) (size 15 to 20)
#    0.000    1.857    0.000    6.000    0.000    4.000 
#    0.000    6.429    0.000    7.714    0.000    0.000 
#    0.000    0.000    0.000    0.000    0.000    0.000 
#
# Total GULP energy -156270.942697 kJ/mol
# GULP energy per Si atom -5581.105096 kJ/mol
# Density = 1.859477 g / cm^3
# Si number density = 18.637191 Si / 1000 Ang^3
#
#
#
# Elastic Constant Matrix: (Units=GPa)
#
#
# Indices 1 2 3 4 5 6 
#
# 1 55.1535 24.7987 63.9493 0.0000 13.5958 0.0000
# 2 24.7987 114.1618 60.1632 0.0000 -18.0148 0.0000
# 3 63.9493 60.1632 143.5867 0.0000 -12.3853 0.0000
# 4 0.0000 0.0000 0.0000 31.1055 0.0000 8.8866
# 5 13.5958 -18.0148 -12.3853 0.0000 30.5775 0.0000
# 6 0.0000 0.0000 0.0000 8.8866 0.0000 13.3962
#
#
#
# Elastic Compliance Matrix: (Units=1/GPa)
#
#
# Indices 1 2 3 4 5 6 
#
# 1 0.072376 -0.005477 -0.034188 0.000000 -0.049255 0.000000
# 2 -0.005477 0.012408 -0.001988 0.000000 0.008940 0.000000
# 3 -0.034188 -0.001988 0.025111 0.000000 0.024201 0.000000
# 4 0.000000 0.000000 0.000000 0.039666 0.000000 -0.026313
# 5 -0.049255 0.008940 0.024201 0.000000 0.069674 0.000000
# 6 0.000000 0.000000 0.000000 -0.026313 0.000000 0.092103
#
#
# Mechanical properties :
#
#
# Convention : Reuss Voigt Hill
#
# Bulk Modulus (GPa) = 37.61075 67.85827 52.73451
# Shear Modulus (GPa) = 12.39133 25.94855 19.16994
#
# Velocity S-wave (km/s) = 2.58131 3.73540 3.21064
# Velocity P-wave (km/s) = 5.39523 7.42250 6.48853
#
# Compressibility (1/GPa) = 0.02658814
#
# Stress axis : x y z
#
# Youngs Moduli (GPa) = 13.81680 80.59344 39.82297
#
# Poissons Ratio (x) = 0.44145 1.36145
# Poissons Ratio (y) = 0.07568 0.07918
# Poissons Ratio (z) = 0.47236 0.16024
#
# Static dielectric constant tensor:
#      x y z
#    x 1.643390 0.000000 0.014110 
#    y 0.000000 1.668650 0.000000 
#    z 0.014110 0.000000 1.601990 
# 
# From -- ./inp_files/96255.got.cif
#   From: 2010.05.17/outbox.cif.g08.bks.cpg/sg12_49_cif.got.tgz:96255.got - 2010.06.03 13:09:07.
