data_PCOD9193939
_publ_section_title
;
Structure prediction by ZEFSAII (Michael W. Deem and Ramdas Pophale) SiO2 
 PCOD9193939
Probable space group: C 2/M
;
_chemical_formula_sum "Si O2"
_cell_formula_units_Z 56
_cell_length_a 31.082036
_cell_length_b 20.845880
_cell_length_c 9.100964
_cell_angle_alpha 90.000000
_cell_angle_beta 151.451610
_cell_angle_gamma 90.000000
_cell_volume 2818.089967
_symmetry_space_group_name_H-M "C 2/M"
_symmetry_group_IT_number 12
_symmetry_cell_setting 'monoclinic'
loop_
_space_group_symop_operation_xyz
x,y,z
-x,y,-z
-x,-y,-z
x,-y,z
1/2+x,1/2+y,z
1/2-x,1/2+y,-z
1/2-x,1/2-y,-z
1/2+x,1/2-y,z
loop_
_atom_site_type_symbol
_atom_site_label
_atom_site_fract_x
_atom_site_fract_y
_atom_site_fract_z
Si Si1 0.407625 0.629803 0.801839
Si Si2 0.903928 0.500000 0.287024
Si Si3 0.222021 0.620430 0.091792
Si Si4 0.277979 0.879570 0.259667
Si Si5 0.596072 0.000000 0.363454
Si Si6 0.092881 0.715093 0.199677
Si Si7 0.092375 0.870198 0.856090
Si Si8 0.092881 0.284907 0.857610
O O1 0.319190 0.606786 0.452142
O O2 0.403406 0.707755 0.782677
O O3 0.500000 0.609889 0.000000
O O4 0.407184 0.611206 0.971553
O O5 0.917287 0.500000 0.501861
O O6 0.000000 0.500000 0.500000
O O7 0.845669 0.562560 0.075264
O O8 0.229054 0.627350 0.937163
O O9 0.176650 0.683081 0.027073
O O10 0.345669 0.937440 0.498752
O O11 0.323350 0.816919 0.467176
O O12 0.180810 0.893214 0.037000
O O13 0.500000 0.000000 0.000000
O O14 0.092074 0.695985 0.026221
O O15 0.000000 0.694839 0.000000
O O16 0.096594 0.792245 0.862241
O O17 0.000000 0.890111 0.500000
O O18 0.000000 0.305161 0.500000
#
# Coordination Sequence:
#
# PCOD9193939 Si02
#       8
#     8   4   8   8   4   8   8   8
#     4  10  21  37  57  83 114 146 182 226 275 328
#     4  10  24  42  59  82 111 144 183 228 272 320
#     4  11  22  37  57  81 111 147 187 229 275 326
#     4  11  22  37  57  81 111 147 187 229 275 326
#     4  10  24  42  59  82 111 144 183 228 272 320
#     4  10  20  34  54  83 116 147 182 225 275 330
#     4  10  21  37  57  83 114 146 182 226 275 328
#     4  10  20  34  54  83 116 147 182 225 275 330
#
# _framework density 19.871616
#
# number of rings (size 3 to 8) (size 9 to 14) (size 15 to 20)
#    0.000    1.714    0.000    4.286    0.000   11.429 
#    0.000    0.714    0.000    0.000    0.000    0.000 
#    0.000    0.000    0.000    0.000    0.000    0.000 
#
# Total GULP energy -156570.010381 kJ/mol
# GULP energy per Si atom -5591.786085 kJ/mol
# Density = 1.982639 g / cm^3
# Si number density = 19.871616 Si / 1000 Ang^3
#
#
#
# Elastic Constant Matrix: (Units=GPa)
#
#
# Indices 1 2 3 4 5 6 
#
# 1 152.5352 28.0807 86.7735 0.0000 17.3181 0.0000
# 2 28.0807 18.4408 25.1744 0.0000 -2.1598 0.0000
# 3 86.7735 25.1744 190.3830 0.0000 10.8090 0.0000
# 4 0.0000 0.0000 0.0000 10.8590 0.0000 -1.3724
# 5 17.3181 -2.1598 10.8090 0.0000 39.6951 0.0000
# 6 0.0000 0.0000 0.0000 -1.3724 0.0000 12.7057
#
#
#
# Elastic Compliance Matrix: (Units=1/GPa)
#
#
# Indices 1 2 3 4 5 6 
#
# 1 0.011395 -0.013679 -0.003109 0.000000 -0.004869 0.000000
# 2 -0.013679 0.084068 -0.005566 0.000000 0.012058 0.000000
# 3 -0.003109 -0.005566 0.007461 0.000000 -0.000978 0.000000
# 4 0.000000 0.000000 0.000000 0.093364 0.000000 0.010084
# 5 -0.004869 0.012058 -0.000978 0.000000 0.028239 0.000000
# 6 0.000000 0.000000 0.000000 0.010084 0.000000 0.079794
#
#
# Mechanical properties :
#
#
# Convention : Reuss Voigt Hill
#
# Bulk Modulus (GPa) = 17.17717 71.26847 44.22282
# Shear Modulus (GPa) = 13.57097 27.40732 20.48915
#
# Velocity S-wave (km/s) = 2.61613 3.71781 3.21452
# Velocity P-wave (km/s) = 4.21763 7.37373 6.00667
#
# Compressibility (1/GPa) = 0.05821680
#
# Stress axis : x y z
#
# Youngs Moduli (GPa) = 87.75585 11.89515 134.03042
#
# Poissons Ratio (x) = 0.16271 0.41664
# Poissons Ratio (y) = 1.20039 0.74606
# Poissons Ratio (z) = 0.27280 0.06621
#
# Static dielectric constant tensor:
#      x y z
#    x 1.667650 0.000000 0.006760 
#    y 0.000000 1.730860 0.000000 
#    z 0.006760 0.000000 1.676740 
# 
# From -- ./inp_files/113437.got.cif
#   From: 2010.05.17/outbox.cif.g08.bks.cpg/sg12_57_cif.got.tgz:113437.got - 2010.06.03 13:09:07.
