data_PCOD9193091
_publ_section_title
;
Structure prediction by ZEFSAII (Michael W. Deem and Ramdas Pophale) SiO2 
 PCOD9193091
Probable space group: C 2/M
;
_chemical_formula_sum "Si O2"
_cell_formula_units_Z 56
_cell_length_a 18.075844
_cell_length_b 9.188765
_cell_length_c 22.430012
_cell_angle_alpha 90.000000
_cell_angle_beta 124.728215
_cell_angle_gamma 90.000000
_cell_volume 3061.857558
_symmetry_space_group_name_H-M "C 2/M"
_symmetry_group_IT_number 12
_symmetry_cell_setting 'monoclinic'
loop_
_space_group_symop_operation_xyz
x,y,z
-x,y,-z
-x,-y,-z
x,-y,z
1/2+x,1/2+y,z
1/2-x,1/2+y,-z
1/2-x,1/2-y,-z
1/2+x,1/2-y,z
loop_
_atom_site_type_symbol
_atom_site_label
_atom_site_fract_x
_atom_site_fract_y
_atom_site_fract_z
Si Si1 0.658037 0.829214 0.940009
Si Si2 0.808599 0.324575 0.800130
Si Si3 0.976571 0.832647 0.350861
Si Si4 0.645082 0.829957 0.791979
Si Si5 0.586663 0.833218 0.494937
Si Si6 0.304708 0.666649 0.362443
Si Si7 0.491084 0.328571 0.924588
O O1 0.643872 0.820164 0.862457
O O2 0.576856 0.748075 0.935037
O O3 0.661323 0.000000 0.957956
O O4 0.750000 0.750000 0.000000
O O5 0.810263 0.500000 0.806774
O O6 0.731075 0.257394 0.806514
O O7 0.778073 0.290900 0.718087
O O8 0.902091 0.252710 0.860969
O O9 0.942437 0.739773 0.279211
O O10 0.890934 0.831481 0.357119
O O11 0.057713 0.761133 0.424767
O O12 0.994182 0.000000 0.343304
O O13 0.652563 0.000000 0.778188
O O14 0.500000 0.829855 0.500000
O O15 0.668738 0.767162 0.570309
O O16 0.602272 0.000000 0.485641
O O17 0.293345 0.500000 0.377192
O O18 0.487382 0.500000 0.907922
O O19 0.500000 0.316465 0.000000
#
# Coordination Sequence:
#
# PCOD9193091 Si02
#       7
#     8   8   8   8   8   8   8
#     4  11  24  40  59  82 108 139 174 215 262 313
#     4  10  20  34  54  79 107 141 178 217 264 315
#     4   9  16  26  42  65  96 135 174 213 259 308
#     4  10  20  34  52  77 108 139 175 219 264 311
#     4   9  15  22  36  61  94 132 171 212 258 304
#     4   8  15  26  40  63  96 132 170 211 255 305
#     4  11  24  40  58  81 108 138 174 217 262 310
#
# _framework density 18.289550999999999
#
# number of rings (size 3 to 8) (size 9 to 14) (size 15 to 20)
#    0.000    2.286    0.000    4.286    0.000   12.571 
#    0.000    0.000    0.000    0.000    0.000    1.000 
#    0.000    0.000    0.000    0.000    0.000    0.000 
#
# Total GULP energy -156258.073791 kJ/mol
# GULP energy per Si atom -5580.645493 kJ/mol
# Density = 1.824792 g / cm^3
# Si number density = 18.289551 Si / 1000 Ang^3
#
#
#
# Elastic Constant Matrix: (Units=GPa)
#
#
# Indices 1 2 3 4 5 6 
#
# 1 50.8501 49.2850 40.4062 0.0000 8.1179 0.0000
# 2 49.2850 164.7543 106.3415 0.0000 5.7845 0.0000
# 3 40.4062 106.3415 146.4966 0.0000 12.6647 0.0000
# 4 0.0000 0.0000 0.0000 40.6393 0.0000 -0.8065
# 5 8.1179 5.7845 12.6647 0.0000 14.0197 0.0000
# 6 0.0000 0.0000 0.0000 -0.8065 0.0000 10.7750
#
#
#
# Elastic Compliance Matrix: (Units=1/GPa)
#
#
# Indices 1 2 3 4 5 6 
#
# 1 0.030416 -0.007432 -0.001884 0.000000 -0.012844 0.000000
# 2 -0.007432 0.013355 -0.008179 0.000000 0.006181 0.000000
# 3 -0.001884 -0.008179 0.013989 0.000000 -0.008172 0.000000
# 4 0.000000 0.000000 0.000000 0.024643 0.000000 0.001845
# 5 -0.012844 0.006181 -0.008172 0.000000 0.083597 0.000000
# 6 0.000000 0.000000 0.000000 0.001845 0.000000 0.092945
#
#
# Mechanical properties :
#
#
# Convention : Reuss Voigt Hill
#
# Bulk Modulus (GPa) = 43.91614 83.79626 63.85620
# Shear Modulus (GPa) = 16.58236 24.15803 20.37019
#
# Velocity S-wave (km/s) = 3.01434 3.63831 3.34093
# Velocity P-wave (km/s) = 6.01488 7.97281 7.06203
#
# Compressibility (1/GPa) = 0.02277067
#
# Stress axis : x y z
#
# Youngs Moduli (GPa) = 32.87717 74.87957 71.48329
#
# Poissons Ratio (x) = 0.55647 0.13471
# Poissons Ratio (y) = 0.24433 0.58465
# Poissons Ratio (z) = 0.06196 0.61243
#
# Static dielectric constant tensor:
#      x y z
#    x 1.613440 0.000000 0.003240 
#    y 0.000000 1.618540 0.000000 
#    z 0.003240 0.000000 1.629560 
# 
# From -- ./inp_files/342494.got.cif
#   From: 2010.05.17/outbox.cif.g08.bks.cpg/sg12_172_cif.got.tgz:342494.got - 2010.06.03 13:09:07.
