data_PCOD9193971
_publ_section_title
;
Structure prediction by ZEFSAII (Michael W. Deem and Ramdas Pophale) SiO2 
 PCOD9193971
Probable space group: C 2/M
;
_chemical_formula_sum "Si O2"
_cell_formula_units_Z 64
_cell_length_a 14.899696
_cell_length_b 7.858767
_cell_length_c 29.239195
_cell_angle_alpha 90.000000
_cell_angle_beta 132.309165
_cell_angle_gamma 90.000000
_cell_volume 2531.915285
_symmetry_space_group_name_H-M "C 2/M"
_symmetry_group_IT_number 12
_symmetry_cell_setting 'monoclinic'
loop_
_space_group_symop_operation_xyz
x,y,z
-x,y,-z
-x,-y,-z
x,-y,z
1/2+x,1/2+y,z
1/2-x,1/2+y,-z
1/2-x,1/2-y,-z
1/2+x,1/2-y,z
loop_
_atom_site_type_symbol
_atom_site_label
_atom_site_fract_x
_atom_site_fract_y
_atom_site_fract_z
Si Si1 0.860867 0.805090 0.468839
Si Si2 0.955999 0.794440 0.694424
Si Si3 0.560227 0.802788 0.972827
Si Si4 0.724356 0.802384 0.901920
Si Si5 0.734510 0.205292 0.804687
Si Si6 0.960789 0.201899 0.595048
Si Si7 0.224700 0.692298 0.655242
Si Si8 0.972064 0.805823 0.845896
O O1 0.801224 0.695557 0.408485
O O2 0.000000 0.820639 0.500000
O O3 0.879693 0.727402 0.525695
O O4 0.813513 0.000000 0.453043
O O5 0.096249 0.752155 0.749053
O O6 0.928715 0.729399 0.633744
O O7 0.860853 0.732145 0.700348
O O8 0.945428 0.000000 0.691189
O O9 0.517162 0.699221 0.914326
O O10 0.529468 0.000000 0.953719
O O11 0.500000 0.745909 0.000000
O O12 0.702950 0.790406 0.033252
O O13 0.762897 0.732286 0.865673
O O14 0.579658 0.786806 0.856544
O O15 0.756825 0.000000 0.916207
O O16 0.835051 0.264817 0.802772
O O17 0.743740 0.000000 0.808326
O O18 0.105407 0.224269 0.635952
O O19 0.938702 0.000000 0.586791
O O20 0.227174 0.500000 0.673975
O O21 0.968907 0.000000 0.828050
#
# Coordination Sequence:
#
# PCOD9193971 Si02
#       8
#     8   8   8   8   8   8   8   8
#     4   8  15  30  53  79 110 147 183 221 274 341
#     4  10  23  40  58  80 111 149 190 236 284 337
#     4  11  22  37  62  94 124 156 192 232 283 342
#     4  11  23  41  63  89 120 155 193 235 287 343
#     4  10  24  43  61  82 113 151 194 241 286 335
#     4   9  19  37  57  79 110 150 188 224 277 343
#     4  10  20  34  54  84 115 143 181 233 286 332
#     4  11  23  41  63  89 120 154 192 238 289 339
#
# _framework density 25.277304999999998
#
# number of rings (size 3 to 8) (size 9 to 14) (size 15 to 20)
#    0.000    2.000    1.250    2.625    0.000    7.750 
#    0.000    5.000    0.000    0.000    0.000    0.000 
#    0.000    0.000    0.000    0.000    0.000    0.000 
#
# Total GULP energy -178883.443920 kJ/mol
# GULP energy per Si atom -5590.107622 kJ/mol
# Density = 2.521977 g / cm^3
# Si number density = 25.277305 Si / 1000 Ang^3
#
#
#
# Elastic Constant Matrix: (Units=GPa)
#
#
# Indices 1 2 3 4 5 6 
#
# 1 143.2892 -0.9505 8.3382 0.0000 18.1879 0.0000
# 2 -0.9505 53.8705 0.1025 0.0000 3.2702 0.0000
# 3 8.3382 0.1025 32.6082 0.0000 -1.9203 0.0000
# 4 0.0000 0.0000 0.0000 23.7884 0.0000 7.6860
# 5 18.1879 3.2702 -1.9203 0.0000 43.2382 0.0000
# 6 0.0000 0.0000 0.0000 7.6860 0.0000 21.9067
#
#
#
# Elastic Compliance Matrix: (Units=1/GPa)
#
#
# Indices 1 2 3 4 5 6 
#
# 1 0.007521 0.000336 -0.002118 0.000000 -0.003283 0.000000
# 2 0.000336 0.018664 -0.000237 0.000000 -0.001563 0.000000
# 3 -0.002118 -0.000237 0.031345 0.000000 0.002301 0.000000
# 4 0.000000 0.000000 0.000000 0.047412 0.000000 -0.016635
# 5 -0.003283 -0.001563 0.002301 0.000000 0.024729 0.000000
# 6 0.000000 0.000000 0.000000 -0.016635 0.000000 0.051484
#
#
# Mechanical properties :
#
#
# Convention : Reuss Voigt Hill
#
# Bulk Modulus (GPa) = 18.69374 27.19425 22.94399
# Shear Modulus (GPa) = 24.62769 32.60518 28.61643
#
# Velocity S-wave (km/s) = 3.12477 3.59541 3.36832
# Velocity P-wave (km/s) = 4.52000 5.29318 4.92179
#
# Compressibility (1/GPa) = 0.05349385
#
# Stress axis : x y z
#
# Youngs Moduli (GPa) = 132.95953 53.57814 31.90314
#
# Poissons Ratio (x) = -0.01800 0.06756
# Poissons Ratio (y) = -0.04468 0.00755
# Poissons Ratio (z) = 0.28156 0.01268
#
# Static dielectric constant tensor:
#      x y z
#    x 2.050900 0.000000 0.022540 
#    y 0.000000 1.897180 0.000000 
#    z 0.022540 0.000000 2.087690 
# 
# From -- ./inp_files/375649.got.cif
#   From: 2010.05.17/outbox.cif.g08.bks.cpg/sg12_188_cif.got.tgz:375649.got - 2010.06.03 13:09:07.
