data_PCOD9193870
_publ_section_title
;
Structure prediction by ZEFSAII (Michael W. Deem and Ramdas Pophale) SiO2 
 PCOD9193870
Probable space group: C 2/M
;
_chemical_formula_sum "Si O2"
_cell_formula_units_Z 40
_cell_length_a 17.615461
_cell_length_b 26.038777
_cell_length_c 8.636972
_cell_angle_alpha 90.000000
_cell_angle_beta 144.876710
_cell_angle_gamma 90.000000
_cell_volume 2279.286899
_symmetry_space_group_name_H-M "C 2/M"
_symmetry_group_IT_number 12
_symmetry_cell_setting 'monoclinic'
loop_
_space_group_symop_operation_xyz
x,y,z
-x,y,-z
-x,-y,-z
x,-y,z
1/2+x,1/2+y,z
1/2-x,1/2+y,-z
1/2-x,1/2-y,-z
1/2+x,1/2-y,z
loop_
_atom_site_type_symbol
_atom_site_label
_atom_site_fract_x
_atom_site_fract_y
_atom_site_fract_z
Si Si1 0.350562 0.560127 0.314214
Si Si2 0.642679 0.126520 0.782360
Si Si3 0.117867 0.850253 0.413315
Si Si4 0.284759 0.218199 0.904237
Si Si5 0.174695 0.177129 0.168066
O O1 0.500000 0.566609 0.500000
O O2 0.326291 0.500000 0.296645
O O3 0.344633 0.594071 0.459519
O O4 0.244830 0.585161 0.020832
O O5 0.500000 0.105645 0.500000
O O6 0.710905 0.153919 0.748529
O O7 0.626359 0.171286 0.885914
O O8 0.160824 0.809611 0.616704
O O9 0.189017 0.836512 0.371517
O O10 0.962801 0.846265 0.122215
O O11 0.337289 0.261466 0.875957
O O12 0.250000 0.250000 0.000000
#
# Coordination Sequence:
#
# PCOD9193870 Si02
#       5
#     8   8   8   8   8
#     4  10  20  39  62  81 107 147 194 240 282 330
#     4  10  21  36  56  83 113 147 188 230 275 340
#     4  10  20  36  55  82 112 145 190 238 274 338
#     4   9  20  31  53  76 111 154 185 219 269 337
#     4  10  20  34  54  81 117 146 183 230 284 329
#
# _framework density 17.549348999999999
#
# number of rings (size 3 to 8) (size 9 to 14) (size 15 to 20)
#    0.000    2.200    2.000    0.600    5.600    0.400 
#    0.000    6.000    0.000    1.200    0.000    0.000 
#    0.000    0.000    0.000    0.000    0.000    0.000 
#
# Total GULP energy -111473.298338 kJ/mol
# GULP energy per Si atom -5573.664917 kJ/mol
# Density = 1.750941 g / cm^3
# Si number density = 17.549349 Si / 1000 Ang^3
#
#
#
# Elastic Constant Matrix: (Units=GPa)
#
#
# Indices 1 2 3 4 5 6 
#
# 1 78.2595 42.5518 30.6712 0.0000 -13.4524 0.0000
# 2 42.5518 131.1874 49.3911 0.0000 -12.0884 0.0000
# 3 30.6712 49.3911 109.6182 0.0000 -3.9564 0.0000
# 4 0.0000 0.0000 0.0000 14.2083 0.0000 1.5446
# 5 -13.4524 -12.0884 -3.9564 0.0000 26.8355 0.0000
# 6 0.0000 0.0000 0.0000 1.5446 0.0000 19.9052
#
#
#
# Elastic Compliance Matrix: (Units=1/GPa)
#
#
# Indices 1 2 3 4 5 6 
#
# 1 0.017095 -0.003904 -0.002793 0.000000 0.006399 0.000000
# 2 -0.003904 0.010419 -0.003522 0.000000 0.002217 0.000000
# 3 -0.002793 -0.003522 0.011444 0.000000 -0.001300 0.000000
# 4 0.000000 0.000000 0.000000 0.070980 0.000000 -0.005508
# 5 0.006399 0.002217 -0.001300 0.000000 0.041279 0.000000
# 6 0.000000 0.000000 0.000000 -0.005508 0.000000 0.050666
#
#
# Mechanical properties :
#
#
# Convention : Reuss Voigt Hill
#
# Bulk Modulus (GPa) = 53.99542 62.69926 58.34734
# Shear Modulus (GPa) = 21.88221 25.28654 23.58437
#
# Velocity S-wave (km/s) = 3.53497 3.80001 3.66989
# Velocity P-wave (km/s) = 6.89173 7.42014 7.16081
#
# Compressibility (1/GPa) = 0.01852009
#
# Stress axis : x y z
#
# Youngs Moduli (GPa) = 58.49550 95.97524 87.37913
#
# Poissons Ratio (x) = 0.37465 0.24409
# Poissons Ratio (y) = 0.22835 0.30779
# Poissons Ratio (z) = 0.16340 0.33807
#
# Static dielectric constant tensor:
#      x y z
#    x 1.609890 0.000000 -0.008770 
#    y 0.000000 1.595660 0.000000 
#    z -0.008770 0.000000 1.602330 
# 
# From -- ./inp_files/39433.got.cif
#   From: 2010.05.17/outbox.cif.g08.bks.cpg/sg12_20_cif.got.tgz:39433.got - 2010.06.03 13:09:07.
