data_PCOD9193387
_publ_section_title
;
Structure prediction by ZEFSAII (Michael W. Deem and Ramdas Pophale) SiO2 
 PCOD9193387
Probable space group: C 2/M
;
_chemical_formula_sum "Si O2"
_cell_formula_units_Z 58
_cell_length_a 14.866480
_cell_length_b 8.563567
_cell_length_c 24.944785
_cell_angle_alpha 90.000000
_cell_angle_beta 103.448869
_cell_angle_gamma 90.000000
_cell_volume 3088.637893
_symmetry_space_group_name_H-M "C 2/M"
_symmetry_group_IT_number 12
_symmetry_cell_setting 'monoclinic'
loop_
_space_group_symop_operation_xyz
x,y,z
-x,y,-z
-x,-y,-z
x,-y,z
1/2+x,1/2+y,z
1/2-x,1/2+y,-z
1/2-x,1/2-y,-z
1/2+x,1/2-y,z
loop_
_atom_site_type_symbol
_atom_site_label
_atom_site_fract_x
_atom_site_fract_y
_atom_site_fract_z
Si Si1 0.250013 0.312747 0.773346
Si Si2 0.174364 0.689316 0.649779
Si Si3 0.494020 0.189067 0.560982
Si Si4 0.126451 0.187009 0.365784
Si Si5 0.161247 0.828202 0.961325
Si Si6 0.117374 0.186019 0.838519
Si Si7 0.500000 0.500000 0.000000
Si Si8 0.060089 0.685319 0.246831
O O1 0.244281 0.500000 0.778979
O O2 0.187131 0.264349 0.713390
O O3 0.210925 0.227858 0.819888
O O4 0.353832 0.266613 0.771528
O O5 0.171483 0.500000 0.649449
O O6 0.084091 0.744360 0.606444
O O7 0.268399 0.735216 0.632572
O O8 0.500000 0.237247 0.500000
O O9 0.407567 0.253966 0.581779
O O10 0.491326 0.000000 0.561923
O O11 0.620996 0.500000 0.361920
O O12 0.065010 0.258133 0.309171
O O13 0.125346 0.755297 0.900797
O O14 0.195934 0.000000 0.948853
O O15 0.250000 0.750000 0.000000
O O16 0.074882 0.865914 0.988420
O O17 0.034205 0.267530 0.795163
O O18 0.099430 0.000000 0.835413
O O19 0.072092 0.500000 0.247519
#
# Coordination Sequence:
#
# PCOD9193387 Si02
#       8
#     8   8   8   8   8   8   2   8
#     4  10  20  36  58  85 117 158 194 241 301 357
#     4   8  17  34  53  74 106 145 184 222 286 359
#     4  10  20  34  53  78 107 143 191 245 299 358
#     4  10  20  36  56  76 106 151 192 240 298 362
#     4   9  21  41  65  91 124 167 216 260 313 373
#     4  11  22  37  57  91 125 152 198 246 292 360
#     4   8  20  44  66  86 128 168 210 268 318 354
#     4  11  22  37  57  85 122 154 194 241 304 373
#
# _framework density 18.778504999999999
#
# number of rings (size 3 to 8) (size 9 to 14) (size 15 to 20)
#    0.414    1.793    0.000    4.138    0.000    4.138 
#    2.483    3.793    0.000    0.000    0.000    0.000 
#    0.000    0.000    0.000    0.000    0.000    0.000 
#
# Total GULP energy -161451.536377 kJ/mol
# GULP energy per Si atom -5567.294358 kJ/mol
# Density = 1.873576 g / cm^3
# Si number density = 18.778505 Si / 1000 Ang^3
#
#
#
# Elastic Constant Matrix: (Units=GPa)
#
#
# Indices 1 2 3 4 5 6 
#
# 1 71.4856 5.8998 39.7039 0.0000 -21.1622 0.0000
# 2 5.8998 32.8186 13.2008 0.0000 0.8125 0.0000
# 3 39.7039 13.2008 62.4934 0.0000 -21.8814 0.0000
# 4 0.0000 0.0000 0.0000 22.2470 0.0000 -3.8755
# 5 -21.1622 0.8125 -21.8814 0.0000 20.4898 0.0000
# 6 0.0000 0.0000 0.0000 -3.8755 0.0000 31.0821
#
#
#
# Elastic Compliance Matrix: (Units=1/GPa)
#
#
# Indices 1 2 3 4 5 6 
#
# 1 0.023731 -0.000504 -0.010193 0.000000 0.013644 0.000000
# 2 -0.000504 0.036076 -0.012751 0.000000 -0.015568 0.000000
# 3 -0.010193 -0.012751 0.034600 0.000000 0.026927 0.000000
# 4 0.000000 0.000000 0.000000 0.045948 0.000000 0.005729
# 5 0.013644 -0.015568 0.026927 0.000000 0.092270 0.000000
# 6 0.000000 0.000000 0.000000 0.005729 0.000000 0.032887
#
#
# Mechanical properties :
#
#
# Convention : Reuss Voigt Hill
#
# Bulk Modulus (GPa) = 21.04848 31.60073 26.32460
# Shear Modulus (GPa) = 15.23255 21.96333 18.59794
#
# Velocity S-wave (km/s) = 2.85119 3.42365 3.15045
# Velocity P-wave (km/s) = 4.69811 5.70028 5.22328
#
# Compressibility (1/GPa) = 0.04750937
#
# Stress axis : x y z
#
# Youngs Moduli (GPa) = 42.13902 27.71959 28.90205
#
# Poissons Ratio (x) = 0.01397 0.29460
# Poissons Ratio (y) = 0.02123 0.36854
# Poissons Ratio (z) = 0.42953 0.35346
#
# Static dielectric constant tensor:
#      x y z
#    x 1.646280 0.000000 0.010400 
#    y 0.000000 1.642890 0.000000 
#    z 0.010400 0.000000 1.674090 
# 
# From -- ./inp_files/338136.got.cif
#   From: 2010.05.17/outbox.cif.g08.bks.cpg/sg12_170_cif.got.tgz:338136.got - 2010.06.03 13:09:07.
