data_PCOD9193532
_publ_section_title
;
Structure prediction by ZEFSAII (Michael W. Deem and Ramdas Pophale) SiO2 
 PCOD9193532
Probable space group: C 2/M
;
_chemical_formula_sum "Si O2"
_cell_formula_units_Z 56
_cell_length_a 14.550742
_cell_length_b 13.724515
_cell_length_c 17.760221
_cell_angle_alpha 90.000000
_cell_angle_beta 126.268096
_cell_angle_gamma 90.000000
_cell_volume 2859.594450
_symmetry_space_group_name_H-M "C 2/M"
_symmetry_group_IT_number 12
_symmetry_cell_setting 'monoclinic'
loop_
_space_group_symop_operation_xyz
x,y,z
-x,y,-z
-x,-y,-z
x,-y,z
1/2+x,1/2+y,z
1/2-x,1/2+y,-z
1/2-x,1/2-y,-z
1/2+x,1/2-y,z
loop_
_atom_site_type_symbol
_atom_site_label
_atom_site_fract_x
_atom_site_fract_y
_atom_site_fract_z
Si Si1 0.011333 0.602781 0.415931
Si Si2 0.984399 0.186040 0.581780
Si Si3 0.244580 0.389156 0.447618
Si Si4 0.819522 0.885021 0.054042
Si Si5 0.569975 0.199833 0.955526
Si Si6 0.634734 0.119081 0.234009
Si Si7 0.336958 0.389210 0.226963
O O1 0.963649 0.500000 0.362284
O O2 0.968051 0.707993 0.370323
O O3 0.143843 0.604620 0.458687
O O4 0.000000 0.601799 0.500000
O O5 0.849991 0.173662 0.527021
O O6 0.000000 0.173190 0.500000
O O7 0.056868 0.112774 0.665773
O O8 0.288301 0.500000 0.455216
O O9 0.185847 0.356536 0.340996
O O10 0.880700 0.810196 0.026725
O O11 0.865729 0.851133 0.158706
O O12 0.840556 0.000000 0.049419
O O13 0.683774 0.865279 0.997984
O O14 0.481665 0.169881 0.846913
O O15 0.500000 0.183978 0.000000
O O16 0.729697 0.153004 0.219632
O O17 0.622219 0.000000 0.226311
O O18 0.302385 0.500000 0.194903
#
# Coordination Sequence:
#
# PCOD9193532 Si02
#       7
#     8   8   8   8   8   8   8
#     4   9  20  37  52  70 103 152 203 241 272 323
#     4  11  20  32  55  81 112 149 182 229 285 337
#     4  10  20  34  53  81 114 146 187 236 284 332
#     4  10  23  41  61  90 122 152 191 243 298 351
#     4  11  22  39  66  89 114 156 197 238 295 359
#     4  10  20  34  58  89 116 145 187 243 292 341
#     4  10  20  35  56  84 117 146 181 234 294 348
#
# _framework density 19.583196000000001
#
# number of rings (size 3 to 8) (size 9 to 14) (size 15 to 20)
#    0.000    1.857    2.857    1.286    2.000    1.429 
#    0.000    0.000    0.000    0.857    0.000    0.000 
#    0.000    0.000    0.000    0.000    0.000    0.000 
#
# Total GULP energy -155934.407922 kJ/mol
# GULP energy per Si atom -5569.085997 kJ/mol
# Density = 1.953862 g / cm^3
# Si number density = 19.583196 Si / 1000 Ang^3
#
#
#
# Elastic Constant Matrix: (Units=GPa)
#
#
# Indices 1 2 3 4 5 6 
#
# 1 57.7131 -2.7158 3.4916 0.0000 -1.1663 0.0000
# 2 -2.7158 76.6801 9.9668 0.0000 1.0385 0.0000
# 3 3.4916 9.9668 67.5561 0.0000 17.0732 0.0000
# 4 0.0000 0.0000 0.0000 3.0625 0.0000 -7.0944
# 5 -1.1663 1.0385 17.0732 0.0000 17.5018 0.0000
# 6 0.0000 0.0000 0.0000 -7.0944 0.0000 10.2651
#
#
#
# Elastic Compliance Matrix: (Units=1/GPa)
#
#
# Indices 1 2 3 4 5 6 
#
# 1 0.017527 0.000808 -0.001736 0.000000 0.002814 0.000000
# 2 0.000808 0.013363 -0.002424 0.000000 0.001626 0.000000
# 3 -0.001736 -0.002424 0.020230 0.000000 -0.019707 0.000000
# 4 0.000000 0.000000 0.000000 -0.543295 0.000000 -0.375483
# 5 0.002814 0.001626 -0.019707 0.000000 0.076452 0.000000
# 6 0.000000 0.000000 0.000000 -0.375483 0.000000 -0.162087
#
#
# Mechanical properties :
#
#
# Convention : Reuss Voigt Hill
#
# Bulk Modulus (GPa) = 22.51432 24.82605 23.67018
# Shear Modulus (GPa) = -8.98796 18.91298 4.96251
#
# Velocity S-wave (km/s) = -2.14467 3.11107 1.59360
# Velocity P-wave (km/s) = 2.32141 5.06060 3.93692
#
# Compressibility (1/GPa) = 0.04441618
#
# Stress axis : x y z
#
# Youngs Moduli (GPa) = 57.05471 74.83414 49.43079
#
# Poissons Ratio (x) = -0.06049 0.08582
# Poissons Ratio (y) = -0.04612 0.11983
# Poissons Ratio (z) = 0.09906 0.18141
#
# Static dielectric constant tensor:
#      x y z
#    x 1.709620 0.000000 -0.046830 
#    y 0.000000 1.786950 0.000000 
#    z -0.046830 0.000000 1.749770 
# 
# From -- ./inp_files/205017.got.cif
#   From: 2010.05.17/outbox.cif.g08.bks.cpg/sg12_103_cif.got.tgz:205017.got - 2010.06.03 13:09:07.
