data_PCOD9193097
_publ_section_title
;
Structure prediction by ZEFSAII (Michael W. Deem and Ramdas Pophale) SiO2 
 PCOD9193097
Probable space group: C 2/M
;
_chemical_formula_sum "Si O2"
_cell_formula_units_Z 32
_cell_length_a 8.892399
_cell_length_b 16.125700
_cell_length_c 8.489163
_cell_angle_alpha 90.000000
_cell_angle_beta 80.909341
_cell_angle_gamma 90.000000
_cell_volume 1202.023394
_symmetry_space_group_name_H-M "C 2/M"
_symmetry_group_IT_number 12
_symmetry_cell_setting 'monoclinic'
loop_
_space_group_symop_operation_xyz
x,y,z
-x,y,-z
-x,-y,-z
x,-y,z
1/2+x,1/2+y,z
1/2-x,1/2+y,-z
1/2-x,1/2-y,-z
1/2+x,1/2-y,z
loop_
_atom_site_type_symbol
_atom_site_label
_atom_site_fract_x
_atom_site_fract_y
_atom_site_fract_z
Si Si1 0.978046 0.736324 0.320599
Si Si2 0.373296 0.094087 0.886737
Si Si3 0.913940 0.909020 0.211810
Si Si4 0.826365 0.410877 0.457008
O O1 0.986056 0.819946 0.221738
O O2 0.830556 0.673020 0.352304
O O3 0.000000 0.758041 0.500000
O O4 0.098481 0.673938 0.225218
O O5 0.190718 0.093652 0.928850
O O6 0.400201 0.000000 0.819016
O O7 0.500000 0.102428 0.000000
O O8 0.797713 0.908564 0.384161
O O9 0.988417 0.000000 0.208221
O O10 0.802531 0.500000 0.378531
O O11 0.000000 0.412665 0.500000
#
# Coordination Sequence:
#
# PCOD9193097 Si02
#       4
#     8   8   8   8
#     4  11  20  31  56  80 106 134 174 211 259 307
#     4  10  21  37  56  78 104 135 173 217 261 304
#     4  10  20  34  52  77 109 138 169 214 261 303
#     4   9  15  27  50  78 102 126 165 216 257 293
#
# _framework density 26.621780000000001
#
# number of rings (size 3 to 8) (size 9 to 14) (size 15 to 20)
#    0.000    2.000    5.000    1.500    0.000    2.000 
#    0.000    0.000    0.000    0.750    0.000    0.000 
#    0.000    0.000    0.000    0.000    0.000    0.000 
#
# Total GULP energy -89098.382092 kJ/mol
# GULP energy per Si atom -5568.648881 kJ/mol
# Density = 2.656119 g / cm^3
# Si number density = 26.621780 Si / 1000 Ang^3
#
#
#
# Elastic Constant Matrix: (Units=GPa)
#
#
# Indices 1 2 3 4 5 6 
#
# 1 30.3032 51.1523 13.8483 0.0000 15.4891 0.0000
# 2 51.1523 306.0317 65.1772 0.0000 16.4730 0.0000
# 3 13.8483 65.1772 49.8545 0.0000 7.8410 0.0000
# 4 0.0000 0.0000 0.0000 32.0763 0.0000 -8.9095
# 5 15.4891 16.4730 7.8410 0.0000 45.1888 0.0000
# 6 0.0000 0.0000 0.0000 -8.9095 0.0000 26.8716
#
#
#
# Elastic Compliance Matrix: (Units=1/GPa)
#
#
# Indices 1 2 3 4 5 6 
#
# 1 0.055525 -0.007867 -0.002669 0.000000 -0.015701 0.000000
# 2 -0.007867 0.005661 -0.005465 0.000000 0.001581 0.000000
# 3 -0.002669 -0.005465 0.028258 0.000000 -0.001996 0.000000
# 4 0.000000 0.000000 0.000000 0.034338 0.000000 0.011385
# 5 -0.015701 0.001581 -0.001996 0.000000 0.027281 0.000000
# 6 0.000000 0.000000 0.000000 0.011385 0.000000 0.040989
#
#
# Mechanical properties :
#
#
# Convention : Reuss Voigt Hill
#
# Bulk Modulus (GPa) = 17.40859 71.83834 44.62346
# Shear Modulus (GPa) = 20.55912 37.89478 29.22695
#
# Velocity S-wave (km/s) = 2.78198 3.77696 3.31699
# Velocity P-wave (km/s) = 4.10764 6.78704 5.60966
#
# Compressibility (1/GPa) = 0.05744291
#
# Stress axis : x y z
#
# Youngs Moduli (GPa) = 18.00995 176.63516 35.38828
#
# Poissons Ratio (x) = 1.38965 0.09444
# Poissons Ratio (y) = 0.14169 0.19339
# Poissons Ratio (z) = 0.04806 0.96527
#
# Static dielectric constant tensor:
#      x y z
#    x 2.217360 0.000000 -0.021100 
#    y 0.000000 2.078890 0.000000 
#    z -0.021100 0.000000 2.196180 
# 
# From -- ./inp_files/44916.got.cif
#   From: 2010.05.17/outbox.cif.g08.bks.cpg/sg12_23_cif.got.tgz:44916.got - 2010.06.03 13:09:07.
