data_PCOD9193832
_publ_section_title
;
Structure prediction by ZEFSAII (Michael W. Deem and Ramdas Pophale) SiO2 
 PCOD9193832
Probable space group: C 2/M
;
_chemical_formula_sum "Si O2"
_cell_formula_units_Z 64
_cell_length_a 17.868680
_cell_length_b 13.626821
_cell_length_c 15.184311
_cell_angle_alpha 90.000000
_cell_angle_beta 62.290143
_cell_angle_gamma 90.000000
_cell_volume 3273.250700
_symmetry_space_group_name_H-M "C 2/M"
_symmetry_group_IT_number 12
_symmetry_cell_setting 'monoclinic'
loop_
_space_group_symop_operation_xyz
x,y,z
-x,y,-z
-x,-y,-z
x,-y,z
1/2+x,1/2+y,z
1/2-x,1/2+y,-z
1/2-x,1/2-y,-z
1/2+x,1/2-y,z
loop_
_atom_site_type_symbol
_atom_site_label
_atom_site_fract_x
_atom_site_fract_y
_atom_site_fract_z
Si Si1 0.509209 0.229714 0.761789
Si Si2 0.445302 0.386086 0.393161
Si Si3 0.549833 0.386769 0.062847
Si Si4 0.926523 0.614276 0.113709
Si Si5 0.243178 0.270899 0.812460
Si Si6 0.867756 0.111837 0.626541
Si Si7 0.150300 0.387670 0.192346
Si Si8 0.230709 0.890088 0.029514
O O1 0.567920 0.295673 0.666307
O O2 0.477750 0.310700 0.848592
O O3 0.544100 0.142204 0.803944
O O4 0.431008 0.180823 0.753069
O O5 0.430956 0.500000 0.370680
O O6 0.544526 0.380578 0.366726
O O7 0.392521 0.371160 0.511532
O O8 0.531167 0.500000 0.098006
O O9 0.651623 0.378497 0.006654
O O10 0.500000 0.367835 0.000000
O O11 0.898840 0.500000 0.123923
O O12 0.852246 0.692055 0.136968
O O13 0.000000 0.625640 0.000000
O O14 0.295733 0.321093 0.705999
O O15 0.271841 0.158418 0.796138
O O16 0.275371 0.313906 0.888661
O O17 0.838506 0.000000 0.650978
O O18 0.133558 0.500000 0.223833
O O19 0.182917 0.384758 0.072818
O O20 0.224355 0.000000 0.070971
#
# Coordination Sequence:
#
# PCOD9193832 Si02
#       8
#     8   8   8   8   8   8   8   8
#     4  12  21  37  58  80 120 165 194 227 300 362
#     4   9  18  34  59  94 123 146 190 253 306 347
#     4  10  21  33  50  81 117 151 192 236 285 353
#     4  11  26  42  59  87 123 160 201 245 290 351
#     4  12  21  38  64  85 110 155 204 245 293 348
#     4   9  17  33  61  94 120 142 192 258 302 341
#     4  11  24  37  54  82 117 156 197 241 289 350
#     4  10  20  34  54  81 110 145 193 245 288 337
#
# _framework density 19.552429
#
# number of rings (size 3 to 8) (size 9 to 14) (size 15 to 20)
#    0.000    1.500    2.500    4.125    3.500    4.000 
#    0.000    1.250    0.000    2.625    0.000    0.000 
#    0.000    0.000    0.000    0.000    0.000    0.000 
#
# Total GULP energy -178583.141825 kJ/mol
# GULP energy per Si atom -5580.723182 kJ/mol
# Density = 1.950793 g / cm^3
# Si number density = 19.552429 Si / 1000 Ang^3
#
#
#
# Elastic Constant Matrix: (Units=GPa)
#
#
# Indices 1 2 3 4 5 6 
#
# 1 55.8836 14.8267 4.5429 0.0000 -4.6174 0.0000
# 2 14.8267 112.0720 29.2715 0.0000 0.1426 0.0000
# 3 4.5429 29.2715 57.1576 0.0000 -5.4655 0.0000
# 4 0.0000 0.0000 0.0000 24.9105 0.0000 0.9451
# 5 -4.6174 0.1426 -5.4655 0.0000 14.9026 0.0000
# 6 0.0000 0.0000 0.0000 0.9451 0.0000 24.8898
#
#
#
# Elastic Compliance Matrix: (Units=1/GPa)
#
#
# Indices 1 2 3 4 5 6 
#
# 1 0.019063 -0.002639 0.000418 0.000000 0.006085 0.000000
# 2 -0.002639 0.010730 -0.005569 0.000000 -0.002963 0.000000
# 3 0.000418 -0.005569 0.021070 0.000000 0.007910 0.000000
# 4 0.000000 0.000000 0.000000 0.040202 0.000000 -0.001526
# 5 0.006085 -0.002963 0.007910 0.000000 0.071917 0.000000
# 6 0.000000 0.000000 0.000000 -0.001526 0.000000 0.040235
#
#
# Mechanical properties :
#
#
# Convention : Reuss Voigt Hill
#
# Bulk Modulus (GPa) = 28.34065 35.82170 32.08118
# Shear Modulus (GPa) = 21.68649 24.70540 23.19595
#
# Velocity S-wave (km/s) = 3.33400 3.55850 3.44807
# Velocity P-wave (km/s) = 5.41728 5.93671 5.68293
#
# Compressibility (1/GPa) = 0.03528500
#
# Stress axis : x y z
#
# Youngs Moduli (GPa) = 52.45691 93.19504 47.45978
#
# Poissons Ratio (x) = 0.24594 -0.01985
# Poissons Ratio (y) = 0.13843 0.26429
# Poissons Ratio (z) = -0.02194 0.51897
#
# Static dielectric constant tensor:
#      x y z
#    x 1.758820 0.000000 0.010000 
#    y 0.000000 1.720400 0.000000 
#    z 0.010000 0.000000 1.668200 
# 
# From -- ./inp_files/225290.got.cif
#   From: 2010.05.17/outbox.cif.g08.bks.cpg/sg12_113_cif.got.tgz:225290.got - 2010.06.03 13:09:07.
