data_PCOD9193553
_publ_section_title
;
Structure prediction by ZEFSAII (Michael W. Deem and Ramdas Pophale) SiO2 
 PCOD9193553
Probable space group: C 2/M
;
_chemical_formula_sum "Si O2"
_cell_formula_units_Z 56
_cell_length_a 25.202808
_cell_length_b 10.566567
_cell_length_c 11.194624
_cell_angle_alpha 90.000000
_cell_angle_beta 104.983334
_cell_angle_gamma 90.000000
_cell_volume 2879.850617
_symmetry_space_group_name_H-M "C 2/M"
_symmetry_group_IT_number 12
_symmetry_cell_setting 'monoclinic'
loop_
_space_group_symop_operation_xyz
x,y,z
-x,y,-z
-x,-y,-z
x,-y,z
1/2+x,1/2+y,z
1/2-x,1/2+y,-z
1/2-x,1/2-y,-z
1/2+x,1/2-y,z
loop_
_atom_site_type_symbol
_atom_site_label
_atom_site_fract_x
_atom_site_fract_y
_atom_site_fract_z
Si Si1 0.569904 0.648178 0.771277
Si Si2 0.949724 0.151486 0.708662
Si Si3 0.260956 0.728250 0.316727
Si Si4 0.330196 0.353651 0.572917
Si Si5 0.185605 0.639755 0.077782
Si Si6 0.402722 0.355098 0.936462
Si Si7 0.160266 0.639600 0.792204
O O1 0.579079 0.500000 0.740957
O O2 0.509200 0.695227 0.699042
O O3 0.616957 0.745609 0.759403
O O4 0.570426 0.649682 0.916967
O O5 0.893166 0.193644 0.613243
O O6 0.940990 0.173942 0.845364
O O7 0.952586 0.000000 0.695241
O O8 0.301709 0.654521 0.427784
O O9 0.208525 0.772271 0.362684
O O10 0.239845 0.653372 0.188677
O O11 0.295377 0.845195 0.285646
O O12 0.330507 0.500000 0.612502
O O13 0.161582 0.500000 0.088226
O O14 0.145613 0.753309 0.090662
O O15 0.191131 0.649177 0.938232
O O16 0.382758 0.500000 0.909219
O O17 0.134164 0.500000 0.773492
#
# Coordination Sequence:
#
# PCOD9193553 Si02
#       7
#     8   8   8   8   8   8   8
#     4   9  18  32  55  83 110 141 181 227 275 323
#     4   9  16  31  54  80 109 139 182 230 273 320
#     4  11  21  36  56  77 110 150 185 224 271 328
#     4  10  21  35  56  83 107 140 186 232 273 319
#     4  10  20  34  53  82 116 146 180 225 273 326
#     4   9  16  29  52  81 111 143 180 224 273 325
#     4  10  22  38  57  81 113 148 183 222 275 334
#
# _framework density 19.445454000000002
#
# number of rings (size 3 to 8) (size 9 to 14) (size 15 to 20)
#    0.000    2.286    1.429    1.714    0.000    3.429 
#    0.000    4.286    0.000    6.857    0.000    0.000 
#    0.000    0.000    0.000    0.000    0.000    0.000 
#
# Total GULP energy -156039.202647 kJ/mol
# GULP energy per Si atom -5572.828666 kJ/mol
# Density = 1.940120 g / cm^3
# Si number density = 19.445454 Si / 1000 Ang^3
#
#
#
# Elastic Constant Matrix: (Units=GPa)
#
#
# Indices 1 2 3 4 5 6 
#
# 1 66.4300 24.3407 43.2103 0.0000 20.1678 0.0000
# 2 24.3407 76.4305 16.4585 0.0000 5.5781 0.0000
# 3 43.2103 16.4585 39.3954 0.0000 17.6407 0.0000
# 4 0.0000 0.0000 0.0000 8.1010 0.0000 8.0132
# 5 20.1678 5.5781 17.6407 0.0000 21.0133 0.0000
# 6 0.0000 0.0000 0.0000 8.0132 0.0000 16.0934
#
#
#
# Elastic Compliance Matrix: (Units=1/GPa)
#
#
# Indices 1 2 3 4 5 6 
#
# 1 0.054368 -0.005021 -0.055708 0.000000 -0.004081 0.000000
# 2 -0.005021 0.014892 -0.001766 0.000000 0.002348 0.000000
# 3 -0.055708 -0.001766 0.101064 0.000000 -0.030908 0.000000
# 4 0.000000 0.000000 0.000000 0.243245 0.000000 -0.121116
# 5 -0.004081 0.002348 -0.030908 0.000000 0.076829 0.000000
# 6 0.000000 0.000000 0.000000 -0.121116 0.000000 0.122443
#
#
# Mechanical properties :
#
#
# Convention : Reuss Voigt Hill
#
# Bulk Modulus (GPa) = 22.05821 38.91942 30.48881
# Shear Modulus (GPa) = 6.64062 15.59130 11.11596
#
# Velocity S-wave (km/s) = 1.84998 2.83467 2.39351
# Velocity P-wave (km/s) = 3.99143 5.54725 4.83236
#
# Compressibility (1/GPa) = 0.04533460
#
# Stress axis : x y z
#
# Youngs Moduli (GPa) = 18.39324 67.15196 9.89470
#
# Poissons Ratio (x) = 0.33714 0.55121
# Poissons Ratio (y) = 0.09234 0.01748
# Poissons Ratio (z) = 1.02465 0.11860
#
# Static dielectric constant tensor:
#      x y z
#    x 1.682690 0.000000 0.022930 
#    y 0.000000 1.675870 0.000000 
#    z 0.022930 0.000000 1.720140 
# 
# From -- ./inp_files/181066.got.cif
#   From: 2010.05.17/outbox.cif.g08.bks.cpg/sg12_91_cif.got.tgz:181066.got - 2010.06.03 13:09:07.
