data_PCOD9193793
_publ_section_title
;
Structure prediction by ZEFSAII (Michael W. Deem and Ramdas Pophale) SiO2 
 PCOD9193793
Probable space group: C 2/M
;
_chemical_formula_sum "Si O2"
_cell_formula_units_Z 56
_cell_length_a 30.213163
_cell_length_b 9.130894
_cell_length_c 19.691679
_cell_angle_alpha 90.000000
_cell_angle_beta 35.129578
_cell_angle_gamma 90.000000
_cell_volume 3125.956136
_symmetry_space_group_name_H-M "C 2/M"
_symmetry_group_IT_number 12
_symmetry_cell_setting 'monoclinic'
loop_
_space_group_symop_operation_xyz
x,y,z
-x,y,-z
-x,-y,-z
x,-y,z
1/2+x,1/2+y,z
1/2-x,1/2+y,-z
1/2-x,1/2-y,-z
1/2+x,1/2-y,z
loop_
_atom_site_type_symbol
_atom_site_label
_atom_site_fract_x
_atom_site_fract_y
_atom_site_fract_z
Si Si1 0.797992 0.669980 0.262557
Si Si2 0.328881 0.171231 0.381039
Si Si3 0.437156 0.674448 0.021334
Si Si4 0.514049 0.674799 0.779149
Si Si5 0.146127 0.326685 0.412000
Si Si6 0.022340 0.673894 0.310995
Si Si7 0.414439 0.668758 0.640627
O O1 0.784096 0.500000 0.264586
O O2 0.832998 0.679678 0.294184
O O3 0.717785 0.755679 0.360321
O O4 0.859186 0.740199 0.134756
O O5 0.250000 0.250000 0.500000
O O6 0.401726 0.253174 0.321015
O O7 0.328185 0.000000 0.402083
O O8 0.423214 0.500000 0.045147
O O9 0.471169 0.703118 0.904210
O O10 0.500000 0.714184 0.000000
O O11 0.520735 0.500000 0.761648
O O12 0.471394 0.747478 0.769086
O O13 0.156821 0.500000 0.391222
O O14 0.065738 0.303049 0.552425
O O15 0.137621 0.251272 0.349076
O O16 0.035003 0.500000 0.290503
O O17 0.076425 0.746109 0.300173
O O18 0.500000 0.668683 0.500000
O O19 0.391300 0.500000 0.679056
#
# Coordination Sequence:
#
# PCOD9193793 Si02
#       7
#     8   8   8   8   8   8   8
#     4  11  23  36  54  79 107 140 181 228 271 318
#     4  11  23  36  52  77 109 143 177 218 270 323
#     4  10  21  39  59  77 101 140 186 228 272 322
#     4  11  22  36  56  79 106 141 182 226 270 320
#     4  10  20  34  54  80 112 147 181 219 267 325
#     4  10  20  34  54  82 114 147 181 219 268 324
#     4   9  17  31  53  80 111 144 179 221 266 318
#
# _framework density 17.914518999999999
#
# number of rings (size 3 to 8) (size 9 to 14) (size 15 to 20)
#    0.000    1.714    1.429    3.429    0.000    8.857 
#    0.000    0.000    0.000    0.857    0.000    0.000 
#    0.000    0.000    0.000    0.000    0.000    0.000 
#
# Total GULP energy -156413.420356 kJ/mol
# GULP energy per Si atom -5586.193584 kJ/mol
# Density = 1.787374 g / cm^3
# Si number density = 17.914519 Si / 1000 Ang^3
#
#
#
# Elastic Constant Matrix: (Units=GPa)
#
#
# Indices 1 2 3 4 5 6 
#
# 1 70.9328 33.0456 -4.2403 -0.0033 27.6572 0.0023
# 2 33.0456 92.8699 33.4308 -0.0075 20.2996 0.0041
# 3 -4.2403 33.4308 40.6923 -0.0086 16.1859 0.0049
# 4 -0.0033 -0.0075 -0.0086 23.7775 0.0049 0.3223
# 5 27.6572 20.2996 16.1859 0.0049 26.3605 -0.0025
# 6 0.0023 0.0041 0.0049 0.3223 -0.0025 36.5271
#
#
#
# Elastic Compliance Matrix: (Units=1/GPa)
#
#
# Indices 1 2 3 4 5 6 
#
# 1 0.061157 -0.025471 0.059568 0.000039 -0.081126 -0.000015
# 2 -0.025471 0.026496 -0.035641 -0.000014 0.028205 0.000005
# 3 0.059568 -0.035641 0.097920 0.000052 -0.095177 -0.000020
# 4 0.000039 -0.000014 0.000052 0.042062 -0.000070 -0.000371
# 5 -0.081126 0.028205 -0.095177 -0.000070 0.159772 0.000026
# 6 -0.000015 0.000005 -0.000020 -0.000371 0.000026 0.027380
#
#
# Mechanical properties :
#
#
# Convention : Reuss Voigt Hill
#
# Bulk Modulus (GPa) = 5.47995 36.55192 21.01594
# Shear Modulus (GPa) = 10.44487 26.81695 18.63091
#
# Velocity S-wave (km/s) = 2.41724 3.87323 3.22839
# Velocity P-wave (km/s) = 3.29489 6.36006 5.06491
#
# Compressibility (1/GPa) = 0.18248352
#
# Stress axis : x y z
#
# Youngs Moduli (GPa) = 16.35146 37.74156 10.21238
#
# Poissons Ratio (x) = 0.96133 -0.60833
# Poissons Ratio (y) = 0.41650 0.36398
# Poissons Ratio (z) = -0.97402 1.34514
#
# Static dielectric constant tensor:
#      x y z
#    x 1.600670 0.000000 0.017940 
#    y 0.000000 1.597280 0.000000 
#    z 0.017940 0.000000 1.591580 
# 
# From -- ./inp_files/281607.got.cif
#   From: 2010.05.17/outbox.cif.g08.bks.cpg/sg12_141_cif.got.tgz:281607.got - 2010.06.03 13:09:07.
