data_PCOD9193918
_publ_section_title
;
Structure prediction by ZEFSAII (Michael W. Deem and Ramdas Pophale) SiO2 
 PCOD9193918
Probable space group: C 2/M
;
_chemical_formula_sum "Si O2"
_cell_formula_units_Z 64
_cell_length_a 14.572750
_cell_length_b 8.741753
_cell_length_c 25.456066
_cell_angle_alpha 90.000000
_cell_angle_beta 97.242353
_cell_angle_gamma 90.000000
_cell_volume 3217.010979
_symmetry_space_group_name_H-M "C 2/M"
_symmetry_group_IT_number 12
_symmetry_cell_setting 'monoclinic'
loop_
_space_group_symop_operation_xyz
x,y,z
-x,y,-z
-x,-y,-z
x,-y,z
1/2+x,1/2+y,z
1/2-x,1/2+y,-z
1/2-x,1/2-y,-z
1/2+x,1/2-y,z
loop_
_atom_site_type_symbol
_atom_site_label
_atom_site_fract_x
_atom_site_fract_y
_atom_site_fract_z
Si Si1 0.548361 0.320090 0.375350
Si Si2 0.257023 0.182416 0.942616
Si Si3 0.277248 0.181567 0.225861
Si Si4 0.611860 0.682715 0.131794
Si Si5 0.093789 0.184725 0.850083
Si Si6 0.130849 0.322607 0.600114
Si Si7 0.290093 0.821236 0.671675
Si Si8 0.351530 0.181267 0.516910
O O1 0.529890 0.500000 0.373041
O O2 0.453559 0.226277 0.369373
O O3 0.616714 0.271480 0.333704
O O4 0.599618 0.272727 0.433129
O O5 0.346511 0.241117 0.917308
O O6 0.166979 0.225950 0.901255
O O7 0.259598 0.000000 0.945636
O O8 0.250000 0.250000 0.000000
O O9 0.187410 0.211952 0.182703
O O10 0.365419 0.242231 0.199939
O O11 0.258971 0.265992 0.278931
O O12 0.284645 0.000000 0.234822
O O13 0.608274 0.500000 0.123076
O O14 0.509715 0.733348 0.141875
O O15 0.094352 0.000000 0.844465
O O16 0.156681 0.500000 0.609713
O O17 0.218158 0.218718 0.620206
O O18 0.101989 0.304756 0.537239
O O19 0.310038 0.000000 0.674315
O O20 0.250000 0.250000 0.500000
O O21 0.348666 0.000000 0.529853
#
# Coordination Sequence:
#
# PCOD9193918 Si02
#       8
#     8   8   8   8   8   8   8   8
#     4  12  25  41  62  89 121 156 195 239 290 355
#     4  10  20  34  54  82 119 156 193 239 286 340
#     4  10  21  38  60  85 114 146 187 242 296 347
#     4   9  19  37  60  83 111 150 194 238 285 341
#     4   9  19  37  59  83 112 151 197 239 287 346
#     4  11  24  42  63  89 119 152 194 242 292 351
#     4  12  25  42  63  86 118 156 196 243 295 352
#     4  11  22  38  63  89 119 155 194 239 290 348
#
# _framework density 19.894244
#
# number of rings (size 3 to 8) (size 9 to 14) (size 15 to 20)
#    0.000    1.500    1.250    4.125    0.000    6.000 
#    0.000    6.250    0.000    0.000    0.000    0.000 
#    0.000    0.000    0.000    0.000    0.000    0.000 
#
# Total GULP energy -178891.764630 kJ/mol
# GULP energy per Si atom -5590.367645 kJ/mol
# Density = 1.984896 g / cm^3
# Si number density = 19.894244 Si / 1000 Ang^3
#
#
#
# Elastic Constant Matrix: (Units=GPa)
#
#
# Indices 1 2 3 4 5 6 
#
# 1 98.6757 5.7802 10.0196 0.0000 -28.6040 0.0000
# 2 5.7802 47.1472 30.7767 0.0000 -7.9819 0.0000
# 3 10.0196 30.7767 79.2928 0.0000 -26.3610 0.0000
# 4 0.0000 0.0000 0.0000 33.1176 0.0000 -5.2405
# 5 -28.6040 -7.9819 -26.3610 0.0000 23.5195 0.0000
# 6 0.0000 0.0000 0.0000 -5.2405 0.0000 29.4813
#
#
#
# Elastic Compliance Matrix: (Units=1/GPa)
#
#
# Indices 1 2 3 4 5 6 
#
# 1 0.018805 -0.003099 0.009691 0.000000 0.032681 0.000000
# 2 -0.003099 0.029198 -0.014186 0.000000 -0.009760 0.000000
# 3 0.009691 -0.014186 0.030621 0.000000 0.041292 0.000000
# 4 0.000000 0.000000 0.000000 0.031069 0.000000 0.005523
# 5 0.032681 -0.009760 0.041292 0.000000 0.125233 0.000000
# 6 0.000000 0.000000 0.000000 0.005523 0.000000 0.034902
#
#
# Mechanical properties :
#
#
# Convention : Reuss Voigt Hill
#
# Bulk Modulus (GPa) = 15.76370 35.36318 25.56344
# Shear Modulus (GPa) = 16.33130 29.12628 22.72879
#
# Velocity S-wave (km/s) = 2.86825 3.83045 3.38373
# Velocity P-wave (km/s) = 4.34858 6.11370 5.30506
#
# Compressibility (1/GPa) = 0.06343689
#
# Stress axis : x y z
#
# Youngs Moduli (GPa) = 53.17673 34.24876 32.65768
#
# Poissons Ratio (x) = 0.10614 -0.31650
# Poissons Ratio (y) = 0.16480 0.46328
# Poissons Ratio (z) = -0.51536 0.48585
#
# Static dielectric constant tensor:
#      x y z
#    x 1.714730 0.000000 0.001020 
#    y 0.000000 1.660160 0.000000 
#    z 0.001020 0.000000 1.708820 
# 
# From -- ./inp_files/338694.got.cif
#   From: 2010.05.17/outbox.cif.g08.bks.cpg/sg12_170_cif.got.tgz:338694.got - 2010.06.03 13:09:07.
