data_PCOD9193889
_publ_section_title
;
Structure prediction by ZEFSAII (Michael W. Deem and Ramdas Pophale) SiO2 
 PCOD9193889
Probable space group: C 2/M
;
_chemical_formula_sum "Si O2"
_cell_formula_units_Z 48
_cell_length_a 9.319548
_cell_length_b 21.421328
_cell_length_c 13.396971
_cell_angle_alpha 90.000000
_cell_angle_beta 111.281611
_cell_angle_gamma 90.000000
_cell_volume 2492.150025
_symmetry_space_group_name_H-M "C 2/M"
_symmetry_group_IT_number 12
_symmetry_cell_setting 'monoclinic'
loop_
_space_group_symop_operation_xyz
x,y,z
-x,y,-z
-x,-y,-z
x,-y,z
1/2+x,1/2+y,z
1/2-x,1/2+y,-z
1/2-x,1/2-y,-z
1/2+x,1/2-y,z
loop_
_atom_site_type_symbol
_atom_site_label
_atom_site_fract_x
_atom_site_fract_y
_atom_site_fract_z
Si Si1 0.859419 0.394253 0.021594
Si Si2 0.921470 0.742681 0.079283
Si Si3 0.731950 0.428667 0.197522
Si Si4 0.362287 0.425627 0.385098
Si Si5 0.073027 0.859485 0.806966
Si Si6 0.468434 0.075900 0.605249
O O1 0.942236 0.331604 0.088253
O O2 0.777022 0.427047 0.092863
O O3 0.724114 0.377553 0.909697
O O4 0.000000 0.427317 0.000000
O O5 0.948667 0.784964 0.182221
O O6 0.750000 0.750000 0.000000
O O7 0.000000 0.769906 0.000000
O O8 0.704205 0.500000 0.222623
O O9 0.579750 0.390435 0.185153
O O10 0.884002 0.404588 0.292840
O O11 0.500000 0.419122 0.500000
O O12 0.353496 0.500000 0.356547
O O13 0.400573 0.385145 0.297146
O O14 0.197667 0.406511 0.391483
O O15 0.500000 0.096510 0.500000
O O16 0.466924 0.000000 0.604902
#
# Coordination Sequence:
#
# PCOD9193889 Si02
#       6
#     8   8   8   8   8   8
#     4  10  21  36  54  78 108 146 188 232 280 332
#     4   9  18  34  54  76 102 138 186 229 269 321
#     4  11  22  34  52  82 117 149 182 227 287 348
#     4  10  20  34  54  82 114 149 189 231 280 341
#     4  11  20  33  54  79 109 146 185 229 277 330
#     4   9  18  34  53  73 103 145 188 225 266 325
#
# _framework density 19.260477000000002
#
# number of rings (size 3 to 8) (size 9 to 14) (size 15 to 20)
#    0.000    2.000    0.000    5.000    0.000    5.000 
#    0.000    0.000    0.000    1.000    0.000   15.167 
#    0.000    0.000    0.000    0.000    0.000    0.000 
#
# Total GULP energy -133754.386739 kJ/mol
# GULP energy per Si atom -5573.099447 kJ/mol
# Density = 1.921664 g / cm^3
# Si number density = 19.260477 Si / 1000 Ang^3
#
#
#
# Elastic Constant Matrix: (Units=GPa)
#
#
# Indices 1 2 3 4 5 6 
#
# 1 178.8888 32.3869 49.0580 0.0000 -6.8348 0.0000
# 2 32.3869 71.3970 34.5402 0.0000 -6.3956 0.0000
# 3 49.0580 34.5402 103.0096 0.0000 -9.6313 0.0000
# 4 0.0000 0.0000 0.0000 108.7608 0.0000 -43.1389
# 5 -6.8348 -6.3956 -9.6313 0.0000 36.7569 0.0000
# 6 0.0000 0.0000 0.0000 -43.1389 0.0000 39.5405
#
#
#
# Elastic Compliance Matrix: (Units=1/GPa)
#
#
# Indices 1 2 3 4 5 6 
#
# 1 0.006613 -0.001748 -0.002539 0.000000 0.000260 0.000000
# 2 -0.001748 0.017259 -0.004822 0.000000 0.001414 0.000000
# 3 -0.002539 -0.004822 0.012723 0.000000 0.002023 0.000000
# 4 0.000000 0.000000 0.000000 0.016209 0.000000 0.017684
# 5 0.000260 0.001414 0.002023 0.000000 0.028030 0.000000
# 6 0.000000 0.000000 0.000000 0.017684 0.000000 0.044583
#
#
# Mechanical properties :
#
#
# Convention : Reuss Voigt Hill
#
# Bulk Modulus (GPa) = 54.41846 65.02950 59.72398
# Shear Modulus (GPa) = 33.38668 52.83233 43.10950
#
# Velocity S-wave (km/s) = 4.16796 5.24309 4.73613
# Velocity P-wave (km/s) = 7.17481 8.39582 7.80921
#
# Compressibility (1/GPa) = 0.01837612
#
# Stress axis : x y z
#
# Youngs Moduli (GPa) = 151.22353 57.94159 78.59788
#
# Poissons Ratio (x) = 0.10129 0.19954
# Poissons Ratio (y) = 0.26436 0.37902
# Poissons Ratio (z) = 0.38393 0.27941
#
# Static dielectric constant tensor:
#      x y z
#    x 1.673080 0.000000 -0.018650 
#    y 0.000000 1.741380 0.000000 
#    z -0.018650 0.000000 1.663710 
# 
# From -- ./inp_files/122448.got.cif
#   From: 2010.05.17/outbox.cif.g08.bks.cpg/sg12_62_cif.got.tgz:122448.got - 2010.06.03 13:09:07.
