data_PCOD9193076
_publ_section_title
;
Structure prediction by ZEFSAII (Michael W. Deem and Ramdas Pophale) SiO2 
 PCOD9193076
Probable space group: C 2/M
;
_chemical_formula_sum "Si O2"
_cell_formula_units_Z 56
_cell_length_a 15.567110
_cell_length_b 7.515225
_cell_length_c 18.856460
_cell_angle_alpha 90.000000
_cell_angle_beta 95.000013
_cell_angle_gamma 90.000000
_cell_volume 2197.628929
_symmetry_space_group_name_H-M "C 2/M"
_symmetry_group_IT_number 12
_symmetry_cell_setting 'monoclinic'
loop_
_space_group_symop_operation_xyz
x,y,z
-x,y,-z
-x,-y,-z
x,-y,z
1/2+x,1/2+y,z
1/2-x,1/2+y,-z
1/2-x,1/2-y,-z
1/2+x,1/2-y,z
loop_
_atom_site_type_symbol
_atom_site_label
_atom_site_fract_x
_atom_site_fract_y
_atom_site_fract_z
Si Si1 0.544105 0.718064 0.805903
Si Si2 0.900755 0.786320 0.336535
Si Si3 0.124377 0.214650 0.954712
Si Si4 0.940640 0.712600 0.558853
Si Si5 0.303868 0.792516 0.899244
Si Si6 0.356843 0.297316 0.750804
Si Si7 0.764590 0.298140 0.604357
O O1 0.544315 0.500000 0.807307
O O2 0.607929 0.771382 0.746253
O O3 0.562506 0.776215 0.887163
O O4 0.450651 0.778634 0.774489
O O5 0.828923 0.713687 0.386310
O O6 0.996903 0.743651 0.369706
O O7 0.891263 0.000000 0.336591
O O8 0.217239 0.273778 0.930875
O O9 0.120749 0.000000 0.956777
O O10 0.121338 0.272305 0.036206
O O11 0.932294 0.500000 0.548952
O O12 0.843065 0.781278 0.563385
O O13 0.000000 0.786641 0.500000
O O14 0.315391 0.700902 0.825372
O O15 0.292108 0.000000 0.883119
O O16 0.365410 0.500000 0.725243
O O17 0.305149 0.197327 0.686542
O O18 0.751374 0.500000 0.577887
#
# Coordination Sequence:
#
# PCOD9193076 Si02
#       7
#     8   8   8   8   8   8   8
#     4   9  18  33  54  78 105 140 187 240 285 333
#     4  10  20  38  62  87 115 154 201 240 282 343
#     4   9  18  35  55  73 101 144 191 236 285 343
#     4  10  22  40  60  88 126 158 187 234 294 347
#     4  10  20  34  52  76 108 144 186 238 294 346
#     4  11  21  34  55  81 110 145 191 241 289 346
#     4  10  21  38  61  86 117 156 195 239 292 344
#
# _framework density 25.482008
#
# number of rings (size 3 to 8) (size 9 to 14) (size 15 to 20)
#    0.000    2.143    1.429    1.714    0.000    4.857 
#    0.000    5.000    0.000    0.000    0.000    0.000 
#    0.000    0.000    0.000    0.000    0.000    0.000 
#
# Total GULP energy -156428.046268 kJ/mol
# GULP energy per Si atom -5586.715938 kJ/mol
# Density = 2.542401 g / cm^3
# Si number density = 25.482008 Si / 1000 Ang^3
#
#
#
# Elastic Constant Matrix: (Units=GPa)
#
#
# Indices 1 2 3 4 5 6 
#
# 1 92.0440 1.8886 -2.7676 0.0000 -17.9838 0.0000
# 2 1.8886 78.7441 -1.2647 0.0000 -0.2657 0.0000
# 3 -2.7676 -1.2647 88.5639 0.0000 -4.7106 0.0000
# 4 0.0000 0.0000 0.0000 16.3812 0.0000 7.9683
# 5 -17.9838 -0.2657 -4.7106 0.0000 42.8796 0.0000
# 6 0.0000 0.0000 0.0000 7.9683 0.0000 8.8231
#
#
#
# Elastic Compliance Matrix: (Units=1/GPa)
#
#
# Indices 1 2 3 4 5 6 
#
# 1 0.011875 -0.000258 0.000636 0.000000 0.005049 0.000000
# 2 -0.000258 0.012708 0.000173 0.000000 -0.000010 0.000000
# 3 0.000636 0.000173 0.011394 0.000000 0.001520 0.000000
# 4 0.000000 0.000000 0.000000 0.108874 0.000000 -0.098326
# 5 0.005049 -0.000010 0.001520 0.000000 0.025605 0.000000
# 6 0.000000 0.000000 0.000000 -0.098326 0.000000 0.202139
#
#
# Mechanical properties :
#
#
# Convention : Reuss Voigt Hill
#
# Bulk Modulus (GPa) = 26.96837 28.34052 27.65444
# Shear Modulus (GPa) = 13.02579 31.04983 22.03781
#
# Velocity S-wave (km/s) = 2.26337 3.49449 2.94400
# Velocity P-wave (km/s) = 4.17573 5.23716 4.73628
#
# Compressibility (1/GPa) = 0.03708048
#
# Stress axis : x y z
#
# Youngs Moduli (GPa) = 84.20901 78.68880 87.76205
#
# Poissons Ratio (x) = 0.02027 -0.05581
# Poissons Ratio (y) = 0.02169 -0.01517
# Poissons Ratio (z) = -0.05355 -0.01360
#
# Static dielectric constant tensor:
#      x y z
#    x 2.051900 0.000000 -0.026700 
#    y 0.000000 1.975440 0.000000 
#    z -0.026700 0.000000 2.060430 
# 
# From -- ./inp_files/309007.got.cif
#   From: 2010.05.17/outbox.cif.g08.bks.cpg/sg12_155_cif.got.tgz:309007.got - 2010.06.03 13:09:07.
