data_PCOD9193408
_publ_section_title
;
Structure prediction by ZEFSAII (Michael W. Deem and Ramdas Pophale) SiO2 
 PCOD9193408
Probable space group: C 2/M
;
_chemical_formula_sum "Si O2"
_cell_formula_units_Z 56
_cell_length_a 18.888931
_cell_length_b 8.921435
_cell_length_c 25.603311
_cell_angle_alpha 90.000000
_cell_angle_beta 138.889272
_cell_angle_gamma 90.000000
_cell_volume 2836.904859
_symmetry_space_group_name_H-M "C 2/M"
_symmetry_group_IT_number 12
_symmetry_cell_setting 'monoclinic'
loop_
_space_group_symop_operation_xyz
x,y,z
-x,y,-z
-x,-y,-z
x,-y,z
1/2+x,1/2+y,z
1/2-x,1/2+y,-z
1/2-x,1/2-y,-z
1/2+x,1/2-y,z
loop_
_atom_site_type_symbol
_atom_site_label
_atom_site_fract_x
_atom_site_fract_y
_atom_site_fract_z
Si Si1 0.321741 0.176778 0.263425
Si Si2 0.619185 0.820847 0.583065
Si Si3 0.334741 0.175058 0.670932
Si Si4 0.084712 0.324821 0.000273
Si Si5 0.786456 0.677106 0.074942
Si Si6 0.046441 0.822032 0.756543
Si Si7 0.891147 0.674276 0.824198
O O1 0.363458 0.207419 0.345554
O O2 0.389675 0.267516 0.259036
O O3 0.197236 0.226631 0.195644
O O4 0.331260 0.000000 0.258000
O O5 0.500000 0.773373 0.500000
O O6 0.714604 0.741071 0.604358
O O7 0.628897 0.000000 0.580670
O O8 0.424075 0.263081 0.687921
O O9 0.372387 0.189930 0.752350
O O10 0.335053 0.000000 0.657396
O O11 0.119698 0.500000 0.018875
O O12 0.012165 0.292379 0.908965
O O13 0.187007 0.218472 0.057965
O O14 0.000000 0.307154 0.000000
O O15 0.800811 0.500000 0.077114
O O16 0.890960 0.749085 0.159545
O O17 0.750000 0.750000 0.000000
O O18 0.049074 0.000000 0.762571
O O19 0.871799 0.500000 0.827855
#
# Coordination Sequence:
#
# PCOD9193408 Si02
#       7
#     8   8   8   8   8   8   8
#     4  10  20  35  58  86 115 148 188 233 281 335
#     4   9  19  38  63  90 120 152 186 226 276 337
#     4  10  20  35  57  84 113 146 187 232 280 335
#     4  10  20  34  53  78 109 145 186 234 287 337
#     4  12  25  40  58  81 112 150 194 241 290 340
#     4  12  24  39  58  81 114 152 192 236 285 339
#     4   9  18  33  53  77 108 145 184 229 280 336
#
# _framework density 19.739823999999999
#
# number of rings (size 3 to 8) (size 9 to 14) (size 15 to 20)
#    0.000    1.714    0.000    5.143    0.000    4.571 
#    0.000    0.714    0.000    0.000    0.000    0.000 
#    0.000    0.000    0.000    0.000    0.000    0.000 
#
# Total GULP energy -156526.319824 kJ/mol
# GULP energy per Si atom -5590.225708 kJ/mol
# Density = 1.969490 g / cm^3
# Si number density = 19.739824 Si / 1000 Ang^3
#
#
#
# Elastic Constant Matrix: (Units=GPa)
#
#
# Indices 1 2 3 4 5 6 
#
# 1 82.8398 58.8619 18.1900 0.0000 24.4893 0.0000
# 2 58.8619 113.4406 33.7081 0.0000 18.1806 0.0000
# 3 18.1900 33.7081 70.5537 0.0000 27.6607 0.0000
# 4 0.0000 0.0000 0.0000 25.9482 0.0000 7.3027
# 5 24.4893 18.1806 27.6607 0.0000 27.6551 0.0000
# 6 0.0000 0.0000 0.0000 7.3027 0.0000 36.6472
#
#
#
# Elastic Compliance Matrix: (Units=1/GPa)
#
#
# Indices 1 2 3 4 5 6 
#
# 1 0.025600 -0.012028 0.008117 0.000000 -0.022880 0.000000
# 2 -0.012028 0.016082 -0.007589 0.000000 0.007669 0.000000
# 3 0.008117 -0.007589 0.027257 0.000000 -0.029461 0.000000
# 4 0.000000 0.000000 0.000000 0.040828 0.000000 -0.008136
# 5 -0.022880 0.007669 -0.029461 0.000000 0.080846 0.000000
# 6 0.000000 0.000000 0.000000 -0.008136 0.000000 0.028908
#
#
# Mechanical properties :
#
#
# Convention : Reuss Voigt Hill
#
# Bulk Modulus (GPa) = 21.76856 54.26157 38.01507
# Shear Modulus (GPa) = 19.39225 28.45503 23.92364
#
# Velocity S-wave (km/s) = 3.13771 3.80083 3.48508
# Velocity P-wave (km/s) = 4.91718 6.84177 5.95771
#
# Compressibility (1/GPa) = 0.04593780
#
# Stress axis : x y z
#
# Youngs Moduli (GPa) = 39.06303 62.18034 36.68774
#
# Poissons Ratio (x) = 0.74791 -0.29779
# Poissons Ratio (y) = 0.46985 0.27843
# Poissons Ratio (z) = -0.31707 0.47191
#
# Static dielectric constant tensor:
#      x y z
#    x 1.721830 0.000000 -0.018400 
#    y 0.000000 1.661090 0.000000 
#    z -0.018400 0.000000 1.699460 
# 
# From -- ./inp_files/363088.got.cif
#   From: 2010.05.17/outbox.cif.g08.bks.cpg/sg12_182_cif.got.tgz:363088.got - 2010.06.03 13:09:07.
