data_PCOD9193388
_publ_section_title
;
Structure prediction by ZEFSAII (Michael W. Deem and Ramdas Pophale) SiO2 
 PCOD9193388
Probable space group: C 2/M
;
_chemical_formula_sum "Si O2"
_cell_formula_units_Z 48
_cell_length_a 13.948368
_cell_length_b 9.015558
_cell_length_c 17.879357
_cell_angle_alpha 90.000000
_cell_angle_beta 62.603292
_cell_angle_gamma 90.000000
_cell_volume 1996.197488
_symmetry_space_group_name_H-M "C 2/M"
_symmetry_group_IT_number 12
_symmetry_cell_setting 'monoclinic'
loop_
_space_group_symop_operation_xyz
x,y,z
-x,y,-z
-x,-y,-z
x,-y,z
1/2+x,1/2+y,z
1/2-x,1/2+y,-z
1/2-x,1/2-y,-z
1/2+x,1/2-y,z
loop_
_atom_site_type_symbol
_atom_site_label
_atom_site_fract_x
_atom_site_fract_y
_atom_site_fract_z
Si Si1 0.717943 0.173637 0.768014
Si Si2 0.781076 0.335056 0.600232
Si Si3 0.843901 0.830871 0.066114
Si Si4 0.585597 0.333739 0.556864
Si Si5 0.059415 0.323684 0.272710
Si Si6 0.592431 0.830848 0.099336
O O1 0.715868 0.263388 0.691685
O O2 0.648058 0.230203 0.863134
O O3 0.839472 0.216010 0.750292
O O4 0.703565 0.000000 0.760651
O O5 0.820069 0.500000 0.606331
O O6 0.696997 0.350145 0.563126
O O7 0.878317 0.232187 0.535982
O O8 0.717820 0.826938 0.083768
O O9 0.868345 0.000000 0.076688
O O10 0.910377 0.775062 0.970804
O O11 0.537909 0.500000 0.570266
O O12 0.520122 0.219595 0.632072
O O13 0.086268 0.500000 0.265317
O O14 0.024810 0.296661 0.198759
O O15 0.570637 0.000000 0.083768
#
# Coordination Sequence:
#
# PCOD9193388 Si02
#       6
#     8   8   8   8   8   8
#     4  11  21  33  52  78 107 136 172 215 256 300
#     4  10  21  38  57  76 102 135 171 210 255 308
#     4   9  16  27  45  70 101 135 169 206 252 302
#     4  10  21  37  57  79 102 132 171 211 254 308
#     4  10  20  34  53  78 108 138 170 211 258 303
#     4   8  15  27  44  69 100 134 169 204 246 299
#
# _framework density 24.045715999999999
#
# number of rings (size 3 to 8) (size 9 to 14) (size 15 to 20)
#    0.000    2.333    0.000    4.500    0.000    7.333 
#    0.000    3.333    0.000    1.000    0.000    7.000 
#    0.000    0.000    0.000    0.000    0.000    0.000 
#
# Total GULP energy -134181.176121 kJ/mol
# GULP energy per Si atom -5590.882338 kJ/mol
# Density = 2.399099 g / cm^3
# Si number density = 24.045716 Si / 1000 Ang^3
#
#
#
# Elastic Constant Matrix: (Units=GPa)
#
#
# Indices 1 2 3 4 5 6 
#
# 1 31.2921 -0.9363 11.3986 0.0000 1.7486 0.0000
# 2 -0.9363 150.3150 70.0662 0.0000 14.0829 0.0000
# 3 11.3986 70.0662 169.0691 0.0000 6.1299 0.0000
# 4 0.0000 0.0000 0.0000 25.4640 0.0000 -14.4318
# 5 1.7486 14.0829 6.1299 0.0000 44.2070 0.0000
# 6 0.0000 0.0000 0.0000 -14.4318 0.0000 7.4913
#
#
#
# Elastic Compliance Matrix: (Units=1/GPa)
#
#
# Indices 1 2 3 4 5 6 
#
# 1 0.033137 0.001684 -0.002880 0.000000 -0.001448 0.000000
# 2 0.001684 0.008542 -0.003571 0.000000 -0.002293 0.000000
# 3 -0.002880 -0.003571 0.007581 0.000000 0.000200 0.000000
# 4 0.000000 0.000000 0.000000 -0.427643 0.000000 -0.823842
# 5 -0.001448 -0.002293 0.000200 0.000000 0.023381 0.000000
# 6 0.000000 0.000000 0.000000 -0.823842 0.000000 -1.453619
#
#
# Mechanical properties :
#
#
# Convention : Reuss Voigt Hill
#
# Bulk Modulus (GPa) = 25.17039 56.85925 41.01482
# Shear Modulus (GPa) = -2.79980 33.44232 15.32126
#
# Velocity S-wave (km/s) = -1.08023 3.73336 2.52697
# Velocity P-wave (km/s) = 2.98908 6.50243 5.06045
#
# Compressibility (1/GPa) = 0.03972922
#
# Stress axis : x y z
#
# Youngs Moduli (GPa) = 30.17752 117.06381 131.90244
#
# Poissons Ratio (x) = -0.19718 0.37983
# Poissons Ratio (y) = -0.05083 0.47097
# Poissons Ratio (z) = 0.08690 0.41799
#
# Static dielectric constant tensor:
#      x y z
#    x 2.050880 0.000000 -0.014160 
#    y 0.000000 1.864160 0.000000 
#    z -0.014160 0.000000 1.905750 
# 
# From -- ./inp_files/274035.got.cif
#   From: 2010.05.17/outbox.cif.g08.bks.cpg/sg12_138_cif.got.tgz:274035.got - 2010.06.03 13:09:07.
