data_PCOD9193766
_publ_section_title
;
Structure prediction by ZEFSAII (Michael W. Deem and Ramdas Pophale) SiO2 
 PCOD9193766
Probable space group: C 2/M
;
_chemical_formula_sum "Si O2"
_cell_formula_units_Z 64
_cell_length_a 20.041662
_cell_length_b 7.431242
_cell_length_c 30.442671
_cell_angle_alpha 90.000000
_cell_angle_beta 34.164628
_cell_angle_gamma 90.000000
_cell_volume 2546.149224
_symmetry_space_group_name_H-M "C 2/M"
_symmetry_group_IT_number 12
_symmetry_cell_setting 'monoclinic'
loop_
_space_group_symop_operation_xyz
x,y,z
-x,y,-z
-x,-y,-z
x,-y,z
1/2+x,1/2+y,z
1/2-x,1/2+y,-z
1/2-x,1/2-y,-z
1/2+x,1/2-y,z
loop_
_atom_site_type_symbol
_atom_site_label
_atom_site_fract_x
_atom_site_fract_y
_atom_site_fract_z
Si Si1 0.761645 0.296939 0.316994
Si Si2 0.388599 0.785942 0.918064
Si Si3 0.881434 0.718065 0.162547
Si Si4 0.869140 0.793240 0.072300
Si Si5 0.874776 0.720534 0.829265
Si Si6 0.743316 0.281904 0.423280
Si Si7 0.980430 0.719348 0.335251
Si Si8 0.026487 0.290565 0.405828
O O1 0.811276 0.500000 0.292125
O O2 0.813917 0.220894 0.243341
O O3 0.782076 0.216432 0.353694
O O4 0.619893 0.301828 0.386874
O O5 0.481670 0.722869 0.903927
O O6 0.422065 0.721140 0.850860
O O7 0.402424 0.000000 0.910274
O O8 0.250000 0.750000 0.000000
O O9 0.126406 0.500000 0.836200
O O10 0.832639 0.790617 0.143430
O O11 0.761131 0.716422 0.103138
O O12 0.882229 0.000000 0.050770
O O13 0.000000 0.707728 0.000000
O O14 0.874204 0.500000 0.829285
O O15 0.949055 0.776431 0.746453
O O16 0.742428 0.500000 0.422366
O O17 0.843318 0.225928 0.403549
O O18 0.610517 0.223568 0.506052
O O19 0.982752 0.500000 0.335399
O O20 0.034285 0.781863 0.351845
O O21 0.059417 0.500000 0.388412
#
# Coordination Sequence:
#
# PCOD9193766 Si02
#       8
#     8   8   8   8   8   8   8   8
#     4  10  21  37  56  78 105 140 180 217 257 311
#     4  10  20  35  56  80 106 137 174 217 262 308
#     4  10  21  36  55  80 108 138 175 221 268 309
#     4  10  20  34  54  80 109 143 180 215 257 314
#     4   9  17  32  54  77 102 136 179 219 254 303
#     4  10  20  36  57  77 101 137 179 218 258 312
#     4   9  18  33  54  78 102 134 177 220 260 305
#     4  11  22  35  54  81 110 137 169 215 268 315
#
# _framework density 25.135999000000002
#
# number of rings (size 3 to 8) (size 9 to 14) (size 15 to 20)
#    0.000    2.125    0.000    3.375    0.000    8.250 
#    0.000    1.250    0.000    4.500    0.000    0.000 
#    0.000    0.000    0.000    0.000    0.000    0.000 
#
# Total GULP energy -179031.662152 kJ/mol
# GULP energy per Si atom -5594.739442 kJ/mol
# Density = 2.507879 g / cm^3
# Si number density = 25.135999 Si / 1000 Ang^3
#
#
#
# Elastic Constant Matrix: (Units=GPa)
#
#
# Indices 1 2 3 4 5 6 
#
# 1 98.1477 1.4593 -18.5613 -0.0083 0.3129 0.0289
# 2 1.4593 90.5571 -3.9813 -0.0303 0.2066 -0.0221
# 3 -18.5613 -3.9813 65.5259 -0.0018 0.4148 0.0005
# 4 -0.0083 -0.0303 -0.0018 17.1203 -0.0002 2.5430
# 5 0.3129 0.2066 0.4148 -0.0002 49.3361 -0.0026
# 6 0.0289 -0.0221 0.0005 2.5430 -0.0026 6.7013
#
#
#
# Elastic Compliance Matrix: (Units=1/GPa)
#
#
# Indices 1 2 3 4 5 6 
#
# 1 0.010766 -0.000039 0.003048 0.000013 -0.000094 -0.000052
# 2 -0.000039 0.011073 0.000662 0.000015 -0.000052 0.000031
# 3 0.003048 0.000662 0.016166 0.000007 -0.000158 -0.000015
# 4 0.000013 0.000015 0.000007 0.061899 -0.000001 -0.023489
# 5 -0.000094 -0.000052 -0.000158 -0.000001 0.020271 0.000009
# 6 -0.000052 0.000031 -0.000015 -0.023489 0.000009 0.158138
#
#
# Mechanical properties :
#
#
# Convention : Reuss Voigt Hill
#
# Bulk Modulus (GPa) = 22.05293 23.56268 22.80781
# Shear Modulus (GPa) = 17.47720 32.98582 25.23151
#
# Velocity S-wave (km/s) = 2.63973 3.62649 3.17172
# Velocity P-wave (km/s) = 4.25245 5.18938 4.74410
#
# Compressibility (1/GPa) = 0.04534544
#
# Stress axis : x y z
#
# Youngs Moduli (GPa) = 92.88482 90.31286 61.85932
#
# Poissons Ratio (x) = 0.00355 -0.18854
# Poissons Ratio (y) = 0.00365 -0.04095
# Poissons Ratio (z) = -0.28310 -0.05978
#
# Static dielectric constant tensor:
#      x y z
#    x 1.924720 -0.000010 -0.007750 
#    y -0.000010 2.055610 0.000000 
#    z -0.007750 0.000000 2.007530 
# 
# From -- ./inp_files/378135.got.cif
#   From: 2010.05.17/outbox.cif.g08.bks.cpg/sg12_190_cif.got.tgz:378135.got - 2010.06.03 13:09:07.
