data_PCOD9193831
_publ_section_title
;
Structure prediction by ZEFSAII (Michael W. Deem and Ramdas Pophale) SiO2 
 PCOD9193831
Probable space group: C 2/M
;
_chemical_formula_sum "Si O2"
_cell_formula_units_Z 48
_cell_length_a 25.186290
_cell_length_b 9.081143
_cell_length_c 11.153581
_cell_angle_alpha 90.000000
_cell_angle_beta 71.642267
_cell_angle_gamma 90.000000
_cell_volume 2421.223897
_symmetry_space_group_name_H-M "C 2/M"
_symmetry_group_IT_number 12
_symmetry_cell_setting 'monoclinic'
loop_
_space_group_symop_operation_xyz
x,y,z
-x,y,-z
-x,-y,-z
x,-y,z
1/2+x,1/2+y,z
1/2-x,1/2+y,-z
1/2-x,1/2-y,-z
1/2+x,1/2-y,z
loop_
_atom_site_type_symbol
_atom_site_label
_atom_site_fract_x
_atom_site_fract_y
_atom_site_fract_z
Si Si1 0.190546 0.325168 0.056027
Si Si2 0.477712 0.323965 0.706772
Si Si3 0.689109 0.176748 0.539137
Si Si4 0.407804 0.326076 0.996346
Si Si5 0.590528 0.323769 0.733888
Si Si6 0.122058 0.324157 0.345509
O O1 0.196217 0.500000 0.045629
O O2 0.161419 0.287075 0.203706
O O3 0.250000 0.250000 0.000000
O O4 0.147936 0.266158 0.986779
O O5 0.477776 0.500000 0.688971
O O6 0.541713 0.274375 0.677375
O O7 0.437571 0.251683 0.637046
O O8 0.449293 0.293195 0.856998
O O9 0.750000 0.250000 0.500000
O O10 0.648170 0.240334 0.669882
O O11 0.656040 0.216711 0.440138
O O12 0.694062 0.000000 0.542175
O O13 0.394652 0.500000 0.996990
O O14 0.429256 0.300064 0.115183
O O15 0.598486 0.500000 0.713101
O O16 0.113563 0.500000 0.352658
#
# Coordination Sequence:
#
# PCOD9193831 Si02
#       6
#     8   8   8   8   8   8
#     4  10  20  34  54  81 110 145 188 233 286 339
#     4   9  18  35  61  90 116 147 189 232 279 339
#     4  11  25  43  60  81 111 152 197 238 284 337
#     4   9  18  34  56  84 118 151 184 227 281 338
#     4  10  21  37  59  87 119 153 188 232 284 335
#     4   9  21  40  58  78 112 150 185 234 288 336
#
# _framework density 19.824686
#
# number of rings (size 3 to 8) (size 9 to 14) (size 15 to 20)
#    0.000    2.333    0.000    1.500    2.333    6.000 
#    0.000    3.333    0.000    5.000    0.000    0.000 
#    0.000    0.000    0.000    0.000    0.000    0.000 
#
# Total GULP energy -133989.603704 kJ/mol
# GULP energy per Si atom -5582.900154 kJ/mol
# Density = 1.977956 g / cm^3
# Si number density = 19.824686 Si / 1000 Ang^3
#
#
#
# Elastic Constant Matrix: (Units=GPa)
#
#
# Indices 1 2 3 4 5 6 
#
# 1 119.5719 42.0084 28.5377 0.0000 -6.1949 0.0000
# 2 42.0084 24.1153 21.5237 0.0000 -0.8218 0.0000
# 3 28.5377 21.5237 55.3328 0.0000 11.1445 0.0000
# 4 0.0000 0.0000 0.0000 21.3457 0.0000 4.8889
# 5 -6.1949 -0.8218 11.1445 0.0000 31.0201 0.0000
# 6 0.0000 0.0000 0.0000 4.8889 0.0000 31.4547
#
#
#
# Elastic Compliance Matrix: (Units=1/GPa)
#
#
# Indices 1 2 3 4 5 6 
#
# 1 0.022701 -0.044069 0.005127 0.000000 0.001524 0.000000
# 2 -0.044069 0.153032 -0.038639 0.000000 0.009135 0.000000
# 3 0.005127 -0.038639 0.032834 0.000000 -0.011796 0.000000
# 4 0.000000 0.000000 0.000000 0.048577 0.000000 -0.007550
# 5 0.001524 0.009135 -0.011796 0.000000 0.037021 0.000000
# 6 0.000000 0.000000 0.000000 -0.007550 0.000000 0.032965
#
#
# Mechanical properties :
#
#
# Convention : Reuss Voigt Hill
#
# Bulk Modulus (GPa) = 18.72447 42.57328 30.64887
# Shear Modulus (GPa) = 9.99815 23.89413 16.94614
#
# Velocity S-wave (km/s) = 2.24816 3.47547 2.92687
# Velocity P-wave (km/s) = 4.02548 6.13406 5.18802
#
# Compressibility (1/GPa) = 0.05340606
#
# Stress axis : x y z
#
# Youngs Moduli (GPa) = 44.05140 6.53458 30.45642
#
# Poissons Ratio (x) = 0.28797 -0.15616
# Poissons Ratio (y) = 1.94129 1.17680
# Poissons Ratio (z) = -0.22587 0.25249
#
# Static dielectric constant tensor:
#      x y z
#    x 1.678620 0.000000 0.017580 
#    y 0.000000 1.657530 0.000000 
#    z 0.017580 0.000000 1.739200 
# 
# From -- ./inp_files/172957.got.cif
#   From: 2010.05.17/outbox.cif.g08.bks.cpg/sg12_87_cif.got.tgz:172957.got - 2010.06.03 13:09:07.
