data_PCOD9193798
_publ_section_title
;
Structure prediction by ZEFSAII (Michael W. Deem and Ramdas Pophale) SiO2 
 PCOD9193798
Probable space group: C 2/M
;
_chemical_formula_sum "Si O2"
_cell_formula_units_Z 64
_cell_length_a 27.813125
_cell_length_b 20.814440
_cell_length_c 17.976085
_cell_angle_alpha 90.000000
_cell_angle_beta 160.544262
_cell_angle_gamma 90.000000
_cell_volume 3466.221408
_symmetry_space_group_name_H-M "C 2/M"
_symmetry_group_IT_number 12
_symmetry_cell_setting 'monoclinic'
loop_
_space_group_symop_operation_xyz
x,y,z
-x,y,-z
-x,-y,-z
x,-y,z
1/2+x,1/2+y,z
1/2-x,1/2+y,-z
1/2-x,1/2-y,-z
1/2+x,1/2-y,z
loop_
_atom_site_type_symbol
_atom_site_label
_atom_site_fract_x
_atom_site_fract_y
_atom_site_fract_z
Si Si1 0.093181 0.300616 0.709717
Si Si2 0.524544 0.142332 0.253009
Si Si3 0.637169 0.276898 0.989192
Si Si4 0.116759 0.423576 0.235015
Si Si5 0.494960 0.425665 0.409152
Si Si6 0.176529 0.280010 0.592589
Si Si7 0.873744 0.851827 0.537224
Si Si8 0.845764 0.427788 0.114313
O O1 0.244970 0.271435 0.905524
O O2 0.114345 0.372815 0.769211
O O3 0.000000 0.301538 0.500000
O O4 0.986828 0.267661 0.613862
O O5 0.576689 0.111203 0.253222
O O6 0.652293 0.164337 0.496348
O O7 0.419878 0.094475 0.145592
O O8 0.438107 0.208084 0.110592
O O9 0.721308 0.294408 0.188332
O O10 0.516191 0.328704 0.789628
O O11 0.116134 0.500000 0.245027
O O12 0.272275 0.399380 0.434531
O O13 0.000000 0.408655 0.000000
O O14 0.500000 0.398288 0.500000
O O15 0.548328 0.500000 0.489089
O O16 0.580700 0.385220 0.473599
O O17 0.326626 0.427012 0.143387
O O18 0.215589 0.213216 0.610672
O O19 0.892191 0.500000 0.201376
#
# Coordination Sequence:
#
# PCOD9193798 Si02
#       8
#     8   8   8   8   8   8   8   8
#     4   9  18  34  54  84 121 153 187 229 285 345
#     4  10  22  38  58  82 115 152 196 236 286 336
#     4  10  20  36  59  88 119 151 189 235 289 345
#     4  11  25  43  63  84 113 152 194 238 282 339
#     4  10  22  34  52  83 115 146 184 233 287 343
#     4   9  21  34  58  89 117 152 187 234 288 344
#     4  11  22  38  61  84 116 151 190 236 289 342
#     4  10  20  34  54  80 112 151 192 235 282 339
#
# _framework density 18.463909999999998
#
# number of rings (size 3 to 8) (size 9 to 14) (size 15 to 20)
#    0.000    2.000    1.250    1.500    5.250    4.250 
#    0.000    1.875    0.000    3.000    0.000    0.000 
#    0.000    0.000    0.000    0.000    0.000    0.000 
#
# Total GULP energy -178602.196577 kJ/mol
# GULP energy per Si atom -5581.318643 kJ/mol
# Density = 1.842189 g / cm^3
# Si number density = 18.463910 Si / 1000 Ang^3
#
#
#
# Elastic Constant Matrix: (Units=GPa)
#
#
# Indices 1 2 3 4 5 6 
#
# 1 109.8089 38.8062 27.3669 0.0000 1.9510 0.0000
# 2 38.8062 71.0324 15.2614 0.0000 7.9332 0.0000
# 3 27.3669 15.2614 69.5102 0.0000 -4.5369 0.0000
# 4 0.0000 0.0000 0.0000 29.1202 0.0000 4.7402
# 5 1.9510 7.9332 -4.5369 0.0000 23.6340 0.0000
# 6 0.0000 0.0000 0.0000 4.7402 0.0000 35.1336
#
#
#
# Elastic Compliance Matrix: (Units=1/GPa)
#
#
# Indices 1 2 3 4 5 6 
#
# 1 0.012030 -0.005872 -0.003426 0.000000 0.000320 0.000000
# 2 -0.005872 0.018427 -0.002133 0.000000 -0.006110 0.000000
# 3 -0.003426 -0.002133 0.016475 0.000000 0.004161 0.000000
# 4 0.000000 0.000000 0.000000 0.035112 0.000000 -0.004737
# 5 0.000320 -0.006110 0.004161 0.000000 0.045135 0.000000
# 6 0.000000 0.000000 0.000000 -0.004737 0.000000 0.029102
#
#
# Mechanical properties :
#
#
# Convention : Reuss Voigt Hill
#
# Bulk Modulus (GPa) = 41.54498 45.91337 43.72918
# Shear Modulus (GPa) = 26.71434 28.83868 27.77651
#
# Velocity S-wave (km/s) = 3.80786 3.95637 3.88283
# Velocity P-wave (km/s) = 6.47168 6.76690 6.62094
#
# Compressibility (1/GPa) = 0.02407029
#
# Stress axis : x y z
#
# Youngs Moduli (GPa) = 83.12526 54.26955 60.69733
#
# Poissons Ratio (x) = 0.31866 0.20797
# Poissons Ratio (y) = 0.48810 0.12945
# Poissons Ratio (z) = 0.28481 0.11574
#
# Static dielectric constant tensor:
#      x y z
#    x 1.638470 0.000000 -0.003820 
#    y 0.000000 1.644190 0.000000 
#    z -0.003820 0.000000 1.652360 
# 
# From -- ./inp_files/184683.got.cif
#   From: 2010.05.17/outbox.cif.g08.bks.cpg/sg12_93_cif.got.tgz:184683.got - 2010.06.03 13:09:07.
