data_PCOD9193161
_publ_section_title
;
Structure prediction by ZEFSAII (Michael W. Deem and Ramdas Pophale) SiO2 
 PCOD9193161
Probable space group: C 2/M
;
_chemical_formula_sum "Si O2"
_cell_formula_units_Z 56
_cell_length_a 28.931267
_cell_length_b 7.484058
_cell_length_c 21.138106
_cell_angle_alpha 90.000000
_cell_angle_beta 34.049200
_cell_angle_gamma 90.000000
_cell_volume 2562.622882
_symmetry_space_group_name_H-M "C 2/M"
_symmetry_group_IT_number 12
_symmetry_cell_setting 'monoclinic'
loop_
_space_group_symop_operation_xyz
x,y,z
-x,y,-z
-x,-y,-z
x,-y,z
1/2+x,1/2+y,z
1/2-x,1/2+y,-z
1/2-x,1/2-y,-z
1/2+x,1/2-y,z
loop_
_atom_site_type_symbol
_atom_site_label
_atom_site_fract_x
_atom_site_fract_y
_atom_site_fract_z
Si Si1 0.785364 0.281448 0.279653
Si Si2 0.015767 0.719280 0.174139
Si Si3 0.931564 0.282629 0.026542
Si Si4 0.109056 0.782433 0.434994
Si Si5 0.667756 0.213807 0.633629
Si Si6 0.345591 0.201666 0.889017
Si Si7 0.926936 0.216046 0.666714
O O1 0.785656 0.500000 0.279981
O O2 0.843937 0.226970 0.155148
O O3 0.691717 0.221931 0.375210
O O4 0.819867 0.221785 0.308266
O O5 0.013136 0.500000 0.178608
O O6 0.083350 0.787945 0.147731
O O7 0.920715 0.778591 0.292453
O O8 0.045209 0.773178 0.070399
O O9 0.932120 0.500000 0.024741
O O10 0.000000 0.227175 0.000000
O O11 0.106121 0.729211 0.364633
O O12 0.022382 0.725766 0.563397
O O13 0.109076 0.000000 0.435728
O O14 0.750000 0.250000 0.500000
O O15 0.661432 0.000000 0.644505
O O16 0.374772 0.216505 0.784033
O O17 0.346142 0.000000 0.910778
O O18 0.250000 0.250000 0.000000
O O19 0.925165 0.000000 0.670097
#
# Coordination Sequence:
#
# PCOD9193161 Si02
#       7
#     8   8   8   8   8   8   8
#     4   9  16  26  48  79 105 131 171 216 257 306
#     4   9  19  34  51  76 108 140 171 215 271 316
#     4   9  14  25  46  73 102 128 163 214 261 298
#     4   8  16  30  51  80 108 137 173 220 270 314
#     4  10  20  34  52  80 113 141 174 212 257 317
#     4  11  24  39  55  77 107 144 184 224 270 323
#     4   9  18  35  56  78 107 138 176 223 270 318
#
# _framework density 21.852613000000002
#
# number of rings (size 3 to 8) (size 9 to 14) (size 15 to 20)
#    0.000    2.714    1.429    1.286    4.000    0.000 
#    0.000    2.143    0.000    0.857    0.000    1.000 
#    0.000    0.000    0.000    0.000    0.000    0.000 
#
# Total GULP energy -156274.905782 kJ/mol
# GULP energy per Si atom -5581.246635 kJ/mol
# Density = 2.180288 g / cm^3
# Si number density = 21.852613 Si / 1000 Ang^3
#
#
#
# Elastic Constant Matrix: (Units=GPa)
#
#
# Indices 1 2 3 4 5 6 
#
# 1 110.0420 10.5574 90.1008 0.0034 -35.8105 0.0065
# 2 10.5574 54.3002 0.5421 0.0162 -10.6495 0.0004
# 3 90.1008 0.5421 182.4121 0.0152 -21.1010 0.0039
# 4 0.0034 0.0162 0.0152 16.6248 -0.0175 2.8930
# 5 -35.8105 -10.6495 -21.1010 -0.0175 33.5702 -0.0030
# 6 0.0065 0.0004 0.0039 2.8930 -0.0030 2.6975
#
#
#
# Elastic Compliance Matrix: (Units=1/GPa)
#
#
# Indices 1 2 3 4 5 6 
#
# 1 0.022332 -0.000729 -0.008950 0.000033 0.017965 -0.000056
# 2 -0.000729 0.019748 0.001010 -0.000018 0.006122 0.000023
# 3 -0.008950 0.001010 0.009525 -0.000015 -0.003240 0.000020
# 4 0.000033 -0.000018 -0.000015 0.073953 0.000052 -0.079313
# 5 0.017965 0.006122 -0.003240 0.000052 0.048858 -0.000040
# 6 -0.000056 0.000023 0.000020 -0.079313 -0.000040 0.455774
#
#
# Mechanical properties :
#
#
# Convention : Reuss Voigt Hill
#
# Bulk Modulus (GPa) = 29.18360 61.01723 45.10041
# Shear Modulus (GPa) = 7.58780 26.94877 17.26828
#
# Velocity S-wave (km/s) = 1.86542 3.51551 2.81413
# Velocity P-wave (km/s) = 4.24541 6.66793 5.58949
#
# Compressibility (1/GPa) = 0.03426582
#
# Stress axis : x y z
#
# Youngs Moduli (GPa) = 44.77814 50.63700 104.98377
#
# Poissons Ratio (x) = 0.03693 0.93966
# Poissons Ratio (y) = 0.03265 -0.10599
# Poissons Ratio (z) = 0.40079 -0.05112
#
# Static dielectric constant tensor:
#      x y z
#    x 1.804400 0.000000 -0.045650 
#    y 0.000000 1.875810 0.000010 
#    z -0.045650 0.000010 1.777830 
# 
# From -- ./inp_files/329453.got.cif
#   From: 2010.05.17/outbox.cif.g08.bks.cpg/sg12_165_cif.got.tgz:329453.got - 2010.06.03 13:09:07.
