data_PCOD9193221
_publ_section_title
;
Structure prediction by ZEFSAII (Michael W. Deem and Ramdas Pophale) SiO2 
 PCOD9193221
Probable space group: C 2/M
;
_chemical_formula_sum "Si O2"
_cell_formula_units_Z 48
_cell_length_a 24.637499
_cell_length_b 7.376884
_cell_length_c 9.865175
_cell_angle_alpha 90.000000
_cell_angle_beta 85.049195
_cell_angle_gamma 90.000000
_cell_volume 1786.286254
_symmetry_space_group_name_H-M "C 2/M"
_symmetry_group_IT_number 12
_symmetry_cell_setting 'monoclinic'
loop_
_space_group_symop_operation_xyz
x,y,z
-x,y,-z
-x,-y,-z
x,-y,z
1/2+x,1/2+y,z
1/2-x,1/2+y,-z
1/2-x,1/2-y,-z
1/2+x,1/2-y,z
loop_
_atom_site_type_symbol
_atom_site_label
_atom_site_fract_x
_atom_site_fract_y
_atom_site_fract_z
Si Si1 0.922049 0.280174 0.404712
Si Si2 0.209891 0.212279 0.173983
Si Si3 0.812267 0.713885 0.522866
Si Si4 0.461875 0.220200 0.697790
Si Si5 0.062475 0.278419 0.009901
Si Si6 0.328324 0.795741 0.111417
O O1 0.922621 0.500000 0.389908
O O2 0.859449 0.216113 0.411547
O O3 0.938487 0.233486 0.556544
O O4 0.974798 0.219521 0.309293
O O5 0.180219 0.227368 0.323235
O O6 0.184149 0.303761 0.048276
O O7 0.214544 0.000000 0.138167
O O8 0.272113 0.283914 0.179811
O O9 0.819093 0.500000 0.522129
O O10 0.750000 0.750000 0.500000
O O11 0.428822 0.280012 0.836120
O O12 0.461897 0.000000 0.702165
O O13 0.064400 0.500000 0.000267
O O14 0.111092 0.214379 0.902042
O O15 0.000000 0.227062 0.000000
O O16 0.332035 0.000000 0.167390
#
# Coordination Sequence:
#
# PCOD9193221 Si02
#       6
#     8   8   8   8   8   8
#     4   8  15  27  45  68  93 122 157 202 248 287
#     4  10  20  34  53  76 101 132 171 210 249 296
#     4  11  22  35  51  74 105 137 168 204 249 299
#     4   8  13  24  43  68  94 119 154 200 249 291
#     4   9  16  25  42  71 102 127 154 198 252 297
#     4   9  18  33  53  77 103 131 167 211 254 295
#
# _framework density 26.871393000000001
#
# number of rings (size 3 to 8) (size 9 to 14) (size 15 to 20)
#    0.000    2.833    0.000    3.000    0.000    4.667 
#    0.000    5.000    0.000    0.500    0.000   26.833 
#    0.000    0.000    0.000    0.000    0.000    0.000 
#
# Total GULP energy -134140.491431 kJ/mol
# GULP energy per Si atom -5589.187143 kJ/mol
# Density = 2.681023 g / cm^3
# Si number density = 26.871393 Si / 1000 Ang^3
#
#
#
# Elastic Constant Matrix: (Units=GPa)
#
#
# Indices 1 2 3 4 5 6 
#
# 1 176.1856 -3.1639 15.3872 0.0000 -29.1704 0.0000
# 2 -3.1639 102.7492 -6.1475 0.0000 -1.1936 0.0000
# 3 15.3872 -6.1475 87.4846 0.0000 -21.9524 0.0000
# 4 0.0000 0.0000 0.0000 5.4944 0.0000 2.5537
# 5 -29.1704 -1.1936 -21.9524 0.0000 61.7409 0.0000
# 6 0.0000 0.0000 0.0000 2.5537 0.0000 4.7112
#
#
#
# Elastic Compliance Matrix: (Units=1/GPa)
#
#
# Indices 1 2 3 4 5 6 
#
# 1 0.006174 0.000200 -0.000372 0.000000 0.002788 0.000000
# 2 0.000200 0.009793 0.000795 0.000000 0.000567 0.000000
# 3 -0.000372 0.000795 0.012639 0.000000 0.004334 0.000000
# 4 0.000000 0.000000 0.000000 0.243302 0.000000 -0.131885
# 5 0.002788 0.000567 0.004334 0.000000 0.019066 0.000000
# 6 0.000000 0.000000 0.000000 -0.131885 0.000000 0.283751
#
#
# Mechanical properties :
#
#
# Convention : Reuss Voigt Hill
#
# Bulk Modulus (GPa) = 33.49844 42.06345 37.78095
# Shear Modulus (GPa) = 8.57003 38.41220 23.49112
#
# Velocity S-wave (km/s) = 1.78779 3.78495 2.95990
# Velocity P-wave (km/s) = 4.09327 5.89820 5.07659
#
# Compressibility (1/GPa) = 0.02985213
#
# Stress axis : x y z
#
# Youngs Moduli (GPa) = 161.98044 102.11632 79.11818
#
# Poissons Ratio (x) = -0.02045 0.02944
# Poissons Ratio (y) = -0.03243 -0.06291
# Poissons Ratio (z) = 0.06027 -0.08119
#
# Static dielectric constant tensor:
#      x y z
#    x 2.157430 0.000000 0.057080 
#    y 0.000000 3.826820 0.000000 
#    z 0.057080 0.000000 2.062150 
# 
# From -- ./inp_files/172291.got.cif
#   From: 2010.05.17/outbox.cif.g08.bks.cpg/sg12_87_cif.got.tgz:172291.got - 2010.06.03 13:09:07.
