data_PCOD9193885
_publ_section_title
;
Structure prediction by ZEFSAII (Michael W. Deem and Ramdas Pophale) SiO2 
 PCOD9193885
Probable space group: C 2/M
;
_chemical_formula_sum "Si O2"
_cell_formula_units_Z 32
_cell_length_a 13.758869
_cell_length_b 12.018785
_cell_length_c 13.732659
_cell_angle_alpha 90.000000
_cell_angle_beta 41.044221
_cell_angle_gamma 90.000000
_cell_volume 1491.166525
_symmetry_space_group_name_H-M "C 2/M"
_symmetry_group_IT_number 12
_symmetry_cell_setting 'monoclinic'
loop_
_space_group_symop_operation_xyz
x,y,z
-x,y,-z
-x,-y,-z
x,-y,z
1/2+x,1/2+y,z
1/2-x,1/2+y,-z
1/2-x,1/2-y,-z
1/2+x,1/2-y,z
loop_
_atom_site_type_symbol
_atom_site_label
_atom_site_fract_x
_atom_site_fract_y
_atom_site_fract_z
Si Si1 0.609757 0.739260 0.536623
Si Si2 0.613126 0.728858 0.993592
Si Si3 0.419897 0.124813 0.805686
Si Si4 0.672865 0.373229 0.289212
O O1 0.750000 0.750000 0.500000
O O2 0.510020 0.846304 0.639588
O O3 0.486037 0.642013 0.643958
O O4 0.665021 0.711332 0.386378
O O5 0.744918 0.645054 0.921393
O O6 0.698326 0.832413 0.878364
O O7 0.500000 0.682839 0.000000
O O8 0.538251 0.782977 0.144987
O O9 0.450559 0.000000 0.814573
O O10 0.691802 0.500000 0.306601
#
# Coordination Sequence:
#
# PCOD9193885 Si02
#       4
#     8   8   8   8
#     4  10  20  34  54  82 113 144 182 227 274 326
#     4  10  21  38  60  85 112 144 187 233 276 329
#     4  10  22  38  57  84 115 146 184 230 279 332
#     4  10  21  38  59  84 112 145 189 233 273 325
#
# _framework density 21.459709
#
# number of rings (size 3 to 8) (size 9 to 14) (size 15 to 20)
#    0.000    2.000    0.000    3.750    0.000    6.500 
#    0.000   11.250    0.000   30.000    0.000    0.000 
#    0.000    0.000    0.000    0.000    0.000    0.000 
#
# Total GULP energy -89193.104078 kJ/mol
# GULP energy per Si atom -5574.569005 kJ/mol
# Density = 2.141087 g / cm^3
# Si number density = 21.459709 Si / 1000 Ang^3
#
#
#
# Elastic Constant Matrix: (Units=GPa)
#
#
# Indices 1 2 3 4 5 6 
#
# 1 105.7410 1.5783 11.9258 0.0000 1.1911 0.0000
# 2 1.5783 48.4553 19.9869 0.0000 14.3283 0.0000
# 3 11.9258 19.9869 86.8236 0.0000 12.9789 0.0000
# 4 0.0000 0.0000 0.0000 10.2382 0.0000 7.6435
# 5 1.1911 14.3283 12.9789 0.0000 34.1478 0.0000
# 6 0.0000 0.0000 0.0000 7.6435 0.0000 7.4953
#
#
#
# Elastic Compliance Matrix: (Units=1/GPa)
#
#
# Indices 1 2 3 4 5 6 
#
# 1 0.009609 0.000231 -0.001387 0.000000 0.000095 0.000000
# 2 0.000231 0.025093 -0.004488 0.000000 -0.008831 0.000000
# 3 -0.001387 -0.004488 0.013203 0.000000 -0.003087 0.000000
# 4 0.000000 0.000000 0.000000 0.409233 0.000000 -0.417325
# 5 0.000095 -0.008831 -0.003087 0.000000 0.034160 0.000000
# 6 0.000000 0.000000 0.000000 -0.417325 0.000000 0.558994
#
#
# Mechanical properties :
#
#
# Convention : Reuss Voigt Hill
#
# Bulk Modulus (GPa) = 27.31048 34.22244 30.76646
# Shear Modulus (GPa) = 4.65643 24.21154 14.43398
#
# Velocity S-wave (km/s) = 1.47464 3.36256 2.59628
# Velocity P-wave (km/s) = 3.95644 5.57294 4.83276
#
# Compressibility (1/GPa) = 0.03661598
#
# Stress axis : x y z
#
# Youngs Moduli (GPa) = 104.06896 39.85240 75.74221
#
# Poissons Ratio (x) = -0.00921 0.10508
# Poissons Ratio (y) = -0.02405 0.33993
# Poissons Ratio (z) = 0.14437 0.17886
#
# Static dielectric constant tensor:
#      x y z
#    x 1.841220 0.000000 0.002200 
#    y 0.000000 1.719290 0.000000 
#    z 0.002200 0.000000 1.793030 
# 
# From -- ./inp_files/139425.got.cif
#   From: 2010.05.17/outbox.cif.g08.bks.cpg/sg12_70_cif.got.tgz:139425.got - 2010.06.03 13:09:07.
