data_PCOD9193497
_publ_section_title
;
Structure prediction by ZEFSAII (Michael W. Deem and Ramdas Pophale) SiO2 
 PCOD9193497
Probable space group: C 2/M
;
_chemical_formula_sum "Si O2"
_cell_formula_units_Z 56
_cell_length_a 16.644582
_cell_length_b 7.991075
_cell_length_c 19.639130
_cell_angle_alpha 90.000000
_cell_angle_beta 121.144839
_cell_angle_gamma 90.000000
_cell_volume 2235.652956
_symmetry_space_group_name_H-M "C 2/M"
_symmetry_group_IT_number 12
_symmetry_cell_setting 'monoclinic'
loop_
_space_group_symop_operation_xyz
x,y,z
-x,y,-z
-x,-y,-z
x,-y,z
1/2+x,1/2+y,z
1/2-x,1/2+y,-z
1/2-x,1/2-y,-z
1/2+x,1/2-y,z
loop_
_atom_site_type_symbol
_atom_site_label
_atom_site_fract_x
_atom_site_fract_y
_atom_site_fract_z
Si Si1 0.936461 0.298760 0.336050
Si Si2 0.718868 0.307126 0.088726
Si Si3 0.704830 0.695077 0.373462
Si Si4 0.562067 0.203919 0.813361
Si Si5 0.618202 0.698845 0.477905
Si Si6 0.460568 0.805994 0.051504
Si Si7 0.220954 0.308572 0.235535
O O1 0.933686 0.500000 0.336246
O O2 0.971565 0.241631 0.275838
O O3 0.830959 0.232890 0.294500
O O4 0.008219 0.234988 0.424093
O O5 0.713051 0.500000 0.065188
O O6 0.827159 0.252915 0.135384
O O7 0.689129 0.292783 0.155337
O O8 0.650914 0.201377 0.011241
O O9 0.683626 0.500000 0.358405
O O10 0.657936 0.762621 0.421992
O O11 0.816429 0.716472 0.437268
O O12 0.677178 0.779067 0.290553
O O13 0.518698 0.266450 0.865060
O O14 0.556659 0.000000 0.812013
O O15 0.633420 0.500000 0.489731
O O16 0.491919 0.000000 0.066499
O O17 0.500000 0.724357 0.000000
O O18 0.209224 0.500000 0.211218
#
# Coordination Sequence:
#
# PCOD9193497 Si02
#       7
#     8   8   8   8   8   8   8
#     4  10  20  36  57  81 111 146 185 229 277 326
#     4  10  20  36  56  77 105 142 182 223 271 327
#     4  10  21  38  58  81 112 148 184 224 273 328
#     4   8  17  34  54  76 104 140 179 218 264 320
#     4  10  21  37  57  83 113 146 185 225 268 324
#     4  10  20  34  53  80 111 141 177 222 270 322
#     4  11  22  37  58  83 110 141 183 232 279 328
#
# _framework density 25.048611000000001
#
# number of rings (size 3 to 8) (size 9 to 14) (size 15 to 20)
#    0.000    2.143    0.000    4.286    0.000    3.714 
#    0.000    7.857    0.000    0.000    0.000    0.000 
#    0.000    0.000    0.000    0.000    0.000    0.000 
#
# Total GULP energy -156634.531147 kJ/mol
# GULP energy per Si atom -5594.090398 kJ/mol
# Density = 2.499160 g / cm^3
# Si number density = 25.048611 Si / 1000 Ang^3
#
#
#
# Elastic Constant Matrix: (Units=GPa)
#
#
# Indices 1 2 3 4 5 6 
#
# 1 49.1234 0.7823 36.4868 0.0000 -14.0649 0.0000
# 2 0.7823 52.7281 -4.5033 0.0000 -1.2738 0.0000
# 3 36.4868 -4.5033 141.5405 0.0000 -7.2173 0.0000
# 4 0.0000 0.0000 0.0000 17.5327 0.0000 -0.7186
# 5 -14.0649 -1.2738 -7.2173 0.0000 56.3201 0.0000
# 6 0.0000 0.0000 0.0000 -0.7186 0.0000 16.5485
#
#
#
# Elastic Compliance Matrix: (Units=1/GPa)
#
#
# Indices 1 2 3 4 5 6 
#
# 1 0.027023 -0.000831 -0.006693 0.000000 0.005872 0.000000
# 2 -0.000831 0.019057 0.000837 0.000000 0.000331 0.000000
# 3 -0.006693 0.000837 0.008790 0.000000 -0.000526 0.000000
# 4 0.000000 0.000000 0.000000 0.057138 0.000000 0.002481
# 5 0.005872 0.000331 -0.000526 0.000000 0.019162 0.000000
# 6 0.000000 0.000000 0.000000 0.002481 0.000000 0.060536
#
#
# Mechanical properties :
#
#
# Convention : Reuss Voigt Hill
#
# Bulk Modulus (GPa) = 24.09799 34.32483 29.21141
# Shear Modulus (GPa) = 22.84032 32.12203 27.48117
#
# Velocity S-wave (km/s) = 3.02294 3.58493 3.31586
# Velocity P-wave (km/s) = 4.67179 5.55596 5.13295
#
# Compressibility (1/GPa) = 0.04149724
#
# Stress axis : x y z
#
# Youngs Moduli (GPa) = 37.00601 52.47399 113.76207
#
# Poissons Ratio (x) = 0.04359 0.76141
# Poissons Ratio (y) = 0.03074 -0.09526
# Poissons Ratio (z) = 0.24768 -0.04394
#
# Static dielectric constant tensor:
#      x y z
#    x 2.120170 0.000000 -0.028020 
#    y 0.000000 1.880440 0.000000 
#    z -0.028020 0.000000 1.942140 
# 
# From -- ./inp_files/275024.got.cif
#   From: 2010.05.17/outbox.cif.g08.bks.cpg/sg12_138_cif.got.tgz:275024.got - 2010.06.03 13:09:07.
