data_PCOD9193928
_publ_section_title
;
Structure prediction by ZEFSAII (Michael W. Deem and Ramdas Pophale) SiO2 
 PCOD9193928
Probable space group: C 2/M
;
_chemical_formula_sum "Si O2"
_cell_formula_units_Z 56
_cell_length_a 16.244753
_cell_length_b 18.867551
_cell_length_c 13.369981
_cell_angle_alpha 90.000000
_cell_angle_beta 137.290884
_cell_angle_gamma 90.000000
_cell_volume 2779.497339
_symmetry_space_group_name_H-M "C 2/M"
_symmetry_group_IT_number 12
_symmetry_cell_setting 'monoclinic'
loop_
_space_group_symop_operation_xyz
x,y,z
-x,y,-z
-x,-y,-z
x,-y,z
1/2+x,1/2+y,z
1/2-x,1/2+y,-z
1/2-x,1/2-y,-z
1/2+x,1/2-y,z
loop_
_atom_site_type_symbol
_atom_site_label
_atom_site_fract_x
_atom_site_fract_y
_atom_site_fract_z
Si Si1 0.819455 0.920584 0.951632
Si Si2 0.818134 0.279777 0.656896
Si Si3 0.206722 0.775668 0.772836
Si Si4 0.427814 0.140317 0.334809
Si Si5 0.041314 0.583683 0.230976
Si Si6 0.947434 0.218684 0.060365
Si Si7 0.282231 0.919960 0.912391
O O1 0.927904 0.865066 0.044848
O O2 0.767779 0.920412 0.018658
O O3 0.852825 0.000000 0.953866
O O4 0.707940 0.892378 0.784905
O O5 0.750000 0.250000 0.500000
O O6 0.748398 0.259237 0.696529
O O7 0.847174 0.363721 0.689268
O O8 0.952324 0.245485 0.775068
O O9 0.093450 0.725134 0.694117
O O10 0.207201 0.859840 0.788102
O O11 0.313585 0.751404 0.944914
O O12 0.500000 0.125348 0.500000
O O13 0.493561 0.105892 0.298391
O O14 0.067998 0.500000 0.251273
O O15 0.926696 0.596450 0.053458
O O16 0.000000 0.240646 0.000000
O O17 0.271100 0.000000 0.862129
#
# Coordination Sequence:
#
# PCOD9193928 Si02
#       7
#     8   8   8   8   8   8   8
#     4   9  19  33  53  80 110 141 181 230 276 327
#     4  11  22  37  54  80 114 147 182 230 278 336
#     4  10  20  35  56  80 109 145 185 228 273 332
#     4  10  20  34  54  83 112 144 184 231 283 332
#     4  10  21  35  56  84 112 143 183 233 286 329
#     4   9  19  34  53  76 105 143 188 222 268 325
#     4   9  18  33  55  84 107 136 182 231 276 321
#
# _framework density 20.147527
#
# number of rings (size 3 to 8) (size 9 to 14) (size 15 to 20)
#    0.000    2.286    1.429    2.143    2.000    3.714 
#    0.000    2.143    0.000    0.429    0.000    0.000 
#    0.000    0.000    0.000    0.000    0.000    0.000 
#
# Total GULP energy -156248.392204 kJ/mol
# GULP energy per Si atom -5580.299722 kJ/mol
# Density = 2.010167 g / cm^3
# Si number density = 20.147527 Si / 1000 Ang^3
#
#
#
# Elastic Constant Matrix: (Units=GPa)
#
#
# Indices 1 2 3 4 5 6 
#
# 1 40.7851 3.1728 8.6267 0.0000 -7.0801 0.0000
# 2 3.1728 132.3159 25.6083 0.0000 -3.1796 0.0000
# 3 8.6267 25.6083 77.5356 0.0000 -10.0750 0.0000
# 4 0.0000 0.0000 0.0000 19.3868 0.0000 6.7391
# 5 -7.0801 -3.1796 -10.0750 0.0000 11.7377 0.0000
# 6 0.0000 0.0000 0.0000 6.7391 0.0000 29.6409
#
#
#
# Elastic Compliance Matrix: (Units=1/GPa)
#
#
# Indices 1 2 3 4 5 6 
#
# 1 0.027458 -0.000090 -0.000986 0.000000 0.015692 0.000000
# 2 -0.000090 0.008074 -0.002678 0.000000 -0.000166 0.000000
# 3 -0.000986 -0.002678 0.015442 0.000000 0.011935 0.000000
# 4 0.000000 0.000000 0.000000 0.056008 0.000000 -0.012734
# 5 0.015692 -0.000166 0.011935 0.000000 0.104860 0.000000
# 6 0.000000 0.000000 0.000000 -0.012734 0.000000 0.036632
#
#
# Mechanical properties :
#
#
# Convention : Reuss Voigt Hill
#
# Bulk Modulus (GPa) = 23.00697 36.16137 29.58417
# Shear Modulus (GPa) = 18.48614 26.36834 22.42724
#
# Velocity S-wave (km/s) = 3.03238 3.62161 3.34001
# Velocity P-wave (km/s) = 4.86872 5.95612 5.43966
#
# Compressibility (1/GPa) = 0.04346509
#
# Stress axis : x y z
#
# Youngs Moduli (GPa) = 36.41870 123.85133 64.75689
#
# Poissons Ratio (x) = 0.01121 0.06386
# Poissons Ratio (y) = 0.00330 0.17344
# Poissons Ratio (z) = 0.03592 0.33171
#
# Static dielectric constant tensor:
#      x y z
#    x 1.745580 0.000000 0.006200 
#    y 0.000000 1.764940 0.000000 
#    z 0.006200 0.000000 1.694380 
# 
# From -- ./inp_files/158309.got.cif
#   From: 2010.05.17/outbox.cif.g08.bks.cpg/sg12_80_cif.got.tgz:158309.got - 2010.06.03 13:09:07.
