data_PCOD9193705
_publ_section_title
;
Structure prediction by ZEFSAII (Michael W. Deem and Ramdas Pophale) SiO2 
 PCOD9193705
Probable space group: C 2/M
;
_chemical_formula_sum "Si O2"
_cell_formula_units_Z 40
_cell_length_a 25.615818
_cell_length_b 8.223574
_cell_length_c 12.437109
_cell_angle_alpha 90.000000
_cell_angle_beta 143.379460
_cell_angle_gamma 90.000000
_cell_volume 1562.816272
_symmetry_space_group_name_H-M "C 2/M"
_symmetry_group_IT_number 12
_symmetry_cell_setting 'monoclinic'
loop_
_space_group_symop_operation_xyz
x,y,z
-x,y,-z
-x,-y,-z
x,-y,z
1/2+x,1/2+y,z
1/2-x,1/2+y,-z
1/2-x,1/2-y,-z
1/2+x,1/2-y,z
loop_
_atom_site_type_symbol
_atom_site_label
_atom_site_fract_x
_atom_site_fract_y
_atom_site_fract_z
Si Si1 0.971438 0.813610 0.162550
Si Si2 0.404443 0.809977 0.446925
Si Si3 0.377235 0.807280 0.719085
Si Si4 0.654809 0.806569 0.877190
Si Si5 0.747576 0.311356 0.674193
O O1 0.037471 0.790805 0.374249
O O2 0.023518 0.719258 0.155100
O O3 0.882192 0.754530 0.070865
O O4 0.965339 0.000000 0.121141
O O5 0.404678 0.757826 0.323650
O O6 0.304272 0.791498 0.323313
O O7 0.430150 0.000000 0.498518
O O8 0.317748 0.706547 0.536923
O O9 0.340691 0.760711 0.776378
O O10 0.358418 0.000000 0.675885
O O11 0.653652 0.000000 0.878914
O O12 0.750000 0.750000 0.000000
O O13 0.751655 0.500000 0.715076
#
# Coordination Sequence:
#
# PCOD9193705 Si02
#       5
#     8   8   8   8   8
#     4  11  21  33  54  81 107 138 175 214 256 303
#     4  10  20  34  54  79 107 138 172 213 259 306
#     4   9  16  27  45  72 106 138 168 207 254 301
#     4  11  24  40  56  75 102 137 175 216 264 313
#     4   9  16  26  45  74 105 136 169 207 253 302
#
# _framework density 25.594818
#
# number of rings (size 3 to 8) (size 9 to 14) (size 15 to 20)
#    0.000    2.000    0.000    7.200    0.000    8.000 
#    0.000    0.000    0.000    1.200    0.000    8.400 
#    0.000    0.000    0.000    0.000    0.000    0.000 
#
# Total GULP energy -111912.834121 kJ/mol
# GULP energy per Si atom -5595.641706 kJ/mol
# Density = 2.553656 g / cm^3
# Si number density = 25.594818 Si / 1000 Ang^3
#
#
#
# Elastic Constant Matrix: (Units=GPa)
#
#
# Indices 1 2 3 4 5 6 
#
# 1 197.0774 12.4364 28.4224 0.0000 26.2020 0.0000
# 2 12.4364 69.9753 -6.9136 0.0000 7.8920 0.0000
# 3 28.4224 -6.9136 99.7142 0.0000 32.0653 0.0000
# 4 0.0000 0.0000 0.0000 16.9857 0.0000 10.4361
# 5 26.2020 7.8920 32.0653 0.0000 61.1394 0.0000
# 6 0.0000 0.0000 0.0000 10.4361 0.0000 24.1136
#
#
#
# Elastic Compliance Matrix: (Units=1/GPa)
#
#
# Indices 1 2 3 4 5 6 
#
# 1 0.005511 -0.000899 -0.001096 0.000000 -0.001671 0.000000
# 2 -0.000899 0.014965 0.002155 0.000000 -0.002676 0.000000
# 3 -0.001096 0.002155 0.012544 0.000000 -0.006388 0.000000
# 4 0.000000 0.000000 0.000000 0.080198 0.000000 -0.034709
# 5 -0.001671 -0.002676 -0.006388 0.000000 0.020768 0.000000
# 6 0.000000 0.000000 0.000000 -0.034709 0.000000 0.056492
#
#
# Mechanical properties :
#
#
# Convention : Reuss Voigt Hill
#
# Bulk Modulus (GPa) = 29.99422 48.29524 39.14473
# Shear Modulus (GPa) = 24.84186 42.63586 33.73886
#
# Velocity S-wave (km/s) = 3.11880 4.08585 3.63463
# Velocity P-wave (km/s) = 4.97127 6.41631 5.73945
#
# Compressibility (1/GPa) = 0.03333975
#
# Stress axis : x y z
#
# Youngs Moduli (GPa) = 181.45160 66.82126 79.71632
#
# Poissons Ratio (x) = 0.06009 0.08736
# Poissons Ratio (y) = 0.16317 -0.17176
# Poissons Ratio (z) = 0.19885 -0.14397
#
# Static dielectric constant tensor:
#      x y z
#    x 2.025750 0.000000 0.025390 
#    y 0.000000 1.848730 0.000000 
#    z 0.025390 0.000000 2.171950 
# 
# From -- ./inp_files/229482.got.cif
#   From: 2010.05.17/outbox.cif.g08.bks.cpg/sg12_115_cif.got.tgz:229482.got - 2010.06.03 13:09:07.
