data_PCOD9193329
_publ_section_title
;
Structure prediction by ZEFSAII (Michael W. Deem and Ramdas Pophale) SiO2 
 PCOD9193329
Probable space group: C 2/M
;
_chemical_formula_sum "Si O2"
_cell_formula_units_Z 44
_cell_length_a 21.949307
_cell_length_b 10.067969
_cell_length_c 27.700483
_cell_angle_alpha 90.000000
_cell_angle_beta 156.402954
_cell_angle_gamma 90.000000
_cell_volume 2450.403213
_symmetry_space_group_name_H-M "C 2/M"
_symmetry_group_IT_number 12
_symmetry_cell_setting 'monoclinic'
loop_
_space_group_symop_operation_xyz
x,y,z
-x,y,-z
-x,-y,-z
x,-y,z
1/2+x,1/2+y,z
1/2-x,1/2+y,-z
1/2-x,1/2-y,-z
1/2+x,1/2-y,z
loop_
_atom_site_type_symbol
_atom_site_label
_atom_site_fract_x
_atom_site_fract_y
_atom_site_fract_z
Si Si1 0.161392 0.345586 0.261497
Si Si2 0.500000 0.251604 0.500000
Si Si3 0.617507 0.657319 0.768638
Si Si4 0.536790 0.839576 0.972994
Si Si5 0.129902 0.844724 0.328368
Si Si6 0.982650 0.649896 0.594082
O O1 0.121642 0.500000 0.241116
O O2 0.343510 0.333601 0.388068
O O3 0.113748 0.253258 0.271524
O O4 0.077547 0.296770 0.152030
O O5 0.503384 0.167799 0.551772
O O6 0.613966 0.500000 0.754252
O O7 0.492711 0.682685 0.719235
O O8 0.576663 0.742774 0.692162
O O9 0.787099 0.689902 0.909812
O O10 0.521469 0.000000 0.963626
O O11 0.500000 0.788937 0.000000
O O12 0.302568 0.829031 0.472873
O O13 0.114514 0.000000 0.302578
O O14 0.023205 0.500000 0.637794
#
# Coordination Sequence:
#
# PCOD9193329 Si02
#       6
#     8   4   8   8   8   8
#     4  10  20  34  55  80 103 133 176 217 251 301
#     4  10  20  34  54  78 106 136 168 210 264 310
#     4  10  20  35  55  76 103 140 175 209 255 308
#     4   9  18  33  52  76 105 134 168 213 260 302
#     4   9  20  36  52  75 107 139 169 210 264 308
#     4  10  20  34  53  77 106 137 171 213 258 304
#
# _framework density 17.956227999999999
#
# number of rings (size 3 to 8) (size 9 to 14) (size 15 to 20)
#    0.000    2.364    0.000    2.182    0.000    7.273 
#    0.000    0.909    0.000    2.182    0.000    0.000 
#    0.000    0.000    0.000    0.000    0.000    0.000 
#
# Total GULP energy -122706.956189 kJ/mol
# GULP energy per Si atom -5577.588918 kJ/mol
# Density = 1.791536 g / cm^3
# Si number density = 17.956228 Si / 1000 Ang^3
#
#
#
# Elastic Constant Matrix: (Units=GPa)
#
#
# Indices 1 2 3 4 5 6 
#
# 1 74.3087 35.0492 49.9916 -0.0009 -4.7594 -0.0003
# 2 35.0492 52.5132 39.8751 -0.0008 -13.4027 0.0000
# 3 49.9916 39.8751 94.4327 0.0013 -18.2978 0.0003
# 4 -0.0009 -0.0008 0.0013 15.7651 0.0003 -3.0968
# 5 -4.7594 -13.4027 -18.2978 0.0003 28.1487 0.0000
# 6 -0.0003 0.0000 0.0003 -3.0968 0.0000 19.8985
#
#
#
# Elastic Compliance Matrix: (Units=1/GPa)
#
#
# Indices 1 2 3 4 5 6 
#
# 1 0.024849 -0.010901 -0.010003 0.000002 -0.007492 0.000001
# 2 -0.010901 0.033881 -0.006598 0.000001 0.010000 0.000000
# 3 -0.010003 -0.006598 0.020290 -0.000003 0.008357 -0.000001
# 4 0.000002 0.000001 -0.000003 0.065432 -0.000002 0.010183
# 5 -0.007492 0.010000 0.008357 -0.000002 0.044453 -0.000001
# 6 0.000001 0.000000 -0.000001 0.010183 -0.000001 0.051840
#
#
# Mechanical properties :
#
#
# Convention : Reuss Voigt Hill
#
# Bulk Modulus (GPa) = 41.63965 52.34292 46.99129
# Shear Modulus (GPa) = 16.46066 19.18505 17.82285
#
# Velocity S-wave (km/s) = 3.03101 3.27224 3.15393
# Velocity P-wave (km/s) = 5.95728 6.59472 6.28409
#
# Compressibility (1/GPa) = 0.02401557
#
# Stress axis : x y z
#
# Youngs Moduli (GPa) = 40.24288 29.51504 49.28450
#
# Poissons Ratio (x) = 0.32176 0.49300
# Poissons Ratio (y) = 0.43871 0.32517
# Poissons Ratio (z) = 0.40256 0.19474
#
# Static dielectric constant tensor:
#      x y z
#    x 1.606340 0.000000 0.011790 
#    y 0.000000 1.602350 0.000000 
#    z 0.011790 0.000000 1.607000 
# 
# From -- ./inp_files/163231.got.cif
#   From: 2010.05.17/outbox.cif.g08.bks.cpg/sg12_82_cif.got.tgz:163231.got - 2010.06.03 13:09:07.
