data_PCOD9193711
_publ_section_title
;
Structure prediction by ZEFSAII (Michael W. Deem and Ramdas Pophale) SiO2 
 PCOD9193711
Probable space group: C 2/M
;
_chemical_formula_sum "Si O2"
_cell_formula_units_Z 64
_cell_length_a 25.400949
_cell_length_b 7.528095
_cell_length_c 14.994533
_cell_angle_alpha 90.000000
_cell_angle_beta 90.066252
_cell_angle_gamma 90.000000
_cell_volume 2867.264037
_symmetry_space_group_name_H-M "C 2/M"
_symmetry_group_IT_number 12
_symmetry_cell_setting 'monoclinic'
loop_
_space_group_symop_operation_xyz
x,y,z
-x,y,-z
-x,-y,-z
x,-y,z
1/2+x,1/2+y,z
1/2-x,1/2+y,-z
1/2-x,1/2-y,-z
1/2+x,1/2-y,z
loop_
_atom_site_type_symbol
_atom_site_label
_atom_site_fract_x
_atom_site_fract_y
_atom_site_fract_z
Si Si1 0.377458 0.715486 0.917922
Si Si2 0.336351 0.292893 0.506049
Si Si3 0.745566 0.215800 0.637296
Si Si4 0.552169 0.718423 0.551647
Si Si5 0.076677 0.204868 0.749456
Si Si6 0.993876 0.706916 0.898943
Si Si7 0.154743 0.212144 0.890376
Si Si8 0.267603 0.287039 0.836399
O O1 0.377473 0.500000 0.917320
O O2 0.432254 0.775063 0.876246
O O3 0.323914 0.777682 0.870644
O O4 0.373822 0.777549 0.020590
O O5 0.341659 0.500000 0.528705
O O6 0.307642 0.276986 0.410513
O O7 0.294492 0.219033 0.576730
O O8 0.394899 0.220869 0.498552
O O9 0.753534 0.277962 0.737567
O O10 0.744896 0.000000 0.635743
O O11 0.500000 0.776222 0.500000
O O12 0.551363 0.500000 0.551466
O O13 0.557624 0.778614 0.654691
O O14 0.127222 0.285327 0.800935
O O15 0.030781 0.209583 0.823860
O O16 0.090016 0.000000 0.730065
O O17 0.008367 0.500000 0.902225
O O18 0.000000 0.781201 0.000000
O O19 0.216781 0.245452 0.895644
O O20 0.147460 0.000000 0.888932
O O21 0.271671 0.500000 0.832311
#
# Coordination Sequence:
#
# PCOD9193711 Si02
#       8
#     8   8   8   8   8   8   8   8
#     4  10  21  37  56  78 107 142 179 221 268 321
#     4   9  17  32  54  75 101 135 175 218 260 309
#     4   9  18  32  51  77 105 135 172 215 262 313
#     4   9  18  32  53  82 109 137 178 225 268 313
#     4  10  20  35  58  83 108 143 185 226 272 323
#     4  11  23  38  57  81 108 140 182 228 273 322
#     4  10  20  34  54  79 107 141 181 221 264 316
#     4  10  21  34  51  79 111 142 176 215 267 322
#
# _framework density 22.320930000000001
#
# number of rings (size 3 to 8) (size 9 to 14) (size 15 to 20)
#    0.000    2.250    1.250    1.500    0.000    4.500 
#    0.000    4.375    0.000    4.500    0.000    0.000 
#    0.000    0.000    0.000    0.000    0.000    0.000 
#
# Total GULP energy -178753.866289 kJ/mol
# GULP energy per Si atom -5586.058322 kJ/mol
# Density = 2.227013 g / cm^3
# Si number density = 22.320930 Si / 1000 Ang^3
#
#
#
# Elastic Constant Matrix: (Units=GPa)
#
#
# Indices 1 2 3 4 5 6 
#
# 1 157.5045 -8.9436 16.1409 0.0000 11.8620 0.0000
# 2 -8.9436 57.7601 -4.1137 0.0000 1.7497 0.0000
# 3 16.1409 -4.1137 37.8930 0.0000 5.8541 0.0000
# 4 0.0000 0.0000 0.0000 8.0526 0.0000 0.5544
# 5 11.8620 1.7497 5.8541 0.0000 27.1117 0.0000
# 6 0.0000 0.0000 0.0000 0.5544 0.0000 3.9054
#
#
#
# Elastic Compliance Matrix: (Units=1/GPa)
#
#
# Indices 1 2 3 4 5 6 
#
# 1 0.006842 0.000964 -0.002419 0.000000 -0.002534 0.000000
# 2 0.000964 0.017650 0.001807 0.000000 -0.001951 0.000000
# 3 -0.002419 0.001807 0.028419 0.000000 -0.005195 0.000000
# 4 0.000000 0.000000 0.000000 0.125410 0.000000 -0.017804
# 5 -0.002534 -0.001951 -0.005195 0.000000 0.039241 0.000000
# 6 0.000000 0.000000 0.000000 -0.017804 0.000000 0.258581
#
#
# Mechanical properties :
#
#
# Convention : Reuss Voigt Hill
#
# Bulk Modulus (GPa) = 18.65106 28.81386 23.73246
# Shear Modulus (GPa) = 10.13562 24.48553 17.31058
#
# Velocity S-wave (km/s) = 2.13324 3.31566 2.78786
# Velocity P-wave (km/s) = 3.80021 5.25310 4.58457
#
# Compressibility (1/GPa) = 0.05361625
#
# Stress axis : x y z
#
# Youngs Moduli (GPa) = 146.14692 56.65709 35.18767
#
# Poissons Ratio (x) = -0.05462 0.08510
# Poissons Ratio (y) = -0.14088 -0.06358
# Poissons Ratio (z) = 0.35346 -0.10237
#
# Static dielectric constant tensor:
#      x y z
#    x 1.805550 0.000000 0.009800 
#    y 0.000000 1.848170 0.000000 
#    z 0.009800 0.000000 1.820570 
# 
# From -- ./inp_files/238622.got.cif
#   From: 2010.05.17/outbox.cif.g08.bks.cpg/sg12_120_cif.got.tgz:238622.got - 2010.06.03 13:09:07.
