data_PCOD9193771
_publ_section_title
;
Structure prediction by ZEFSAII (Michael W. Deem and Ramdas Pophale) SiO2 
 PCOD9193771
Probable space group: C 2/M
;
_chemical_formula_sum "Si O2"
_cell_formula_units_Z 56
_cell_length_a 9.921944
_cell_length_b 20.748132
_cell_length_c 14.481712
_cell_angle_alpha 90.000000
_cell_angle_beta 89.110065
_cell_angle_gamma 90.000000
_cell_volume 2980.871747
_symmetry_space_group_name_H-M "C 2/M"
_symmetry_group_IT_number 12
_symmetry_cell_setting 'monoclinic'
loop_
_space_group_symop_operation_xyz
x,y,z
-x,y,-z
-x,-y,-z
x,-y,z
1/2+x,1/2+y,z
1/2-x,1/2+y,-z
1/2-x,1/2-y,-z
1/2+x,1/2-y,z
loop_
_atom_site_type_symbol
_atom_site_label
_atom_site_fract_x
_atom_site_fract_y
_atom_site_fract_z
Si Si1 0.755009 0.929182 0.398996
Si Si2 0.507363 0.393180 0.733768
Si Si3 0.884239 0.928502 0.925264
Si Si4 0.504425 0.837068 0.393487
Si Si5 0.250182 0.208578 0.093965
Si Si6 0.507931 0.748871 0.785091
Si Si7 0.237758 0.923916 0.389651
O O1 0.642654 0.876261 0.381933
O O2 0.806732 0.920646 0.502986
O O3 0.876721 0.925850 0.326690
O O4 0.689836 0.000000 0.396328
O O5 0.460671 0.428067 0.826686
O O6 0.558596 0.322989 0.762675
O O7 0.373102 0.390251 0.672764
O O8 0.787245 0.866217 0.925485
O O9 0.822747 0.000000 0.940149
O O10 0.000000 0.918369 0.000000
O O11 0.500000 0.812036 0.500000
O O12 0.499479 0.785307 0.312232
O O13 0.379327 0.886471 0.383000
O O14 0.390607 0.215862 0.146225
O O15 0.134462 0.237394 0.162436
O O16 0.250000 0.250000 0.000000
O O17 0.249348 0.000000 0.364862
#
# Coordination Sequence:
#
# PCOD9193771 Si02
#       7
#     8   8   8   8   8   8   8
#     4  10  20  34  54  80 109 144 187 232 279 330
#     4  11  21  35  55  81 110 142 183 234 279 323
#     4  10  21  37  59  87 115 144 183 231 285 340
#     4  10  21  36  53  77 114 152 183 226 279 334
#     4  11  22  41  65  86 113 150 189 236 287 339
#     4  11  23  38  58  85 113 147 193 228 276 346
#     4  10  20  35  55  78 107 148 192 229 275 334
#
# _framework density 18.786449000000001
#
# number of rings (size 3 to 8) (size 9 to 14) (size 15 to 20)
#    0.000    1.571    0.000    6.857    0.000    4.000 
#    0.000    4.286    0.000    2.571    0.000    0.000 
#    0.000    0.000    0.000    0.000    0.000    0.000 
#
# Total GULP energy -156327.570408 kJ/mol
# GULP energy per Si atom -5583.127515 kJ/mol
# Density = 1.874369 g / cm^3
# Si number density = 18.786449 Si / 1000 Ang^3
#
#
#
# Elastic Constant Matrix: (Units=GPa)
#
#
# Indices 1 2 3 4 5 6 
#
# 1 47.9416 9.5468 6.4055 0.0000 3.7365 0.0000
# 2 9.5468 109.1776 35.0820 0.0000 10.6393 0.0000
# 3 6.4055 35.0820 69.8411 0.0000 -1.1675 0.0000
# 4 0.0000 0.0000 0.0000 37.5600 0.0000 8.0916
# 5 3.7365 10.6393 -1.1675 0.0000 31.9489 0.0000
# 6 0.0000 0.0000 0.0000 8.0916 0.0000 21.9239
#
#
#
# Elastic Compliance Matrix: (Units=1/GPa)
#
#
# Indices 1 2 3 4 5 6 
#
# 1 0.021455 -0.001219 -0.001391 0.000000 -0.002154 0.000000
# 2 -0.001219 0.011484 -0.005722 0.000000 -0.003891 0.000000
# 3 -0.001391 -0.005722 0.017365 0.000000 0.002703 0.000000
# 4 0.000000 0.000000 0.000000 0.028924 0.000000 -0.010675
# 5 -0.002154 -0.003891 0.002703 0.000000 0.032946 0.000000
# 6 0.000000 0.000000 0.000000 -0.010675 0.000000 0.049552
#
#
# Mechanical properties :
#
#
# Convention : Reuss Voigt Hill
#
# Bulk Modulus (GPa) = 29.72672 36.55875 33.14274
# Shear Modulus (GPa) = 26.37077 30.01497 28.19287
#
# Velocity S-wave (km/s) = 3.75068 4.00145 3.87809
# Velocity P-wave (km/s) = 5.88342 6.39150 6.14271
#
# Compressibility (1/GPa) = 0.03363977
#
# Stress axis : x y z
#
# Youngs Moduli (GPa) = 46.60857 87.08033 57.58696
#
# Poissons Ratio (x) = 0.10616 0.08013
# Poissons Ratio (y) = 0.05682 0.32949
# Poissons Ratio (z) = 0.06485 0.49824
#
# Static dielectric constant tensor:
#      x y z
#    x 1.622160 0.000000 0.009110 
#    y 0.000000 1.644970 0.000000 
#    z 0.009110 0.000000 1.667590 
# 
# From -- ./inp_files/197503.got.cif
#   From: 2010.05.17/outbox.cif.g08.bks.cpg/sg12_99_cif.got.tgz:197503.got - 2010.06.03 13:09:07.
