data_PCOD9193332
_publ_section_title
;
Structure prediction by ZEFSAII (Michael W. Deem and Ramdas Pophale) SiO2 
 PCOD9193332
Probable space group: C 2/M
;
_chemical_formula_sum "Si O2"
_cell_formula_units_Z 64
_cell_length_a 20.864378
_cell_length_b 7.559834
_cell_length_c 23.927561
_cell_angle_alpha 90.000000
_cell_angle_beta 137.198841
_cell_angle_gamma 90.000000
_cell_volume 2564.351564
_symmetry_space_group_name_H-M "C 2/M"
_symmetry_group_IT_number 12
_symmetry_cell_setting 'monoclinic'
loop_
_space_group_symop_operation_xyz
x,y,z
-x,y,-z
-x,-y,-z
x,-y,z
1/2+x,1/2+y,z
1/2-x,1/2+y,-z
1/2-x,1/2-y,-z
1/2+x,1/2-y,z
loop_
_atom_site_type_symbol
_atom_site_label
_atom_site_fract_x
_atom_site_fract_y
_atom_site_fract_z
Si Si1 0.424613 0.789846 0.733194
Si Si2 0.801584 0.217447 0.805399
Si Si3 0.525643 0.288202 0.690455
Si Si4 0.957183 0.204886 0.528564
Si Si5 0.221062 0.701734 0.643519
Si Si6 0.723541 0.796813 0.871342
Si Si7 0.878399 0.289948 0.088187
Si Si8 0.509183 0.287670 0.941958
O O1 0.441291 0.752190 0.678902
O O2 0.328441 0.706427 0.692016
O O3 0.520842 0.720766 0.823706
O O4 0.420036 0.000000 0.739774
O O5 0.726790 0.277010 0.710630
O O6 0.782110 0.279114 0.856257
O O7 0.906813 0.270642 0.853439
O O8 0.798928 0.000000 0.804912
O O9 0.541747 0.500000 0.700141
O O10 0.495863 0.219682 0.610731
O O11 0.619065 0.201928 0.776242
O O12 0.846101 0.209628 0.444725
O O13 0.000000 0.286183 0.500000
O O14 0.986716 0.000000 0.549231
O O15 0.189983 0.500000 0.628009
O O16 0.701203 0.717343 0.919276
O O17 0.755992 0.000000 0.899954
O O18 0.874362 0.500000 0.094462
O O19 0.899223 0.264903 0.035449
O O20 0.510469 0.500000 0.943365
O O21 0.500000 0.227927 0.000000
#
# Coordination Sequence:
#
# PCOD9193332 Si02
#       8
#     8   8   8   8   8   8   8   8
#     4  10  20  35  55  78 105 141 179 219 272 325
#     4   9  18  34  55  81 109 139 181 226 266 319
#     4  10  20  34  53  77 106 139 179 224 270 319
#     4  10  22  38  52  71 105 144 178 221 279 331
#     4  11  21  33  55  81 104 137 182 231 273 313
#     4   9  18  34  56  79 107 144 183 222 270 321
#     4   9  18  33  54  79 106 141 177 216 267 321
#     4  10  20  35  57  82 110 144 178 218 268 320
#
# _framework density 24.957577000000001
#
# number of rings (size 3 to 8) (size 9 to 14) (size 15 to 20)
#    0.000    2.250    1.250    2.625    0.000    4.000 
#    0.000    1.875    0.000    0.000    0.000    0.000 
#    0.000    0.000    0.000    0.000    0.000    0.000 
#
# Total GULP energy -178728.329879 kJ/mol
# GULP energy per Si atom -5585.260309 kJ/mol
# Density = 2.490077 g / cm^3
# Si number density = 24.957577 Si / 1000 Ang^3
#
#
#
# Elastic Constant Matrix: (Units=GPa)
#
#
# Indices 1 2 3 4 5 6 
#
# 1 181.0802 -1.3516 33.4554 0.0000 -14.5297 -0.0001
# 2 -1.3516 80.2023 0.1110 -0.0001 0.8621 -0.0001
# 3 33.4554 0.1110 86.1114 0.0000 -28.6975 0.0000
# 4 0.0000 -0.0001 0.0000 11.7428 0.0000 2.8130
# 5 -14.5297 0.8621 -28.6975 0.0000 49.3991 0.0000
# 6 -0.0001 -0.0001 0.0000 2.8130 0.0000 16.6447
#
#
#
# Elastic Compliance Matrix: (Units=1/GPa)
#
#
# Indices 1 2 3 4 5 6 
#
# 1 0.005960 0.000098 -0.002148 0.000000 0.000504 0.000000
# 2 0.000098 0.012473 -0.000145 0.000000 -0.000273 0.000000
# 3 -0.002148 -0.000145 0.015176 0.000000 0.008187 0.000000
# 4 0.000000 0.000000 0.000000 0.088752 0.000000 -0.014999
# 5 0.000504 -0.000273 0.008187 0.000000 0.025152 0.000000
# 6 0.000000 0.000000 0.000000 -0.014999 0.000000 0.062614
#
#
# Mechanical properties :
#
#
# Convention : Reuss Voigt Hill
#
# Bulk Modulus (GPa) = 34.22405 45.75818 39.99111
# Shear Modulus (GPa) = 22.29579 36.56925 29.43252
#
# Velocity S-wave (km/s) = 2.99213 3.83202 3.43782
# Velocity P-wave (km/s) = 5.06753 6.16063 5.64062
#
# Compressibility (1/GPa) = 0.02921922
#
# Stress axis : x y z
#
# Youngs Moduli (GPa) = 167.77376 80.17149 65.89366
#
# Poissons Ratio (x) = -0.00786 0.14154
# Poissons Ratio (y) = -0.01644 0.00957
# Poissons Ratio (z) = 0.36038 0.01164
#
# Static dielectric constant tensor:
#      x y z
#    x 2.011670 0.000000 -0.033350 
#    y 0.000000 1.937670 0.000000 
#    z -0.033350 0.000000 2.079420 
# 
# From -- ./inp_files/346155.got.cif
#   From: 2010.05.17/outbox.cif.g08.bks.cpg/sg12_174_cif.got.tgz:346155.got - 2010.06.03 13:09:07.
