data_PCOD9193775
_publ_section_title
;
Structure prediction by ZEFSAII (Michael W. Deem and Ramdas Pophale) SiO2 
 PCOD9193775
Probable space group: C 2/M
;
_chemical_formula_sum "Si O2"
_cell_formula_units_Z 64
_cell_length_a 27.504790
_cell_length_b 13.284461
_cell_length_c 16.320928
_cell_angle_alpha 90.000000
_cell_angle_beta 37.403604
_cell_angle_gamma 90.000000
_cell_volume 3622.349586
_symmetry_space_group_name_H-M "C 2/M"
_symmetry_group_IT_number 12
_symmetry_cell_setting 'monoclinic'
loop_
_space_group_symop_operation_xyz
x,y,z
-x,y,-z
-x,-y,-z
x,-y,z
1/2+x,1/2+y,z
1/2-x,1/2+y,-z
1/2-x,1/2-y,-z
1/2+x,1/2-y,z
loop_
_atom_site_type_symbol
_atom_site_label
_atom_site_fract_x
_atom_site_fract_y
_atom_site_fract_z
Si Si1 0.437435 0.884264 0.411840
Si Si2 0.411165 0.768701 0.141585
Si Si3 0.310653 0.787670 0.702916
Si Si4 0.612600 0.706836 0.639273
Si Si5 0.862954 0.119944 0.064870
Si Si6 0.755506 0.121217 0.650027
Si Si7 0.459444 0.614707 0.778035
Si Si8 0.940628 0.736203 0.656133
O O1 0.370796 0.854636 0.568013
O O2 0.416034 0.810421 0.365845
O O3 0.521614 0.856338 0.342801
O O4 0.434008 0.000000 0.393529
O O5 0.399874 0.723910 0.247975
O O6 0.398006 0.677465 0.095792
O O7 0.338121 0.847433 0.227337
O O8 0.500000 0.808891 0.000000
O O9 0.228489 0.846963 0.819731
O O10 0.294281 0.683280 0.675032
O O11 0.354133 0.774050 0.731472
O O12 0.698800 0.669913 0.490354
O O13 0.550681 0.625943 0.685287
O O14 0.871808 0.000000 0.060729
O O15 0.907966 0.155507 0.922744
O O16 0.765248 0.000000 0.640674
O O17 0.437533 0.500000 0.794960
O O18 0.445906 0.674265 0.713328
O O19 0.000000 0.754354 0.500000
#
# Coordination Sequence:
#
# PCOD9193775 Si02
#       8
#     8   8   8   8   8   8   8   8
#     4   9  18  33  55  83 112 142 182 226 272 327
#     4  11  22  39  59  81 113 147 185 235 282 337
#     4   9  19  35  55  79 112 146 179 231 275 323
#     4  10  20  37  57  82 113 146 183 232 282 323
#     4  10  21  35  54  81 108 142 185 227 280 334
#     4  10  22  38  57  82 111 148 190 230 279 334
#     4  10  20  34  54  80 110 143 181 227 277 329
#     4   9  19  33  53  81 108 141 182 223 276 327
#
# _framework density 17.668091
#
# number of rings (size 3 to 8) (size 9 to 14) (size 15 to 20)
#    0.000    2.250    1.250    1.875    0.000    6.000 
#    0.000    0.000    0.000    0.000    0.000    0.000 
#    0.000    0.000    0.000    0.000    0.000    0.000 
#
# Total GULP energy -178343.592532 kJ/mol
# GULP energy per Si atom -5573.237267 kJ/mol
# Density = 1.762788 g / cm^3
# Si number density = 17.668091 Si / 1000 Ang^3
#
#
#
# Elastic Constant Matrix: (Units=GPa)
#
#
# Indices 1 2 3 4 5 6 
#
# 1 67.1957 18.3445 22.3841 0.0000 0.2179 0.0000
# 2 18.3445 79.2681 17.5090 0.0000 13.3264 0.0000
# 3 22.3841 17.5090 64.2576 0.0000 -1.7719 0.0000
# 4 0.0000 0.0000 0.0000 13.9774 0.0000 -6.2443
# 5 0.2179 13.3264 -1.7719 0.0000 33.7153 0.0000
# 6 0.0000 0.0000 0.0000 -6.2443 0.0000 -4.3050
#
#
#
# Elastic Compliance Matrix: (Units=1/GPa)
#
#
# Indices 1 2 3 4 5 6 
#
# 1 0.017446 -0.003017 -0.005233 0.000000 0.000805 0.000000
# 2 -0.003017 0.015050 -0.003218 0.000000 -0.006098 0.000000
# 3 -0.005233 -0.003218 0.018325 0.000000 0.002269 0.000000
# 4 0.000000 0.000000 0.000000 0.043413 0.000000 -0.062969
# 5 0.000805 -0.006098 0.002269 0.000000 0.032185 0.000000
# 6 0.000000 0.000000 0.000000 -0.062969 0.000000 -0.140952
#
#
# Mechanical properties :
#
#
# Convention : Reuss Voigt Hill
#
# Bulk Modulus (GPa) = 35.86212 36.35518 36.10865
# Shear Modulus (GPa) = 282.53951 18.84312 150.69131
#
# Velocity S-wave (km/s) = 12.65947 3.26928 9.24528
# Velocity P-wave (km/s) = 15.29787 5.90528 11.59520
#
# Compressibility (1/GPa) = 0.02788458
#
# Stress axis : x y z
#
# Youngs Moduli (GPa) = 57.31934 66.44700 54.57109
#
# Poissons Ratio (x) = 0.20046 0.28558
# Poissons Ratio (y) = 0.17292 0.17561
# Poissons Ratio (z) = 0.29996 0.21383
#
# Static dielectric constant tensor:
#      x y z
#    x 1.616810 0.000000 -0.026250 
#    y 0.000000 1.577360 0.000000 
#    z -0.026250 0.000000 1.615910 
# 
# From -- ./inp_files/245949.got.cif
#   From: 2010.05.17/outbox.cif.g08.bks.cpg/sg12_123_cif.got.tgz:245949.got - 2010.06.03 13:09:07.
