data_PCOD9193423
_publ_section_title
;
Structure prediction by ZEFSAII (Michael W. Deem and Ramdas Pophale) SiO2 
 PCOD9193423
Probable space group: C 2/M
;
_chemical_formula_sum "Si O2"
_cell_formula_units_Z 64
_cell_length_a 17.965400
_cell_length_b 14.092252
_cell_length_c 14.705475
_cell_angle_alpha 90.000000
_cell_angle_beta 60.557357
_cell_angle_gamma 90.000000
_cell_volume 3242.192616
_symmetry_space_group_name_H-M "C 2/M"
_symmetry_group_IT_number 12
_symmetry_cell_setting 'monoclinic'
loop_
_space_group_symop_operation_xyz
x,y,z
-x,y,-z
-x,-y,-z
x,-y,z
1/2+x,1/2+y,z
1/2-x,1/2+y,-z
1/2-x,1/2-y,-z
1/2+x,1/2-y,z
loop_
_atom_site_type_symbol
_atom_site_label
_atom_site_fract_x
_atom_site_fract_y
_atom_site_fract_z
Si Si1 0.396114 0.393110 0.948940
Si Si2 0.466695 0.104416 0.623295
Si Si3 0.765511 0.612902 0.077684
Si Si4 0.581100 0.695653 0.384754
Si Si5 0.023706 0.896359 0.705903
Si Si6 0.755305 0.385719 0.294866
Si Si7 0.554241 0.804760 0.049459
Si Si8 0.579763 0.804556 0.705035
O O1 0.383104 0.500000 0.995143
O O2 0.313111 0.361340 0.940353
O O3 0.474668 0.400341 0.831291
O O4 0.418990 0.302633 0.996003
O O5 0.500000 0.098617 0.500000
O O6 0.406479 0.197519 0.661168
O O7 0.544439 0.132113 0.643492
O O8 0.431915 0.000000 0.668850
O O9 0.760854 0.500000 0.085484
O O10 0.759773 0.646101 0.185880
O O11 0.857339 0.642768 0.985375
O O12 0.500000 0.698828 0.500000
O O13 0.550905 0.626898 0.321828
O O14 0.664502 0.654570 0.381865
O O15 0.084719 0.805039 0.669784
O O16 0.061676 0.000000 0.664147
O O17 0.757333 0.500000 0.297674
O O18 0.834048 0.343401 0.303204
O O19 0.494286 0.805958 0.173578
O O20 0.500000 0.849118 0.000000
#
# Coordination Sequence:
#
# PCOD9193423 Si02
#       8
#     8   8   8   8   8   8   8   8
#     4   9  18  34  54  75 105 153 195 224 271 330
#     4   9  19  39  63  84 111 149 187 225 277 341
#     4  10  20  34  53  78 110 149 189 229 277 329
#     4  10  20  35  59  87 108 136 185 236 281 335
#     4   9  17  33  55  78 109 147 186 231 282 331
#     4  11  21  35  56  82 115 148 182 232 290 339
#     4  11  21  34  54  82 117 148 185 235 276 322
#     4  10  21  36  57  84 114 152 192 229 281 341
#
# _framework density 19.739726999999998
#
# number of rings (size 3 to 8) (size 9 to 14) (size 15 to 20)
#    0.000    2.125    2.500    1.125    0.000    2.500 
#    0.000    6.250    0.000    3.000    0.000    0.000 
#    0.000    0.000    0.000    0.000    0.000    0.000 
#
# Total GULP energy -178390.474048 kJ/mol
# GULP energy per Si atom -5574.702314 kJ/mol
# Density = 1.969480 g / cm^3
# Si number density = 19.739727 Si / 1000 Ang^3
#
#
#
# Elastic Constant Matrix: (Units=GPa)
#
#
# Indices 1 2 3 4 5 6 
#
# 1 124.8663 48.1856 19.7785 0.0000 -10.7155 0.0000
# 2 48.1856 77.0429 12.3122 0.0000 -3.6305 0.0000
# 3 19.7785 12.3122 33.5190 0.0000 -4.6171 0.0000
# 4 0.0000 0.0000 0.0000 156.3567 0.0000 119.4107
# 5 -10.7155 -3.6305 -4.6171 0.0000 20.6019 0.0000
# 6 0.0000 0.0000 0.0000 119.4107 0.0000 106.8473
#
#
#
# Elastic Compliance Matrix: (Units=1/GPa)
#
#
# Indices 1 2 3 4 5 6 
#
# 1 0.011401 -0.006328 -0.003859 0.000000 0.003950 0.000000
# 2 -0.006328 0.017337 -0.002752 0.000000 -0.000853 0.000000
# 3 -0.003859 -0.002752 0.033822 0.000000 0.005088 0.000000
# 4 0.000000 0.000000 0.000000 0.043658 0.000000 -0.048791
# 5 0.003950 -0.000853 0.005088 0.000000 0.051584 0.000000
# 6 0.000000 0.000000 0.000000 -0.048791 0.000000 0.063888
#
#
# Mechanical properties :
#
#
# Convention : Reuss Voigt Hill
#
# Bulk Modulus (GPa) = 27.26037 43.99785 35.62911
# Shear Modulus (GPa) = 19.24607 67.10464 43.17536
#
# Velocity S-wave (km/s) = 3.12587 5.83682 4.68186
# Velocity P-wave (km/s) = 5.18343 8.23177 6.87859
#
# Compressibility (1/GPa) = 0.03668329
#
# Stress axis : x y z
#
# Youngs Moduli (GPa) = 87.71523 57.68054 29.56617
#
# Poissons Ratio (x) = 0.36498 0.11409
# Poissons Ratio (y) = 0.55502 0.08136
# Poissons Ratio (z) = 0.33848 0.15873
#
# Static dielectric constant tensor:
#      x y z
#    x 1.678770 0.000000 0.008360 
#    y 0.000000 1.751240 0.000000 
#    z 0.008360 0.000000 1.719000 
# 
# From -- ./inp_files/225239.got.cif
#   From: 2010.05.17/outbox.cif.g08.bks.cpg/sg12_113_cif.got.tgz:225239.got - 2010.06.03 13:09:07.
