data_PCOD9193060
_publ_section_title
;
Structure prediction by ZEFSAII (Michael W. Deem and Ramdas Pophale) SiO2 
 PCOD9193060
Probable space group: C 2/M
;
_chemical_formula_sum "Si O2"
_cell_formula_units_Z 48
_cell_length_a 19.724239
_cell_length_b 7.392870
_cell_length_c 12.678591
_cell_angle_alpha 90.000000
_cell_angle_beta 100.250142
_cell_angle_gamma 90.000000
_cell_volume 1819.270106
_symmetry_space_group_name_H-M "C 2/M"
_symmetry_group_IT_number 12
_symmetry_cell_setting 'monoclinic'
loop_
_space_group_symop_operation_xyz
x,y,z
-x,y,-z
-x,-y,-z
x,-y,z
1/2+x,1/2+y,z
1/2-x,1/2+y,-z
1/2-x,1/2-y,-z
1/2+x,1/2-y,z
loop_
_atom_site_type_symbol
_atom_site_label
_atom_site_fract_x
_atom_site_fract_y
_atom_site_fract_z
Si Si1 0.699166 0.215309 0.385889
Si Si2 0.384616 0.212422 0.284535
Si Si3 0.611155 0.278792 0.049139
Si Si4 0.923952 0.278999 0.515050
Si Si5 0.250180 0.206828 0.166049
Si Si6 0.993970 0.783397 0.161938
O O1 0.750000 0.250000 0.500000
O O2 0.621964 0.279443 0.398337
O O3 0.724570 0.293519 0.281444
O O4 0.696693 0.000000 0.370741
O O5 0.379640 0.281196 0.400921
O O6 0.325972 0.292529 0.192759
O O7 0.462143 0.229330 0.263787
O O8 0.370307 0.000000 0.286041
O O9 0.612339 0.500000 0.048561
O O10 0.688712 0.211730 0.080277
O O11 0.567293 0.221273 0.140078
O O12 0.563937 0.221217 0.938522
O O13 0.926327 0.500000 0.519734
O O14 0.000000 0.219075 0.500000
O O15 0.256751 0.000000 0.131716
O O16 0.994813 0.000000 0.159541
#
# Coordination Sequence:
#
# PCOD9193060 Si02
#       6
#     8   8   8   8   8   8
#     4  11  21  36  57  79 105 141 176 214 258 308
#     4  10  20  34  52  76 106 139 171 213 266 310
#     4   8  17  35  57  76 103 140 174 212 264 316
#     4   9  19  35  52  73 105 142 173 204 257 317
#     4  10  20  36  55  77 105 140 177 214 260 310
#     4   9  18  35  56  78 103 137 176 214 260 315
#
# _framework density 26.384207
#
# number of rings (size 3 to 8) (size 9 to 14) (size 15 to 20)
#    0.000    2.500    1.667    1.500    2.333    1.333 
#    0.000    2.500    0.000    2.500    0.000    0.000 
#    0.000    0.000    0.000    0.000    0.000    0.000 
#
# Total GULP energy -134126.472081 kJ/mol
# GULP energy per Si atom -5588.603003 kJ/mol
# Density = 2.632416 g / cm^3
# Si number density = 26.384207 Si / 1000 Ang^3
#
#
#
# Elastic Constant Matrix: (Units=GPa)
#
#
# Indices 1 2 3 4 5 6 
#
# 1 127.7516 2.2905 -3.5122 0.0000 -12.6001 0.0000
# 2 2.2905 107.3065 -5.4883 0.0000 2.6961 0.0000
# 3 -3.5122 -5.4883 59.5151 0.0000 -14.2637 0.0000
# 4 0.0000 0.0000 0.0000 8.1474 0.0000 -9.3118
# 5 -12.6001 2.6961 -14.2637 0.0000 49.5027 0.0000
# 6 0.0000 0.0000 0.0000 -9.3118 0.0000 9.4751
#
#
#
# Elastic Compliance Matrix: (Units=1/GPa)
#
#
# Indices 1 2 3 4 5 6 
#
# 1 0.008093 -0.000180 0.001028 0.000000 0.002366 0.000000
# 2 -0.000180 0.009371 0.000774 0.000000 -0.000333 0.000000
# 3 0.001028 0.000774 0.018247 0.000000 0.005477 0.000000
# 4 0.000000 0.000000 0.000000 -0.996242 0.000000 -0.979065
# 5 0.002366 -0.000333 0.005477 0.000000 0.022399 0.000000
# 6 0.000000 0.000000 0.000000 -0.979065 0.000000 -0.856644
#
#
# Mechanical properties :
#
#
# Convention : Reuss Voigt Hill
#
# Bulk Modulus (GPa) = 25.67079 31.23927 28.45503
# Shear Modulus (GPa) = -2.80106 33.51061 15.35477
#
# Velocity S-wave (km/s) = -1.03148 3.56771 2.41502
# Velocity P-wave (km/s) = 2.88654 5.37004 4.31100
#
# Compressibility (1/GPa) = 0.03895477
#
# Stress axis : x y z
#
# Youngs Moduli (GPa) = 123.57107 106.71364 54.80297
#
# Poissons Ratio (x) = 0.01917 -0.05634
# Poissons Ratio (y) = 0.02219 -0.04240
# Poissons Ratio (z) = -0.12703 -0.08256
#
# Static dielectric constant tensor:
#      x y z
#    x 2.095260 0.000000 0.055680 
#    y 0.000000 1.969380 0.000000 
#    z 0.055680 0.000000 2.083220 
# 
# From -- ./inp_files/221525.got.cif
#   From: 2010.05.17/outbox.cif.g08.bks.cpg/sg12_111_cif.got.tgz:221525.got - 2010.06.03 13:09:07.
