data_PCOD9193739
_publ_section_title
;
Structure prediction by ZEFSAII (Michael W. Deem and Ramdas Pophale) SiO2 
 PCOD9193739
Probable space group: C 2/M
;
_chemical_formula_sum "Si O2"
_cell_formula_units_Z 56
_cell_length_a 14.910187
_cell_length_b 7.532448
_cell_length_c 22.893277
_cell_angle_alpha 90.000000
_cell_angle_beta 88.517378
_cell_angle_gamma 90.000000
_cell_volume 2570.287934
_symmetry_space_group_name_H-M "C 2/M"
_symmetry_group_IT_number 12
_symmetry_cell_setting 'monoclinic'
loop_
_space_group_symop_operation_xyz
x,y,z
-x,y,-z
-x,-y,-z
x,-y,z
1/2+x,1/2+y,z
1/2-x,1/2+y,-z
1/2-x,1/2-y,-z
1/2+x,1/2-y,z
loop_
_atom_site_type_symbol
_atom_site_label
_atom_site_fract_x
_atom_site_fract_y
_atom_site_fract_z
Si Si1 0.144402 0.211250 0.557370
Si Si2 0.505656 0.786971 0.346270
Si Si3 0.344326 0.207667 0.571065
Si Si4 0.518958 0.782620 0.214474
Si Si5 0.820977 0.714778 0.865403
Si Si6 0.887952 0.291062 0.115284
Si Si7 0.356157 0.212319 0.990333
O O1 0.079521 0.251967 0.611677
O O2 0.244290 0.284057 0.568022
O O3 0.114122 0.279444 0.494466
O O4 0.149617 0.000000 0.550753
O O5 0.591035 0.715658 0.380871
O O6 0.499530 0.720401 0.280239
O O7 0.514871 0.000000 0.342353
O O8 0.333453 0.000000 0.584987
O O9 0.618028 0.732695 0.190141
O O10 0.447837 0.719783 0.166997
O O11 0.515235 0.000000 0.214968
O O12 0.817604 0.500000 0.867390
O O13 0.718031 0.775842 0.868137
O O14 0.871872 0.775281 0.924086
O O15 0.909776 0.500000 0.110744
O O16 0.900960 0.217324 0.049057
O O17 0.370896 0.000000 0.989815
O O18 0.250000 0.250000 0.000000
#
# Coordination Sequence:
#
# PCOD9193739 Si02
#       7
#     8   8   8   8   8   8   8
#     4  10  20  34  54  80 103 123 156 202 243 279
#     4  10  20  35  52  70  98 135 167 194 233 288
#     4   9  19  35  54  75 100 130 160 192 238 291
#     4   9  19  33  49  70  96 130 169 200 233 285
#     4   9  17  31  50  71  95 126 164 203 242 288
#     4   9  17  31  49  70  97 126 158 202 251 290
#     4   8  14  25  45  70  93 119 155 200 247 289
#
# _framework density 21.787441999999999
#
# number of rings (size 3 to 8) (size 9 to 14) (size 15 to 20)
#    0.000    2.857    0.000    0.857    0.000    4.571 
#    0.000    6.429    0.000    0.000    0.000   10.000 
#    0.000    0.000    0.000    0.000    0.000    0.000 
#
# Total GULP energy -156204.906136 kJ/mol
# GULP energy per Si atom -5578.746648 kJ/mol
# Density = 2.173785 g / cm^3
# Si number density = 21.787442 Si / 1000 Ang^3
#
#
#
# Elastic Constant Matrix: (Units=GPa)
#
#
# Indices 1 2 3 4 5 6 
#
# 1 61.6682 1.6728 70.5732 0.0000 -17.7100 0.0000
# 2 1.6728 66.0782 35.7034 0.0000 -37.4382 0.0000
# 3 70.5732 35.7034 296.8734 0.0000 -179.6161 0.0000
# 4 0.0000 0.0000 0.0000 7.6191 0.0000 -3.3741
# 5 -17.7100 -37.4382 -179.6161 0.0000 208.6869 0.0000
# 6 0.0000 0.0000 0.0000 -3.3741 0.0000 10.8356
#
#
#
# Elastic Compliance Matrix: (Units=1/GPa)
#
#
# Indices 1 2 3 4 5 6 
#
# 1 0.025967 0.001252 -0.010129 0.000000 -0.006290 0.000000
# 2 0.001252 0.016930 -0.000901 0.000000 0.002368 0.000000
# 3 -0.010129 -0.000901 0.010989 0.000000 0.008437 0.000000
# 4 0.000000 0.000000 0.000000 0.152243 0.000000 0.047407
# 5 -0.006290 0.002368 0.008437 0.000000 0.011945 0.000000
# 6 0.000000 0.000000 0.000000 0.047407 0.000000 0.107050
#
#
# Mechanical properties :
#
#
# Convention : Reuss Voigt Hill
#
# Bulk Modulus (GPa) = 29.12815 71.16873 50.14844
# Shear Modulus (GPa) = 14.04004 66.53969 40.28987
#
# Velocity S-wave (km/s) = 2.54128 5.53233 4.30493
# Velocity P-wave (km/s) = 4.69138 8.57583 6.91209
#
# Compressibility (1/GPa) = 0.03433105
#
# Stress axis : x y z
#
# Youngs Moduli (GPa) = 38.51030 59.06535 90.99598
#
# Poissons Ratio (x) = -0.07395 0.92169
# Poissons Ratio (y) = -0.04821 0.08199
# Poissons Ratio (z) = 0.39007 0.05322
#
# Static dielectric constant tensor:
#      x y z
#    x 1.792600 0.000000 0.014280 
#    y 0.000000 1.839970 0.000000 
#    z 0.014280 0.000000 1.797650 
# 
# From -- ./inp_files/309068.got.cif
#   From: 2010.05.17/outbox.cif.g08.bks.cpg/sg12_155_cif.got.tgz:309068.got - 2010.06.03 13:09:07.
