data_PCOD9193825
_publ_section_title
;
Structure prediction by ZEFSAII (Michael W. Deem and Ramdas Pophale) SiO2 
 PCOD9193825
Probable space group: C 2/M
;
_chemical_formula_sum "Si O2"
_cell_formula_units_Z 56
_cell_length_a 16.641894
_cell_length_b 7.447136
_cell_length_c 22.542719
_cell_angle_alpha 90.000000
_cell_angle_beta 49.819245
_cell_angle_gamma 90.000000
_cell_volume 2134.513773
_symmetry_space_group_name_H-M "C 2/M"
_symmetry_group_IT_number 12
_symmetry_cell_setting 'monoclinic'
loop_
_space_group_symop_operation_xyz
x,y,z
-x,y,-z
-x,-y,-z
x,-y,z
1/2+x,1/2+y,z
1/2-x,1/2+y,-z
1/2-x,1/2-y,-z
1/2+x,1/2-y,z
loop_
_atom_site_type_symbol
_atom_site_label
_atom_site_fract_x
_atom_site_fract_y
_atom_site_fract_z
Si Si1 0.385490 0.707740 0.546083
Si Si2 0.890838 0.708906 0.164725
Si Si3 0.095840 0.704555 0.021063
Si Si4 0.067448 0.717611 0.603956
Si Si5 0.847279 0.708303 0.745561
Si Si6 0.338099 0.779433 0.315625
Si Si7 0.823677 0.216852 0.887205
O O1 0.500000 0.793612 0.500000
O O2 0.392704 0.500000 0.560692
O O3 0.369430 0.715129 0.482806
O O4 0.283389 0.781964 0.626995
O O5 0.920073 0.500000 0.154257
O O6 0.768389 0.712101 0.206353
O O7 0.895492 0.785198 0.229080
O O8 0.978171 0.784837 0.078041
O O9 0.092910 0.500000 0.999426
O O10 0.125532 0.707740 0.077281
O O11 0.201927 0.783764 0.942508
O O12 0.068314 0.500000 0.602324
O O13 0.113943 0.775574 0.644691
O O14 0.945334 0.779418 0.660994
O O15 0.836224 0.500000 0.737042
O O16 0.877521 0.728339 0.800437
O O17 0.338561 0.000000 0.314202
O O18 0.823383 0.000000 0.892113
#
# Coordination Sequence:
#
# PCOD9193825 Si02
#       7
#     8   8   8   8   8   8   8
#     4  10  20  34  54  81 110 137 171 217 266 318
#     4  10  20  37  59  79 106 144 182 221 271 328
#     4   9  19  36  58  83 110 142 180 223 270 322
#     4  10  21  37  56  77 104 141 181 219 265 320
#     4  11  23  37  53  77 110 144 183 230 275 319
#     4   9  18  34  56  79 104 138 177 217 266 323
#     4  10  20  35  57  83 110 143 183 222 266 324
#
# _framework density 26.235484
#
# number of rings (size 3 to 8) (size 9 to 14) (size 15 to 20)
#    0.000    2.143    0.000    3.000    0.000    6.571 
#    0.000    4.286    0.000    0.000    0.000    0.000 
#    0.000    0.000    0.000    0.000    0.000    0.000 
#
# Total GULP energy -156664.905952 kJ/mol
# GULP energy per Si atom -5595.175213 kJ/mol
# Density = 2.617577 g / cm^3
# Si number density = 26.235484 Si / 1000 Ang^3
#
#
#
# Elastic Constant Matrix: (Units=GPa)
#
#
# Indices 1 2 3 4 5 6 
#
# 1 76.8765 0.7244 0.7493 0.0000 -5.3741 0.0006
# 2 0.7244 103.0905 2.4500 -0.0001 -7.9141 0.0011
# 3 0.7493 2.4500 144.0028 0.0000 -9.9670 0.0000
# 4 0.0000 -0.0001 0.0000 4.7888 -0.0001 6.1327
# 5 -5.3741 -7.9141 -9.9670 -0.0001 56.3420 0.0001
# 6 0.0006 0.0011 0.0000 6.1327 0.0001 19.0616
#
#
#
# Elastic Compliance Matrix: (Units=1/GPa)
#
#
# Indices 1 2 3 4 5 6 
#
# 1 0.013095 0.000004 0.000019 0.000001 0.001253 -0.000001
# 2 0.000004 0.009807 -0.000072 0.000002 0.001365 -0.000001
# 3 0.000019 -0.000072 0.007031 0.000000 0.001235 0.000000
# 4 0.000001 0.000002 0.000000 0.355148 0.000001 -0.114261
# 5 0.001253 0.001365 0.001235 0.000001 0.018279 0.000000
# 6 -0.000001 -0.000001 0.000000 -0.114261 0.000000 0.089223
#
#
# Mechanical properties :
#
#
# Convention : Reuss Voigt Hill
#
# Bulk Modulus (GPa) = 33.52036 36.86856 35.19446
# Shear Modulus (GPa) = 9.94774 37.37489 23.66131
#
# Velocity S-wave (km/s) = 1.94934 3.77847 3.00639
# Velocity P-wave (km/s) = 4.22742 5.75493 5.04927
#
# Compressibility (1/GPa) = 0.02983262
#
# Stress axis : x y z
#
# Youngs Moduli (GPa) = 76.36358 101.97108 142.22822
#
# Poissons Ratio (x) = -0.00038 -0.00263
# Poissons Ratio (y) = -0.00028 0.01029
# Poissons Ratio (z) = -0.00141 0.00738
#
# Static dielectric constant tensor:
#      x y z
#    x 2.114150 0.000020 -0.038220 
#    y 0.000020 -48.065390 -0.000030 
#    z -0.038220 -0.000030 2.013610 
# 
# From -- ./inp_files/342312.got.cif
#   From: 2010.05.17/outbox.cif.g08.bks.cpg/sg12_172_cif.got.tgz:342312.got - 2010.06.03 13:09:07.
