data_PCOD9193108
_publ_section_title
;
Structure prediction by ZEFSAII (Michael W. Deem and Ramdas Pophale) SiO2 
 PCOD9193108
Probable space group: C 2/M
;
_chemical_formula_sum "Si O2"
_cell_formula_units_Z 56
_cell_length_a 9.775784
_cell_length_b 26.879392
_cell_length_c 15.870004
_cell_angle_alpha 90.000000
_cell_angle_beta 53.434245
_cell_angle_gamma 90.000000
_cell_volume 3349.326973
_symmetry_space_group_name_H-M "C 2/M"
_symmetry_group_IT_number 12
_symmetry_cell_setting 'monoclinic'
loop_
_space_group_symop_operation_xyz
x,y,z
-x,y,-z
-x,-y,-z
x,-y,z
1/2+x,1/2+y,z
1/2-x,1/2+y,-z
1/2-x,1/2-y,-z
1/2+x,1/2-y,z
loop_
_atom_site_type_symbol
_atom_site_label
_atom_site_fract_x
_atom_site_fract_y
_atom_site_fract_z
Si Si1 0.002227 0.662946 0.755239
Si Si2 0.315615 0.894915 0.604676
Si Si3 0.284575 0.699823 0.260560
Si Si4 0.553949 0.235335 0.075533
Si Si5 0.801499 0.219841 0.566859
Si Si6 0.527081 0.055010 0.293531
Si Si7 0.649702 0.443112 0.504571
O O1 0.173641 0.674694 0.637923
O O2 0.953872 0.604755 0.769229
O O3 0.857901 0.693049 0.757870
O O4 0.998938 0.687856 0.848032
O O5 0.500000 0.876765 0.500000
O O6 0.215757 0.851274 0.688053
O O7 0.372236 0.934462 0.655551
O O8 0.200457 0.915048 0.571400
O O9 0.454695 0.718388 0.154133
O O10 0.228400 0.741309 0.347151
O O11 0.500000 0.227058 0.000000
O O12 0.750000 0.250000 0.000000
O O13 0.750000 0.250000 0.500000
O O14 0.000000 0.205500 0.500000
O O15 0.327027 0.054294 0.389175
O O16 0.574010 0.000000 0.243621
O O17 0.500000 0.422490 0.500000
O O18 0.599794 0.500000 0.544939
#
# Coordination Sequence:
#
# PCOD9193108 Si02
#       7
#     8   8   8   8   8   8   8
#     4  10  21  35  55  82 104 142 186 214 271 324
#     4   9  17  30  52  75 105 141 183 212 254 314
#     4  10  20  34  52  78 105 140 177 218 264 319
#     4  11  22  40  60  77 105 136 173 227 277 327
#     4  11  21  32  49  75 116 150 172 211 260 318
#     4   9  18  33  52  74 103 140 185 222 251 308
#     4   9  17  29  44  68 106 146 177 215 260 299
#
# _framework density 16.719776
#
# number of rings (size 3 to 8) (size 9 to 14) (size 15 to 20)
#    0.000    2.143    2.857    0.857    4.000    2.286 
#    2.571    0.000    0.000    0.429    0.000    9.000 
#    0.000    0.000    0.000    0.000    0.000    0.000 
#
# Total GULP energy -156013.893579 kJ/mol
# GULP energy per Si atom -5571.924771 kJ/mol
# Density = 1.668172 g / cm^3
# Si number density = 16.719776 Si / 1000 Ang^3
#
#
#
# Elastic Constant Matrix: (Units=GPa)
#
#
# Indices 1 2 3 4 5 6 
#
# 1 124.9942 41.9088 50.3409 0.0000 3.0135 0.0000
# 2 41.9088 90.7127 44.1439 0.0000 8.8036 0.0000
# 3 50.3409 44.1439 93.0131 0.0000 3.1059 0.0000
# 4 0.0000 0.0000 0.0000 13.1735 0.0000 -0.9678
# 5 3.0135 8.8036 3.1059 0.0000 31.8950 0.0000
# 6 0.0000 0.0000 0.0000 -0.9678 0.0000 17.5831
#
#
#
# Elastic Compliance Matrix: (Units=1/GPa)
#
#
# Indices 1 2 3 4 5 6 
#
# 1 0.010743 -0.002795 -0.004494 0.000000 0.000194 0.000000
# 2 -0.002795 0.015417 -0.005690 0.000000 -0.003437 0.000000
# 3 -0.004494 -0.005690 0.015869 0.000000 0.000450 0.000000
# 4 0.000000 0.000000 0.000000 0.076218 0.000000 0.004195
# 5 0.000194 -0.003437 0.000450 0.000000 0.032240 0.000000
# 6 0.000000 0.000000 0.000000 0.004195 0.000000 0.057104
#
#
# Mechanical properties :
#
#
# Convention : Reuss Voigt Hill
#
# Bulk Modulus (GPa) = 62.22214 64.61190 63.41702
# Shear Modulus (GPa) = 20.92877 24.01874 22.47375
#
# Velocity S-wave (km/s) = 3.54183 3.79429 3.67023
# Velocity P-wave (km/s) = 7.34994 7.61074 7.48148
#
# Compressibility (1/GPa) = 0.01607145
#
# Stress axis : x y z
#
# Youngs Moduli (GPa) = 93.08529 64.86177 63.01638
#
# Poissons Ratio (x) = 0.18128 0.28322
# Poissons Ratio (y) = 0.26016 0.35854
# Poissons Ratio (z) = 0.41835 0.36904
#
# Static dielectric constant tensor:
#      x y z
#    x 1.589690 0.000000 0.009440 
#    y 0.000000 1.622670 0.000000 
#    z 0.009440 0.000000 1.547060 
# 
# From -- ./inp_files/185124.got.cif
#   From: 2010.05.17/outbox.cif.g08.bks.cpg/sg12_93_cif.got.tgz:185124.got - 2010.06.03 13:09:07.
