data_PCOD9193219
_publ_section_title
;
Structure prediction by ZEFSAII (Michael W. Deem and Ramdas Pophale) SiO2 
 PCOD9193219
Probable space group: C 2/M
;
_chemical_formula_sum "Si O2"
_cell_formula_units_Z 48
_cell_length_a 15.998462
_cell_length_b 8.095102
_cell_length_c 15.474087
_cell_angle_alpha 90.000000
_cell_angle_beta 94.333253
_cell_angle_gamma 90.000000
_cell_volume 1998.307707
_symmetry_space_group_name_H-M "C 2/M"
_symmetry_group_IT_number 12
_symmetry_cell_setting 'monoclinic'
loop_
_space_group_symop_operation_xyz
x,y,z
-x,y,-z
-x,-y,-z
x,-y,z
1/2+x,1/2+y,z
1/2-x,1/2+y,-z
1/2-x,1/2-y,-z
1/2+x,1/2-y,z
loop_
_atom_site_type_symbol
_atom_site_label
_atom_site_fract_x
_atom_site_fract_y
_atom_site_fract_z
Si Si1 0.978197 0.500000 0.138982
Si Si2 0.792345 0.810874 0.876548
Si Si3 0.080866 0.806347 0.556490
Si Si4 0.958509 0.183932 0.766170
Si Si5 0.141355 0.500000 0.026009
Si Si6 0.850934 0.692822 0.604697
Si Si7 0.302931 0.805217 0.295466
O O1 0.985693 0.335036 0.196174
O O2 0.059804 0.500000 0.083169
O O3 0.897658 0.500000 0.072000
O O4 0.809647 0.666631 0.945889
O O5 0.716237 0.764425 0.805742
O O6 0.875441 0.814018 0.821352
O O7 0.783654 0.000000 0.908164
O O8 0.151410 0.776301 0.488844
O O9 0.110715 0.730820 0.648869
O O10 0.000000 0.735392 0.500000
O O11 0.068469 0.000000 0.568915
O O12 0.921860 0.218490 0.668367
O O13 0.995718 0.000000 0.774705
O O14 0.869947 0.500000 0.596979
O O15 0.766588 0.711539 0.653248
O O16 0.285649 0.000000 0.300852
#
# Coordination Sequence:
#
# PCOD9193219 Si02
#       7
#     4   8   8   8   4   8   8
#     4   9  16  26  38  68  95 132 168 196 258 307
#     4   8  16  27  42  66  93 129 168 206 248 294
#     4  11  24  38  51  72 103 137 169 219 268 310
#     4   9  16  28  44  65  96 130 169 211 248 297
#     4   9  16  24  42  62  99 132 162 204 248 313
#     4  11  20  33  54  75  99 135 180 218 256 307
#     4  10  20  34  53  75  99 134 179 217 256 305
#
# _framework density 24.020323000000001
#
# number of rings (size 3 to 8) (size 9 to 14) (size 15 to 20)
#    0.000    2.333    0.833    4.000    4.667    2.000 
#    0.000    3.333    0.000    0.000    0.000    0.000 
#    0.000    1.333    0.667    0.000    0.000    0.000 
#
# Total GULP energy -134317.233188 kJ/mol
# GULP energy per Si atom -5596.551383 kJ/mol
# Density = 2.396565 g / cm^3
# Si number density = 24.020323 Si / 1000 Ang^3
#
#
#
# Elastic Constant Matrix: (Units=GPa)
#
#
# Indices 1 2 3 4 5 6 
#
# 1 79.8336 23.5869 41.3004 0.0000 7.1269 0.0000
# 2 23.5869 163.2512 101.8511 0.0000 25.2448 0.0000
# 3 41.3004 101.8511 179.1848 0.0000 37.0813 0.0000
# 4 0.0000 0.0000 0.0000 37.5100 0.0000 5.3235
# 5 7.1269 25.2448 37.0813 0.0000 41.0662 0.0000
# 6 0.0000 0.0000 0.0000 5.3235 0.0000 13.2286
#
#
#
# Elastic Compliance Matrix: (Units=1/GPa)
#
#
# Indices 1 2 3 4 5 6 
#
# 1 0.014234 -0.000039 -0.003385 0.000000 0.000610 0.000000
# 2 -0.000039 0.009539 -0.005166 0.000000 -0.001192 0.000000
# 3 -0.003385 -0.005166 0.010476 0.000000 -0.005697 0.000000
# 4 0.000000 0.000000 0.000000 0.028274 0.000000 -0.011378
# 5 0.000610 -0.001192 -0.005697 0.000000 0.030122 0.000000
# 6 0.000000 0.000000 0.000000 -0.011378 0.000000 0.080172
#
#
# Mechanical properties :
#
#
# Convention : Reuss Voigt Hill
#
# Bulk Modulus (GPa) = 58.58614 83.97181 71.27897
# Shear Modulus (GPa) = 25.55090 35.39639 30.47364
#
# Velocity S-wave (km/s) = 3.26501 3.84292 3.56569
# Velocity P-wave (km/s) = 6.21747 7.39765 6.83309
#
# Compressibility (1/GPa) = 0.01706888
#
# Stress axis : x y z
#
# Youngs Moduli (GPa) = 70.25303 104.83650 95.45244
#
# Poissons Ratio (x) = 0.00410 0.32310
# Poissons Ratio (y) = 0.00275 0.49313
# Poissons Ratio (z) = 0.23780 0.54161
#
# Static dielectric constant tensor:
#      x y z
#    x 2.032390 0.000000 -0.006070 
#    y 0.000000 1.828590 0.000000 
#    z -0.006070 0.000000 1.871100 
# 
# From -- ./inp_files/274656.got.cif
#   From: 2010.05.17/outbox.cif.g08.bks.cpg/sg12_138_cif.got.tgz:274656.got - 2010.06.03 13:09:07.
