data_PCOD9193261
_publ_section_title
;
Structure prediction by ZEFSAII (Michael W. Deem and Ramdas Pophale) SiO2 
 PCOD9193261
Probable space group: C 2/M
;
_chemical_formula_sum "Si O2"
_cell_formula_units_Z 48
_cell_length_a 14.817615
_cell_length_b 7.348296
_cell_length_c 17.669057
_cell_angle_alpha 90.000000
_cell_angle_beta 77.091382
_cell_angle_gamma 90.000000
_cell_volume 1875.260412
_symmetry_space_group_name_H-M "C 2/M"
_symmetry_group_IT_number 12
_symmetry_cell_setting 'monoclinic'
loop_
_space_group_symop_operation_xyz
x,y,z
-x,y,-z
-x,-y,-z
x,-y,z
1/2+x,1/2+y,z
1/2-x,1/2+y,-z
1/2-x,1/2-y,-z
1/2+x,1/2-y,z
loop_
_atom_site_type_symbol
_atom_site_label
_atom_site_fract_x
_atom_site_fract_y
_atom_site_fract_z
Si Si1 0.753162 0.778379 0.317486
Si Si2 0.427309 0.784992 0.073875
Si Si3 0.470272 0.222634 0.803108
Si Si4 0.731321 0.782581 0.148521
Si Si5 0.849427 0.716999 0.521783
Si Si6 0.551744 0.209188 0.638270
O O1 0.745308 0.717692 0.232522
O O2 0.669007 0.721030 0.389069
O O3 0.848730 0.711455 0.336982
O O4 0.755375 0.000000 0.318303
O O5 0.451926 0.714149 0.152998
O O6 0.318661 0.764807 0.080916
O O7 0.444884 0.000000 0.074004
O O8 0.500000 0.709740 0.000000
O O9 0.371084 0.276050 0.855145
O O10 0.485365 0.288627 0.714882
O O11 0.473562 0.000000 0.797564
O O12 0.729388 0.000000 0.151984
O O13 0.863767 0.500000 0.521889
O O14 0.750000 0.750000 0.500000
O O15 0.925873 0.789355 0.448492
O O16 0.522308 0.000000 0.631310
#
# Coordination Sequence:
#
# PCOD9193261 Si02
#       6
#     8   8   8   8   8   8
#     4   9  16  27  44  69 100 128 161 206 247 282
#     4  10  21  38  58  77  99 129 165 206 249 297
#     4   9  18  33  52  75 103 133 165 202 249 299
#     4  10  20  34  53  76 104 135 163 200 252 301
#     4   8  14  23  39  66  94 124 164 204 239 279
#     4   9  15  27  48  68  93 133 171 200 239 290
#
# _framework density 25.596447000000001
#
# number of rings (size 3 to 8) (size 9 to 14) (size 15 to 20)
#    0.000    2.833    1.667    0.000    0.000    1.000 
#    0.000    2.500    0.000    5.000    0.000    0.000 
#    0.000   14.667    0.000    0.000    0.000    0.000 
#
# Total GULP energy -134045.846708 kJ/mol
# GULP energy per Si atom -5585.243613 kJ/mol
# Density = 2.553819 g / cm^3
# Si number density = 25.596447 Si / 1000 Ang^3
#
#
#
# Elastic Constant Matrix: (Units=GPa)
#
#
# Indices 1 2 3 4 5 6 
#
# 1 77.7738 -7.5583 29.9049 0.0000 -25.2115 0.0000
# 2 -7.5583 101.4255 6.6536 0.0000 2.4399 0.0000
# 3 29.9049 6.6536 96.0387 0.0000 -54.8617 0.0000
# 4 0.0000 0.0000 0.0000 -4.2339 0.0000 -0.3601
# 5 -25.2115 2.4399 -54.8617 0.0000 48.5766 0.0000
# 6 0.0000 0.0000 0.0000 -0.3601 0.0000 4.9893
#
#
#
# Elastic Compliance Matrix: (Units=1/GPa)
#
#
# Indices 1 2 3 4 5 6 
#
# 1 0.015582 0.001056 -0.000946 0.000000 0.006966 0.000000
# 2 0.001056 0.010203 -0.002861 0.000000 -0.003196 0.000000
# 3 -0.000946 -0.002861 0.030174 0.000000 0.033730 0.000000
# 4 0.000000 0.000000 0.000000 -0.234749 0.000000 -0.016941
# 5 0.006966 -0.003196 0.033730 0.000000 0.062456 0.000000
# 6 0.000000 0.000000 0.000000 -0.016941 0.000000 0.199207
#
#
# Mechanical properties :
#
#
# Convention : Reuss Voigt Hill
#
# Bulk Modulus (GPa) = 19.81958 37.02650 28.42304
# Shear Modulus (GPa) = 47.53118 26.28226 36.90672
#
# Velocity S-wave (km/s) = 4.31390 3.20784 3.80131
# Velocity P-wave (km/s) = 5.70727 5.31199 5.51317
#
# Compressibility (1/GPa) = 0.05045515
#
# Stress axis : x y z
#
# Youngs Moduli (GPa) = 64.17574 98.01311 33.14166
#
# Poissons Ratio (x) = -0.10347 0.03135
# Poissons Ratio (y) = -0.06775 0.09483
# Poissons Ratio (z) = 0.06071 0.28045
#
# Static dielectric constant tensor:
#      x y z
#    x 1.999860 0.000000 -0.027210 
#    y 0.000000 1.739670 0.000000 
#    z -0.027210 0.000000 2.037870 
# 
# From -- ./inp_files/262152.got.cif
#   From: 2010.05.17/outbox.cif.g08.bks.cpg/sg12_132_cif.got.tgz:262152.got - 2010.06.03 13:09:07.
