data_PCOD9193633
_publ_section_title
;
Structure prediction by ZEFSAII (Michael W. Deem and Ramdas Pophale) SiO2 
 PCOD9193633
Probable space group: C 2/M
;
_chemical_formula_sum "Si O2"
_cell_formula_units_Z 56
_cell_length_a 24.878831
_cell_length_b 9.983048
_cell_length_c 12.489299
_cell_angle_alpha 90.000000
_cell_angle_beta 69.002325
_cell_angle_gamma 90.000000
_cell_volume 2895.940899
_symmetry_space_group_name_H-M "C 2/M"
_symmetry_group_IT_number 12
_symmetry_cell_setting 'monoclinic'
loop_
_space_group_symop_operation_xyz
x,y,z
-x,y,-z
-x,-y,-z
x,-y,z
1/2+x,1/2+y,z
1/2-x,1/2+y,-z
1/2-x,1/2-y,-z
1/2+x,1/2-y,z
loop_
_atom_site_type_symbol
_atom_site_label
_atom_site_fract_x
_atom_site_fract_y
_atom_site_fract_z
Si Si1 0.450633 0.843289 0.359141
Si Si2 0.903408 0.162141 0.211445
Si Si3 0.226259 0.142750 0.937902
Si Si4 0.271377 0.656073 0.316022
Si Si5 0.351806 0.162952 0.598730
Si Si6 0.079459 0.657130 0.246907
Si Si7 0.911608 0.849319 0.959411
O O1 0.441418 0.744426 0.266519
O O2 0.403574 0.805637 0.481378
O O3 0.516908 0.834986 0.347899
O O4 0.440748 0.000000 0.336611
O O5 0.836682 0.207095 0.281344
O O6 0.905518 0.000000 0.222173
O O7 0.922767 0.189556 0.075111
O O8 0.239163 0.161388 0.804255
O O9 0.251083 0.000000 0.952958
O O10 0.250000 0.250000 0.000000
O O11 0.157609 0.139552 0.994272
O O12 0.274024 0.500000 0.347791
O O13 0.210317 0.714426 0.399806
O O14 0.372223 0.205390 0.703199
O O15 0.347747 0.000000 0.606378
O O16 0.089979 0.500000 0.214624
O O17 0.074792 0.744000 0.142764
O O18 0.935638 0.000000 0.922905
#
# Coordination Sequence:
#
# PCOD9193633 Si02
#       7
#     8   8   8   8   8   8   8
#     4  10  21  35  52  76 104 133 170 215 253 293
#     4   9  19  36  54  74 102 136 171 204 248 305
#     4   9  16  27  45  71 101 130 162 202 248 299
#     4   8  15  29  50  73  97 129 167 202 242 301
#     4   9  17  32  54  77 102 133 167 207 257 304
#     4  10  20  34  54  78 102 132 171 212 255 302
#     4   9  19  34  51  73 103 136 169 208 252 300
#
# _framework density 19.337409999999998
#
# number of rings (size 3 to 8) (size 9 to 14) (size 15 to 20)
#    0.000    2.857    0.000    3.000    0.000    5.714 
#    0.000    5.714    0.000    3.429    0.000    0.000 
#    0.000    0.000    0.000    0.000    0.000    0.000 
#
# Total GULP energy -155923.625334 kJ/mol
# GULP energy per Si atom -5568.700905 kJ/mol
# Density = 1.929340 g / cm^3
# Si number density = 19.337410 Si / 1000 Ang^3
#
#
#
# Elastic Constant Matrix: (Units=GPa)
#
#
# Indices 1 2 3 4 5 6 
#
# 1 66.3363 -3.1545 3.2457 0.0000 -3.4704 0.0000
# 2 -3.1545 18.2836 9.9155 0.0000 12.7652 0.0000
# 3 3.2457 9.9155 49.4302 0.0000 -4.1280 0.0000
# 4 0.0000 0.0000 0.0000 20.4702 0.0000 2.5710
# 5 -3.4704 12.7652 -4.1280 0.0000 33.3327 0.0000
# 6 0.0000 0.0000 0.0000 2.5710 0.0000 23.2330
#
#
#
# Elastic Compliance Matrix: (Units=1/GPa)
#
#
# Indices 1 2 3 4 5 6 
#
# 1 0.015329 0.003566 -0.001720 0.000000 0.000017 0.000000
# 2 0.003566 0.094346 -0.022377 0.000000 -0.038531 0.000000
# 3 -0.001720 -0.022377 0.025800 0.000000 0.011586 0.000000
# 4 0.000000 0.000000 0.000000 0.049540 0.000000 -0.005482
# 5 0.000017 -0.038531 0.011586 0.000000 0.046193 0.000000
# 6 0.000000 0.000000 0.000000 -0.005482 0.000000 0.043649
#
#
# Mechanical properties :
#
#
# Convention : Reuss Voigt Hill
#
# Bulk Modulus (GPa) = 10.59201 17.11816 13.85508
# Shear Modulus (GPa) = 14.39299 23.67674 19.03486
#
# Velocity S-wave (km/s) = 2.73116 3.50294 3.14085
# Velocity P-wave (km/s) = 3.92874 5.02318 4.50929
#
# Compressibility (1/GPa) = 0.09441081
#
# Stress axis : x y z
#
# Youngs Moduli (GPa) = 65.23431 10.59932 38.75989
#
# Poissons Ratio (x) = -0.03779 0.06668
# Poissons Ratio (y) = -0.23260 0.86734
# Poissons Ratio (z) = 0.11223 0.23718
#
# Static dielectric constant tensor:
#      x y z
#    x 1.711210 0.000000 -0.060400 
#    y 0.000000 1.658390 0.000000 
#    z -0.060400 0.000000 1.693690 
# 
# From -- ./inp_files/174504.got.cif
#   From: 2010.05.17/outbox.cif.g08.bks.cpg/sg12_88_cif.got.tgz:174504.got - 2010.06.03 13:09:07.
