data_PCOD9193855
_publ_section_title
;
Structure prediction by ZEFSAII (Michael W. Deem and Ramdas Pophale) SiO2 
 PCOD9193855
Probable space group: C 2/M
;
_chemical_formula_sum "Si O2"
_cell_formula_units_Z 48
_cell_length_a 27.006073
_cell_length_b 7.537318
_cell_length_c 20.390970
_cell_angle_alpha 90.000000
_cell_angle_beta 149.527409
_cell_angle_gamma 90.000000
_cell_volume 2104.903268
_symmetry_space_group_name_H-M "C 2/M"
_symmetry_group_IT_number 12
_symmetry_cell_setting 'monoclinic'
loop_
_space_group_symop_operation_xyz
x,y,z
-x,y,-z
-x,-y,-z
x,-y,z
1/2+x,1/2+y,z
1/2-x,1/2+y,-z
1/2-x,1/2-y,-z
1/2+x,1/2-y,z
loop_
_atom_site_type_symbol
_atom_site_label
_atom_site_fract_x
_atom_site_fract_y
_atom_site_fract_z
Si Si1 0.282184 0.784342 0.348204
Si Si2 0.034679 0.700897 0.849844
Si Si3 0.599587 0.295944 0.644248
Si Si4 0.654389 0.786750 0.436382
Si Si5 0.431497 0.701925 0.859760
Si Si6 0.249589 0.287002 0.077127
O O1 0.326454 0.708822 0.332560
O O2 0.334244 0.731536 0.475308
O O3 0.171558 0.726793 0.234474
O O4 0.284875 0.000000 0.345475
O O5 0.049738 0.500000 0.841965
O O6 0.948354 0.784922 0.708126
O O7 0.985461 0.695894 0.864500
O O8 0.142745 0.781082 0.977878
O O9 0.500000 0.214156 0.500000
O O10 0.574344 0.500000 0.632851
O O11 0.659090 0.218735 0.774760
O O12 0.750000 0.750000 0.500000
O O13 0.648117 0.000000 0.428521
O O14 0.414486 0.500000 0.815572
O O15 0.500000 0.694013 0.000000
O O16 0.252531 0.500000 0.090587
O O17 0.250000 0.250000 0.000000
#
# Coordination Sequence:
#
# PCOD9193855 Si02
#       6
#     8   8   8   8   8   8
#     4  10  21  36  56  84 116 149 188 234 282 338
#     4  10  21  36  56  82 113 147 188 233 280 339
#     4  10  23  42  61  85 116 150 193 242 291 344
#     4  10  20  35  55  84 117 150 189 230 278 338
#     4  10  20  34  54  81 112 145 183 228 280 339
#     4  10  23  42  62  86 115 150 194 242 289 343
#
# _framework density 22.803898
#
# number of rings (size 3 to 8) (size 9 to 14) (size 15 to 20)
#    0.000    2.000    1.667    1.000    2.333    3.333 
#    0.000    0.000    0.000    0.000    0.000    0.000 
#    0.000    0.000    0.000    0.000    0.000    0.000 
#
# Total GULP energy -133929.530232 kJ/mol
# GULP energy per Si atom -5580.397093 kJ/mol
# Density = 2.275200 g / cm^3
# Si number density = 22.803898 Si / 1000 Ang^3
#
#
#
# Elastic Constant Matrix: (Units=GPa)
#
#
# Indices 1 2 3 4 5 6 
#
# 1 90.9546 -10.4687 56.8557 0.0000 -3.5123 0.0000
# 2 -10.4687 59.7288 8.5731 0.0000 0.3497 0.0000
# 3 56.8557 8.5731 213.4830 0.0000 -4.3997 0.0000
# 4 0.0000 0.0000 0.0000 7.5473 0.0000 -2.3315
# 5 -3.5123 0.3497 -4.3997 0.0000 42.0876 0.0000
# 6 0.0000 0.0000 0.0000 -2.3315 0.0000 21.5854
#
#
#
# Elastic Compliance Matrix: (Units=1/GPa)
#
#
# Indices 1 2 3 4 5 6 
#
# 1 0.013707 0.002937 -0.003753 0.000000 0.000727 0.000000
# 2 0.002937 0.017471 -0.001485 0.000000 -0.000055 0.000000
# 3 -0.003753 -0.001485 0.005750 0.000000 0.000300 0.000000
# 4 0.000000 0.000000 0.000000 0.137071 0.000000 0.014805
# 5 0.000727 -0.000055 0.000300 0.000000 0.023852 0.000000
# 6 0.000000 0.000000 0.000000 0.014805 0.000000 0.047927
#
#
# Mechanical properties :
#
#
# Convention : Reuss Voigt Hill
#
# Bulk Modulus (GPa) = 30.93652 52.67627 41.80640
# Shear Modulus (GPa) = 19.14569 34.85780 27.00174
#
# Velocity S-wave (km/s) = 2.90069 3.91396 3.44479
# Velocity P-wave (km/s) = 4.98141 6.60116 5.84764
#
# Compressibility (1/GPa) = 0.03232426
#
# Stress axis : x y z
#
# Youngs Moduli (GPa) = 72.95608 57.23913 173.92331
#
# Poissons Ratio (x) = -0.16811 0.65281
# Poissons Ratio (y) = -0.21426 0.25826
# Poissons Ratio (z) = 0.27384 0.08499
#
# Static dielectric constant tensor:
#      x y z
#    x 1.795280 0.000000 0.002530 
#    y 0.000000 2.681770 0.000000 
#    z 0.002530 0.000000 1.941160 
# 
# From -- ./inp_files/327302.got.cif
#   From: 2010.05.17/outbox.cif.g08.bks.cpg/sg12_164_cif.got.tgz:327302.got - 2010.06.03 13:09:07.
