data_PCOD9193620
_publ_section_title
;
Structure prediction by ZEFSAII (Michael W. Deem and Ramdas Pophale) SiO2 
 PCOD9193620
Probable space group: C 2/M
;
_chemical_formula_sum "Si O2"
_cell_formula_units_Z 48
_cell_length_a 16.001605
_cell_length_b 8.964576
_cell_length_c 14.327759
_cell_angle_alpha 90.000000
_cell_angle_beta 90.038863
_cell_angle_gamma 90.000000
_cell_volume 2055.282229
_symmetry_space_group_name_H-M "C 2/M"
_symmetry_group_IT_number 12
_symmetry_cell_setting 'monoclinic'
loop_
_space_group_symop_operation_xyz
x,y,z
-x,y,-z
-x,-y,-z
x,-y,z
1/2+x,1/2+y,z
1/2-x,1/2+y,-z
1/2-x,1/2-y,-z
1/2+x,1/2-y,z
loop_
_atom_site_type_symbol
_atom_site_label
_atom_site_fract_x
_atom_site_fract_y
_atom_site_fract_z
Si Si1 0.673212 0.179574 0.442613
Si Si2 0.091088 0.170709 0.948201
Si Si3 0.755497 0.325948 0.273215
Si Si4 0.015405 0.822243 0.221884
Si Si5 0.931244 0.326665 0.385504
Si Si6 0.671244 0.823657 0.115744
O O1 0.750000 0.250000 0.500000
O O2 0.687091 0.250946 0.341916
O O3 0.593387 0.211980 0.508140
O O4 0.680605 0.000000 0.437255
O O5 0.152544 0.267435 0.011393
O O6 0.121313 0.000000 0.949016
O O7 0.064552 0.214768 0.844092
O O8 0.000000 0.172085 0.000000
O O9 0.736449 0.500000 0.261028
O O10 0.843383 0.315854 0.327827
O O11 0.747958 0.245802 0.173600
O O12 0.994214 0.772651 0.326329
O O13 0.091369 0.735306 0.174595
O O14 0.029059 0.000000 0.215374
O O15 0.958278 0.500000 0.382581
O O16 0.675745 0.000000 0.117791
#
# Coordination Sequence:
#
# PCOD9193620 Si02
#       6
#     8   8   8   8   8   8
#     4   9  17  31  51  75 102 134 171 208 249 299
#     4   8  16  32  51  72  99 132 169 207 249 298
#     4  10  20  35  54  76 104 136 170 211 256 300
#     4  10  20  34  54  77 103 135 169 208 252 301
#     4   9  19  34  53  77 104 133 166 209 254 297
#     4  11  21  33  53  78 103 133 170 211 253 302
#
# _framework density 23.354458000000001
#
# number of rings (size 3 to 8) (size 9 to 14) (size 15 to 20)
#    0.000    2.500    0.000    5.000    0.000    7.667 
#    0.000    1.667    0.000    5.000    0.000    0.000 
#    0.000    0.000    0.000    0.000    0.000    0.000 
#
# Total GULP energy -134192.180407 kJ/mol
# GULP energy per Si atom -5591.340850 kJ/mol
# Density = 2.330130 g / cm^3
# Si number density = 23.354458 Si / 1000 Ang^3
#
#
#
# Elastic Constant Matrix: (Units=GPa)
#
#
# Indices 1 2 3 4 5 6 
#
# 1 87.1339 25.9274 15.6865 0.0000 2.7791 0.0000
# 2 25.9274 84.4831 50.9046 0.0000 5.5099 0.0000
# 3 15.6865 50.9046 142.9907 0.0000 6.8720 0.0000
# 4 0.0000 0.0000 0.0000 37.7768 0.0000 3.2488
# 5 2.7791 5.5099 6.8720 0.0000 45.2329 0.0000
# 6 0.0000 0.0000 0.0000 3.2488 0.0000 14.8864
#
#
#
# Elastic Compliance Matrix: (Units=1/GPa)
#
#
# Indices 1 2 3 4 5 6 
#
# 1 0.012634 -0.003859 0.000002 0.000000 -0.000307 0.000000
# 2 -0.003859 0.016295 -0.005333 0.000000 -0.000938 0.000000
# 3 0.000002 -0.005333 0.008926 0.000000 -0.000707 0.000000
# 4 0.000000 0.000000 0.000000 0.026978 0.000000 -0.005888
# 5 -0.000307 -0.000938 -0.000707 0.000000 0.022348 0.000000
# 6 0.000000 0.000000 0.000000 -0.005888 0.000000 0.068460
#
#
# Mechanical properties :
#
#
# Convention : Reuss Voigt Hill
#
# Bulk Modulus (GPa) = 51.34301 55.51607 53.42954
# Shear Modulus (GPa) = 27.69904 34.38517 31.04211
#
# Velocity S-wave (km/s) = 3.44761 3.84124 3.64974
# Velocity P-wave (km/s) = 6.15467 6.59516 6.37872
#
# Compressibility (1/GPa) = 0.01947685
#
# Stress axis : x y z
#
# Youngs Moduli (GPa) = 79.15058 61.36747 112.03739
#
# Poissons Ratio (x) = 0.23681 -0.00028
# Poissons Ratio (y) = 0.30543 0.59746
# Poissons Ratio (z) = -0.00020 0.32726
#
# Static dielectric constant tensor:
#      x y z
#    x 1.917390 0.000000 0.000020 
#    y 0.000000 1.771300 0.000000 
#    z 0.000020 0.000000 1.883860 
# 
# From -- ./inp_files/221659.got.cif
#   From: 2010.05.17/outbox.cif.g08.bks.cpg/sg12_111_cif.got.tgz:221659.got - 2010.06.03 13:09:07.
