data_PCOD9193346
_publ_section_title
;
Structure prediction by ZEFSAII (Michael W. Deem and Ramdas Pophale) SiO2 
 PCOD9193346
Probable space group: C 2/M
;
_chemical_formula_sum "Si O2"
_cell_formula_units_Z 56
_cell_length_a 8.694607
_cell_length_b 26.199714
_cell_length_c 15.326528
_cell_angle_alpha 90.000000
_cell_angle_beta 73.522039
_cell_angle_gamma 90.000000
_cell_volume 3347.932572
_symmetry_space_group_name_H-M "C 2/M"
_symmetry_group_IT_number 12
_symmetry_cell_setting 'monoclinic'
loop_
_space_group_symop_operation_xyz
x,y,z
-x,y,-z
-x,-y,-z
x,-y,z
1/2+x,1/2+y,z
1/2-x,1/2+y,-z
1/2-x,1/2-y,-z
1/2+x,1/2-y,z
loop_
_atom_site_type_symbol
_atom_site_label
_atom_site_fract_x
_atom_site_fract_y
_atom_site_fract_z
Si Si1 0.516756 0.440115 0.098246
Si Si2 0.134939 0.500000 0.604486
Si Si3 0.737108 0.694087 0.394253
Si Si4 0.115009 0.559885 0.901754
Si Si5 0.631371 0.305913 0.605746
Si Si6 0.923969 0.600065 0.282571
Si Si7 0.760588 0.500000 0.604485
Si Si8 0.793447 0.100065 0.282571
O O1 0.467285 0.500000 0.112342
O O2 0.701197 0.436512 0.097597
O O3 0.406487 0.408274 0.181154
O O4 0.500000 0.424966 0.000000
O O5 0.156531 0.550805 0.657947
O O6 0.239999 0.500000 0.499999
O O7 0.948305 0.500000 0.603402
O O8 0.556284 0.694867 0.387423
O O9 0.725760 0.683074 0.499999
O O10 0.813813 0.750000 0.372362
O O11 0.837532 0.650716 0.330026
O O12 0.079638 0.500000 0.887656
O O13 0.087652 0.591726 0.818846
O O14 0.000000 0.575033 0.000000
O O15 0.667571 0.349285 0.669972
O O16 0.109314 0.601030 0.281359
O O17 0.685536 0.550805 0.657947
#
# Coordination Sequence:
#
# PCOD9193346 Si02
#       8
#     8   4   8   8   8   8   4   8
#     4  10  20  34  53  77 108 142 181 224 269 320
#     4   9  18  30  46  73 108 143 176 211 258 317
#     4  10  21  37  56  79 107 142 185 229 271 317
#     4  10  20  34  53  77 108 142 181 224 269 320
#     4  10  21  37  56  79 107 142 185 229 271 317
#     4  11  20  33  54  79 110 144 180 221 270 323
#     4   9  18  30  46  73 108 143 176 211 258 317
#     4  11  20  33  54  79 110 144 180 221 270 323
#
# _framework density 16.726741000000001
#
# number of rings (size 3 to 8) (size 9 to 14) (size 15 to 20)
#    0.000    1.857    1.429    3.429    0.000    4.000 
#    0.000    0.000    0.000    4.286    0.000    6.000 
#    0.000    0.000    0.000    0.000    0.000    0.000 
#
# Total GULP energy -156381.497151 kJ/mol
# GULP energy per Si atom -5585.053470 kJ/mol
# Density = 1.668867 g / cm^3
# Si number density = 16.726741 Si / 1000 Ang^3
#
#
#
# Elastic Constant Matrix: (Units=GPa)
#
#
# Indices 1 2 3 4 5 6 
#
# 1 58.4849 50.1991 54.5939 0.0000 5.2856 0.0000
# 2 50.1991 131.3173 105.2648 0.0000 5.9242 0.0000
# 3 54.5939 105.2648 166.7575 0.0000 6.3620 0.0000
# 4 0.0000 0.0000 0.0000 21.5065 0.0000 -0.4170
# 5 5.2856 5.9242 6.3620 0.0000 26.6278 0.0000
# 6 0.0000 0.0000 0.0000 -0.4170 0.0000 25.3651
#
#
#
# Elastic Compliance Matrix: (Units=1/GPa)
#
#
# Indices 1 2 3 4 5 6 
#
# 1 0.027391 -0.006561 -0.004717 0.000000 -0.002850 0.000000
# 2 -0.006561 0.017020 -0.008579 0.000000 -0.000435 0.000000
# 3 -0.004717 -0.008579 0.012966 0.000000 -0.000253 0.000000
# 4 0.000000 0.000000 0.000000 0.046512 0.000000 0.000765
# 5 -0.002850 -0.000435 -0.000253 0.000000 0.038278 0.000000
# 6 0.000000 0.000000 0.000000 0.000765 0.000000 0.039437
#
#
# Mechanical properties :
#
#
# Convention : Reuss Voigt Hill
#
# Bulk Modulus (GPa) = 56.61705 86.29724 71.45715
# Shear Modulus (GPa) = 22.00651 24.46668 23.23659
#
# Velocity S-wave (km/s) = 3.63112 3.82871 3.73123
# Velocity P-wave (km/s) = 7.17647 8.44096 7.83427
#
# Compressibility (1/GPa) = 0.01766252
#
# Stress axis : x y z
#
# Youngs Moduli (GPa) = 36.50886 58.75433 77.12323
#
# Poissons Ratio (x) = 0.38548 0.36379
# Poissons Ratio (y) = 0.23953 0.66166
# Poissons Ratio (z) = 0.17221 0.50407
#
# Static dielectric constant tensor:
#      x y z
#    x 1.553050 0.000000 -0.000660 
#    y 0.000000 1.534890 0.000000 
#    z -0.000660 0.000000 1.546920 
# 
# From -- ./inp_files/199735.got.cif
#   From: 2010.05.17/outbox.cif.g08.bks.cpg/sg12_100_cif.got.tgz:199735.got - 2010.06.03 13:09:07.
