data_PCOD9193123
_publ_section_title
;
Structure prediction by ZEFSAII (Michael W. Deem and Ramdas Pophale) SiO2 
 PCOD9193123
Probable space group: C 2/M
;
_chemical_formula_sum "Si O2"
_cell_formula_units_Z 60
_cell_length_a 8.907933
_cell_length_b 11.045488
_cell_length_c 31.292217
_cell_angle_alpha 90.000000
_cell_angle_beta 99.846923
_cell_angle_gamma 90.000000
_cell_volume 3033.560337
_symmetry_space_group_name_H-M "C 2/M"
_symmetry_group_IT_number 12
_symmetry_cell_setting 'monoclinic'
loop_
_space_group_symop_operation_xyz
x,y,z
-x,y,-z
-x,-y,-z
x,-y,z
1/2+x,1/2+y,z
1/2-x,1/2+y,-z
1/2-x,1/2-y,-z
1/2+x,1/2-y,z
loop_
_atom_site_type_symbol
_atom_site_label
_atom_site_fract_x
_atom_site_fract_y
_atom_site_fract_z
Si Si1 0.808593 0.637661 0.057454
Si Si2 0.894058 0.639013 0.332094
Si Si3 0.500000 0.290156 0.000000
Si Si4 0.821719 0.747400 0.609005
Si Si5 0.252856 0.360672 0.850518
Si Si6 0.847946 0.138606 0.264084
Si Si7 0.043664 0.727912 0.206496
Si Si8 0.036307 0.142197 0.548532
O O1 0.863067 0.500000 0.064307
O O2 0.783672 0.687798 0.103936
O O3 0.927250 0.710602 0.034474
O O4 0.644278 0.639754 0.026224
O O5 0.879130 0.500000 0.315578
O O6 0.769626 0.665837 0.362940
O O7 0.870223 0.749792 0.297911
O O8 0.062685 0.661045 0.359521
O O9 0.699661 0.676379 0.575015
O O10 0.920607 0.818854 0.579579
O O11 0.301051 0.500000 0.857242
O O12 0.099387 0.351666 0.814986
O O13 0.379098 0.285858 0.831428
O O14 0.972258 0.167912 0.233346
O O15 0.677559 0.155892 0.237088
O O16 0.866595 0.000000 0.280956
O O17 0.000000 0.197330 0.500000
O O18 0.027233 0.000000 0.543920
#
# Coordination Sequence:
#
# PCOD9193123 Si02
#       8
#     8   8   4   8   8   8   8   8
#     4  10  20  34  54  79 108 144 183 224 272 326
#     4  11  24  40  60  86 117 154 194 236 284 339
#     4  10  20  34  52  78 112 142 180 226 272 322
#     4  10  22  38  58  84 118 150 190 236 282 332
#     4  10  20  36  57  80 108 144 184 226 276 333
#     4  11  24  40  60  86 115 148 189 237 288 342
#     4  10  22  38  58  82 112 144 184 232 284 336
#     4  10  20  36  59  85 114 150 190 232 280 333
#
# _framework density 19.778741
#
# number of rings (size 3 to 8) (size 9 to 14) (size 15 to 20)
#    0.000    1.733    0.000    4.000    0.000    8.533 
#    0.000    0.000    0.000   19.200    0.000    0.000 
#    0.000    0.000    0.000    0.000    0.000    0.000 
#
# Total GULP energy -167455.518343 kJ/mol
# GULP energy per Si atom -5581.850611 kJ/mol
# Density = 1.973372 g / cm^3
# Si number density = 19.778741 Si / 1000 Ang^3
#
#
#
# Elastic Constant Matrix: (Units=GPa)
#
#
# Indices 1 2 3 4 5 6 
#
# 1 69.8599 7.1419 0.2471 0.0000 7.0519 0.0000
# 2 7.1419 93.9503 20.4798 0.0000 -2.3050 0.0000
# 3 0.2471 20.4798 71.5426 0.0000 -1.5206 0.0000
# 4 0.0000 0.0000 0.0000 20.3049 0.0000 7.5313
# 5 7.0519 -2.3050 -1.5206 0.0000 21.9230 0.0000
# 6 0.0000 0.0000 0.0000 7.5313 0.0000 -6.6982
#
#
#
# Elastic Compliance Matrix: (Units=1/GPa)
#
#
# Indices 1 2 3 4 5 6 
#
# 1 0.014944 -0.001304 0.000217 0.000000 -0.004929 0.000000
# 2 -0.001304 0.011487 -0.003254 0.000000 0.001402 0.000000
# 3 0.000217 -0.003254 0.014922 0.000000 0.000623 0.000000
# 4 0.000000 0.000000 0.000000 0.034755 0.000000 0.039078
# 5 -0.004929 0.001402 0.000623 0.000000 0.047390 0.000000
# 6 0.000000 0.000000 0.000000 0.039078 0.000000 -0.105356
#
#
# Mechanical properties :
#
#
# Convention : Reuss Voigt Hill
#
# Bulk Modulus (GPa) = 30.60868 32.34339 31.47604
# Shear Modulus (GPa) = 132.57476 20.93822 76.75649
#
# Velocity S-wave (km/s) = 8.19600 3.25718 6.23633
# Velocity P-wave (km/s) = 10.25061 5.52573 8.23434
#
# Compressibility (1/GPa) = 0.03267047
#
# Stress axis : x y z
#
# Youngs Moduli (GPa) = 66.91426 87.05675 67.01678
#
# Poissons Ratio (x) = 0.11355 -0.01454
# Poissons Ratio (y) = 0.08727 0.21807
# Poissons Ratio (z) = -0.01452 0.28327
#
# Static dielectric constant tensor:
#      x y z
#    x 1.688310 0.000000 0.013020 
#    y 0.000000 1.671470 0.000000 
#    z 0.013020 0.000000 1.722110 
# 
# From -- ./inp_files/372180.got.cif
#   From: 2010.05.17/outbox.cif.g08.bks.cpg/sg12_187_cif.got.tgz:372180.got - 2010.06.03 13:09:07.
