data_PCOD9193745
_publ_section_title
;
Structure prediction by ZEFSAII (Michael W. Deem and Ramdas Pophale) SiO2 
 PCOD9193745
Probable space group: C 2/M
;
_chemical_formula_sum "Si O2"
_cell_formula_units_Z 40
_cell_length_a 26.004927
_cell_length_b 9.267989
_cell_length_c 7.229602
_cell_angle_alpha 90.000000
_cell_angle_beta 79.478882
_cell_angle_gamma 90.000000
_cell_volume 1713.136478
_symmetry_space_group_name_H-M "C 2/M"
_symmetry_group_IT_number 12
_symmetry_cell_setting 'monoclinic'
loop_
_space_group_symop_operation_xyz
x,y,z
-x,y,-z
-x,-y,-z
x,-y,z
1/2+x,1/2+y,z
1/2-x,1/2+y,-z
1/2-x,1/2-y,-z
1/2+x,1/2-y,z
loop_
_atom_site_type_symbol
_atom_site_label
_atom_site_fract_x
_atom_site_fract_y
_atom_site_fract_z
Si Si1 0.181370 0.335207 0.210136
Si Si2 0.879801 0.837212 0.285955
Si Si3 0.282409 0.835381 0.246610
Si Si4 0.516931 0.837398 0.701283
Si Si5 0.415583 0.662306 0.838970
O O1 0.173248 0.500000 0.276212
O O2 0.229906 0.258135 0.276347
O O3 0.127980 0.243932 0.254086
O O4 0.197780 0.340350 0.981065
O O5 0.827972 0.741364 0.332166
O O6 0.930639 0.755140 0.324528
O O7 0.873559 0.000000 0.362871
O O8 0.890916 0.849690 0.058552
O O9 0.272982 0.000000 0.311007
O O10 0.500000 0.847956 0.500000
O O11 0.468294 0.754338 0.824315
O O12 0.524878 0.000000 0.769143
O O13 0.427035 0.500000 0.763883
#
# Coordination Sequence:
#
# PCOD9193745 Si02
#       5
#     8   8   8   8   8
#     4   9  16  27  46  74 107 139 170 208 254 302
#     4  10  20  34  54  80 107 136 173 215 258 307
#     4   9  16  27  46  74 107 139 170 208 254 302
#     4  11  24  39  54  74 102 137 176 217 262 312
#     4  10  20  34  54  80 107 136 173 215 258 307
#
# _framework density 23.348984999999999
#
# number of rings (size 3 to 8) (size 9 to 14) (size 15 to 20)
#    0.000    2.200    0.000    3.600    0.000   11.200 
#    0.000    0.000    0.000    1.200    0.000    0.000 
#    0.000    0.000    0.000    0.000    0.000    0.000 
#
# Total GULP energy -111967.071821 kJ/mol
# GULP energy per Si atom -5598.353591 kJ/mol
# Density = 2.329584 g / cm^3
# Si number density = 23.348985 Si / 1000 Ang^3
#
#
#
# Elastic Constant Matrix: (Units=GPa)
#
#
# Indices 1 2 3 4 5 6 
#
# 1 188.8359 115.7719 4.9549 0.0000 35.8449 0.0000
# 2 115.7719 244.3732 0.8227 0.0000 18.9190 0.0000
# 3 4.9549 0.8227 32.2026 0.0000 -12.0405 0.0000
# 4 0.0000 0.0000 0.0000 14.2266 0.0000 5.1307
# 5 35.8449 18.9190 -12.0405 0.0000 35.3616 0.0000
# 6 0.0000 0.0000 0.0000 5.1307 0.0000 46.2468
#
#
#
# Elastic Compliance Matrix: (Units=1/GPa)
#
#
# Indices 1 2 3 4 5 6 
#
# 1 0.009481 -0.003760 -0.004817 0.000000 -0.009239 0.000000
# 2 -0.003760 0.005795 0.000798 0.000000 0.000983 0.000000
# 3 -0.004817 0.000798 0.038319 0.000000 0.017504 0.000000
# 4 0.000000 0.000000 0.000000 0.073221 0.000000 -0.008123
# 5 -0.009239 0.000983 0.017504 0.000000 0.043079 0.000000
# 6 0.000000 0.000000 0.000000 -0.008123 0.000000 0.022524
#
#
# Mechanical properties :
#
#
# Convention : Reuss Voigt Hill
#
# Bulk Modulus (GPa) = 26.29102 78.72342 52.50722
# Shear Modulus (GPa) = 22.65975 42.09115 32.37545
#
# Velocity S-wave (km/s) = 3.11863 4.25042 3.72773
# Velocity P-wave (km/s) = 4.92466 7.60772 6.40818
#
# Compressibility (1/GPa) = 0.03803581
#
# Stress axis : x y z
#
# Youngs Moduli (GPa) = 105.47321 172.57193 26.09687
#
# Poissons Ratio (x) = 0.64890 0.12572
# Poissons Ratio (y) = 0.39660 -0.02083
# Poissons Ratio (z) = 0.50809 -0.13773
#
# Static dielectric constant tensor:
#      x y z
#    x 1.791360 0.000000 -0.016640 
#    y 0.000000 1.841210 0.000000 
#    z -0.016640 0.000000 1.972700 
# 
# From -- ./inp_files/40456.got.cif
#   From: 2010.05.17/outbox.cif.g08.bks.cpg/sg12_21_cif.got.tgz:40456.got - 2010.06.03 13:09:07.
