data_PCOD9193717
_publ_section_title
;
Structure prediction by ZEFSAII (Michael W. Deem and Ramdas Pophale) SiO2 
 PCOD9193717
Probable space group: C 2/M
;
_chemical_formula_sum "Si O2"
_cell_formula_units_Z 48
_cell_length_a 18.874109
_cell_length_b 7.752159
_cell_length_c 28.633806
_cell_angle_alpha 90.000000
_cell_angle_beta 33.360984
_cell_angle_gamma 90.000000
_cell_volume 2303.888715
_symmetry_space_group_name_H-M "C 2/M"
_symmetry_group_IT_number 12
_symmetry_cell_setting 'monoclinic'
loop_
_space_group_symop_operation_xyz
x,y,z
-x,y,-z
-x,-y,-z
x,-y,z
1/2+x,1/2+y,z
1/2-x,1/2+y,-z
1/2-x,1/2-y,-z
1/2+x,1/2-y,z
loop_
_atom_site_type_symbol
_atom_site_label
_atom_site_fract_x
_atom_site_fract_y
_atom_site_fract_z
Si Si1 0.713681 0.708569 0.592962
Si Si2 0.649399 0.288819 0.917217
Si Si3 0.955517 0.204725 0.401589
Si Si4 0.612326 0.295605 0.747569
Si Si5 0.752204 0.701995 0.761664
Si Si6 0.314285 0.793953 0.915224
O O1 0.707414 0.500000 0.596299
O O2 0.856369 0.758757 0.498029
O O3 0.615689 0.769697 0.606322
O O4 0.671627 0.774369 0.666737
O O5 0.652357 0.500000 0.916701
O O6 0.714288 0.227404 0.833341
O O7 0.727526 0.229828 0.919753
O O8 0.500000 0.237643 0.000000
O O9 0.095766 0.283510 0.330103
O O10 0.972159 0.000000 0.388155
O O11 0.641641 0.500000 0.731075
O O12 0.675275 0.221800 0.760059
O O13 0.459164 0.274812 0.832528
O O14 0.716319 0.500000 0.783678
O O15 0.321816 0.000000 0.907491
O O16 0.250000 0.750000 0.000000
#
# Coordination Sequence:
#
# PCOD9193717 Si02
#       6
#     8   8   8   8   8   8
#     4   9  19  36  56  78 106 141 180 220 266 319
#     4   9  18  34  56  80 105 136 176 217 258 310
#     4  10  20  34  54  79 108 141 178 222 266 313
#     4  10  21  37  57  80 107 140 178 221 266 314
#     4  10  20  35  56  79 106 141 178 218 266 319
#     4  11  22  36  57  82 109 141 176 217 263 313
#
# _framework density 20.834340000000001
#
# number of rings (size 3 to 8) (size 9 to 14) (size 15 to 20)
#    0.000    2.167    0.000    3.000    0.000    5.333 
#    0.000    4.167    0.000    3.500    0.000    0.000 
#    0.000    0.000    0.000    0.000    0.000    0.000 
#
# Total GULP energy -134073.261540 kJ/mol
# GULP energy per Si atom -5586.385897 kJ/mol
# Density = 2.078692 g / cm^3
# Si number density = 20.834340 Si / 1000 Ang^3
#
#
#
# Elastic Constant Matrix: (Units=GPa)
#
#
# Indices 1 2 3 4 5 6 
#
# 1 192.1840 -3.0132 112.7239 0.0035 13.8112 -0.0119
# 2 -3.0132 24.8547 -23.1984 0.0013 7.9028 -0.0001
# 3 112.7239 -23.1984 142.4731 0.0013 13.2678 -0.0016
# 4 0.0035 0.0013 0.0013 18.9790 0.0003 -1.1952
# 5 13.8112 7.9028 13.2678 0.0003 41.7798 0.0028
# 6 -0.0119 -0.0001 -0.0016 -1.1952 0.0028 11.7760
#
#
#
# Elastic Compliance Matrix: (Units=1/GPa)
#
#
# Indices 1 2 3 4 5 6 
#
# 1 0.010943 -0.008551 -0.010165 0.000000 0.001228 0.000009
# 2 -0.008551 0.060504 0.017951 -0.000004 -0.014318 -0.000003
# 3 -0.010165 0.017951 0.018536 -0.000001 -0.005921 -0.000006
# 4 0.000000 -0.000004 -0.000001 0.053029 0.000000 0.005382
# 5 0.001228 -0.014318 -0.005921 0.000000 0.028118 -0.000006
# 6 0.000009 -0.000003 -0.000006 0.005382 -0.000006 0.085465
#
#
# Mechanical properties :
#
#
# Convention : Reuss Voigt Hill
#
# Bulk Modulus (GPa) = 11.30553 59.17072 35.23813
# Shear Modulus (GPa) = 17.38469 32.70692 25.04580
#
# Velocity S-wave (km/s) = 2.89177 3.96644 3.47095
# Velocity P-wave (km/s) = 4.07284 7.03129 5.74574
#
# Compressibility (1/GPa) = 0.08845227
#
# Stress axis : x y z
#
# Youngs Moduli (GPa) = 91.38128 16.52775 53.95030
#
# Poissons Ratio (x) = 0.14133 0.54840
# Poissons Ratio (y) = 0.78143 -0.96845
# Poissons Ratio (z) = 0.92888 -0.29669
#
# Static dielectric constant tensor:
#      x y z
#    x 1.750390 0.000000 0.023970 
#    y 0.000000 1.774760 0.000000 
#    z 0.023970 0.000000 1.685430 
# 
# From -- ./inp_files/295906.got.cif
#   From: 2010.05.17/outbox.cif.g08.bks.cpg/sg12_148_cif.got.tgz:295906.got - 2010.06.03 13:09:07.
