data_PCOD9194478
_publ_section_title
;
Structure prediction by ZEFSAII (Michael W. Deem and Ramdas Pophale) SiO2 
 PCOD9194478
Probable space group: C 2/M
;
_chemical_formula_sum "Si O2"
_cell_formula_units_Z 64
_cell_length_a 12.885964
_cell_length_b 11.612395
_cell_length_c 20.262212
_cell_angle_alpha 90.000000
_cell_angle_beta 109.263299
_cell_angle_gamma 90.000000
_cell_volume 2862.221898
_symmetry_space_group_name_H-M "C 2/M"
_symmetry_group_IT_number 12
_symmetry_cell_setting 'monoclinic'
loop_
_space_group_symop_operation_xyz
x,y,z
-x,y,-z
-x,-y,-z
x,-y,z
1/2+x,1/2+y,z
1/2-x,1/2+y,-z
1/2-x,1/2-y,-z
1/2+x,1/2-y,z
loop_
_atom_site_type_symbol
_atom_site_label
_atom_site_fract_x
_atom_site_fract_y
_atom_site_fract_z
Si Si1 0.568137 0.765224 0.954707
Si Si2 0.764238 0.130988 0.921687
Si Si3 0.466289 0.812534 0.338362
Si Si4 0.107987 0.869033 0.443754
Si Si5 0.980777 0.869900 0.814024
Si Si6 0.299306 0.299320 0.206376
Si Si7 0.826338 0.706258 0.424039
Si Si8 0.841574 0.317057 0.709021
O O1 0.647544 0.853101 0.934139
O O2 0.496458 0.699662 0.885134
O O3 0.500000 0.819532 0.000000
O O4 0.644342 0.669764 0.006586
O O5 0.758905 0.223135 0.861572
O O6 0.779378 0.000000 0.903616
O O7 0.524207 0.693966 0.376202
O O8 0.366745 0.788205 0.267808
O O9 0.412493 0.858854 0.394720
O O10 0.561977 0.871941 0.315320
O O11 0.118323 0.786178 0.509190
O O12 0.230647 0.867437 0.438116
O O13 0.075921 0.000000 0.450687
O O14 0.102806 0.869542 0.807291
O O15 0.899359 0.799046 0.749636
O O16 0.943879 0.000000 0.815632
O O17 0.214594 0.365459 0.236332
O O18 0.757148 0.790818 0.361594
#
# Coordination Sequence:
#
# PCOD9194478 Si02
#       8
#     8   8   8   8   8   8   8   8
#     4  10  21  36  56  84 115 142 179 232 277 317
#     4  10  21  37  57  81 110 147 185 221 271 331
#     4   9  18  33  54  78 108 139 176 223 269 314
#     4  10  20  35  59  85 107 142 186 223 271 329
#     4  10  20  34  56  84 110 140 183 230 274 321
#     4   9  19  34  52  78 112 142 177 225 271 318
#     4   9  19  34  53  80 114 139 171 228 275 315
#     4   9  18  33  53  75 107 145 177 216 273 324
#
# _framework density 22.360249
#
# number of rings (size 3 to 8) (size 9 to 14) (size 15 to 20)
#    0.000    2.500    0.000    1.500    0.000    8.250 
#    0.000    6.250    0.000   48.750    0.000    0.000 
#    0.000    0.000    0.000    0.000    0.000    0.000 
#
# Total GULP energy -178502.116716 kJ/mol
# GULP energy per Si atom -5578.191147 kJ/mol
# Density = 2.230936 g / cm^3
# Si number density = 22.360249 Si / 1000 Ang^3
#
#
#
# Elastic Constant Matrix: (Units=GPa)
#
#
# Indices 1 2 3 4 5 6 
#
# 1 148.7343 6.3338 24.8751 0.0000 -38.7027 0.0000
# 2 6.3338 70.4374 14.7828 0.0000 6.8414 0.0000
# 3 24.8751 14.7828 119.9964 0.0000 -6.0829 0.0000
# 4 0.0000 0.0000 0.0000 -20.9226 0.0000 14.8312
# 5 -38.7027 6.8414 -6.0829 0.0000 56.8744 0.0000
# 6 0.0000 0.0000 0.0000 14.8312 0.0000 -9.0530
#
#
#
# Elastic Compliance Matrix: (Units=1/GPa)
#
#
# Indices 1 2 3 4 5 6 
#
# 1 0.008491 -0.001042 -0.001340 0.000000 0.005760 0.000000
# 2 -0.001042 0.014921 -0.001759 0.000000 -0.002692 0.000000
# 3 -0.001340 -0.001759 0.008840 0.000000 0.000245 0.000000
# 4 0.000000 0.000000 0.000000 0.296320 0.000000 0.485449
# 5 0.005760 -0.002692 0.000245 0.000000 0.021852 0.000000
# 6 0.000000 0.000000 0.000000 0.485449 0.000000 0.684831
#
#
# Mechanical properties :
#
#
# Convention : Reuss Voigt Hill
#
# Bulk Modulus (GPa) = 41.71567 47.90574 44.81070
# Shear Modulus (GPa) = 4.75499 24.92485 14.83992
#
# Velocity S-wave (km/s) = 1.45985 3.34233 2.57898
# Velocity P-wave (km/s) = 4.64093 6.03041 5.38071
#
# Compressibility (1/GPa) = 0.02397181
#
# Stress axis : x y z
#
# Youngs Moduli (GPa) = 117.77705 67.01861 113.11681
#
# Poissons Ratio (x) = 0.06982 0.15155
# Poissons Ratio (y) = 0.12269 0.19894
# Poissons Ratio (z) = 0.15780 0.11787
#
# Static dielectric constant tensor:
#      x y z
#    x 1.931080 0.000000 -0.078090 
#    y 0.000000 1.722960 0.000000 
#    z -0.078090 0.000000 1.793890 
# 
# From -- ./inp_files/309955.got.cif
#   From: 2010.05.17/outbox.cif.g08.bks.cpg/sg12_155_cif.got.tgz:309955.got - 2010.06.03 13:09:07.
