data_PCOD9194458
_publ_section_title
;
Structure prediction by ZEFSAII (Michael W. Deem and Ramdas Pophale) SiO2 
 PCOD9194458
Probable space group: C 2/M
;
_chemical_formula_sum "Si O2"
_cell_formula_units_Z 64
_cell_length_a 30.139293
_cell_length_b 14.744898
_cell_length_c 12.559036
_cell_angle_alpha 90.000000
_cell_angle_beta 150.584401
_cell_angle_gamma 90.000000
_cell_volume 2741.178166
_symmetry_space_group_name_H-M "C 2/M"
_symmetry_group_IT_number 12
_symmetry_cell_setting 'monoclinic'
loop_
_space_group_symop_operation_xyz
x,y,z
-x,y,-z
-x,-y,-z
x,-y,z
1/2+x,1/2+y,z
1/2-x,1/2+y,-z
1/2-x,1/2-y,-z
1/2+x,1/2-y,z
loop_
_atom_site_type_symbol
_atom_site_label
_atom_site_fract_x
_atom_site_fract_y
_atom_site_fract_z
Si Si1 0.922634 0.707438 0.253809
Si Si2 0.853619 0.100608 0.419548
Si Si3 0.837546 0.638123 0.879634
Si Si4 0.748193 0.891691 0.008533
Si Si5 0.284338 0.664998 0.685563
Si Si6 0.597904 0.101662 0.216061
Si Si7 0.632894 0.600096 0.935680
Si Si8 0.095376 0.109214 0.254369
O O1 0.830880 0.674824 0.121127
O O2 0.924907 0.812102 0.218512
O O3 0.000000 0.689230 0.500000
O O4 0.916203 0.648123 0.131739
O O5 0.751197 0.096110 0.252361
O O6 0.905973 0.145213 0.627073
O O7 0.892258 0.000000 0.487752
O O8 0.835435 0.135845 0.263481
O O9 0.805485 0.738332 0.779736
O O10 0.867448 0.595063 0.832557
O O11 0.729478 0.000000 0.990295
O O12 0.776591 0.886039 0.945708
O O13 0.178248 0.646300 0.451077
O O14 0.329313 0.652804 0.663830
O O15 0.337321 0.601148 0.879240
O O16 0.584130 0.000000 0.230785
O O17 0.500000 0.148307 0.000000
O O18 0.596521 0.500000 0.831942
O O19 0.113092 0.000000 0.295784
O O20 0.000000 0.122818 0.000000
#
# Coordination Sequence:
#
# PCOD9194458 Si02
#       8
#     8   8   8   8   8   8   8   8
#     4  10  22  39  59  87 120 153 199 255 301 348
#     4   9  17  34  58  81 110 151 195 243 291 342
#     4  10  21  38  58  82 114 158 197 242 298 352
#     4   9  19  37  61  87 114 155 204 243 296 359
#     4  11  22  39  59  87 122 158 194 244 299 353
#     4  11  23  38  59  88 122 160 199 240 297 366
#     4  10  21  39  63  86 117 162 200 240 302 365
#     4  10  20  34  56  83 112 149 193 243 294 345
#
# _framework density 23.347625000000001
#
# number of rings (size 3 to 8) (size 9 to 14) (size 15 to 20)
#    0.000    2.000    1.250    2.250    0.000    2.500 
#    4.500    1.250    0.000    0.000    0.000    0.000 
#    0.000    0.000    0.000    0.000    0.000    0.000 
#
# Total GULP energy -178660.862644 kJ/mol
# GULP energy per Si atom -5583.151958 kJ/mol
# Density = 2.329448 g / cm^3
# Si number density = 23.347625 Si / 1000 Ang^3
#
#
#
# Elastic Constant Matrix: (Units=GPa)
#
#
# Indices 1 2 3 4 5 6 
#
# 1 40.7332 -9.0046 6.6344 0.0000 -12.2937 0.0000
# 2 -9.0046 84.4250 10.5713 0.0000 -2.6188 0.0000
# 3 6.6344 10.5713 160.5326 0.0000 -20.4786 0.0000
# 4 0.0000 0.0000 0.0000 15.6290 0.0000 -7.6370
# 5 -12.2937 -2.6188 -20.4786 0.0000 37.3391 0.0000
# 6 0.0000 0.0000 0.0000 -7.6370 0.0000 33.5300
#
#
#
# Elastic Compliance Matrix: (Units=1/GPa)
#
#
# Indices 1 2 3 4 5 6 
#
# 1 0.028150 0.003317 -0.000183 0.000000 0.009401 0.000000
# 2 0.003317 0.012341 -0.000753 0.000000 0.001545 0.000000
# 3 -0.000183 -0.000753 0.006744 0.000000 0.003586 0.000000
# 4 0.000000 0.000000 0.000000 0.071997 0.000000 0.016398
# 5 0.009401 0.001545 0.003586 0.000000 0.031952 0.000000
# 6 0.000000 0.000000 0.000000 0.016398 0.000000 0.033559
#
#
# Mechanical properties :
#
#
# Convention : Reuss Voigt Hill
#
# Bulk Modulus (GPa) = 19.23145 33.56588 26.39867
# Shear Modulus (GPa) = 25.34063 35.79894 30.56979
#
# Velocity S-wave (km/s) = 3.29806 3.91999 3.62239
# Velocity P-wave (km/s) = 4.77051 5.90730 5.36908
#
# Compressibility (1/GPa) = 0.05199815
#
# Stress axis : x y z
#
# Youngs Moduli (GPa) = 35.52370 81.03217 148.28457
#
# Poissons Ratio (x) = -0.26878 0.02707
# Poissons Ratio (y) = -0.11783 0.11161
# Poissons Ratio (z) = 0.00649 0.06099
#
# Static dielectric constant tensor:
#      x y z
#    x 1.867410 0.000000 -0.014330 
#    y 0.000000 1.919870 0.000000 
#    z -0.014330 0.000000 1.886050 
# 
# From -- ./inp_files/190056.got.cif
#   From: 2010.05.17/outbox.cif.g08.bks.cpg/sg12_96_cif.got.tgz:190056.got - 2010.06.03 13:09:07.
