data_PCOD9194052
_publ_section_title
;
Structure prediction by ZEFSAII (Michael W. Deem and Ramdas Pophale) SiO2 
 PCOD9194052
Probable space group: C 2/M
;
_chemical_formula_sum "Si O2"
_cell_formula_units_Z 24
_cell_length_a 15.786882
_cell_length_b 9.869611
_cell_length_c 15.730799
_cell_angle_alpha 90.000000
_cell_angle_beta 26.441980
_cell_angle_gamma 90.000000
_cell_volume 1091.418793
_symmetry_space_group_name_H-M "C 2/M"
_symmetry_group_IT_number 12
_symmetry_cell_setting 'monoclinic'
loop_
_space_group_symop_operation_xyz
x,y,z
-x,y,-z
-x,-y,-z
x,-y,z
1/2+x,1/2+y,z
1/2-x,1/2+y,-z
1/2-x,1/2-y,-z
1/2+x,1/2-y,z
loop_
_atom_site_type_symbol
_atom_site_label
_atom_site_fract_x
_atom_site_fract_y
_atom_site_fract_z
Si Si1 0.089712 0.346335 0.535198
Si Si2 0.438923 0.844956 0.234055
Si Si3 0.668026 0.654681 0.917698
O O1 0.152006 0.500000 0.455952
O O2 0.250040 0.235698 0.375244
O O3 0.060242 0.344807 0.664408
O O4 0.877639 0.321010 0.691396
O O5 0.438213 0.000000 0.205489
O O6 0.613954 0.762667 0.037602
O O7 0.670972 0.500000 0.948918
O O8 0.500000 0.662295 0.000000
#
# Coordination Sequence:
#
# PCOD9194052 Si02
#       3
#     8   8   8
#     4   9  19  36  56  77 102 135 174 212 253 304
#     4  10  20  34  55  80 104 133 170 215 260 300
#     4  10  21  36  54  76 104 139 174 209 253 306
#
# _framework density 21.989726000000001
#
# number of rings (size 3 to 8) (size 9 to 14) (size 15 to 20)
#    0.000    2.333    0.000    2.000    0.000    4.667 
#    0.000    6.667    0.000    0.000    0.000    0.000 
#    0.000    0.000    0.000    0.000    0.000    0.000 
#
# Total GULP energy -67111.528012 kJ/mol
# GULP energy per Si atom -5592.627334 kJ/mol
# Density = 2.193968 g / cm^3
# Si number density = 21.989726 Si / 1000 Ang^3
#
#
#
# Elastic Constant Matrix: (Units=GPa)
#
#
# Indices 1 2 3 4 5 6 
#
# 1 68.5552 29.6376 9.8875 0.0002 -23.4624 -0.0004
# 2 29.6376 142.8084 74.1220 -0.0016 -1.2732 0.0014
# 3 9.8875 74.1220 114.4555 -0.0025 -20.0777 0.0014
# 4 0.0002 -0.0016 -0.0025 44.2172 0.0008 6.5056
# 5 -23.4624 -1.2732 -20.0777 0.0008 43.1347 -0.0004
# 6 -0.0004 0.0014 0.0014 6.5056 -0.0004 15.8792
#
#
#
# Elastic Compliance Matrix: (Units=1/GPa)
#
#
# Indices 1 2 3 4 5 6 
#
# 1 0.021670 -0.007039 0.005137 0.000000 0.013971 0.000001
# 2 -0.007039 0.013235 -0.009328 0.000000 -0.007780 -0.000001
# 3 0.005137 -0.009328 0.016090 0.000000 0.010008 0.000000
# 4 0.000000 0.000000 0.000000 0.024066 -0.000001 -0.009860
# 5 0.013971 -0.007780 0.010008 -0.000001 0.035211 0.000001
# 6 0.000001 -0.000001 0.000000 -0.009860 0.000001 0.067015
#
#
# Mechanical properties :
#
#
# Convention : Reuss Voigt Hill
#
# Bulk Modulus (GPa) = 35.04381 61.45704 48.25043
# Shear Modulus (GPa) = 23.89375 34.79101 29.34238
#
# Velocity S-wave (km/s) = 3.29992 3.98194 3.65686
# Velocity P-wave (km/s) = 5.52180 7.01070 6.31032
#
# Compressibility (1/GPa) = 0.02853571
#
# Stress axis : x y z
#
# Youngs Moduli (GPa) = 46.14601 75.55475 62.15136
#
# Poissons Ratio (x) = 0.53185 -0.31929
# Poissons Ratio (y) = 0.32483 0.57975
# Poissons Ratio (z) = -0.23707 0.70478
#
# Static dielectric constant tensor:
#      x y z
#    x 1.889360 0.000000 0.012780 
#    y 0.000000 1.739530 0.000000 
#    z 0.012780 0.000000 1.794160 
# 
# From -- ./inp_files/13809.got.cif
#   From: 2010.05.17/outbox.cif.g08.bks.cpg/sg12_7_cif.got.tgz:13809.got - 2010.06.03 13:09:07.
