data_PCOD9194704
_publ_section_title
;
Structure prediction by ZEFSAII (Michael W. Deem and Ramdas Pophale) SiO2 
 PCOD9194704
Probable space group: C 2/M
;
_chemical_formula_sum "Si O2"
_cell_formula_units_Z 56
_cell_length_a 9.465826
_cell_length_b 14.427129
_cell_length_c 19.469379
_cell_angle_alpha 90.000000
_cell_angle_beta 92.460385
_cell_angle_gamma 90.000000
_cell_volume 2656.378698
_symmetry_space_group_name_H-M "C 2/M"
_symmetry_group_IT_number 12
_symmetry_cell_setting 'monoclinic'
loop_
_space_group_symop_operation_xyz
x,y,z
-x,y,-z
-x,-y,-z
x,-y,z
1/2+x,1/2+y,z
1/2-x,1/2+y,-z
1/2-x,1/2-y,-z
1/2+x,1/2-y,z
loop_
_atom_site_type_symbol
_atom_site_label
_atom_site_fract_x
_atom_site_fract_y
_atom_site_fract_z
Si Si1 0.614105 0.781798 0.951462
Si Si2 0.378152 0.607325 0.333944
Si Si3 0.160064 0.608208 0.221350
Si Si4 0.636358 0.714081 0.136032
Si Si5 0.040229 0.609086 0.651834
Si Si6 0.877870 0.764053 0.451479
Si Si7 0.153305 0.891903 0.276469
O O1 0.503854 0.707574 0.914962
O O2 0.712374 0.820500 0.891804
O O3 0.500000 0.832444 0.000000
O O4 0.750000 0.750000 0.000000
O O5 0.356280 0.500000 0.350672
O O6 0.315527 0.620740 0.256775
O O7 0.316357 0.672056 0.390015
O O8 0.542333 0.632376 0.333159
O O9 0.135748 0.500000 0.203688
O O10 0.141564 0.676871 0.157401
O O11 0.066622 0.630826 0.287388
O O12 0.622331 0.664165 0.207821
O O13 0.019039 0.500000 0.633486
O O14 0.052023 0.675135 0.585717
O O15 0.191243 0.620477 0.691996
O O16 0.750000 0.750000 0.500000
O O17 0.000000 0.810257 0.500000
O O18 0.130625 0.000000 0.260672
#
# Coordination Sequence:
#
# PCOD9194704 Si02
#       7
#     8   8   8   8   8   8   8
#     4   9  20  35  54  79 110 151 182 204 250 303
#     4  10  21  37  53  75 109 136 165 221 277 314
#     4  10  20  34  57  85 106 131 171 219 273 320
#     4  11  18  33  60  79 106 141 174 220 256 301
#     4  10  21  37  53  75 109 136 165 221 277 314
#     4  12  24  36  54  76 100 140 188 216 248 320
#     4  10  20  34  57  85 106 131 171 219 273 320
#
# _framework density 21.081330999999999
#
# number of rings (size 3 to 8) (size 9 to 14) (size 15 to 20)
#    0.000    1.714    0.000    5.143    0.000    1.143 
#    0.000    0.000    0.000   17.143    0.000    0.000 
#    0.000    0.000    0.000    0.000    0.000    0.000 
#
# Total GULP energy -155963.882629 kJ/mol
# GULP energy per Si atom -5570.138665 kJ/mol
# Density = 2.103335 g / cm^3
# Si number density = 21.081331 Si / 1000 Ang^3
#
#
#
# Elastic Constant Matrix: (Units=GPa)
#
#
# Indices 1 2 3 4 5 6 
#
# 1 112.4804 8.0905 11.3941 0.0000 -13.8201 0.0000
# 2 8.0905 44.7110 39.1559 0.0000 -6.6213 0.0000
# 3 11.3941 39.1559 73.9145 0.0000 -7.8160 0.0000
# 4 0.0000 0.0000 0.0000 -4.9721 0.0000 2.9296
# 5 -13.8201 -6.6213 -7.8160 0.0000 30.0775 0.0000
# 6 0.0000 0.0000 0.0000 2.9296 0.0000 14.4673
#
#
#
# Elastic Compliance Matrix: (Units=1/GPa)
#
#
# Indices 1 2 3 4 5 6 
#
# 1 0.009502 -0.000394 -0.000826 0.000000 0.004065 0.000000
# 2 -0.000394 0.042107 -0.021886 0.000000 0.003401 0.000000
# 3 -0.000826 -0.021886 0.025399 0.000000 0.001403 0.000000
# 4 0.000000 0.000000 0.000000 -0.179682 0.000000 0.036386
# 5 0.004065 0.003401 0.001403 0.000000 0.036228 0.000000
# 6 0.000000 0.000000 0.000000 0.036386 0.000000 0.061753
#
#
# Mechanical properties :
#
#
# Convention : Reuss Voigt Hill
#
# Bulk Modulus (GPa) = 32.47160 38.70963 35.59062
# Shear Modulus (GPa) = 96.55245 19.41222 57.98233
#
# Velocity S-wave (km/s) = 6.77491 3.03780 5.25013
# Velocity P-wave (km/s) = 8.75418 5.54132 7.32605
#
# Compressibility (1/GPa) = 0.03079614
#
# Stress axis : x y z
#
# Youngs Moduli (GPa) = 105.24252 23.74875 39.37201
#
# Poissons Ratio (x) = 0.00935 0.03253
# Poissons Ratio (y) = 0.04144 0.86169
# Poissons Ratio (z) = 0.08696 0.51976
#
# Static dielectric constant tensor:
#      x y z
#    x 1.889630 0.000000 -0.027480 
#    y 0.000000 1.797300 0.000000 
#    z -0.027480 0.000000 1.813840 
# 
# From -- ./inp_files/300169.got.cif
#   From: 2010.05.17/outbox.cif.g08.bks.cpg/sg12_151_cif.got.tgz:300169.got - 2010.06.03 13:09:07.
