data_PCOD9194699
_publ_section_title
;
Structure prediction by ZEFSAII (Michael W. Deem and Ramdas Pophale) SiO2 
 PCOD9194699
Probable space group: C 2/M
;
_chemical_formula_sum "Si O2"
_cell_formula_units_Z 48
_cell_length_a 8.573240
_cell_length_b 12.892787
_cell_length_c 18.275001
_cell_angle_alpha 90.000000
_cell_angle_beta 112.545570
_cell_angle_gamma 90.000000
_cell_volume 1865.611922
_symmetry_space_group_name_H-M "C 2/M"
_symmetry_group_IT_number 12
_symmetry_cell_setting 'monoclinic'
loop_
_space_group_symop_operation_xyz
x,y,z
-x,y,-z
-x,-y,-z
x,-y,z
1/2+x,1/2+y,z
1/2-x,1/2+y,-z
1/2-x,1/2-y,-z
1/2+x,1/2-y,z
loop_
_atom_site_type_symbol
_atom_site_label
_atom_site_fract_x
_atom_site_fract_y
_atom_site_fract_z
Si Si1 0.253941 0.167336 0.302142
Si Si2 0.073575 0.698674 0.942777
Si Si3 0.944369 0.348802 0.568830
Si Si4 0.823485 0.619659 0.791490
Si Si5 0.609225 0.617199 0.437194
Si Si6 0.025196 0.109863 0.856486
O O1 0.445932 0.125091 0.340629
O O2 0.223936 0.288136 0.273589
O O3 0.191668 0.138490 0.372434
O O4 0.132739 0.108536 0.225642
O O5 0.977638 0.805565 0.907219
O O6 0.012547 0.635863 0.859781
O O7 0.250000 0.750000 0.000000
O O8 0.000000 0.641580 0.000000
O O9 0.748070 0.374562 0.527688
O O10 0.986158 0.225862 0.572668
O O11 0.000000 0.392329 0.500000
O O12 0.801904 0.500000 0.763272
O O13 0.686902 0.635443 0.833767
O O14 0.540228 0.500000 0.424657
O O15 0.060516 0.000000 0.897983
#
# Coordination Sequence:
#
# PCOD9194699 Si02
#       6
#     8   8   8   8   8   8
#     4  10  20  34  57  84 117 150 197 249 297 351
#     4  11  22  40  66  92 124 159 199 255 301 360
#     4   9  20  36  55  83 115 150 197 252 300 357
#     4  10  22  40  63  88 118 161 204 241 299 369
#     4  10  20  36  58  82 113 156 200 246 305 363
#     4  10  21  37  60  89 120 159 200 243 304 367
#
# _framework density 25.728826000000002
#
# number of rings (size 3 to 8) (size 9 to 14) (size 15 to 20)
#    0.000    2.000    1.667    1.500    0.000    7.333 
#    0.000    6.667    0.000    7.000    0.000    0.000 
#    0.000    0.000    0.000    0.000    0.000    0.000 
#
# Total GULP energy -133615.746785 kJ/mol
# GULP energy per Si atom -5567.322783 kJ/mol
# Density = 2.567027 g / cm^3
# Si number density = 25.728826 Si / 1000 Ang^3
#
#
#
# Elastic Constant Matrix: (Units=GPa)
#
#
# Indices 1 2 3 4 5 6 
#
# 1 15.0331 9.3884 10.8595 0.0000 2.3814 0.0000
# 2 9.3884 195.9007 15.4713 0.0000 -9.6225 0.0000
# 3 10.8595 15.4713 160.0399 0.0000 39.7810 0.0000
# 4 0.0000 0.0000 0.0000 -9.9279 0.0000 -14.8040
# 5 2.3814 -9.6225 39.7810 0.0000 43.3563 0.0000
# 6 0.0000 0.0000 0.0000 -14.8040 0.0000 4.5583
#
#
#
# Elastic Compliance Matrix: (Units=1/GPa)
#
#
# Indices 1 2 3 4 5 6 
#
# 1 0.071754 -0.003117 -0.004425 0.000000 -0.000573 0.000000
# 2 -0.003117 0.005427 -0.000849 0.000000 0.002154 0.000000
# 3 -0.004425 -0.000849 0.008572 0.000000 -0.007811 0.000000
# 4 0.000000 0.000000 0.000000 -0.017239 0.000000 -0.055988
# 5 -0.000573 0.002154 -0.007811 0.000000 0.030741 0.000000
# 6 0.000000 0.000000 0.000000 -0.055988 0.000000 0.037547
#
#
# Mechanical properties :
#
#
# Convention : Reuss Voigt Hill
#
# Bulk Modulus (GPa) = 14.49887 49.15691 31.82789
# Shear Modulus (GPa) = 28.31674 29.94764 29.13219
#
# Velocity S-wave (km/s) = 3.32110 3.41541 3.36858
# Velocity P-wave (km/s) = 4.51152 5.89072 5.24664
#
# Compressibility (1/GPa) = 0.06897090
#
# Stress axis : x y z
#
# Youngs Moduli (GPa) = 13.93651 184.26871 116.65597
#
# Poissons Ratio (x) = 0.57444 0.51621
# Poissons Ratio (y) = 0.04345 0.09899
# Poissons Ratio (z) = 0.06167 0.15637
#
# Static dielectric constant tensor:
#      x y z
#    x 2.218180 0.000000 0.057810 
#    y 0.000000 2.000770 0.000000 
#    z 0.057810 0.000000 2.073830 
# 
# From -- ./inp_files/304868.got.cif
#   From: 2010.05.17/outbox.cif.g08.bks.cpg/sg12_153_cif.got.tgz:304868.got - 2010.06.03 13:09:07.
