data_PCOD9194339
_publ_section_title
;
Structure prediction by ZEFSAII (Michael W. Deem and Ramdas Pophale) SiO2 
 PCOD9194339
Probable space group: C 2/M
;
_chemical_formula_sum "Si O2"
_cell_formula_units_Z 50
_cell_length_a 12.252479
_cell_length_b 13.877841
_cell_length_c 16.981416
_cell_angle_alpha 90.000000
_cell_angle_beta 110.273736
_cell_angle_gamma 90.000000
_cell_volume 2708.599392
_symmetry_space_group_name_H-M "C 2/M"
_symmetry_group_IT_number 12
_symmetry_cell_setting 'monoclinic'
loop_
_space_group_symop_operation_xyz
x,y,z
-x,y,-z
-x,-y,-z
x,-y,z
1/2+x,1/2+y,z
1/2-x,1/2+y,-z
1/2-x,1/2-y,-z
1/2+x,1/2-y,z
loop_
_atom_site_type_symbol
_atom_site_label
_atom_site_fract_x
_atom_site_fract_y
_atom_site_fract_z
Si Si1 0.989049 0.113068 0.208625
Si Si2 0.848484 0.103112 0.335145
Si Si3 0.000000 0.000000 0.500000
Si Si4 0.941399 0.611438 0.901643
Si Si5 0.209590 0.243111 0.230519
Si Si6 0.384994 0.616315 0.021213
Si Si7 0.172617 0.386989 0.859232
O O1 0.105000 0.175279 0.232062
O O2 0.926957 0.118205 0.276930
O O3 0.906130 0.146735 0.116148
O O4 0.017100 0.000000 0.201326
O O5 0.762339 0.192518 0.313396
O O6 0.783648 0.000000 0.307144
O O7 0.930571 0.082531 0.429761
O O8 0.900884 0.500000 0.898198
O O9 0.842047 0.682085 0.846711
O O10 0.045075 0.617864 0.863956
O O11 0.000000 0.635869 0.000000
O O12 0.304734 0.176673 0.211604
O O13 0.380162 0.500000 0.021022
O O14 0.500000 0.642899 0.000000
O O15 0.267735 0.646131 0.948175
O O16 0.196932 0.500000 0.848151
#
# Coordination Sequence:
#
# PCOD9194339 Si02
#       7
#     8   8   2   8   8   8   8
#     4  10  20  34  55  86 116 145 194 238 269 328
#     4   9  21  40  64  81 109 142 181 240 287 344
#     4   8  20  48  68  80 106 138 184 232 304 348
#     4  10  24  38  46  69 117 162 201 237 272 321
#     4  12  21  33  57  88 110 147 193 231 282 334
#     4   9  16  29  48  74 112 160 198 225 254 305
#     4  10  21  36  52  75 118 166 193 234 274 309
#
# _framework density 18.459724000000001
#
# number of rings (size 3 to 8) (size 9 to 14) (size 15 to 20)
#    0.480    1.600    1.600    1.920    4.480    0.640 
#    0.000    0.800    0.000    0.000    0.000    1.120 
#    0.000    0.000    0.000    0.000    0.000    0.000 
#
# Total GULP energy -139341.073706 kJ/mol
# GULP energy per Si atom -5573.642948 kJ/mol
# Density = 1.841771 g / cm^3
# Si number density = 18.459724 Si / 1000 Ang^3
#
#
#
# Elastic Constant Matrix: (Units=GPa)
#
#
# Indices 1 2 3 4 5 6 
#
# 1 34.7954 18.5978 0.7035 0.0000 4.2437 0.0000
# 2 18.5978 98.3825 30.1441 0.0000 12.2632 0.0000
# 3 0.7035 30.1441 82.9087 0.0000 17.5842 0.0000
# 4 0.0000 0.0000 0.0000 19.9605 0.0000 11.4785
# 5 4.2437 12.2632 17.5842 0.0000 8.3602 0.0000
# 6 0.0000 0.0000 0.0000 11.4785 0.0000 25.4166
#
#
#
# Elastic Compliance Matrix: (Units=1/GPa)
#
#
# Indices 1 2 3 4 5 6 
#
# 1 0.034475 -0.005669 0.006710 0.000000 -0.023297 0.000000
# 2 -0.005669 0.013435 -0.002288 0.000000 -0.012018 0.000000
# 3 0.006710 -0.002288 0.023193 0.000000 -0.048833 0.000000
# 4 0.000000 0.000000 0.000000 0.067674 0.000000 -0.030563
# 5 -0.023297 -0.012018 -0.048833 0.000000 0.251780 0.000000
# 6 0.000000 0.000000 0.000000 -0.030563 0.000000 0.053147
#
#
# Mechanical properties :
#
#
# Convention : Reuss Voigt Hill
#
# Bulk Modulus (GPa) = 14.57531 34.99749 24.78640
# Shear Modulus (GPa) = 10.65942 21.85688 16.25815
#
# Velocity S-wave (km/s) = 2.40561 3.44471 2.97094
# Velocity P-wave (km/s) = 3.95333 5.90096 5.02246
#
# Compressibility (1/GPa) = 0.06860918
#
# Stress axis : x y z
#
# Youngs Moduli (GPa) = 29.00652 74.43256 43.11562
#
# Poissons Ratio (x) = 0.42195 -0.28929
# Poissons Ratio (y) = 0.16444 0.09864
# Poissons Ratio (z) = -0.19462 0.17029
#
# Static dielectric constant tensor:
#      x y z
#    x 1.646070 0.000000 0.004950 
#    y 0.000000 1.706160 0.000000 
#    z 0.004950 0.000000 1.604040 
# 
# From -- ./inp_files/263026.got.cif
#   From: 2010.05.17/outbox.cif.g08.bks.cpg/sg12_132_cif.got.tgz:263026.got - 2010.06.03 13:09:07.
