data_PCOD9194433
_publ_section_title
;
Structure prediction by ZEFSAII (Michael W. Deem and Ramdas Pophale) SiO2 
 PCOD9194433
Probable space group: C 2/M
;
_chemical_formula_sum "Si O2"
_cell_formula_units_Z 42
_cell_length_a 14.899606
_cell_length_b 7.520415
_cell_length_c 22.002348
_cell_angle_alpha 90.000000
_cell_angle_beta 140.724817
_cell_angle_gamma 90.000000
_cell_volume 1560.704340
_symmetry_space_group_name_H-M "C 2/M"
_symmetry_group_IT_number 12
_symmetry_cell_setting 'monoclinic'
loop_
_space_group_symop_operation_xyz
x,y,z
-x,y,-z
-x,-y,-z
x,-y,z
1/2+x,1/2+y,z
1/2-x,1/2+y,-z
1/2-x,1/2-y,-z
1/2+x,1/2-y,z
loop_
_atom_site_type_symbol
_atom_site_label
_atom_site_fract_x
_atom_site_fract_y
_atom_site_fract_z
Si Si1 0.301913 0.704602 0.425718
Si Si2 0.500000 0.000000 0.500000
Si Si3 0.810108 0.793717 0.938135
Si Si4 0.964492 0.216304 0.141463
Si Si5 0.226661 0.214497 0.212519
Si Si6 0.444604 0.292121 0.627145
O O1 0.339213 0.500000 0.432988
O O2 0.372244 0.772831 0.526882
O O3 0.136366 0.712781 0.357187
O O4 0.378050 0.844154 0.422377
O O5 0.641254 0.781045 0.862066
O O6 0.838238 0.720648 0.886092
O O7 0.851262 0.000000 0.958590
O O8 0.886363 0.721947 0.037989
O O9 0.126476 0.275173 0.215296
O O10 0.963171 0.000000 0.145406
O O11 0.389537 0.266019 0.294191
O O12 0.220755 0.000000 0.208354
O O13 0.415955 0.500000 0.616422
#
# Coordination Sequence:
#
# PCOD9194433 Si02
#       6
#     8   2   8   8   8   8
#     4  10  22  41  65  90 124 159 200 244 302 360
#     4  12  22  40  68 102 116 154 202 256 296 366
#     4   9  18  34  54  78 110 147 193 244 295 354
#     4   9  18  34  54  78 109 148 193 243 296 354
#     4  10  20  34  56  82 111 154 197 237 299 361
#     4  10  21  40  61  85 117 160 198 244 297 364
#
# _framework density 26.910926
#
# number of rings (size 3 to 8) (size 9 to 14) (size 15 to 20)
#    0.000    2.286    0.952    1.429    2.667    3.810 
#    3.429    0.000    0.000    5.714    0.000    0.000 
#    0.000    0.000    0.000    0.000    0.000    0.000 
#
# Total GULP energy -117254.784252 kJ/mol
# GULP energy per Si atom -5583.561155 kJ/mol
# Density = 2.684968 g / cm^3
# Si number density = 26.910926 Si / 1000 Ang^3
#
#
#
# Elastic Constant Matrix: (Units=GPa)
#
#
# Indices 1 2 3 4 5 6 
#
# 1 171.4360 19.3245 24.3952 0.0000 28.0327 0.0000
# 2 19.3245 120.0610 -3.2182 0.0000 11.1991 0.0000
# 3 24.3952 -3.2182 83.3864 0.0000 34.6265 0.0000
# 4 0.0000 0.0000 0.0000 15.0157 0.0000 11.5210
# 5 28.0327 11.1991 34.6265 0.0000 58.1699 0.0000
# 6 0.0000 0.0000 0.0000 11.5210 0.0000 8.3876
#
#
#
# Elastic Compliance Matrix: (Units=1/GPa)
#
#
# Indices 1 2 3 4 5 6 
#
# 1 0.006451 -0.000840 -0.000924 0.000000 -0.002397 0.000000
# 2 -0.000840 0.008704 0.001474 0.000000 -0.002148 0.000000
# 3 -0.000924 0.001474 0.016276 0.000000 -0.009527 0.000000
# 4 0.000000 0.000000 0.000000 -1.235677 0.000000 1.697295
# 5 -0.002397 -0.002148 -0.009527 0.000000 0.024431 0.000000
# 6 0.000000 0.000000 0.000000 1.697295 0.000000 -2.212137
#
#
# Mechanical properties :
#
#
# Convention : Reuss Voigt Hill
#
# Bulk Modulus (GPa) = 32.41442 50.65403 41.53423
# Shear Modulus (GPa) = -1.47881 38.60676 18.56398
#
# Velocity S-wave (km/s) = -0.74210 3.79174 2.62931
# Velocity P-wave (km/s) = 3.36704 6.16712 4.96842
#
# Compressibility (1/GPa) = 0.03085046
#
# Stress axis : x y z
#
# Youngs Moduli (GPa) = 155.00974 114.88796 61.44170
#
# Poissons Ratio (x) = 0.09645 0.05679
# Poissons Ratio (y) = 0.13014 -0.09054
# Poissons Ratio (z) = 0.14329 -0.16931
#
# Static dielectric constant tensor:
#      x y z
#    x 2.261430 0.000000 -0.064750 
#    y 0.000000 2.018370 0.000000 
#    z -0.064750 0.000000 2.248300 
# 
# From -- ./inp_files/221469.got.cif
#   From: 2010.05.17/outbox.cif.g08.bks.cpg/sg12_111_cif.got.tgz:221469.got - 2010.06.03 13:09:07.
