data_PCOD9194295
_publ_section_title
;
Structure prediction by ZEFSAII (Michael W. Deem and Ramdas Pophale) SiO2 
 PCOD9194295
Probable space group: C 2/M
;
_chemical_formula_sum "Si O2"
_cell_formula_units_Z 50
_cell_length_a 14.036428
_cell_length_b 14.771749
_cell_length_c 13.168742
_cell_angle_alpha 90.000000
_cell_angle_beta 71.928249
_cell_angle_gamma 90.000000
_cell_volume 2595.745131
_symmetry_space_group_name_H-M "C 2/M"
_symmetry_group_IT_number 12
_symmetry_cell_setting 'monoclinic'
loop_
_space_group_symop_operation_xyz
x,y,z
-x,y,-z
-x,-y,-z
x,-y,z
1/2+x,1/2+y,z
1/2-x,1/2+y,-z
1/2-x,1/2-y,-z
1/2+x,1/2-y,z
loop_
_atom_site_type_symbol
_atom_site_label
_atom_site_fract_x
_atom_site_fract_y
_atom_site_fract_z
Si Si1 0.892289 0.665003 0.089021
Si Si2 0.711360 0.393563 0.582579
Si Si3 0.000000 0.000000 0.000000
Si Si4 0.896575 0.275951 0.474532
Si Si5 0.460218 0.102898 0.265749
Si Si6 0.832199 0.604284 0.905156
Si Si7 0.137005 0.132321 0.833399
O O1 0.891456 0.601436 0.187463
O O2 0.882056 0.762931 0.140710
O O3 0.818282 0.651947 0.018604
O O4 0.000000 0.652424 0.000000
O O5 0.718515 0.500000 0.548918
O O6 0.819037 0.343656 0.556203
O O7 0.651783 0.323199 0.529065
O O8 0.659165 0.389635 0.709618
O O9 0.955215 0.077573 0.091351
O O10 0.918096 0.327299 0.361294
O O11 0.000000 0.267778 0.500000
O O12 0.570310 0.135016 0.190724
O O13 0.468607 0.000000 0.303565
O O14 0.854423 0.500000 0.924173
O O15 0.734527 0.607932 0.868385
#
# Coordination Sequence:
#
# PCOD9194295 Si02
#       7
#     8   8   2   8   8   8   8
#     4  10  20  34  55  84 120 159 191 245 308 363
#     4  11  24  43  67  93 130 168 209 272 323 377
#     4  12  24  36  64  84 120 168 208 240 304 372
#     4  11  24  42  68  96 124 166 221 267 327 383
#     4  10  20  37  61  88 122 157 199 254 320 377
#     4  10  20  34  57  88 122 155 198 250 304 367
#     4  12  21  39  59  85 119 161 208 245 300 372
#
# _framework density 19.262291999999999
#
# number of rings (size 3 to 8) (size 9 to 14) (size 15 to 20)
#    0.000    1.280    4.000    2.400    0.000    4.800 
#    0.000    0.000    0.000    0.000    0.000    0.000 
#    0.000    0.000    0.000    0.000    0.000    0.000 
#
# Total GULP energy -139181.055864 kJ/mol
# GULP energy per Si atom -5567.242235 kJ/mol
# Density = 1.921845 g / cm^3
# Si number density = 19.262292 Si / 1000 Ang^3
#
#
#
# Elastic Constant Matrix: (Units=GPa)
#
#
# Indices 1 2 3 4 5 6 
#
# 1 40.0900 17.1684 6.0395 0.0000 1.7098 0.0000
# 2 17.1684 135.2176 24.5342 0.0000 -4.8271 0.0000
# 3 6.0395 24.5342 71.1380 0.0000 -12.9939 0.0000
# 4 0.0000 0.0000 0.0000 12.2742 0.0000 -11.5853
# 5 1.7098 -4.8271 -12.9939 0.0000 7.3054 0.0000
# 6 0.0000 0.0000 0.0000 -11.5853 0.0000 21.5585
#
#
#
# Elastic Compliance Matrix: (Units=1/GPa)
#
#
# Indices 1 2 3 4 5 6 
#
# 1 0.027678 -0.003338 -0.004125 0.000000 -0.016020 0.000000
# 2 -0.003338 0.008293 -0.002123 0.000000 0.002485 0.000000
# 3 -0.004125 -0.002123 0.022307 0.000000 0.039239 0.000000
# 4 0.000000 0.000000 0.000000 0.165333 0.000000 0.088848
# 5 -0.016020 0.002485 0.039239 0.000000 0.212068 0.000000
# 6 0.000000 0.000000 0.000000 0.088848 0.000000 0.094131
#
#
# Mechanical properties :
#
#
# Convention : Reuss Voigt Hill
#
# Bulk Modulus (GPa) = 25.57090 37.99221 31.78156
# Shear Modulus (GPa) = 8.89653 21.47452 15.18552
#
# Velocity S-wave (km/s) = 2.15143 3.34256 2.81081
# Velocity P-wave (km/s) = 4.41310 5.88756 5.20283
#
# Compressibility (1/GPa) = 0.03910696
#
# Stress axis : x y z
#
# Youngs Moduli (GPa) = 36.13002 120.58118 44.82946
#
# Poissons Ratio (x) = 0.40246 0.18491
# Poissons Ratio (y) = 0.12059 0.09517
# Poissons Ratio (z) = 0.14903 0.25598
#
# Static dielectric constant tensor:
#      x y z
#    x 1.703850 0.000000 0.004860 
#    y 0.000000 1.708620 0.000000 
#    z 0.004860 0.000000 1.679040 
# 
# From -- ./inp_files/143648.got.cif
#   From: 2010.05.17/outbox.cif.g08.bks.cpg/sg12_72_cif.got.tgz:143648.got - 2010.06.03 13:09:07.
