data_PCOD9194987
_publ_section_title
;
Structure prediction by ZEFSAII (Michael W. Deem and Ramdas Pophale) SiO2 
 PCOD9194987
Probable space group: C 2/M
;
_chemical_formula_sum "Si O2"
_cell_formula_units_Z 56
_cell_length_a 16.955955
_cell_length_b 13.939009
_cell_length_c 11.874782
_cell_angle_alpha 90.000000
_cell_angle_beta 113.692826
_cell_angle_gamma 90.000000
_cell_volume 2570.035594
_symmetry_space_group_name_H-M "C 2/M"
_symmetry_group_IT_number 12
_symmetry_cell_setting 'monoclinic'
loop_
_space_group_symop_operation_xyz
x,y,z
-x,y,-z
-x,-y,-z
x,-y,z
1/2+x,1/2+y,z
1/2-x,1/2+y,-z
1/2-x,1/2-y,-z
1/2+x,1/2-y,z
loop_
_atom_site_type_symbol
_atom_site_label
_atom_site_fract_x
_atom_site_fract_y
_atom_site_fract_z
Si Si1 0.579469 0.115106 0.962037
Si Si2 0.301809 0.385742 0.851038
Si Si3 0.422701 0.391457 0.736716
Si Si4 0.741262 0.392041 0.525082
Si Si5 0.930146 0.753328 0.257071
Si Si6 0.774090 0.886147 0.098577
Si Si7 0.169016 0.287747 0.607407
O O1 0.572340 0.172014 0.840459
O O2 0.579562 0.000000 0.941357
O O3 0.500000 0.136792 0.000000
O O4 0.674380 0.138222 0.067507
O O5 0.294487 0.500000 0.831851
O O6 0.392380 0.360386 0.844111
O O7 0.228722 0.337604 0.735210
O O8 0.289054 0.366623 0.974168
O O9 0.458548 0.500000 0.762393
O O10 0.337251 0.394714 0.610267
O O11 0.487598 0.318087 0.719515
O O12 0.755553 0.500000 0.575344
O O13 0.821962 0.350139 0.501311
O O14 0.710696 0.314553 0.597994
O O15 0.847411 0.823311 0.196983
O O16 0.920718 0.718274 0.379484
O O17 0.786197 0.000000 0.125749
#
# Coordination Sequence:
#
# PCOD9194987 Si02
#       7
#     8   8   8   8   8   8   8
#     4  10  23  39  54  76 114 164 202 232 275 327
#     4   9  18  36  60  83 116 153 190 237 288 348
#     4   9  20  36  55  85 117 149 186 236 304 353
#     4   9  20  40  62  84 114 146 186 247 304 353
#     4  12  23  33  59  88 118 152 196 242 281 343
#     4  10  21  37  57  85 118 153 194 240 289 340
#     4  10  20  34  59  88 108 147 196 233 287 350
#
# _framework density 21.789581999999999
#
# number of rings (size 3 to 8) (size 9 to 14) (size 15 to 20)
#    0.000    2.143    1.429    2.143    2.000    3.429 
#    0.000    3.571    0.000    8.571    0.000   17.000 
#    0.000    0.000    0.000    0.000    0.000    0.000 
#
# Total GULP energy -156436.044613 kJ/mol
# GULP energy per Si atom -5587.001593 kJ/mol
# Density = 2.173999 g / cm^3
# Si number density = 21.789582 Si / 1000 Ang^3
#
#
#
# Elastic Constant Matrix: (Units=GPa)
#
#
# Indices 1 2 3 4 5 6 
#
# 1 149.2459 40.2829 29.9349 0.0000 -18.2526 0.0000
# 2 40.2829 51.0014 8.1573 0.0000 -5.4785 0.0000
# 3 29.9349 8.1573 44.4992 0.0000 -9.6406 0.0000
# 4 0.0000 0.0000 0.0000 0.3212 0.0000 -8.6200
# 5 -18.2526 -5.4785 -9.6406 0.0000 26.3915 0.0000
# 6 0.0000 0.0000 0.0000 -8.6200 0.0000 25.1338
#
#
#
# Elastic Compliance Matrix: (Units=1/GPa)
#
#
# Indices 1 2 3 4 5 6 
#
# 1 0.009885 -0.006665 -0.004612 0.000000 0.003769 0.000000
# 2 -0.006665 0.024928 0.000040 0.000000 0.000579 0.000000
# 3 -0.004612 0.000040 0.027016 0.000000 0.006688 0.000000
# 4 0.000000 0.000000 0.000000 -0.379487 0.000000 -0.130150
# 5 0.003769 0.000579 0.006688 0.000000 0.043060 0.000000
# 6 0.000000 0.000000 0.000000 -0.130150 0.000000 -0.004850
#
#
# Mechanical properties :
#
#
# Convention : Reuss Voigt Hill
#
# Bulk Modulus (GPa) = 25.40995 44.61075 35.01035
# Shear Modulus (GPa) = -20.50398 21.46073 0.47837
#
# Velocity S-wave (km/s) = -3.07090 3.14173 0.46906
# Velocity P-wave (km/s) = 0.94184 5.80332 4.04916
#
# Compressibility (1/GPa) = 0.03935466
#
# Stress axis : x y z
#
# Youngs Moduli (GPa) = 101.16101 40.11601 37.01500
#
# Poissons Ratio (x) = 0.26739 0.17070
# Poissons Ratio (y) = 0.67427 -0.00147
# Poissons Ratio (z) = 0.46651 -0.00159
#
# Static dielectric constant tensor:
#      x y z
#    x 1.845470 0.000000 -0.029020 
#    y 0.000000 1.811330 0.000000 
#    z -0.029020 0.000000 1.794850 
# 
# From -- ./inp_files/156766.got.cif
#   From: 2010.05.17/outbox.cif.g08.bks.cpg/sg12_79_cif.got.tgz:156766.got - 2010.06.03 13:09:07.
