data_PCOD9194205
_publ_section_title
;
Structure prediction by ZEFSAII (Michael W. Deem and Ramdas Pophale) SiO2 
 PCOD9194205
Probable space group: C 2/M
;
_chemical_formula_sum "Si O2"
_cell_formula_units_Z 40
_cell_length_a 18.046708
_cell_length_b 17.211306
_cell_length_c 12.026697
_cell_angle_alpha 90.000000
_cell_angle_beta 143.815579
_cell_angle_gamma 90.000000
_cell_volume 2205.435729
_symmetry_space_group_name_H-M "C 2/M"
_symmetry_group_IT_number 12
_symmetry_cell_setting 'monoclinic'
loop_
_space_group_symop_operation_xyz
x,y,z
-x,y,-z
-x,-y,-z
x,-y,z
1/2+x,1/2+y,z
1/2-x,1/2+y,-z
1/2-x,1/2-y,-z
1/2+x,1/2-y,z
loop_
_atom_site_type_symbol
_atom_site_label
_atom_site_fract_x
_atom_site_fract_y
_atom_site_fract_z
Si Si1 0.388855 0.592169 0.278410
Si Si2 0.310975 0.408210 0.726501
Si Si3 0.953344 0.152149 0.109509
Si Si4 0.165222 0.695077 0.976097
Si Si5 0.478255 0.907372 0.604073
O O1 0.500000 0.607325 0.500000
O O2 0.363940 0.500000 0.245443
O O3 0.430453 0.620244 0.205768
O O4 0.264323 0.640459 0.158889
O O5 0.322594 0.500000 0.718813
O O6 0.405750 0.364125 0.759872
O O7 0.165443 0.386572 0.541609
O O8 0.361749 0.391958 0.912376
O O9 0.917701 0.242838 0.058134
O O10 0.076119 0.641010 0.794369
O O11 0.250000 0.750000 0.000000
O O12 0.500000 0.891886 0.500000
O O13 0.495042 0.000000 0.641754
#
# Coordination Sequence:
#
# PCOD9194205 Si02
#       5
#     8   8   8   8   8
#     4  10  20  35  56  78 106 147 186 219 259 318
#     4  10  20  36  60  83 106 140 181 228 276 321
#     4  10  20  34  55  83 112 140 176 225 274 322
#     4  10  21  33  50  77 109 141 174 220 269 317
#     4  10  20  35  57  82 108 141 183 229 273 319
#
# _framework density 18.137006
#
# number of rings (size 3 to 8) (size 9 to 14) (size 15 to 20)
#    0.000    2.000    0.000    5.400    0.000    8.800 
#    0.000    2.000    0.000    0.000    0.000   11.200 
#    0.000    0.000    0.000    0.000    0.000    0.000 
#
# Total GULP energy -111622.280914 kJ/mol
# GULP energy per Si atom -5581.114046 kJ/mol
# Density = 1.809573 g / cm^3
# Si number density = 18.137006 Si / 1000 Ang^3
#
#
#
# Elastic Constant Matrix: (Units=GPa)
#
#
# Indices 1 2 3 4 5 6 
#
# 1 68.8951 44.7567 40.7523 0.0000 17.6731 0.0000
# 2 44.7567 100.6371 78.3114 0.0000 22.5625 0.0000
# 3 40.7523 78.3114 119.7173 0.0000 32.5014 0.0000
# 4 0.0000 0.0000 0.0000 -31.4079 0.0000 47.5900
# 5 17.6731 22.5625 32.5014 0.0000 26.0111 0.0000
# 6 0.0000 0.0000 0.0000 47.5900 0.0000 9.7693
#
#
#
# Elastic Compliance Matrix: (Units=1/GPa)
#
#
# Indices 1 2 3 4 5 6 
#
# 1 0.021645 -0.007724 -0.000214 0.000000 -0.007738 0.000000
# 2 -0.007724 0.023036 -0.012772 0.000000 0.001225 0.000000
# 3 -0.000214 -0.012772 0.020783 0.000000 -0.014745 0.000000
# 4 0.000000 0.000000 0.000000 -0.003799 0.000000 0.018506
# 5 -0.007738 0.001225 -0.014745 0.000000 0.061065 0.000000
# 6 0.000000 0.000000 0.000000 0.018506 0.000000 0.012213
#
#
# Mechanical properties :
#
#
# Convention : Reuss Voigt Hill
#
# Bulk Modulus (GPa) = 41.59200 68.54334 55.06767
# Shear Modulus (GPa) = 27.11819 9.23646 18.17733
#
# Velocity S-wave (km/s) = 3.87096 2.25913 3.16923
# Velocity P-wave (km/s) = 6.55446 6.68423 6.61966
#
# Compressibility (1/GPa) = 0.02404309
#
# Stress axis : x y z
#
# Youngs Moduli (GPa) = 46.20073 43.41089 48.11509
#
# Poissons Ratio (x) = 0.33533 0.01031
# Poissons Ratio (y) = 0.35688 0.61451
# Poissons Ratio (z) = 0.00990 0.55443
#
# Static dielectric constant tensor:
#      x y z
#    x 1.629350 0.000000 0.020980 
#    y 0.000000 1.631870 0.000000 
#    z 0.020980 0.000000 1.606550 
# 
# From -- ./inp_files/155755.got.cif
#   From: 2010.05.17/outbox.cif.g08.bks.cpg/sg12_78_cif.got.tgz:155755.got - 2010.06.03 13:09:07.
