data_PCOD9194846
_publ_section_title
;
Structure prediction by ZEFSAII (Michael W. Deem and Ramdas Pophale) SiO2 
 PCOD9194846
Probable space group: C 2/M
;
_chemical_formula_sum "Si O2"
_cell_formula_units_Z 56
_cell_length_a 29.788724
_cell_length_b 14.812534
_cell_length_c 12.039241
_cell_angle_alpha 90.000000
_cell_angle_beta 30.003538
_cell_angle_gamma 90.000000
_cell_volume 2656.420478
_symmetry_space_group_name_H-M "C 2/M"
_symmetry_group_IT_number 12
_symmetry_cell_setting 'monoclinic'
loop_
_space_group_symop_operation_xyz
x,y,z
-x,y,-z
-x,-y,-z
x,-y,z
1/2+x,1/2+y,z
1/2-x,1/2+y,-z
1/2-x,1/2-y,-z
1/2+x,1/2-y,z
loop_
_atom_site_type_symbol
_atom_site_label
_atom_site_fract_x
_atom_site_fract_y
_atom_site_fract_z
Si Si1 0.338175 0.729728 0.384338
Si Si2 0.894256 0.601653 0.396889
Si Si3 0.805245 0.898530 0.074840
Si Si4 0.576679 0.099867 0.428539
Si Si5 0.932998 0.101821 0.011753
Si Si6 0.106185 0.794644 0.308573
Si Si7 0.132939 0.894981 0.483803
O O1 0.250000 0.750000 0.500000
O O2 0.389195 0.819187 0.318748
O O3 0.403902 0.672030 0.166248
O O4 0.313386 0.669469 0.546035
O O5 0.907007 0.500000 0.324855
O O6 0.796161 0.606297 0.665232
O O7 0.956883 0.613775 0.371859
O O8 0.866483 0.885746 0.051325
O O9 0.823339 0.000000 0.993601
O O10 0.834835 0.829553 0.918695
O O11 0.500000 0.096091 0.500000
O O12 0.628278 0.190476 0.287111
O O13 0.620536 0.000000 0.331932
O O14 0.919912 0.000000 0.084502
O O15 0.032284 0.108548 0.750065
O O16 0.125858 0.852967 0.376433
O O17 0.000000 0.801707 0.500000
O O18 0.161845 0.000000 0.420134
#
# Coordination Sequence:
#
# PCOD9194846 Si02
#       7
#     8   8   8   8   8   8   8
#     4  12  23  38  60  85 117 160 209 251 296 355
#     4  10  21  39  60  84 117 161 206 245 301 362
#     4  10  20  34  57  91 124 158 194 240 306 374
#     4   9  19  37  59  83 113 155 207 250 290 351
#     4  10  21  39  63  90 124 162 202 248 306 371
#     4  11  20  34  62  93 123 154 194 243 303 368
#     4  11  23  39  61  94 127 159 198 251 312 369
#
# _framework density 21.081001000000001
#
# number of rings (size 3 to 8) (size 9 to 14) (size 15 to 20)
#    0.000    1.571    4.286    1.286    0.000    2.857 
#    0.000    0.000    0.000    4.286    0.000    0.000 
#    0.000    0.000    0.000    0.000    0.000    0.000 
#
# Total GULP energy -156381.133690 kJ/mol
# GULP energy per Si atom -5585.040489 kJ/mol
# Density = 2.103302 g / cm^3
# Si number density = 21.081001 Si / 1000 Ang^3
#
#
#
# Elastic Constant Matrix: (Units=GPa)
#
#
# Indices 1 2 3 4 5 6 
#
# 1 154.7891 64.5186 11.4461 0.0000 -1.0502 0.0000
# 2 64.5186 184.5838 23.3817 0.0000 36.7410 0.0000
# 3 11.4461 23.3817 35.0171 0.0000 8.2529 0.0000
# 4 0.0000 0.0000 0.0000 -3.3001 0.0000 17.7221
# 5 -1.0502 36.7410 8.2529 0.0000 26.6808 0.0000
# 6 0.0000 0.0000 0.0000 17.7221 0.0000 42.8154
#
#
#
# Elastic Compliance Matrix: (Units=1/GPa)
#
#
# Indices 1 2 3 4 5 6 
#
# 1 0.008252 -0.003925 -0.001539 0.000000 0.006205 0.000000
# 2 -0.003925 0.009586 -0.002125 0.000000 -0.012698 0.000000
# 3 -0.001539 -0.002125 0.032148 0.000000 -0.007078 0.000000
# 4 0.000000 0.000000 0.000000 -0.094024 0.000000 0.038918
# 5 0.006205 -0.012698 -0.007078 0.000000 0.057399 0.000000
# 6 0.000000 0.000000 0.000000 0.038918 0.000000 0.007247
#
#
# Mechanical properties :
#
#
# Convention : Reuss Voigt Hill
#
# Bulk Modulus (GPa) = 28.72947 63.67586 46.20267
# Shear Modulus (GPa) = 105.50954 31.57547 68.54251
#
# Velocity S-wave (km/s) = 7.08225 3.87436 5.70828
# Velocity P-wave (km/s) = 8.97415 7.09120 8.08766
#
# Compressibility (1/GPa) = 0.03480746
#
# Stress axis : x y z
#
# Youngs Moduli (GPa) = 121.18025 104.31844 31.10620
#
# Poissons Ratio (x) = 0.40941 0.04788
# Poissons Ratio (y) = 0.47558 0.06611
# Poissons Ratio (z) = 0.18654 0.22172
#
# Static dielectric constant tensor:
#      x y z
#    x 1.848300 0.000000 -0.039480 
#    y 0.000000 1.785640 0.000000 
#    z -0.039480 0.000000 1.732380 
# 
# From -- ./inp_files/189249.got.cif
#   From: 2010.05.17/outbox.cif.g08.bks.cpg/sg12_95_cif.got.tgz:189249.got - 2010.06.03 13:09:07.
