data_PCOD9194880
_publ_section_title
;
Structure prediction by ZEFSAII (Michael W. Deem and Ramdas Pophale) SiO2 
 PCOD9194880
Probable space group: C 2/M
;
_chemical_formula_sum "Si O2"
_cell_formula_units_Z 64
_cell_length_a 12.548675
_cell_length_b 13.690706
_cell_length_c 20.644867
_cell_angle_alpha 90.000000
_cell_angle_beta 86.922598
_cell_angle_gamma 90.000000
_cell_volume 3541.677943
_symmetry_space_group_name_H-M "C 2/M"
_symmetry_group_IT_number 12
_symmetry_cell_setting 'monoclinic'
loop_
_space_group_symop_operation_xyz
x,y,z
-x,y,-z
-x,-y,-z
x,-y,z
1/2+x,1/2+y,z
1/2-x,1/2+y,-z
1/2-x,1/2-y,-z
1/2+x,1/2-y,z
loop_
_atom_site_type_symbol
_atom_site_label
_atom_site_fract_x
_atom_site_fract_y
_atom_site_fract_z
Si Si1 0.816711 0.746363 0.782394
Si Si2 0.265137 0.610682 0.026333
Si Si3 0.796809 0.389286 0.538682
Si Si4 0.443019 0.886488 0.876394
Si Si5 0.307132 0.386898 0.315493
Si Si6 0.394375 0.682954 0.541614
Si Si7 0.557452 0.383496 0.315506
Si Si8 0.831647 0.297012 0.093454
O O1 0.900492 0.679163 0.818826
O O2 0.757408 0.681127 0.730827
O O3 0.877010 0.832757 0.743644
O O4 0.730411 0.783820 0.837212
O O5 0.303983 0.500000 0.030975
O O6 0.150724 0.617807 0.066753
O O7 0.338749 0.690888 0.058668
O O8 0.240953 0.640259 0.953477
O O9 0.838860 0.500000 0.531487
O O10 0.738625 0.380231 0.610295
O O11 0.707716 0.369081 0.487006
O O12 0.878347 0.299364 0.533038
O O13 0.553771 0.845213 0.899865
O O14 0.455676 0.000000 0.857427
O O15 0.297187 0.500000 0.295007
O O16 0.431865 0.360929 0.312306
O O17 0.500000 0.650618 0.500000
O O18 0.404970 0.657000 0.616346
O O19 0.570048 0.500000 0.314450
#
# Coordination Sequence:
#
# PCOD9194880 Si02
#       8
#     8   8   8   8   8   8   8   8
#     4  11  22  38  54  80 116 148 185 227 279 326
#     4   9  19  36  59  85 112 145 185 228 272 322
#     4  10  21  36  58  86 110 139 180 230 283 332
#     4  10  20  36  60  85 110 145 190 229 268 325
#     4  10  20  37  59  79 106 144 188 229 271 328
#     4  11  21  37  60  83 111 142 183 232 280 335
#     4  11  23  37  55  81 111 147 188 230 278 331
#     4  10  20  34  58  85 114 145 183 230 274 324
#
# _framework density 18.070530999999999
#
# number of rings (size 3 to 8) (size 9 to 14) (size 15 to 20)
#    0.000    1.750    2.500    2.250    0.000    3.250 
#    0.000    0.625    0.000   11.250    0.000    0.000 
#    0.000    0.000    0.000    0.000    0.000    0.000 
#
# Total GULP energy -178702.931806 kJ/mol
# GULP energy per Si atom -5584.466619 kJ/mol
# Density = 1.802940 g / cm^3
# Si number density = 18.070531 Si / 1000 Ang^3
#
#
#
# Elastic Constant Matrix: (Units=GPa)
#
#
# Indices 1 2 3 4 5 6 
#
# 1 36.1797 17.0131 6.7986 0.0000 14.7330 0.0000
# 2 17.0131 77.3047 19.9527 0.0000 7.6235 0.0000
# 3 6.7986 19.9527 60.9212 0.0000 11.0259 0.0000
# 4 0.0000 0.0000 0.0000 10.1721 0.0000 -2.4954
# 5 14.7330 7.6235 11.0259 0.0000 14.5882 0.0000
# 6 0.0000 0.0000 0.0000 -2.4954 0.0000 26.4290
#
#
#
# Elastic Compliance Matrix: (Units=1/GPa)
#
#
# Indices 1 2 3 4 5 6 
#
# 1 0.051650 -0.007792 0.006362 0.000000 -0.052899 0.000000
# 2 -0.007792 0.015566 -0.004843 0.000000 0.003396 0.000000
# 3 0.006362 -0.004843 0.020847 0.000000 -0.019651 0.000000
# 4 0.000000 0.000000 0.000000 0.100639 0.000000 0.009502
# 5 -0.052899 0.003396 -0.019651 0.000000 0.135049 0.000000
# 6 0.000000 0.000000 0.000000 0.009502 0.000000 0.038734
#
#
# Mechanical properties :
#
#
# Convention : Reuss Voigt Hill
#
# Bulk Modulus (GPa) = 13.24215 29.10381 21.17298
# Shear Modulus (GPa) = 12.49360 18.94728 15.72044
#
# Velocity S-wave (km/s) = 2.63226 3.24160 2.95269
# Velocity P-wave (km/s) = 4.07214 5.49101 4.83392
#
# Compressibility (1/GPa) = 0.07551641
#
# Stress axis : x y z
#
# Youngs Moduli (GPa) = 19.36119 64.24287 47.96754
#
# Poissons Ratio (x) = 0.50061 -0.30518
# Poissons Ratio (y) = 0.15087 0.23231
# Poissons Ratio (z) = -0.12318 0.31113
#
# Static dielectric constant tensor:
#      x y z
#    x 1.588830 0.000000 -0.001850 
#    y 0.000000 1.623130 0.000000 
#    z -0.001850 0.000000 1.594820 
# 
# From -- ./inp_files/263353.got.cif
#   From: 2010.05.17/outbox.cif.g08.bks.cpg/sg12_132_cif.got.tgz:263353.got - 2010.06.03 13:09:07.
