data_PCOD9194850
_publ_section_title
;
Structure prediction by ZEFSAII (Michael W. Deem and Ramdas Pophale) SiO2 
 PCOD9194850
Probable space group: C 2/M
;
_chemical_formula_sum "Si O2"
_cell_formula_units_Z 38
_cell_length_a 15.287534
_cell_length_b 22.169812
_cell_length_c 4.980381
_cell_angle_alpha 90.000000
_cell_angle_beta 106.407283
_cell_angle_gamma 90.000000
_cell_volume 1619.222513
_symmetry_space_group_name_H-M "C 2/M"
_symmetry_group_IT_number 12
_symmetry_cell_setting 'monoclinic'
loop_
_space_group_symop_operation_xyz
x,y,z
-x,y,-z
-x,-y,-z
x,-y,z
1/2+x,1/2+y,z
1/2-x,1/2+y,-z
1/2-x,1/2-y,-z
1/2+x,1/2-y,z
loop_
_atom_site_type_symbol
_atom_site_label
_atom_site_fract_x
_atom_site_fract_y
_atom_site_fract_z
Si Si1 0.755633 0.927019 0.553967
Si Si2 0.621732 0.600167 0.839993
Si Si3 0.000000 0.283057 0.000000
Si Si4 0.099244 0.373209 0.724477
Si Si5 0.000000 0.000000 0.500000
Si Si6 0.066284 0.500000 0.814446
Si Si7 0.500000 0.296320 0.500000
O O1 0.799321 0.917135 0.302477
O O2 0.675002 0.879957 0.558863
O O3 0.733281 0.000000 0.561305
O O4 0.835293 0.908452 0.831495
O O5 0.542759 0.552171 0.729994
O O6 0.577879 0.663394 0.709852
O O7 0.918695 0.322535 0.067171
O O8 0.036082 0.244212 0.283867
O O9 0.118114 0.437633 0.879316
O O10 0.000000 0.375273 0.500000
O O11 0.000000 0.500000 0.500000
O O12 0.000000 0.500000 0.000000
#
# Coordination Sequence:
#
# PCOD9194850 Si02
#       7
#     8   8   4   8   2   4   4
#     4  12  24  42  68 111 146 169 220 285 359 425
#     4  11  25  44  69 104 138 178 226 291 351 411
#     4  12  24  47  72  97 128 198 244 278 318 416
#     4  11  25  43  70 100 143 184 230 276 344 407
#     4  10  20  42  74  98 134 178 214 282 358 414
#     4  10  20  34  57  92 122 163 206 265 318 388
#     4  11  26  49  72  93 134 185 244 284 340 403
#
# _framework density 23.468053000000001
#
# number of rings (size 3 to 8) (size 9 to 14) (size 15 to 20)
#    0.000    0.842    5.263    1.263    2.947    3.368 
#    0.000    6.316    0.000    0.000    0.000    0.000 
#    0.000    0.000    0.000    0.000    0.000    0.000 
#
# Total GULP energy -105827.062877 kJ/mol
# GULP energy per Si atom -5569.845415 kJ/mol
# Density = 2.341464 g / cm^3
# Si number density = 23.468053 Si / 1000 Ang^3
#
#
#
# Elastic Constant Matrix: (Units=GPa)
#
#
# Indices 1 2 3 4 5 6 
#
# 1 74.6617 20.8883 34.5272 0.0000 -0.0006 0.0000
# 2 20.8883 125.2601 24.5782 0.0000 -8.2064 0.0000
# 3 34.5272 24.5782 93.6486 0.0000 -2.2974 0.0000
# 4 0.0000 0.0000 0.0000 7.5146 0.0000 -13.7474
# 5 -0.0006 -8.2064 -2.2974 0.0000 50.5163 0.0000
# 6 0.0000 0.0000 0.0000 -13.7474 0.0000 20.6049
#
#
#
# Elastic Compliance Matrix: (Units=1/GPa)
#
#
# Indices 1 2 3 4 5 6 
#
# 1 0.016474 -0.001674 -0.005647 0.000000 -0.000529 0.000000
# 2 -0.001674 0.008669 -0.001625 0.000000 0.001334 0.000000
# 3 -0.005647 -0.001625 0.013195 0.000000 0.000336 0.000000
# 4 0.000000 0.000000 0.000000 -0.603336 0.000000 -0.402538
# 5 -0.000529 0.001334 0.000336 0.000000 0.020028 0.000000
# 6 0.000000 0.000000 0.000000 -0.402538 0.000000 -0.220036
#
#
# Mechanical properties :
#
#
# Convention : Reuss Voigt Hill
#
# Bulk Modulus (GPa) = 48.91203 50.39532 49.65367
# Shear Modulus (GPa) = -6.75403 29.96562 11.60580
#
# Velocity S-wave (km/s) = -1.69830 3.57721 2.22623
# Velocity P-wave (km/s) = 4.12815 6.21148 5.27371
#
# Compressibility (1/GPa) = 0.02044487
#
# Stress axis : x y z
#
# Youngs Moduli (GPa) = 60.70329 115.35590 75.78550
#
# Poissons Ratio (x) = 0.19306 0.42799
# Poissons Ratio (y) = 0.10160 0.12318
# Poissons Ratio (z) = 0.34281 0.18749
#
# Static dielectric constant tensor:
#      x y z
#    x 1.972650 0.000000 -0.029270 
#    y 0.000000 1.962830 0.000000 
#    z -0.029270 0.000000 1.911660 
# 
# From -- ./inp_files/11430.got.cif
#   From: 2010.05.17/outbox.cif.g08.bks.cpg/sg12_6_cif.got.tgz:11430.got - 2010.06.03 13:09:07.
