data_PCOD9194206
_publ_section_title
;
Structure prediction by ZEFSAII (Michael W. Deem and Ramdas Pophale) SiO2 
 PCOD9194206
Probable space group: C 2/M
;
_chemical_formula_sum "Si O2"
_cell_formula_units_Z 56
_cell_length_a 9.123727
_cell_length_b 26.446026
_cell_length_c 18.464092
_cell_angle_alpha 90.000000
_cell_angle_beta 41.256603
_cell_angle_gamma 90.000000
_cell_volume 2937.859188
_symmetry_space_group_name_H-M "C 2/M"
_symmetry_group_IT_number 12
_symmetry_cell_setting 'monoclinic'
loop_
_space_group_symop_operation_xyz
x,y,z
-x,y,-z
-x,-y,-z
x,-y,z
1/2+x,1/2+y,z
1/2-x,1/2+y,-z
1/2-x,1/2-y,-z
1/2+x,1/2-y,z
loop_
_atom_site_type_symbol
_atom_site_label
_atom_site_fract_x
_atom_site_fract_y
_atom_site_fract_z
Si Si1 0.757572 0.557357 0.104801
Si Si2 0.096861 0.556602 0.689684
Si Si3 0.090619 0.084649 0.884750
Si Si4 0.208451 0.440539 0.477881
Si Si5 0.543484 0.689139 0.067172
Si Si6 0.358059 0.380982 0.712836
Si Si7 0.528772 0.198032 0.901607
O O1 0.793668 0.500000 0.113536
O O2 0.589929 0.559393 0.100226
O O3 0.663484 0.586027 0.207346
O O4 0.000000 0.579947 0.000000
O O5 0.171748 0.500000 0.683563
O O6 0.145643 0.562411 0.586193
O O7 0.213986 0.596794 0.699356
O O8 0.831737 0.560597 0.795255
O O9 0.104384 0.142849 0.851590
O O10 0.000000 0.084785 0.000000
O O11 0.287331 0.500000 0.436754
O O12 0.386979 0.395080 0.401447
O O13 0.000000 0.434325 0.500000
O O14 0.503594 0.744252 0.116176
O O15 0.500000 0.697745 0.000000
O O16 0.797617 0.670198 0.970903
O O17 0.240500 0.328741 0.785453
O O18 0.500000 0.199421 0.000000
#
# Coordination Sequence:
#
# PCOD9194206 Si02
#       7
#     8   8   8   8   8   8   8
#     4  11  22  33  48  76 114 150 182 222 275 334
#     4  11  23  37  55  81 112 146 184 226 275 332
#     4  11  21  35  55  80 111 146 186 231 281 336
#     4  10  22  40  59  79 107 147 193 237 280 329
#     4   9  18  34  54  79 111 143 180 225 275 329
#     4  12  21  35  57  80 109 145 187 228 274 332
#     4  10  20  34  55  83 112 144 182 226 276 330
#
# _framework density 19.061499000000001
#
# number of rings (size 3 to 8) (size 9 to 14) (size 15 to 20)
#    0.000    1.429    0.000    7.714    0.000    4.571 
#    0.000    0.000    0.000    0.857    0.000    2.000 
#    0.000    0.000    0.000    0.000    0.000    0.000 
#
# Total GULP energy -155883.045603 kJ/mol
# GULP energy per Si atom -5567.251629 kJ/mol
# Density = 1.901811 g / cm^3
# Si number density = 19.061499 Si / 1000 Ang^3
#
#
#
# Elastic Constant Matrix: (Units=GPa)
#
#
# Indices 1 2 3 4 5 6 
#
# 1 90.0062 -11.1394 19.3272 0.0000 -8.7967 0.0000
# 2 -11.1394 82.6460 26.3260 0.0000 -5.7005 0.0000
# 3 19.3272 26.3260 89.8134 -0.0001 -5.2710 0.0000
# 4 0.0000 0.0000 -0.0001 62.4463 0.0001 -6.1186
# 5 -8.7967 -5.7005 -5.2710 0.0001 28.6084 0.0000
# 6 0.0000 0.0000 0.0000 -6.1186 0.0000 23.9164
#
#
#
# Elastic Compliance Matrix: (Units=1/GPa)
#
#
# Indices 1 2 3 4 5 6 
#
# 1 0.012587 0.003037 -0.003373 0.000000 0.003854 0.000000
# 2 0.003037 0.014188 -0.004642 0.000000 0.002906 0.000000
# 3 -0.003373 -0.004642 0.013249 0.000000 0.000479 0.000000
# 4 0.000000 0.000000 0.000000 0.016426 0.000000 0.004202
# 5 0.003854 0.002906 0.000479 0.000000 0.036807 0.000000
# 6 0.000000 0.000000 0.000000 0.004202 0.000000 0.042887
#
#
# Mechanical properties :
#
#
# Convention : Reuss Voigt Hill
#
# Bulk Modulus (GPa) = 33.25740 36.83259 35.04499
# Shear Modulus (GPa) = 32.02630 38.19102 35.10866
#
# Velocity S-wave (km/s) = 4.10342 4.48098 4.29635
# Velocity P-wave (km/s) = 6.31950 6.79244 6.56023
#
# Compressibility (1/GPa) = 0.03006850
#
# Stress axis : x y z
#
# Youngs Moduli (GPa) = 79.44679 70.48173 75.47941
#
# Poissons Ratio (x) = -0.21403 0.25456
# Poissons Ratio (y) = -0.24125 0.35036
# Poissons Ratio (z) = 0.26794 0.32716
#
# Static dielectric constant tensor:
#      x y z
#    x 1.809650 0.000000 -0.360850 
#    y 0.000000 1.740780 0.000000 
#    z -0.360850 0.000000 2.213920 
# 
# From -- ./inp_files/259810.got.cif
#   From: 2010.05.17/outbox.cif.g08.bks.cpg/sg12_130_cif.got.tgz:259810.got - 2010.06.03 13:09:07.
