data_PCOD9194818
_publ_section_title
;
Structure prediction by ZEFSAII (Michael W. Deem and Ramdas Pophale) SiO2 
 PCOD9194818
Probable space group: C 2/M
;
_chemical_formula_sum "Si O2"
_cell_formula_units_Z 64
_cell_length_a 20.243199
_cell_length_b 9.499942
_cell_length_c 20.582133
_cell_angle_alpha 90.000000
_cell_angle_beta 124.987514
_cell_angle_gamma 90.000000
_cell_volume 3242.808120
_symmetry_space_group_name_H-M "C 2/M"
_symmetry_group_IT_number 12
_symmetry_cell_setting 'monoclinic'
loop_
_space_group_symop_operation_xyz
x,y,z
-x,y,-z
-x,-y,-z
x,-y,z
1/2+x,1/2+y,z
1/2-x,1/2+y,-z
1/2-x,1/2-y,-z
1/2+x,1/2-y,z
loop_
_atom_site_type_symbol
_atom_site_label
_atom_site_fract_x
_atom_site_fract_y
_atom_site_fract_z
Si Si1 0.862606 0.847757 0.534274
Si Si2 0.559716 0.169375 0.787182
Si Si3 0.790105 0.747051 0.627198
Si Si4 0.188720 0.340891 0.686918
Si Si5 0.987757 0.667482 0.384349
Si Si6 0.306040 0.828870 0.843530
Si Si7 0.744738 0.830566 0.928897
Si Si8 0.074801 0.661540 0.197640
O O1 0.836083 0.820840 0.593805
O O2 0.780475 0.841043 0.446835
O O3 0.928607 0.736431 0.548878
O O4 0.900611 0.000000 0.549705
O O5 0.531149 0.217062 0.700179
O O6 0.653355 0.192319 0.852101
O O7 0.503473 0.228549 0.813104
O O8 0.547720 0.000000 0.779822
O O9 0.741007 0.840850 0.650982
O O10 0.856114 0.666802 0.707690
O O11 0.190172 0.500000 0.716704
O O12 0.230916 0.229627 0.758547
O O13 0.095010 0.303486 0.623888
O O14 0.999055 0.500000 0.391334
O O15 0.301616 0.748556 0.909172
O O16 0.383658 0.783267 0.844275
O O17 0.303573 0.000000 0.847750
O O18 0.758654 0.000000 0.941220
O O19 0.750000 0.750000 0.000000
O O20 0.055166 0.500000 0.171444
#
# Coordination Sequence:
#
# PCOD9194818 Si02
#       8
#     8   8   8   8   8   8   8   8
#     4  11  23  36  52  80 114 148 188 241 295 339
#     4   9  17  34  59  84 108 145 189 227 268 326
#     4  10  21  35  54  77 111 150 190 235 289 340
#     4  10  20  37  58  80 107 146 195 238 280 332
#     4  10  20  36  58  79 106 147 191 233 279 336
#     4  10  20  34  57  89 118 146 182 227 281 333
#     4  11  22  39  63  89 119 151 186 225 273 330
#     4   9  17  33  58  83 108 144 191 234 272 325
#
# _framework density 19.735982
#
# number of rings (size 3 to 8) (size 9 to 14) (size 15 to 20)
#    0.000    2.000    2.500    1.500    0.000    4.000 
#    0.000    2.500    0.000    3.750    0.000    0.000 
#    0.000    0.000    0.000    0.000    0.000    0.000 
#
# Total GULP energy -178371.133803 kJ/mol
# GULP energy per Si atom -5574.097931 kJ/mol
# Density = 1.969106 g / cm^3
# Si number density = 19.735982 Si / 1000 Ang^3
#
#
#
# Elastic Constant Matrix: (Units=GPa)
#
#
# Indices 1 2 3 4 5 6 
#
# 1 95.9885 17.3735 -0.2102 0.0000 -16.2311 0.0000
# 2 17.3735 66.0432 9.0739 0.0000 -9.8847 0.0000
# 3 -0.2102 9.0739 35.7358 0.0000 -24.9554 0.0000
# 4 0.0000 0.0000 0.0000 6.3946 0.0000 12.5416
# 5 -16.2311 -9.8847 -24.9554 0.0000 29.8824 0.0000
# 6 0.0000 0.0000 0.0000 12.5416 0.0000 12.7368
#
#
#
# Elastic Compliance Matrix: (Units=1/GPa)
#
#
# Indices 1 2 3 4 5 6 
#
# 1 0.013917 -0.002831 0.013017 0.000000 0.017493 0.000000
# 2 -0.002831 0.016518 -0.003525 0.000000 0.000982 0.000000
# 3 0.013017 -0.003525 0.079360 0.000000 0.072180 0.000000
# 4 0.000000 0.000000 0.000000 -0.167932 0.000000 0.165358
# 5 0.017493 0.000982 0.072180 0.000000 0.103570 0.000000
# 6 0.000000 0.000000 0.000000 0.165358 0.000000 -0.084311
#
#
# Mechanical properties :
#
#
# Convention : Reuss Voigt Hill
#
# Bulk Modulus (GPa) = 8.12240 27.80467 17.96353
# Shear Modulus (GPa) = -447.95427 21.23811 -213.35808
#
# Velocity S-wave (km/s) = -15.08198 3.28397 -10.40869
# Velocity P-wave (km/s) = 17.29635 5.33837 11.63326
#
# Compressibility (1/GPa) = 0.12311630
#
# Stress axis : x y z
#
# Youngs Moduli (GPa) = 71.85518 60.54108 12.60083
#
# Poissons Ratio (x) = 0.17141 -0.16402
# Poissons Ratio (y) = 0.20344 0.04441
# Poissons Ratio (z) = -0.93533 0.21339
#
# Static dielectric constant tensor:
#      x y z
#    x 1.730040 0.000000 -0.024920 
#    y 0.000000 1.688570 0.000000 
#    z -0.024920 0.000000 1.697080 
# 
# From -- ./inp_files/320109.got.cif
#   From: 2010.05.17/outbox.cif.g08.bks.cpg/sg12_161_cif.got.tgz:320109.got - 2010.06.03 13:09:07.
