data_PCOD9194612
_publ_section_title
;
Structure prediction by ZEFSAII (Michael W. Deem and Ramdas Pophale) SiO2 
 PCOD9194612
Probable space group: C 2/M
;
_chemical_formula_sum "Si O2"
_cell_formula_units_Z 56
_cell_length_a 11.213917
_cell_length_b 14.999577
_cell_length_c 17.252766
_cell_angle_alpha 90.000000
_cell_angle_beta 132.862810
_cell_angle_gamma 90.000000
_cell_volume 2127.109889
_symmetry_space_group_name_H-M "C 2/M"
_symmetry_group_IT_number 12
_symmetry_cell_setting 'monoclinic'
loop_
_space_group_symop_operation_xyz
x,y,z
-x,y,-z
-x,-y,-z
x,-y,z
1/2+x,1/2+y,z
1/2-x,1/2+y,-z
1/2-x,1/2-y,-z
1/2+x,1/2-y,z
loop_
_atom_site_type_symbol
_atom_site_label
_atom_site_fract_x
_atom_site_fract_y
_atom_site_fract_z
Si Si1 0.189719 0.905527 0.686647
Si Si2 0.761193 0.648402 0.554221
Si Si3 0.991447 0.000000 0.857003
Si Si4 0.250969 0.000000 0.113387
Si Si5 0.379568 0.777184 0.291067
Si Si6 0.444764 0.854187 0.109357
Si Si7 0.339547 0.328889 0.121382
Si Si8 0.684143 0.154872 0.580553
O O1 0.209068 0.909859 0.603216
O O2 0.081157 0.819706 0.654264
O O3 0.369030 0.883930 0.801775
O O4 0.134885 0.000000 0.693743
O O5 0.690840 0.745595 0.547020
O O6 0.732039 0.608353 0.455720
O O7 0.956294 0.667672 0.649110
O O8 0.039182 0.913323 0.826896
O O9 0.820974 0.000000 0.830819
O O10 0.111931 0.000000 0.985338
O O11 0.355463 0.912634 0.137209
O O12 0.308621 0.736185 0.180817
O O13 0.276459 0.828159 0.311708
O O14 0.424954 0.746874 0.105926
O O15 0.330655 0.869588 0.984035
O O16 0.500000 0.120849 0.500000
#
# Coordination Sequence:
#
# PCOD9194612 Si02
#       8
#     8   8   4   4   8   8   8   8
#     4  11  22  36  57  90 125 163 202 252 314 363
#     4   9  17  36  59  85 116 153 198 245 299 376
#     4   9  20  36  57  81 112 156 204 263 305 355
#     4   9  18  38  59  77 111 163 208 248 313 357
#     4  10  20  34  56  87 116 155 201 251 300 366
#     4  10  20  37  57  84 120 165 210 255 303 362
#     4  10  21  36  57  86 120 159 212 259 303 361
#     4   8  16  32  61  86 107 147 198 244 298 364
#
# _framework density 26.326799000000001
#
# number of rings (size 3 to 8) (size 9 to 14) (size 15 to 20)
#    0.000    2.429    2.143    0.000    1.000    1.714 
#    0.000    3.571    0.000   46.714    0.000    0.000 
#    0.000    0.000    0.000    0.000    0.000    0.000 
#
# Total GULP energy -155912.004435 kJ/mol
# GULP energy per Si atom -5568.285873 kJ/mol
# Density = 2.626688 g / cm^3
# Si number density = 26.326799 Si / 1000 Ang^3
#
#
#
# Elastic Constant Matrix: (Units=GPa)
#
#
# Indices 1 2 3 4 5 6 
#
# 1 71.2752 5.2658 49.2457 0.0000 3.2584 0.0000
# 2 5.2658 118.7725 2.5676 0.0000 3.4053 0.0000
# 3 49.2457 2.5676 102.8203 0.0000 -18.6443 0.0000
# 4 0.0000 0.0000 0.0000 -15.8583 0.0000 -1.6261
# 5 3.2584 3.4053 -18.6443 0.0000 42.7011 0.0000
# 6 0.0000 0.0000 0.0000 -1.6261 0.0000 12.9715
#
#
#
# Elastic Compliance Matrix: (Units=1/GPa)
#
#
# Indices 1 2 3 4 5 6 
#
# 1 0.022809 -0.000547 -0.012183 0.000000 -0.007016 0.000000
# 2 -0.000547 0.008464 -0.000070 0.000000 -0.000664 0.000000
# 3 -0.012183 -0.000070 0.017085 0.000000 0.008395 0.000000
# 4 0.000000 0.000000 0.000000 -0.062258 0.000000 -0.007805
# 5 -0.007016 -0.000664 0.008395 0.000000 0.027672 0.000000
# 6 0.000000 0.000000 0.000000 -0.007805 0.000000 0.076114
#
#
# Mechanical properties :
#
#
# Convention : Reuss Voigt Hill
#
# Bulk Modulus (GPa) = 43.93912 45.22512 44.58212
# Shear Modulus (GPa) = 40.62729 23.68211 32.15470
#
# Velocity S-wave (km/s) = 3.93261 3.00249 3.49860
# Velocity P-wave (km/s) = 6.11119 5.40700 5.76985
#
# Compressibility (1/GPa) = 0.02275876
#
# Stress axis : x y z
#
# Youngs Moduli (GPa) = 43.84312 118.14408 58.53241
#
# Poissons Ratio (x) = 0.06459 0.71308
# Poissons Ratio (y) = 0.02397 0.00409
# Poissons Ratio (z) = 0.53413 0.00826
#
# Static dielectric constant tensor:
#      x y z
#    x 2.140920 0.000000 -0.060960 
#    y 0.000000 2.062980 0.000000 
#    z -0.060960 0.000000 2.212980 
# 
# From -- ./inp_files/263458.got.cif
#   From: 2010.05.17/outbox.cif.g08.bks.cpg/sg12_132_cif.got.tgz:263458.got - 2010.06.03 13:09:07.
