data_PCOD9194891
_publ_section_title
;
Structure prediction by ZEFSAII (Michael W. Deem and Ramdas Pophale) SiO2 
 PCOD9194891
Probable space group: C 2/M
;
_chemical_formula_sum "Si O2"
_cell_formula_units_Z 60
_cell_length_a 19.742028
_cell_length_b 9.600021
_cell_length_c 20.609080
_cell_angle_alpha 90.000000
_cell_angle_beta 130.915999
_cell_angle_gamma 90.000000
_cell_volume 2951.583576
_symmetry_space_group_name_H-M "C 2/M"
_symmetry_group_IT_number 12
_symmetry_cell_setting 'monoclinic'
loop_
_space_group_symop_operation_xyz
x,y,z
-x,y,-z
-x,-y,-z
x,-y,z
1/2+x,1/2+y,z
1/2-x,1/2+y,-z
1/2-x,1/2-y,-z
1/2+x,1/2-y,z
loop_
_atom_site_type_symbol
_atom_site_label
_atom_site_fract_x
_atom_site_fract_y
_atom_site_fract_z
Si Si1 0.996915 0.840039 0.920996
Si Si2 0.985338 0.837573 0.702508
Si Si3 0.677876 0.335614 0.646001
Si Si4 0.611377 0.835543 0.246753
Si Si5 0.312413 0.665037 0.198348
Si Si6 0.294182 0.663956 0.969503
Si Si7 0.764649 0.500000 0.514248
Si Si8 0.867896 0.241113 0.515467
O O1 0.934649 0.731664 0.845004
O O2 0.966530 0.000000 0.889887
O O3 0.098487 0.827378 0.959474
O O4 0.000000 0.818465 0.000000
O O5 0.929550 0.744593 0.717458
O O6 0.956329 0.795769 0.611961
O O7 0.091670 0.821879 0.777112
O O8 0.961814 0.000000 0.698163
O O9 0.655580 0.500000 0.630231
O O10 0.782313 0.317667 0.691816
O O11 0.672864 0.292983 0.717821
O O12 0.621711 0.259182 0.555451
O O13 0.593208 0.000000 0.241189
O O14 0.286745 0.500000 0.180648
O O15 0.240951 0.761849 0.117812
O O16 0.269846 0.500000 0.956001
O O17 0.250000 0.750000 0.000000
O O18 0.824715 0.379959 0.515949
O O19 0.702371 0.619737 0.510398
#
# Coordination Sequence:
#
# PCOD9194891 Si02
#       8
#     8   8   8   8   8   8   4   8
#     4  10  22  41  62  87 120 154 194 244 300 364
#     4  11  23  38  60  88 119 158 206 249 294 349
#     4  10  21  39  61  87 122 161 202 245 302 357
#     4  11  23  36  60  92 120 151 196 253 303 352
#     4  10  23  42  61  87 123 160 200 250 298 357
#     4  11  23  41  66  90 117 159 202 243 299 364
#     4  10  20  34  58  86 122 148 204 250 298 346
#     4  11  21  37  60  89 120 166 202 250 298 351
#
# _framework density 20.328071999999999
#
# number of rings (size 3 to 8) (size 9 to 14) (size 15 to 20)
#    0.000    1.467    1.333    4.000    2.800    5.600 
#    2.400    2.000    0.000    0.800    0.000    0.000 
#    0.000    0.000    0.000    0.000    0.000    0.000 
#
# Total GULP energy -167186.332781 kJ/mol
# GULP energy per Si atom -5572.877759 kJ/mol
# Density = 2.028180 g / cm^3
# Si number density = 20.328072 Si / 1000 Ang^3
#
#
#
# Elastic Constant Matrix: (Units=GPa)
#
#
# Indices 1 2 3 4 5 6 
#
# 1 237.1634 58.3513 49.3115 0.0000 -153.5673 0.0000
# 2 58.3513 124.8840 36.8224 0.0000 -22.1909 0.0000
# 3 49.3115 36.8224 82.7936 0.0000 -42.1422 0.0000
# 4 0.0000 0.0000 0.0000 -1.1000 0.0000 -5.9014
# 5 -153.5673 -22.1909 -42.1422 0.0000 123.6343 0.0000
# 6 0.0000 0.0000 0.0000 -5.9014 0.0000 22.9705
#
#
#
# Elastic Compliance Matrix: (Units=1/GPa)
#
#
# Indices 1 2 3 4 5 6 
#
# 1 0.027186 -0.008047 0.004646 0.000000 0.033907 0.000000
# 2 -0.008047 0.011608 -0.005320 0.000000 -0.009725 0.000000
# 3 0.004646 -0.005320 0.017094 0.000000 0.010643 0.000000
# 4 0.000000 0.000000 0.000000 -0.382249 0.000000 -0.098204
# 5 0.033907 -0.009725 0.010643 0.000000 0.052086 0.000000
# 6 0.000000 0.000000 0.000000 -0.098204 0.000000 0.018305
#
#
# Mechanical properties :
#
#
# Convention : Reuss Voigt Hill
#
# Bulk Modulus (GPa) = 26.01082 81.53458 53.77270
# Shear Modulus (GPa) = -22.15207 49.12469 13.48631
#
# Velocity S-wave (km/s) = -3.30468 4.92122 2.57851
# Velocity P-wave (km/s) = 1.31832 8.51397 5.94767
#
# Compressibility (1/GPa) = 0.03844554
#
# Stress axis : x y z
#
# Youngs Moduli (GPa) = 36.78410 86.14800 58.49876
#
# Poissons Ratio (x) = 0.69325 -0.27179
# Poissons Ratio (y) = 0.29601 0.31121
# Poissons Ratio (z) = -0.17090 0.45831
#
# Static dielectric constant tensor:
#      x y z
#    x 1.715160 0.000000 -0.025060 
#    y 0.000000 1.674770 0.000000 
#    z -0.025060 0.000000 1.770240 
# 
# From -- ./inp_files/320560.got.cif
#   From: 2010.05.17/outbox.cif.g08.bks.cpg/sg12_161_cif.got.tgz:320560.got - 2010.06.03 13:09:07.
