data_PCOD9194356
_publ_section_title
;
Structure prediction by ZEFSAII (Michael W. Deem and Ramdas Pophale) SiO2 
 PCOD9194356
Probable space group: C 2/M
;
_chemical_formula_sum "Si O2"
_cell_formula_units_Z 56
_cell_length_a 17.229036
_cell_length_b 23.401626
_cell_length_c 8.754052
_cell_angle_alpha 90.000000
_cell_angle_beta 45.782137
_cell_angle_gamma 90.000000
_cell_volume 2529.585890
_symmetry_space_group_name_H-M "C 2/M"
_symmetry_group_IT_number 12
_symmetry_cell_setting 'monoclinic'
loop_
_space_group_symop_operation_xyz
x,y,z
-x,y,-z
-x,-y,-z
x,-y,z
1/2+x,1/2+y,z
1/2-x,1/2+y,-z
1/2-x,1/2-y,-z
1/2+x,1/2-y,z
loop_
_atom_site_type_symbol
_atom_site_label
_atom_site_fract_x
_atom_site_fract_y
_atom_site_fract_z
Si Si1 0.750988 0.367905 0.693593
Si Si2 0.568086 0.141972 0.768674
Si Si3 0.082986 0.150972 0.527406
Si Si4 0.271830 0.561893 0.818945
Si Si5 0.890477 0.229273 0.238550
Si Si6 0.912318 0.609475 0.735777
Si Si7 0.570582 0.564022 0.103291
O O1 0.831383 0.389343 0.449621
O O2 0.703499 0.306737 0.712258
O O3 0.823163 0.362625 0.747552
O O4 0.652280 0.410042 0.866680
O O5 0.612784 0.202619 0.764853
O O6 0.481714 0.150786 0.749573
O O7 0.500000 0.114627 0.000000
O O8 0.190504 0.117523 0.325642
O O9 0.104250 0.207641 0.594397
O O10 0.000000 0.160151 0.500000
O O11 0.024360 0.107354 0.724788
O O12 0.279015 0.500000 0.729658
O O13 0.358495 0.560640 0.838460
O O14 0.155784 0.569482 0.057960
O O15 0.000000 0.212813 0.000000
O O16 0.000000 0.581618 0.500000
O O17 0.534294 0.500000 0.118425
#
# Coordination Sequence:
#
# PCOD9194356 Si02
#       7
#     8   8   8   8   8   8   8
#     4  10  20  39  61  84 117 152 194 236 284 349
#     4  10  23  40  60  82 114 154 194 246 294 327
#     4  10  20  34  55  86 122 153 189 237 285 347
#     4   9  18  33  58  89 116 150 195 236 287 339
#     4  11  22  39  58  86 118 153 190 236 294 352
#     4   9  20  39  62  84 114 155 198 240 280 339
#     4   9  17  34  59  86 117 154 189 233 287 349
#
# _framework density 22.138012
#
# number of rings (size 3 to 8) (size 9 to 14) (size 15 to 20)
#    0.000    2.286    1.429    0.857    2.000    3.714 
#    0.000    7.143    0.000    0.857    0.000    0.000 
#    0.000    0.000    0.000    0.000    0.000    0.000 
#
# Total GULP energy -156238.182967 kJ/mol
# GULP energy per Si atom -5579.935106 kJ/mol
# Density = 2.208762 g / cm^3
# Si number density = 22.138012 Si / 1000 Ang^3
#
#
#
# Elastic Constant Matrix: (Units=GPa)
#
#
# Indices 1 2 3 4 5 6 
#
# 1 71.2067 -4.0410 -5.0262 0.0000 13.4083 0.0000
# 2 -4.0410 28.4003 3.3800 0.0000 4.8712 0.0000
# 3 -5.0262 3.3800 144.6699 0.0000 0.5100 0.0000
# 4 0.0000 0.0000 0.0000 8.9674 0.0000 -21.0870
# 5 13.4083 4.8712 0.5100 0.0000 27.4721 0.0000
# 6 0.0000 0.0000 0.0000 -21.0870 0.0000 -113.8557
#
#
#
# Elastic Compliance Matrix: (Units=1/GPa)
#
#
# Indices 1 2 3 4 5 6 
#
# 1 0.015867 0.003639 0.000496 0.000000 -0.008398 0.000000
# 2 0.003639 0.037249 -0.000714 0.000000 -0.008368 0.000000
# 3 0.000496 -0.000714 0.006947 0.000000 -0.000244 0.000000
# 4 0.000000 0.000000 0.000000 0.077683 0.000000 -0.014387
# 5 -0.008398 -0.008368 -0.000244 0.000000 0.041988 0.000000
# 6 0.000000 0.000000 0.000000 -0.014387 0.000000 -0.006118
#
#
# Mechanical properties :
#
#
# Convention : Reuss Voigt Hill
#
# Bulk Modulus (GPa) = 14.94684 25.87808 20.41246
# Shear Modulus (GPa) = 26.44457 1.18104 13.81280
#
# Velocity S-wave (km/s) = 3.45995 0.73120 2.50059
# Velocity P-wave (km/s) = 4.76739 3.52529 4.19259
#
# Compressibility (1/GPa) = 0.06690376
#
# Stress axis : x y z
#
# Youngs Moduli (GPa) = 63.02559 26.84642 143.94571
#
# Poissons Ratio (x) = -0.09770 -0.07137
# Poissons Ratio (y) = -0.22936 0.10283
# Poissons Ratio (z) = -0.03125 0.01918
#
# Static dielectric constant tensor:
#      x y z
#    x 1.842000 0.000000 -0.006480 
#    y 0.000000 1.776380 0.000000 
#    z -0.006480 0.000000 1.862880 
# 
# From -- ./inp_files/80014.got.cif
#   From: 2010.05.17/outbox.cif.g08.bks.cpg/sg12_41_cif.got.tgz:80014.got - 2010.06.03 13:09:07.
