data_PCOD9194429
_publ_section_title
;
Structure prediction by ZEFSAII (Michael W. Deem and Ramdas Pophale) SiO2 
 PCOD9194429
Probable space group: C 2/M
;
_chemical_formula_sum "Si O2"
_cell_formula_units_Z 56
_cell_length_a 20.800506
_cell_length_b 9.433120
_cell_length_c 20.290494
_cell_angle_alpha 90.000000
_cell_angle_beta 45.972211
_cell_angle_gamma 90.000000
_cell_volume 2862.545914
_symmetry_space_group_name_H-M "C 2/M"
_symmetry_group_IT_number 12
_symmetry_cell_setting 'monoclinic'
loop_
_space_group_symop_operation_xyz
x,y,z
-x,y,-z
-x,-y,-z
x,-y,z
1/2+x,1/2+y,z
1/2-x,1/2+y,-z
1/2-x,1/2-y,-z
1/2+x,1/2-y,z
loop_
_atom_site_type_symbol
_atom_site_label
_atom_site_fract_x
_atom_site_fract_y
_atom_site_fract_z
Si Si1 0.125967 0.165024 0.124934
Si Si2 0.720428 0.667143 0.918093
Si Si3 0.355309 0.836174 0.625129
Si Si4 0.521391 0.163661 0.593138
Si Si5 0.317355 0.165948 0.290564
Si Si6 0.573043 0.667044 0.684057
Si Si7 0.401649 0.166874 0.093313
O O1 0.185213 0.263982 0.129550
O O2 0.021296 0.187063 0.210695
O O3 0.146199 0.000000 0.125678
O O4 0.157649 0.190079 0.027421
O O5 0.729420 0.500000 0.900311
O O6 0.673000 0.743687 0.891326
O O7 0.414765 0.831861 0.516252
O O8 0.422399 0.799287 0.636978
O O9 0.273419 0.732001 0.673260
O O10 0.325699 0.000000 0.655221
O O11 0.557235 0.265570 0.623863
O O12 0.519389 0.000000 0.617984
O O13 0.350824 0.251992 0.329804
O O14 0.388915 0.181287 0.180475
O O15 0.306851 0.000000 0.313007
O O16 0.592081 0.500000 0.666622
O O17 0.390554 0.000000 0.084738
O O18 0.500000 0.211718 0.000000
#
# Coordination Sequence:
#
# PCOD9194429 Si02
#       7
#     8   8   8   8   8   8   8
#     4   9  20  37  54  79 116 150 190 239 289 345
#     4  10  20  34  56  82 108 149 196 242 289 340
#     4   9  20  41  65  89 119 153 191 239 292 350
#     4   9  20  40  65  90 118 153 192 237 292 353
#     4  11  24  39  59  87 119 156 199 244 292 349
#     4  11  23  38  59  86 118 156 194 242 294 344
#     4  10  22  39  57  79 114 157 196 239 291 343
#
# _framework density 19.563005
#
# number of rings (size 3 to 8) (size 9 to 14) (size 15 to 20)
#    0.000    2.143    0.000    3.000    2.000    4.857 
#    0.000    1.429    0.000    0.000    0.000    0.000 
#    0.000    0.000    0.000    0.000    0.000    0.000 
#
# Total GULP energy -156462.390578 kJ/mol
# GULP energy per Si atom -5587.942521 kJ/mol
# Density = 1.951848 g / cm^3
# Si number density = 19.563005 Si / 1000 Ang^3
#
#
#
# Elastic Constant Matrix: (Units=GPa)
#
#
# Indices 1 2 3 4 5 6 
#
# 1 103.8966 71.5916 14.8259 0.0000 13.3548 0.0000
# 2 71.5916 87.9988 25.3683 0.0000 10.0025 -0.0001
# 3 14.8259 25.3683 30.9921 0.0000 0.1389 0.0000
# 4 0.0000 0.0000 0.0000 27.0410 0.0000 2.6488
# 5 13.3548 10.0025 0.1389 0.0000 22.9538 0.0000
# 6 0.0000 -0.0001 0.0000 2.6488 0.0000 25.2522
#
#
#
# Elastic Compliance Matrix: (Units=1/GPa)
#
#
# Indices 1 2 3 4 5 6 
#
# 1 0.023113 -0.019721 0.005107 0.000000 -0.004885 0.000000
# 2 -0.019721 0.032706 -0.017325 0.000000 -0.002674 0.000000
# 3 0.005107 -0.017325 0.043985 0.000000 0.004312 0.000000
# 4 0.000000 0.000000 0.000000 0.037365 0.000000 -0.003919
# 5 -0.004885 -0.002674 0.004312 0.000000 0.047547 0.000000
# 6 0.000000 0.000000 0.000000 -0.003919 0.000000 0.040012
#
#
# Mechanical properties :
#
#
# Convention : Reuss Voigt Hill
#
# Bulk Modulus (GPa) = 27.83432 49.60656 38.72044
# Shear Modulus (GPa) = 16.63453 22.45619 19.54536
#
# Velocity S-wave (km/s) = 2.91916 3.39173 3.16428
# Velocity P-wave (km/s) = 5.06171 6.38364 5.76072
#
# Compressibility (1/GPa) = 0.03592687
#
# Stress axis : x y z
#
# Youngs Moduli (GPa) = 43.26603 30.57546 22.73497
#
# Poissons Ratio (x) = 0.60297 -0.11612
# Poissons Ratio (y) = 0.85323 0.39389
# Poissons Ratio (z) = -0.22098 0.52973
#
# Static dielectric constant tensor:
#      x y z
#    x 1.646930 0.000000 -0.001150 
#    y 0.000000 1.649320 0.000000 
#    z -0.001150 0.000000 1.710400 
# 
# From -- ./inp_files/319657.got.cif
#   From: 2010.05.17/outbox.cif.g08.bks.cpg/sg12_160_cif.got.tgz:319657.got - 2010.06.03 13:09:07.
