data_PCOD9194065
_publ_section_title
;
Structure prediction by ZEFSAII (Michael W. Deem and Ramdas Pophale) SiO2 
 PCOD9194065
Probable space group: C 2/M
;
_chemical_formula_sum "Si O2"
_cell_formula_units_Z 56
_cell_length_a 27.559826
_cell_length_b 9.601969
_cell_length_c 12.801590
_cell_angle_alpha 90.000000
_cell_angle_beta 49.231356
_cell_angle_gamma 90.000000
_cell_volume 2565.658025
_symmetry_space_group_name_H-M "C 2/M"
_symmetry_group_IT_number 12
_symmetry_cell_setting 'monoclinic'
loop_
_space_group_symop_operation_xyz
x,y,z
-x,y,-z
-x,-y,-z
x,-y,z
1/2+x,1/2+y,z
1/2-x,1/2+y,-z
1/2-x,1/2-y,-z
1/2+x,1/2-y,z
loop_
_atom_site_type_symbol
_atom_site_label
_atom_site_fract_x
_atom_site_fract_y
_atom_site_fract_z
Si Si1 0.849383 0.337145 0.347139
Si Si2 0.499036 0.157670 0.191951
Si Si3 0.520074 0.337300 0.585843
Si Si4 0.870596 0.337740 0.084013
Si Si5 0.835785 0.155769 0.934593
Si Si6 0.808296 0.655763 0.795626
Si Si7 0.327939 0.662707 0.574978
O O1 0.831743 0.500000 0.389935
O O2 0.926369 0.326723 0.255910
O O3 0.840158 0.302738 0.238429
O O4 0.819524 0.232906 0.473488
O O5 0.510763 0.259711 0.272276
O O6 0.505725 0.000000 0.222744
O O7 0.551856 0.173069 0.027413
O O8 0.500000 0.282276 0.500000
O O9 0.503595 0.500000 0.611373
O O10 0.596606 0.327861 0.499234
O O11 0.854787 0.500000 0.083710
O O12 0.851889 0.237944 0.016668
O O13 0.758964 0.138893 0.050605
O O14 0.862925 0.000000 0.890306
O O15 0.850719 0.249074 0.812567
O O16 0.833957 0.500000 0.738387
O O17 0.795711 0.742417 0.708305
O O18 0.309325 0.500000 0.602970
#
# Coordination Sequence:
#
# PCOD9194065 Si02
#       7
#     8   8   8   8   8   8   8
#     4   9  18  35  55  77 110 148 183 220 262 313
#     4   9  18  32  51  77 106 142 183 219 259 307
#     4   9  19  33  47  71 108 143 174 213 262 317
#     4  10  20  34  55  82 110 142 182 225 267 313
#     4  10  22  38  57  82 109 138 174 221 272 322
#     4  10  21  39  60  80 106 139 177 219 270 327
#     4  10  20  34  55  80 107 142 180 219 269 319
#
# _framework density 21.826761000000001
#
# number of rings (size 3 to 8) (size 9 to 14) (size 15 to 20)
#    0.000    2.429    0.000    1.714    2.000    5.429 
#    0.000    0.714    0.000    4.286    0.000    0.000 
#    0.000    0.000    0.000    0.000    0.000    0.000 
#
# Total GULP energy -156356.770240 kJ/mol
# GULP energy per Si atom -5584.170366 kJ/mol
# Density = 2.177708 g / cm^3
# Si number density = 21.826761 Si / 1000 Ang^3
#
#
#
# Elastic Constant Matrix: (Units=GPa)
#
#
# Indices 1 2 3 4 5 6 
#
# 1 46.0543 30.0278 12.4351 0.0000 20.5107 0.0000
# 2 30.0278 143.0294 67.9417 0.0000 36.6003 0.0000
# 3 12.4351 67.9417 93.3129 0.0000 21.8722 0.0000
# 4 0.0000 0.0000 0.0000 20.9994 0.0000 15.2846
# 5 20.5107 36.6003 21.8722 0.0000 43.1102 0.0000
# 6 0.0000 0.0000 0.0000 15.2846 0.0000 16.4103
#
#
#
# Elastic Compliance Matrix: (Units=1/GPa)
#
#
# Indices 1 2 3 4 5 6 
#
# 1 0.028845 -0.003994 0.001686 0.000000 -0.011189 0.000000
# 2 -0.003994 0.012703 -0.007530 0.000000 -0.005064 0.000000
# 3 0.001686 -0.007530 0.016643 0.000000 -0.002854 0.000000
# 4 0.000000 0.000000 0.000000 0.147857 0.000000 -0.137715
# 5 -0.011189 -0.005064 -0.002854 0.000000 0.034267 0.000000
# 6 0.000000 0.000000 0.000000 -0.137715 0.000000 0.189206
#
#
# Mechanical properties :
#
#
# Convention : Reuss Voigt Hill
#
# Bulk Modulus (GPa) = 25.96251 55.91174 40.93713
# Shear Modulus (GPa) = 10.82172 27.57012 19.19592
#
# Velocity S-wave (km/s) = 2.22907 3.55791 2.96880
# Velocity P-wave (km/s) = 4.30647 6.52304 5.52701
#
# Compressibility (1/GPa) = 0.03851707
#
# Stress axis : x y z
#
# Youngs Moduli (GPa) = 34.66793 78.72393 60.08473
#
# Poissons Ratio (x) = 0.31441 -0.10133
# Poissons Ratio (y) = 0.13846 0.45242
# Poissons Ratio (z) = -0.05847 0.59276
#
# Static dielectric constant tensor:
#      x y z
#    x 1.856690 0.000000 -0.068730 
#    y 0.000000 1.776440 0.000000 
#    z -0.068730 0.000000 1.795250 
# 
# From -- ./inp_files/187269.got.cif
#   From: 2010.05.17/outbox.cif.g08.bks.cpg/sg12_94_cif.got.tgz:187269.got - 2010.06.03 13:09:07.
