data_PCOD9194787
_publ_section_title
;
Structure prediction by ZEFSAII (Michael W. Deem and Ramdas Pophale) SiO2 
 PCOD9194787
Probable space group: C 2/M
;
_chemical_formula_sum "Si O2"
_cell_formula_units_Z 48
_cell_length_a 9.635271
_cell_length_b 20.483811
_cell_length_c 12.602565
_cell_angle_alpha 90.000000
_cell_angle_beta 77.106602
_cell_angle_gamma 90.000000
_cell_volume 2424.618026
_symmetry_space_group_name_H-M "C 2/M"
_symmetry_group_IT_number 12
_symmetry_cell_setting 'monoclinic'
loop_
_space_group_symop_operation_xyz
x,y,z
-x,y,-z
-x,-y,-z
x,-y,z
1/2+x,1/2+y,z
1/2-x,1/2+y,-z
1/2-x,1/2-y,-z
1/2+x,1/2-y,z
loop_
_atom_site_type_symbol
_atom_site_label
_atom_site_fract_x
_atom_site_fract_y
_atom_site_fract_z
Si Si1 0.276808 0.421686 0.570034
Si Si2 0.343351 0.576942 0.319218
Si Si3 0.556371 0.890951 0.882244
Si Si4 0.966333 0.425869 0.666667
Si Si5 0.406435 0.749104 0.922494
Si Si6 0.369905 0.640044 0.770762
O O1 0.282615 0.500000 0.598766
O O2 0.354757 0.415299 0.444734
O O3 0.334626 0.376206 0.654045
O O4 0.109920 0.402659 0.584346
O O5 0.343523 0.500000 0.296269
O O6 0.188484 0.606019 0.317045
O O7 0.478578 0.606085 0.237350
O O8 0.509589 0.925297 0.782598
O O9 0.482815 0.818869 0.891298
O O10 0.727571 0.885698 0.853587
O O11 0.500000 0.921609 0.000000
O O12 0.946667 0.500000 0.631438
O O13 0.393269 0.712009 0.813227
O O14 0.500000 0.715482 0.000000
O O15 0.250000 0.750000 0.000000
#
# Coordination Sequence:
#
# PCOD9194787 Si02
#       6
#     8   8   8   8   8   8
#     4   9  18  36  59  84 117 152 184 222 277 341
#     4  10  20  34  57  88 117 148 187 229 275 330
#     4  10  21  38  56  79 109 148 191 230 282 339
#     4   9  19  34  57  86 115 149 186 226 278 333
#     4  11  22  40  61  81 103 144 196 235 280 336
#     4  11  21  33  58  85 109 140 191 233 274 331
#
# _framework density 19.796934
#
# number of rings (size 3 to 8) (size 9 to 14) (size 15 to 20)
#    0.000    2.000    3.333    1.500    2.333    4.333 
#    0.000    0.000    0.000   22.000    0.000    0.000 
#    0.000    0.000    0.000    0.000    0.000    0.000 
#
# Total GULP energy -133655.768717 kJ/mol
# GULP energy per Si atom -5568.990363 kJ/mol
# Density = 1.975188 g / cm^3
# Si number density = 19.796934 Si / 1000 Ang^3
#
#
#
# Elastic Constant Matrix: (Units=GPa)
#
#
# Indices 1 2 3 4 5 6 
#
# 1 138.4728 26.3324 29.9581 0.0000 -29.7546 0.0000
# 2 26.3324 50.1889 26.4764 0.0000 -4.7756 0.0000
# 3 29.9581 26.4764 71.3891 0.0000 -21.6616 0.0000
# 4 0.0000 0.0000 0.0000 17.6673 0.0000 11.5068
# 5 -29.7546 -4.7756 -21.6616 0.0000 41.9840 0.0000
# 6 0.0000 0.0000 0.0000 11.5068 0.0000 24.6534
#
#
#
# Elastic Compliance Matrix: (Units=1/GPa)
#
#
# Indices 1 2 3 4 5 6 
#
# 1 0.009387 -0.004012 -0.000677 0.000000 0.005847 0.000000
# 2 -0.004012 0.026671 -0.009663 0.000000 -0.004795 0.000000
# 3 -0.000677 -0.009663 0.020626 0.000000 0.009062 0.000000
# 4 0.000000 0.000000 0.000000 0.081324 0.000000 -0.037957
# 5 0.005847 -0.004795 0.009062 0.000000 0.032093 0.000000
# 6 0.000000 0.000000 0.000000 -0.037957 0.000000 0.058279
#
#
# Mechanical properties :
#
#
# Convention : Reuss Voigt Hill
#
# Bulk Modulus (GPa) = 35.73989 47.28717 41.51353
# Shear Modulus (GPa) = 18.76808 28.67987 23.72397
#
# Velocity S-wave (km/s) = 3.08235 3.81031 3.46550
# Velocity P-wave (km/s) = 5.54619 6.57996 6.08507
#
# Compressibility (1/GPa) = 0.02797994
#
# Stress axis : x y z
#
# Youngs Moduli (GPa) = 106.52510 37.49425 48.48341
#
# Poissons Ratio (x) = 0.15041 0.03284
# Poissons Ratio (y) = 0.42733 0.46850
# Poissons Ratio (z) = 0.07216 0.36231
#
# Static dielectric constant tensor:
#      x y z
#    x 1.780920 0.000000 0.008270 
#    y 0.000000 1.701860 0.000000 
#    z 0.008270 0.000000 1.708390 
# 
# From -- ./inp_files/121841.got.cif
#   From: 2010.05.17/outbox.cif.g08.bks.cpg/sg12_61_cif.got.tgz:121841.got - 2010.06.03 13:09:07.
