data_PCOD9194695
_publ_section_title
;
Structure prediction by ZEFSAII (Michael W. Deem and Ramdas Pophale) SiO2 
 PCOD9194695
Probable space group: C 2/M
;
_chemical_formula_sum "Si O2"
_cell_formula_units_Z 56
_cell_length_a 20.198127
_cell_length_b 17.538071
_cell_length_c 23.386337
_cell_angle_alpha 90.000000
_cell_angle_beta 157.730636
_cell_angle_gamma 90.000000
_cell_volume 3139.424898
_symmetry_space_group_name_H-M "C 2/M"
_symmetry_group_IT_number 12
_symmetry_cell_setting 'monoclinic'
loop_
_space_group_symop_operation_xyz
x,y,z
-x,y,-z
-x,-y,-z
x,-y,z
1/2+x,1/2+y,z
1/2-x,1/2+y,-z
1/2-x,1/2-y,-z
1/2+x,1/2-y,z
loop_
_atom_site_type_symbol
_atom_site_label
_atom_site_fract_x
_atom_site_fract_y
_atom_site_fract_z
Si Si1 0.306789 0.313950 0.090920
Si Si2 0.652955 0.212360 0.575031
Si Si3 0.436049 0.312348 0.317337
Si Si4 0.350143 0.590529 0.667909
Si Si5 0.580186 0.849814 0.216264
Si Si6 0.175908 0.914092 0.677279
Si Si7 0.241122 0.589051 0.454244
O O1 0.366451 0.284816 0.200952
O O2 0.464561 0.366099 0.193178
O O3 0.250000 0.250000 0.000000
O O4 0.124229 0.355088 0.957089
O O5 0.500000 0.208520 0.500000
O O6 0.551625 0.248017 0.439764
O O7 0.742059 0.132335 0.631050
O O8 0.814356 0.271464 0.714598
O O9 0.304907 0.349886 0.258599
O O10 0.566703 0.383051 0.410247
O O11 0.374962 0.500000 0.695537
O O12 0.239699 0.602194 0.520873
O O13 0.674863 0.909402 0.250846
O O14 0.614999 0.865184 0.311224
O O15 0.000000 0.896919 0.500000
O O16 0.163186 0.000000 0.690139
O O17 0.217434 0.500000 0.424419
#
# Coordination Sequence:
#
# PCOD9194695 Si02
#       7
#     8   8   8   8   8   8   8
#     4  11  24  38  58  85 118 154 193 234 292 347
#     4  11  20  38  62  86 110 144 199 243 288 339
#     4  10  20  34  57  84 115 153 192 235 281 341
#     4  10  23  40  59  84 114 146 190 250 298 337
#     4  11  20  34  56  88 116 154 192 228 278 348
#     4  11  19  33  56  87 122 156 191 233 280 340
#     4   9  18  33  55  82 113 150 191 236 287 337
#
# _framework density 17.837662000000002
#
# number of rings (size 3 to 8) (size 9 to 14) (size 15 to 20)
#    0.000    1.571    5.714    0.857    2.000    4.286 
#    0.000    0.714    0.000    0.000    0.000    1.000 
#    0.000    0.000    0.000    0.000    0.000    0.000 
#
# Total GULP energy -155998.804637 kJ/mol
# GULP energy per Si atom -5571.385880 kJ/mol
# Density = 1.779706 g / cm^3
# Si number density = 17.837662 Si / 1000 Ang^3
#
#
#
# Elastic Constant Matrix: (Units=GPa)
#
#
# Indices 1 2 3 4 5 6 
#
# 1 70.7966 46.0462 33.5913 0.0006 3.8618 -0.0067
# 2 46.0462 83.1513 15.8650 -0.0225 1.6286 -0.0072
# 3 33.5913 15.8650 65.1638 -0.0007 4.6859 -0.0045
# 4 0.0006 -0.0225 -0.0007 12.0259 0.0034 -1.9464
# 5 3.8618 1.6286 4.6859 0.0034 29.3418 0.0058
# 6 -0.0067 -0.0072 -0.0045 -1.9464 0.0058 24.9889
#
#
#
# Elastic Compliance Matrix: (Units=1/GPa)
#
#
# Indices 1 2 3 4 5 6 
#
# 1 0.028293 -0.013505 -0.011212 -0.000027 -0.001184 0.000000
# 2 -0.013505 0.019060 0.002296 0.000037 0.000353 0.000005
# 3 -0.011212 0.002296 0.020707 0.000007 -0.001959 0.000002
# 4 -0.000027 0.000037 0.000007 0.084215 -0.000011 0.006560
# 5 -0.001184 0.000353 -0.001959 -0.000011 0.034530 -0.000009
# 6 0.000000 0.000005 0.000002 0.006560 -0.000009 0.040529
#
#
# Mechanical properties :
#
#
# Convention : Reuss Voigt Hill
#
# Bulk Modulus (GPa) = 43.06893 45.56853 44.31873
# Shear Modulus (GPa) = 17.86249 21.51193 19.68721
#
# Velocity S-wave (km/s) = 3.16791 3.47650 3.32578
# Velocity P-wave (km/s) = 6.13011 6.45882 6.29661
#
# Compressibility (1/GPa) = 0.02321859
#
# Stress axis : x y z
#
# Youngs Moduli (GPa) = 35.34426 52.46565 48.29218
#
# Poissons Ratio (x) = 0.70857 0.54144
# Poissons Ratio (y) = 0.47734 -0.11088
# Poissons Ratio (z) = 0.39627 -0.12047
#
# Static dielectric constant tensor:
#      x y z
#    x 1.655920 0.000000 -0.001470 
#    y 0.000000 1.629410 0.000000 
#    z -0.001470 0.000000 1.617940 
# 
# From -- ./inp_files/98089.got.cif
#   From: 2010.05.17/outbox.cif.g08.bks.cpg/sg12_50_cif.got.tgz:98089.got - 2010.06.03 13:09:07.
