data_PCOD9194569
_publ_section_title
;
Structure prediction by ZEFSAII (Michael W. Deem and Ramdas Pophale) SiO2 
 PCOD9194569
Probable space group: C 2/M
;
_chemical_formula_sum "Si O2"
_cell_formula_units_Z 56
_cell_length_a 28.040721
_cell_length_b 8.806175
_cell_length_c 17.979072
_cell_angle_alpha 90.000000
_cell_angle_beta 135.807365
_cell_angle_gamma 90.000000
_cell_volume 3094.724445
_symmetry_space_group_name_H-M "C 2/M"
_symmetry_group_IT_number 12
_symmetry_cell_setting 'monoclinic'
loop_
_space_group_symop_operation_xyz
x,y,z
-x,y,-z
-x,-y,-z
x,-y,z
1/2+x,1/2+y,z
1/2-x,1/2+y,-z
1/2-x,1/2-y,-z
1/2+x,1/2-y,z
loop_
_atom_site_type_symbol
_atom_site_label
_atom_site_fract_x
_atom_site_fract_y
_atom_site_fract_z
Si Si1 0.795848 0.180701 0.741757
Si Si2 0.565332 0.182442 0.380675
Si Si3 0.412599 0.817116 0.166974
Si Si4 0.832605 0.682992 0.934864
Si Si5 0.822973 0.181523 0.605172
Si Si6 0.822541 0.181775 0.195993
Si Si7 0.146832 0.181961 0.603681
O O1 0.836500 0.241043 0.858672
O O2 0.830889 0.212625 0.701928
O O3 0.721340 0.259850 0.660482
O O4 0.785533 0.000000 0.736049
O O5 0.488722 0.232082 0.274211
O O6 0.618396 0.245192 0.379257
O O7 0.590029 0.245171 0.487737
O O8 0.568281 0.000000 0.384803
O O9 0.358968 0.759198 0.167831
O O10 0.411219 0.000000 0.165961
O O11 0.388554 0.769133 0.057869
O O12 0.834370 0.500000 0.927680
O O13 0.757451 0.721587 0.883941
O O14 0.750000 0.250000 0.500000
O O15 0.822050 0.000000 0.592848
O O16 0.857846 0.222300 0.314303
O O17 0.826483 0.000000 0.191821
O O18 0.145178 0.000000 0.595409
#
# Coordination Sequence:
#
# PCOD9194569 Si02
#       7
#     8   8   8   8   8   8   8
#     4  10  20  34  56  86 111 136 178 229 276 324
#     4  11  23  37  54  80 113 148 187 226 272 329
#     4  10  22  38  55  78 111 150 188 228 272 324
#     4   9  19  37  58  81 110 145 186 227 272 326
#     4  11  22  36  58  85 112 142 180 224 276 331
#     4   9  19  34  56  83 107 139 186 233 277 327
#     4  10  20  35  55  81 112 145 181 225 278 330
#
# _framework density 18.095310999999999
#
# number of rings (size 3 to 8) (size 9 to 14) (size 15 to 20)
#    0.000    2.000    1.429    3.000    0.000    6.857 
#    0.000    3.571    0.000    4.286    0.000    0.000 
#    0.000    0.000    0.000    0.000    0.000    0.000 
#
# Total GULP energy -156343.633108 kJ/mol
# GULP energy per Si atom -5583.701182 kJ/mol
# Density = 1.805412 g / cm^3
# Si number density = 18.095311 Si / 1000 Ang^3
#
#
#
# Elastic Constant Matrix: (Units=GPa)
#
#
# Indices 1 2 3 4 5 6 
#
# 1 20.6995 9.0434 13.1401 0.0000 -15.7106 0.0000
# 2 9.0434 33.1431 27.9829 0.0000 -9.2474 0.0000
# 3 13.1401 27.9829 130.2665 0.0000 -20.9725 0.0000
# 4 0.0000 0.0000 0.0000 27.1986 0.0000 -7.1861
# 5 -15.7106 -9.2474 -20.9725 0.0000 21.4835 0.0000
# 6 0.0000 0.0000 0.0000 -7.1861 0.0000 28.8887
#
#
#
# Elastic Compliance Matrix: (Units=1/GPa)
#
#
# Indices 1 2 3 4 5 6 
#
# 1 0.112444 -0.011554 0.004245 0.000000 0.081399 0.000000
# 2 -0.011554 0.039812 -0.007105 0.000000 0.001752 0.000000
# 3 0.004245 -0.007105 0.010420 0.000000 0.010218 0.000000
# 4 0.000000 0.000000 0.000000 0.039353 0.000000 0.009789
# 5 0.081399 0.001752 0.010218 0.000000 0.116802 0.000000
# 6 0.000000 0.000000 0.000000 0.009789 0.000000 0.037051
#
#
# Mechanical properties :
#
#
# Convention : Reuss Voigt Hill
#
# Bulk Modulus (GPa) = 7.47118 31.60468 19.53793
# Shear Modulus (GPa) = 11.64622 24.44368 18.04495
#
# Velocity S-wave (km/s) = 2.53969 3.67935 3.16130
# Velocity P-wave (km/s) = 3.56900 5.96270 4.91383
#
# Compressibility (1/GPa) = 0.13384770
#
# Stress axis : x y z
#
# Youngs Moduli (GPa) = 8.89335 25.11800 95.97312
#
# Poissons Ratio (x) = 0.29020 -0.40736
# Poissons Ratio (y) = 0.10275 0.68185
# Poissons Ratio (z) = -0.03775 0.17845
#
# Static dielectric constant tensor:
#      x y z
#    x 1.589290 0.000000 -0.017490 
#    y 0.000000 1.607770 0.000000 
#    z -0.017490 0.000000 1.630590 
# 
# From -- ./inp_files/292554.got.cif
#   From: 2010.05.17/outbox.cif.g08.bks.cpg/sg12_147_cif.got.tgz:292554.got - 2010.06.03 13:09:07.
