data_PCOD9194684
_publ_section_title
;
Structure prediction by ZEFSAII (Michael W. Deem and Ramdas Pophale) SiO2 
 PCOD9194684
Probable space group: C 2/M
;
_chemical_formula_sum "Si O2"
_cell_formula_units_Z 34
_cell_length_a 19.551296
_cell_length_b 9.616174
_cell_length_c 25.804847
_cell_angle_alpha 90.000000
_cell_angle_beta 18.043847
_cell_angle_gamma 90.000000
_cell_volume 1502.737308
_symmetry_space_group_name_H-M "C 2/M"
_symmetry_group_IT_number 12
_symmetry_cell_setting 'monoclinic'
loop_
_space_group_symop_operation_xyz
x,y,z
-x,y,-z
-x,-y,-z
x,-y,z
1/2+x,1/2+y,z
1/2-x,1/2+y,-z
1/2-x,1/2-y,-z
1/2+x,1/2-y,z
loop_
_atom_site_type_symbol
_atom_site_label
_atom_site_fract_x
_atom_site_fract_y
_atom_site_fract_z
Si Si1 0.366952 0.839769 0.149969
Si Si2 0.000000 0.500000 0.500000
Si Si3 0.499672 0.342177 0.736448
Si Si4 0.027656 0.657519 0.340511
Si Si5 0.959698 0.848055 0.174849
O O1 0.146182 0.753934 0.296741
O O2 0.488428 0.766999 0.110445
O O3 0.322979 0.000000 0.192823
O O4 0.500000 0.830563 0.000000
O O5 0.803363 0.382582 0.632920
O O6 0.416802 0.500000 0.783801
O O7 0.429043 0.226568 0.746333
O O8 0.462159 0.311529 0.823721
O O9 0.765933 0.347787 0.537575
O O10 0.113661 0.500000 0.284070
O O11 0.058876 0.000000 0.088750
#
# Coordination Sequence:
#
# PCOD9194684 Si02
#       5
#     8   2   8   8   8
#     4  11  24  39  54  78 113 153 197 238 274 326
#     4   8  16  32  56  88 112 136 168 232 280 330
#     4   9  18  34  56  85 116 143 173 231 295 338
#     4  10  20  34  57  83 114 147 187 231 282 341
#     4   9  18  33  59  80 111 145 182 226 284 334
#
# _framework density 22.625378999999999
#
# number of rings (size 3 to 8) (size 9 to 14) (size 15 to 20)
#    0.706    1.647    0.000    2.824    3.294    3.765 
#    0.000    5.294    0.000    0.000    0.000    0.000 
#    0.000    0.000    0.000    0.000    0.000    0.000 
#
# Total GULP energy -94726.836060 kJ/mol
# GULP energy per Si atom -5572.166827 kJ/mol
# Density = 2.257388 g / cm^3
# Si number density = 22.625379 Si / 1000 Ang^3
#
#
#
# Elastic Constant Matrix: (Units=GPa)
#
#
# Indices 1 2 3 4 5 6 
#
# 1 137.5567 97.4034 -1.7388 -0.0023 6.2012 0.0006
# 2 97.4034 170.9158 15.1010 -0.0117 17.9618 0.0015
# 3 -1.7388 15.1010 52.7025 -0.0127 1.1079 0.0026
# 4 -0.0023 -0.0117 -0.0127 18.7607 0.0041 1.1249
# 5 6.2012 17.9618 1.1079 0.0041 21.5787 0.0007
# 6 0.0006 0.0015 0.0026 1.1249 0.0007 36.5573
#
#
#
# Elastic Compliance Matrix: (Units=1/GPa)
#
#
# Indices 1 2 3 4 5 6 
#
# 1 0.012643 -0.007711 0.002571 -0.000002 0.002653 0.000000
# 2 -0.007711 0.011276 -0.003338 0.000005 -0.006998 0.000000
# 3 0.002571 -0.003338 0.019994 0.000012 0.001013 -0.000002
# 4 -0.000002 0.000005 0.000012 0.053401 -0.000014 -0.001643
# 5 0.002653 -0.006998 0.001013 -0.000014 0.051353 0.000000
# 6 0.000000 0.000000 -0.000002 -0.001643 0.000000 0.027405
#
#
# Mechanical properties :
#
#
# Convention : Reuss Voigt Hill
#
# Bulk Modulus (GPa) = 37.09721 64.74512 50.92116
# Shear Modulus (GPa) = 24.75078 32.07331 28.41204
#
# Velocity S-wave (km/s) = 3.31106 3.76916 3.54751
# Velocity P-wave (km/s) = 5.57220 6.90075 6.27175
#
# Compressibility (1/GPa) = 0.02695621
#
# Stress axis : x y z
#
# Youngs Moduli (GPa) = 79.09700 88.68683 50.01393
#
# Poissons Ratio (x) = 0.68386 -0.12857
# Poissons Ratio (y) = 0.60991 0.16695
# Poissons Ratio (z) = -0.20334 0.29605
#
# Static dielectric constant tensor:
#      x y z
#    x 1.854470 0.000000 0.006230 
#    y 0.000000 1.813590 0.000010 
#    z 0.006230 0.000010 1.894860 
# 
# From -- ./inp_files/380119.got.cif
#   From: 2010.05.17/outbox.cif.g08.bks.cpg/sg12_191_cif.got.tgz:380119.got - 2010.06.03 13:09:07.
