data_PCOD9194315
_publ_section_title
;
Structure prediction by ZEFSAII (Michael W. Deem and Ramdas Pophale) SiO2 
 PCOD9194315
Probable space group: C 2/M
;
_chemical_formula_sum "Si O2"
_cell_formula_units_Z 64
_cell_length_a 14.980864
_cell_length_b 7.624463
_cell_length_c 27.481017
_cell_angle_alpha 90.000000
_cell_angle_beta 128.782397
_cell_angle_gamma 90.000000
_cell_volume 2446.876230
_symmetry_space_group_name_H-M "C 2/M"
_symmetry_group_IT_number 12
_symmetry_cell_setting 'monoclinic'
loop_
_space_group_symop_operation_xyz
x,y,z
-x,y,-z
-x,-y,-z
x,-y,z
1/2+x,1/2+y,z
1/2-x,1/2+y,-z
1/2-x,1/2-y,-z
1/2+x,1/2-y,z
loop_
_atom_site_type_symbol
_atom_site_label
_atom_site_fract_x
_atom_site_fract_y
_atom_site_fract_z
Si Si1 0.439086 0.701552 0.549717
Si Si2 0.131693 0.703714 0.682932
Si Si3 0.647512 0.791089 0.136968
Si Si4 0.420269 0.202982 0.097109
Si Si5 0.821814 0.211519 0.958690
Si Si6 0.098308 0.201741 0.773967
Si Si7 0.640879 0.709240 0.282361
Si Si8 0.768330 0.287906 0.579162
O O1 0.466480 0.500000 0.548815
O O2 0.555779 0.784619 0.608574
O O3 0.360696 0.770784 0.478937
O O4 0.352941 0.715177 0.566610
O O5 0.139322 0.500000 0.698187
O O6 0.070124 0.796345 0.706781
O O7 0.258726 0.779442 0.717899
O O8 0.546986 0.716197 0.136736
O O9 0.616724 0.762811 0.069901
O O10 0.775529 0.715044 0.183063
O O11 0.653000 0.000000 0.147839
O O12 0.311598 0.275036 0.089475
O O13 0.431253 0.000000 0.114450
O O14 0.374867 0.211850 0.025779
O O15 0.822517 0.000000 0.963577
O O16 0.988665 0.281064 0.763811
O O17 0.108846 0.000000 0.793046
O O18 0.634275 0.500000 0.272621
O O19 0.689097 0.737940 0.353169
O O20 0.771340 0.500000 0.576238
#
# Coordination Sequence:
#
# PCOD9194315 Si02
#       8
#     8   8   8   8   8   8   8   8
#     4  10  20  35  56  83 115 146 178 226 284 337
#     4  11  23  38  58  84 111 145 189 233 281 336
#     4  10  21  37  58  81 109 149 192 228 275 334
#     4   9  19  36  56  81 116 152 184 224 274 331
#     4  10  20  34  55  85 117 147 183 228 278 327
#     4  10  22  41  60  79 108 149 191 233 282 332
#     4  10  22  39  58  81 113 148 183 231 287 336
#     4  10  20  34  57  86 112 143 184 226 276 340
#
# _framework density 26.155795000000001
#
# number of rings (size 3 to 8) (size 9 to 14) (size 15 to 20)
#    0.000    2.000    1.250    1.875    0.000    7.000 
#    0.000    2.500    0.000    0.000    0.000    0.000 
#    0.000    0.000    0.000    0.000    0.000    0.000 
#
# Total GULP energy -179024.057148 kJ/mol
# GULP energy per Si atom -5594.501786 kJ/mol
# Density = 2.609626 g / cm^3
# Si number density = 26.155795 Si / 1000 Ang^3
#
#
#
# Elastic Constant Matrix: (Units=GPa)
#
#
# Indices 1 2 3 4 5 6 
#
# 1 158.2945 10.1060 31.4361 0.0000 21.8187 0.0000
# 2 10.1060 91.8153 14.3112 0.0000 3.2280 0.0000
# 3 31.4361 14.3112 98.1273 0.0000 21.0717 0.0000
# 4 0.0000 0.0000 0.0000 27.8300 0.0000 -3.8802
# 5 21.8187 3.2280 21.0717 0.0000 52.1722 0.0000
# 6 0.0000 0.0000 0.0000 -3.8802 0.0000 10.5258
#
#
#
# Elastic Compliance Matrix: (Units=1/GPa)
#
#
# Indices 1 2 3 4 5 6 
#
# 1 0.006987 -0.000426 -0.001702 0.000000 -0.002208 0.000000
# 2 -0.000426 0.011171 -0.001514 0.000000 0.000098 0.000000
# 3 -0.001702 -0.001514 0.011808 0.000000 -0.003964 0.000000
# 4 0.000000 0.000000 0.000000 0.037879 0.000000 0.013964
# 5 -0.002208 0.000098 -0.003964 0.000000 0.021686 0.000000
# 6 0.000000 0.000000 0.000000 0.013964 0.000000 0.100152
#
#
# Mechanical properties :
#
#
# Convention : Reuss Voigt Hill
#
# Bulk Modulus (GPa) = 44.08804 51.10486 47.59645
# Shear Modulus (GPa) = 24.44665 37.59786 31.02226
#
# Velocity S-wave (km/s) = 3.06053 3.79550 3.44765
# Velocity P-wave (km/s) = 5.42048 6.22806 5.83825
#
# Compressibility (1/GPa) = 0.02268189
#
# Stress axis : x y z
#
# Youngs Moduli (GPa) = 143.12462 89.51886 84.68822
#
# Poissons Ratio (x) = 0.03815 0.14414
# Poissons Ratio (y) = 0.06099 0.12820
# Poissons Ratio (z) = 0.24360 0.13552
#
# Static dielectric constant tensor:
#      x y z
#    x 2.056910 0.000000 0.047680 
#    y 0.000000 1.982260 0.000000 
#    z 0.047680 0.000000 2.132250 
# 
# From -- ./inp_files/375623.got.cif
#   From: 2010.05.17/outbox.cif.g08.bks.cpg/sg12_188_cif.got.tgz:375623.got - 2010.06.03 13:09:07.
