data_PCOD9194709
_publ_section_title
;
Structure prediction by ZEFSAII (Michael W. Deem and Ramdas Pophale) SiO2 
 PCOD9194709
Probable space group: C 2/M
;
_chemical_formula_sum "Si O2"
_cell_formula_units_Z 64
_cell_length_a 20.249638
_cell_length_b 7.684479
_cell_length_c 30.848773
_cell_angle_alpha 90.000000
_cell_angle_beta 37.722097
_cell_angle_gamma 90.000000
_cell_volume 2936.985993
_symmetry_space_group_name_H-M "C 2/M"
_symmetry_group_IT_number 12
_symmetry_cell_setting 'monoclinic'
loop_
_space_group_symop_operation_xyz
x,y,z
-x,y,-z
-x,-y,-z
x,-y,z
1/2+x,1/2+y,z
1/2-x,1/2+y,-z
1/2-x,1/2-y,-z
1/2+x,1/2-y,z
loop_
_atom_site_type_symbol
_atom_site_label
_atom_site_fract_x
_atom_site_fract_y
_atom_site_fract_z
Si Si1 0.384621 0.710873 0.682789
Si Si2 0.538965 0.293420 0.526026
Si Si3 0.587227 0.713068 0.990477
Si Si4 0.328677 0.794714 0.870988
Si Si5 0.992594 0.796002 0.713174
Si Si6 0.274786 0.289135 0.381943
Si Si7 0.551154 0.289514 0.108136
Si Si8 0.177953 0.793649 0.738692
O O1 0.384627 0.500000 0.683192
O O2 0.468666 0.773986 0.602442
O O3 0.423767 0.776508 0.709061
O O4 0.265786 0.765190 0.730148
O O5 0.500000 0.219409 0.500000
O O6 0.519061 0.500000 0.535401
O O7 0.666707 0.266184 0.462255
O O8 0.586804 0.500000 0.990177
O O9 0.560437 0.767912 0.053586
O O10 0.500000 0.770069 0.000000
O O11 0.710594 0.770392 0.918319
O O12 0.424762 0.717505 0.792431
O O13 0.353792 0.762993 0.908484
O O14 0.330672 0.000000 0.862388
O O15 0.112947 0.724246 0.656143
O O16 0.007759 0.000000 0.696137
O O17 0.274860 0.500000 0.381745
O O18 0.276213 0.226902 0.331013
O O19 0.549401 0.500000 0.108317
O O20 0.438790 0.223779 0.187216
O O21 0.163556 0.000000 0.740235
#
# Coordination Sequence:
#
# PCOD9194709 Si02
#       8
#     8   8   8   8   8   8   8   8
#     4  10  22  38  57  81 113 151 186 230 287 341
#     4  10  20  35  55  81 112 146 183 229 287 338
#     4   9  20  37  58  86 118 152 189 231 281 332
#     4  11  22  36  60  89 114 146 192 240 277 327
#     4  10  22  41  59  80 115 154 187 226 287 344
#     4  10  20  36  57  81 108 145 191 232 273 333
#     4  10  20  38  62  83 114 158 191 227 282 338
#     4  10  20  34  57  85 109 144 193 234 274 330
#
# _framework density 21.791046999999999
#
# number of rings (size 3 to 8) (size 9 to 14) (size 15 to 20)
#    0.000    2.000    2.500    0.750    1.750    2.750 
#    0.000    0.625    0.000    1.875    0.000    0.000 
#    0.000    0.000    0.000    0.000    0.000    0.000 
#
# Total GULP energy -178755.614090 kJ/mol
# GULP energy per Si atom -5586.112940 kJ/mol
# Density = 2.174145 g / cm^3
# Si number density = 21.791047 Si / 1000 Ang^3
#
#
#
# Elastic Constant Matrix: (Units=GPa)
#
#
# Indices 1 2 3 4 5 6 
#
# 1 133.0853 -12.2550 16.2681 0.0364 -19.0334 0.0299
# 2 -12.2550 32.0816 -10.7929 0.2060 2.6761 -0.1620
# 3 16.2681 -10.7929 60.7246 -0.0039 -23.2010 0.0001
# 4 0.0364 0.2060 -0.0039 11.7303 -0.0047 -13.2395
# 5 -19.0334 2.6761 -23.2010 -0.0047 37.2743 -0.0005
# 6 0.0299 -0.1620 0.0001 -13.2395 -0.0005 32.8284
#
#
#
# Elastic Compliance Matrix: (Units=1/GPa)
#
#
# Indices 1 2 3 4 5 6 
#
# 1 0.008361 0.002784 -0.000250 -0.000122 0.003914 -0.000043
# 2 0.002784 0.034165 0.006471 -0.000767 0.002997 -0.000143
# 3 -0.000250 0.006471 0.022906 -0.000116 0.013665 -0.000015
# 4 -0.000122 -0.000767 -0.000116 0.156490 -0.000059 0.063108
# 5 0.003914 0.002997 0.013665 -0.000059 0.037117 -0.000012
# 6 -0.000043 -0.000143 -0.000015 0.063108 -0.000012 0.055912
#
#
# Mechanical properties :
#
#
# Convention : Reuss Voigt Hill
#
# Bulk Modulus (GPa) = 11.98422 23.59243 17.78833
# Shear Modulus (GPa) = 15.39623 31.87802 23.63713
#
# Velocity S-wave (km/s) = 2.66096 3.82893 3.29708
# Velocity P-wave (km/s) = 3.86685 5.51342 4.76184
#
# Compressibility (1/GPa) = 0.08344307
#
# Stress axis : x y z
#
# Youngs Moduli (GPa) = 119.60810 29.26949 43.65668
#
# Poissons Ratio (x) = -0.08148 0.01090
# Poissons Ratio (y) = -0.33297 -0.28252
# Poissons Ratio (z) = 0.02986 -0.18941
#
# Static dielectric constant tensor:
#      x y z
#    x 1.794230 -0.000010 0.001390 
#    y -0.000010 1.808670 -0.000010 
#    z 0.001390 -0.000010 1.770090 
# 
# From -- ./inp_files/378094.got.cif
#   From: 2010.05.17/outbox.cif.g08.bks.cpg/sg12_190_cif.got.tgz:378094.got - 2010.06.03 13:09:07.
