data_PCOD9194120
_publ_section_title
;
Structure prediction by ZEFSAII (Michael W. Deem and Ramdas Pophale) SiO2 
 PCOD9194120
Probable space group: C 2/M
;
_chemical_formula_sum "Si O2"
_cell_formula_units_Z 64
_cell_length_a 26.725365
_cell_length_b 20.601102
_cell_length_c 8.889136
_cell_angle_alpha 90.000000
_cell_angle_beta 48.300725
_cell_angle_gamma 90.000000
_cell_volume 3654.169935
_symmetry_space_group_name_H-M "C 2/M"
_symmetry_group_IT_number 12
_symmetry_cell_setting 'monoclinic'
loop_
_space_group_symop_operation_xyz
x,y,z
-x,y,-z
-x,-y,-z
x,-y,z
1/2+x,1/2+y,z
1/2-x,1/2+y,-z
1/2-x,1/2-y,-z
1/2+x,1/2-y,z
loop_
_atom_site_type_symbol
_atom_site_label
_atom_site_fract_x
_atom_site_fract_y
_atom_site_fract_z
Si Si1 0.429033 0.386630 0.214994
Si Si2 0.428965 0.229994 0.214951
Si Si3 0.709416 0.574488 0.008807
Si Si4 0.428965 0.229994 0.569189
Si Si5 0.708514 0.809704 0.012465
Si Si6 0.070967 0.113370 0.431125
Si Si7 0.708514 0.809704 0.653480
Si Si8 0.209416 0.925512 0.653528
O O1 0.422015 0.308313 0.213962
O O2 0.428280 0.402423 0.393440
O O3 0.365910 0.417338 0.257783
O O4 0.500000 0.405253 0.000000
O O5 0.427717 0.214929 0.394566
O O6 0.366982 0.197131 0.255195
O O7 0.500000 0.212118 0.000000
O O8 0.730569 0.500000 0.987157
O O9 0.756520 0.624657 0.001365
O O10 0.634090 0.582662 0.221423
O O11 0.710152 0.589793 0.829696
O O12 0.500000 0.212118 0.500000
O O13 0.422015 0.308313 0.597977
O O14 0.366982 0.197131 0.776875
O O15 0.710913 0.805348 0.828174
O O16 0.750000 0.750000 0.000000
O O17 0.000000 0.094747 0.500000
O O18 0.750000 0.750000 0.500000
O O19 0.743480 0.875343 0.527446
O O20 0.230570 0.000000 0.590565
#
# Coordination Sequence:
#
# PCOD9194120 Si02
#       8
#     8   8   8   8   8   8   8   8
#     4  10  20  34  55  81 114 154 193 235 281 338
#     4  10  20  35  57  87 118 150 188 236 286 339
#     4  11  24  40  58  82 115 154 195 240 288 341
#     4  10  20  35  57  87 118 150 188 236 286 339
#     4  12  23  37  60  87 116 152 192 239 287 340
#     4  10  20  34  55  81 114 154 193 235 281 338
#     4  12  23  37  60  87 116 152 192 239 287 340
#     4  11  24  40  58  82 115 154 195 240 288 341
#
# _framework density 17.514237000000001
#
# number of rings (size 3 to 8) (size 9 to 14) (size 15 to 20)
#    0.000    1.250    2.500    4.500    0.000    4.500 
#    0.000    0.000    0.000    0.750    0.000    0.000 
#    0.000    0.000    0.000    0.000    0.000    0.000 
#
# Total GULP energy -178937.060769 kJ/mol
# GULP energy per Si atom -5591.783149 kJ/mol
# Density = 1.747437 g / cm^3
# Si number density = 17.514237 Si / 1000 Ang^3
#
#
#
# Elastic Constant Matrix: (Units=GPa)
#
#
# Indices 1 2 3 4 5 6 
#
# 1 155.4418 63.0458 78.7374 0.0000 7.8295 0.0000
# 2 63.0458 64.2033 63.6445 0.0000 7.2306 0.0000
# 3 78.7374 63.6445 156.7310 0.0000 7.7421 0.0000
# 4 0.0000 0.0000 0.0000 19.7503 0.0000 3.3846
# 5 7.8295 7.2306 7.7421 0.0000 37.6202 0.0000
# 6 0.0000 0.0000 0.0000 3.3846 0.0000 19.4700
#
#
#
# Elastic Compliance Matrix: (Units=1/GPa)
#
#
# Indices 1 2 3 4 5 6 
#
# 1 0.011025 -0.008910 -0.001911 0.000000 -0.000189 0.000000
# 2 -0.008910 0.033580 -0.009024 0.000000 -0.002742 0.000000
# 3 -0.001911 -0.009024 0.011011 0.000000 -0.000134 0.000000
# 4 0.000000 0.000000 0.000000 0.052187 0.000000 -0.009072
# 5 -0.000189 -0.002742 -0.000134 0.000000 0.027175 0.000000
# 6 0.000000 0.000000 0.000000 -0.009072 0.000000 0.052938
#
#
# Mechanical properties :
#
#
# Convention : Reuss Voigt Hill
#
# Bulk Modulus (GPa) = 62.79420 87.47015 75.13217
# Shear Modulus (GPa) = 21.46704 26.76464 24.11584
#
# Velocity S-wave (km/s) = 3.50478 3.91342 3.71472
# Velocity P-wave (km/s) = 7.23250 8.39467 7.83516
#
# Compressibility (1/GPa) = 0.01592504
#
# Stress axis : x y z
#
# Youngs Moduli (GPa) = 90.70521 29.77996 90.81523
#
# Poissons Ratio (x) = 0.26535 0.17354
# Poissons Ratio (y) = 0.80823 0.81952
# Poissons Ratio (z) = 0.17333 0.26873
#
# Static dielectric constant tensor:
#      x y z
#    x 1.575820 0.000000 0.004040 
#    y 0.000000 1.587650 0.000000 
#    z 0.004040 0.000000 1.576150 
# 
# From -- ./inp_files/99058.got.cif
#   From: 2010.05.17/outbox.cif.g08.bks.cpg/sg12_50_cif.got.tgz:99058.got - 2010.06.03 13:09:07.
