data_PCOD9194394
_publ_section_title
;
Structure prediction by ZEFSAII (Michael W. Deem and Ramdas Pophale) SiO2 
 PCOD9194394
Probable space group: C 2/M
;
_chemical_formula_sum "Si O2"
_cell_formula_units_Z 56
_cell_length_a 9.561696
_cell_length_b 18.135508
_cell_length_c 29.294908
_cell_angle_alpha 90.000000
_cell_angle_beta 146.945696
_cell_angle_gamma 90.000000
_cell_volume 2770.758907
_symmetry_space_group_name_H-M "C 2/M"
_symmetry_group_IT_number 12
_symmetry_cell_setting 'monoclinic'
loop_
_space_group_symop_operation_xyz
x,y,z
-x,y,-z
-x,-y,-z
x,-y,z
1/2+x,1/2+y,z
1/2-x,1/2+y,-z
1/2-x,1/2-y,-z
1/2+x,1/2-y,z
loop_
_atom_site_type_symbol
_atom_site_label
_atom_site_fract_x
_atom_site_fract_y
_atom_site_fract_z
Si Si1 0.810516 0.702708 0.782088
Si Si2 0.656949 0.285353 0.111996
Si Si3 0.159787 0.764612 0.400351
Si Si4 0.551064 0.164328 0.446571
Si Si5 0.285517 0.581478 0.017228
Si Si6 0.259353 0.622958 0.114913
Si Si7 0.073480 0.914552 0.281665
O O1 0.846873 0.756212 0.836285
O O2 0.630708 0.739893 0.695107
O O3 0.634241 0.634006 0.748167
O O4 0.074791 0.680146 0.830872
O O5 0.436612 0.345445 0.042004
O O6 0.666678 0.207803 0.087677
O O7 0.247518 0.834366 0.456365
O O8 0.343962 0.773870 0.407428
O O9 0.196080 0.694302 0.442200
O O10 0.358295 0.100260 0.379062
O O11 0.381709 0.500000 0.029755
O O12 0.295638 0.589075 0.075162
O O13 0.981464 0.586210 0.924734
O O14 0.516296 0.612739 0.214398
O O15 0.017637 0.000000 0.268911
#
# Coordination Sequence:
#
# PCOD9194394 Si02
#       7
#     8   8   8   8   8   8   8
#     4  10  20  34  56  78 110 145 183 231 273 332
#     4  11  21  37  58  86 112 148 195 230 279 340
#     4   9  16  32  48  81 103 133 178 225 271 320
#     4   9  18  29  54  76 106 134 176 224 272 324
#     4  11  22  36  58  85 115 148 190 241 290 333
#     4  10  20  38  58  80 111 152 190 233 276 346
#     4  10  20  35  54  79 110 147 185 228 285 339
#
# _framework density 20.211068999999998
#
# number of rings (size 3 to 8) (size 9 to 14) (size 15 to 20)
#    0.000    2.000    1.429    4.714    0.000    0.571 
#    0.000    5.714    0.000    4.286    0.000    8.000 
#    0.000    0.000    0.000    0.143    0.000    0.000 
#
# Total GULP energy -155888.984651 kJ/mol
# GULP energy per Si atom -5567.463738 kJ/mol
# Density = 2.016507 g / cm^3
# Si number density = 20.211069 Si / 1000 Ang^3
#
#
#
# Elastic Constant Matrix: (Units=GPa)
#
#
# Indices 1 2 3 4 5 6 
#
# 1 47.6858 -1.4568 2.6413 -0.0006 -0.2930 -0.0004
# 2 -1.4568 115.5122 12.1902 0.0002 2.4149 -0.0001
# 3 2.6413 12.1902 78.9230 0.0000 -7.8323 -0.0011
# 4 -0.0006 0.0002 0.0000 23.8796 -0.0006 8.0884
# 5 -0.2930 2.4149 -7.8323 -0.0006 28.1038 -0.0006
# 6 -0.0004 -0.0001 -0.0011 8.0884 -0.0006 9.3258
#
#
#
# Elastic Compliance Matrix: (Units=1/GPa)
#
#
# Indices 1 2 3 4 5 6 
#
# 1 0.021023 0.000346 -0.000759 0.000000 -0.000022 0.000001
# 2 0.000346 0.008844 -0.001494 0.000000 -0.001173 0.000000
# 3 -0.000759 -0.001494 0.013307 -0.000001 0.003829 0.000002
# 4 0.000000 0.000000 -0.000001 0.059296 0.000000 -0.051428
# 5 -0.000022 -0.001173 0.003829 0.000000 0.036750 0.000003
# 6 0.000001 0.000000 0.000002 -0.051428 0.000003 0.151833
#
#
# Mechanical properties :
#
#
# Convention : Reuss Voigt Hill
#
# Bulk Modulus (GPa) = 25.40734 29.87449 27.64091
# Shear Modulus (GPa) = 16.23444 27.51159 21.87302
#
# Velocity S-wave (km/s) = 2.83723 3.69347 3.29329
# Velocity P-wave (km/s) = 4.83027 5.74476 5.30725
#
# Compressibility (1/GPa) = 0.03935871
#
# Stress axis : x y z
#
# Youngs Moduli (GPa) = 47.56674 113.07581 75.15007
#
# Poissons Ratio (x) = -0.03909 0.05705
# Poissons Ratio (y) = -0.01644 0.11227
# Poissons Ratio (z) = 0.03611 0.16892
#
# Static dielectric constant tensor:
#      x y z
#    x 1.745670 0.000000 -0.032040 
#    y 0.000000 1.741520 0.000000 
#    z -0.032040 0.000000 1.841710 
# 
# From -- ./inp_files/372810.got.cif
#   From: 2010.05.17/outbox.cif.g08.bks.cpg/sg12_187_cif.got.tgz:372810.got - 2010.06.03 13:09:07.
