data_PCOD9194372
_publ_section_title
;
Structure prediction by ZEFSAII (Michael W. Deem and Ramdas Pophale) SiO2 
 PCOD9194372
Probable space group: C 2/M
;
_chemical_formula_sum "Si O2"
_cell_formula_units_Z 64
_cell_length_a 5.487173
_cell_length_b 24.015256
_cell_length_c 22.538060
_cell_angle_alpha 90.000000
_cell_angle_beta 110.441049
_cell_angle_gamma 90.000000
_cell_volume 2782.959172
_symmetry_space_group_name_H-M "C 2/M"
_symmetry_group_IT_number 12
_symmetry_cell_setting 'monoclinic'
loop_
_space_group_symop_operation_xyz
x,y,z
-x,y,-z
-x,-y,-z
x,-y,z
1/2+x,1/2+y,z
1/2-x,1/2+y,-z
1/2-x,1/2-y,-z
1/2+x,1/2-y,z
loop_
_atom_site_type_symbol
_atom_site_label
_atom_site_fract_x
_atom_site_fract_y
_atom_site_fract_z
Si Si1 0.180999 0.769400 0.427969
Si Si2 0.266911 0.378337 0.865557
Si Si3 0.184079 0.130536 0.358175
Si Si4 0.666300 0.940858 0.204046
Si Si5 0.815315 0.736957 0.108131
Si Si6 0.658035 0.936981 0.340430
Si Si7 0.701997 0.435420 0.962119
Si Si8 0.500836 0.671630 0.778786
O O1 0.250000 0.750000 0.500000
O O2 0.367242 0.734536 0.399526
O O3 0.262089 0.831865 0.420247
O O4 0.094232 0.433008 0.855675
O O5 0.139245 0.328985 0.891234
O O6 0.561019 0.394481 0.904484
O O7 0.267541 0.348963 0.801099
O O8 0.428421 0.095478 0.354739
O O9 0.937741 0.093497 0.357701
O O10 0.095044 0.173675 0.297539
O O11 0.578392 0.942163 0.264777
O O12 0.820964 0.883789 0.209397
O O13 0.802386 0.000000 0.203325
O O14 0.507613 0.739006 0.076710
O O15 0.880538 0.774786 0.174656
O O16 0.687328 0.000000 0.366578
O O17 0.705952 0.500000 0.942630
O O18 0.500000 0.432038 0.000000
O O19 0.000000 0.419974 0.000000
#
# Coordination Sequence:
#
# PCOD9194372 Si02
#       8
#     8   8   8   8   8   8   8   8
#     4  10  22  40  62  94 128 169 217 267 318 365
#     4  11  21  38  61  86 119 160 206 254 321 373
#     4  11  21  37  61  90 129 174 209 260 321 375
#     4  10  20  34  55  87 124 162 207 251 307 386
#     4  10  21  35  56  80 119 157 192 244 289 373
#     4  10  21  37  56  89 132 168 207 256 316 394
#     4  10  24  43  63  88 117 153 206 268 321 372
#     4  10  22  36  55  91 128 164 206 246 318 384
#
# _framework density 22.997102000000002
#
# number of rings (size 3 to 8) (size 9 to 14) (size 15 to 20)
#    0.000    1.750    2.500    1.500    1.750    3.500 
#    0.000    0.000    0.000    9.000    0.000   35.000 
#    0.000    0.000    0.000    0.000    0.000    0.000 
#
# Total GULP energy -178201.930607 kJ/mol
# GULP energy per Si atom -5568.810331 kJ/mol
# Density = 2.294476 g / cm^3
# Si number density = 22.997102 Si / 1000 Ang^3
#
#
#
# Elastic Constant Matrix: (Units=GPa)
#
#
# Indices 1 2 3 4 5 6 
#
# 1 128.7289 27.1284 18.4180 0.0000 -22.3830 0.0000
# 2 27.1284 112.5275 32.3115 0.0000 -10.9311 0.0000
# 3 18.4180 32.3115 59.7399 0.0000 -5.8792 0.0000
# 4 0.0000 0.0000 0.0000 22.7045 0.0000 4.6970
# 5 -22.3830 -10.9311 -5.8792 0.0000 17.9566 0.0000
# 6 0.0000 0.0000 0.0000 4.6970 0.0000 29.4099
#
#
#
# Elastic Compliance Matrix: (Units=1/GPa)
#
#
# Indices 1 2 3 4 5 6 
#
# 1 0.010204 -0.000890 -0.001515 0.000000 0.011681 0.000000
# 2 -0.000890 0.010995 -0.005294 0.000000 0.003851 0.000000
# 3 -0.001515 -0.005294 0.020218 0.000000 0.001509 0.000000
# 4 0.000000 0.000000 0.000000 0.045549 0.000000 -0.007275
# 5 0.011681 0.003851 0.001509 0.000000 0.073088 0.000000
# 6 0.000000 0.000000 0.000000 -0.007275 0.000000 0.035164
#
#
# Mechanical properties :
#
#
# Convention : Reuss Voigt Hill
#
# Bulk Modulus (GPa) = 38.43250 50.74579 44.58914
# Shear Modulus (GPa) = 22.80096 28.89009 25.84553
#
# Velocity S-wave (km/s) = 3.15218 3.54821 3.35604
# Velocity P-wave (km/s) = 5.47690 6.23702 5.86928
#
# Compressibility (1/GPa) = 0.02601965
#
# Stress axis : x y z
#
# Youngs Moduli (GPa) = 98.00399 90.94682 49.46103
#
# Poissons Ratio (x) = 0.08097 0.07492
# Poissons Ratio (y) = 0.08725 0.26183
# Poissons Ratio (z) = 0.14845 0.48144
#
# Static dielectric constant tensor:
#      x y z
#    x 1.959950 0.000000 -0.008930 
#    y 0.000000 1.912950 0.000000 
#    z -0.008930 0.000000 2.019300 
# 
# From -- ./inp_files/331449.got.cif
#   From: 2010.05.17/outbox.cif.g08.bks.cpg/sg12_166_cif.got.tgz:331449.got - 2010.06.03 13:09:07.
