data_PCOD9194976
_publ_section_title
;
Structure prediction by ZEFSAII (Michael W. Deem and Ramdas Pophale) SiO2 
 PCOD9194976
Probable space group: C 2/M
;
_chemical_formula_sum "Si O2"
_cell_formula_units_Z 48
_cell_length_a 26.757340
_cell_length_b 16.211358
_cell_length_c 15.051958
_cell_angle_alpha 90.000000
_cell_angle_beta 18.458901
_cell_angle_gamma 90.000000
_cell_volume 2067.281487
_symmetry_space_group_name_H-M "C 2/M"
_symmetry_group_IT_number 12
_symmetry_cell_setting 'monoclinic'
loop_
_space_group_symop_operation_xyz
x,y,z
-x,y,-z
-x,-y,-z
x,-y,z
1/2+x,1/2+y,z
1/2-x,1/2+y,-z
1/2-x,1/2-y,-z
1/2+x,1/2-y,z
loop_
_atom_site_type_symbol
_atom_site_label
_atom_site_fract_x
_atom_site_fract_y
_atom_site_fract_z
Si Si1 0.199818 0.902370 0.538513
Si Si2 0.270472 0.200346 0.095076
Si Si3 0.184145 0.597504 0.472180
Si Si4 0.171809 0.404085 0.855594
Si Si5 0.166945 0.631738 0.194572
Si Si6 0.380963 0.645576 0.980158
O O1 0.221993 0.868576 0.599870
O O2 0.320195 0.873511 0.259021
O O3 0.229065 0.000000 0.501299
O O4 0.030024 0.889112 0.780460
O O5 0.213790 0.148419 0.274413
O O6 0.163335 0.272239 0.234506
O O7 0.407584 0.260544 0.902629
O O8 0.310072 0.138137 0.949043
O O9 0.222281 0.500000 0.392260
O O10 0.237835 0.643526 0.292957
O O11 0.001338 0.600633 0.809090
O O12 0.218006 0.500000 0.776986
O O13 0.312587 0.599655 0.008219
O O14 0.000000 0.593390 0.500000
#
# Coordination Sequence:
#
# PCOD9194976 Si02
#       6
#     8   8   8   8   8   8
#     4  10  21  37  57  83 117 154 185 228 283 331
#     4   9  21  35  57  85 110 144 188 233 287 330
#     4  10  20  37  58  81 116 156 189 223 276 337
#     4  10  21  37  58  81 113 154 191 226 273 338
#     4   9  19  36  60  80 110 152 184 225 289 345
#     4  10  20  34  59  86 108 143 191 235 278 335
#
# _framework density 23.218899
#
# number of rings (size 3 to 8) (size 9 to 14) (size 15 to 20)
#    1.000    1.333    0.000    2.500    2.333    3.333 
#    0.000    6.667    0.000    7.000    0.000    0.000 
#    0.000    0.000    0.000    0.000    0.000    0.000 
#
# Total GULP energy -133730.664304 kJ/mol
# GULP energy per Si atom -5572.111013 kJ/mol
# Density = 2.316605 g / cm^3
# Si number density = 23.218899 Si / 1000 Ang^3
#
#
#
# Elastic Constant Matrix: (Units=GPa)
#
#
# Indices 1 2 3 4 5 6 
#
# 1 135.1919 22.3775 10.0918 -0.0013 13.5030 0.0004
# 2 22.3775 36.7603 2.0465 0.0010 2.8457 -0.0001
# 3 10.0918 2.0465 51.7844 0.0007 10.2003 0.0002
# 4 -0.0013 0.0010 0.0007 13.0260 0.0002 -7.2654
# 5 13.5030 2.8457 10.2003 0.0002 21.0350 0.0001
# 6 0.0004 -0.0001 0.0002 -7.2654 0.0001 33.3214
#
#
#
# Elastic Compliance Matrix: (Units=1/GPa)
#
#
# Indices 1 2 3 4 5 6 
#
# 1 0.008718 -0.004915 -0.000590 0.000001 -0.004646 0.000000
# 2 -0.004915 0.030269 -0.000059 -0.000003 -0.000911 -0.000001
# 3 -0.000590 -0.000059 0.021396 -0.000001 -0.009989 0.000000
# 4 0.000001 -0.000003 -0.000001 0.087398 -0.000001 0.019056
# 5 -0.004646 -0.000911 -0.009989 -0.000001 0.055489 0.000000
# 6 0.000000 -0.000001 0.000000 0.019056 0.000000 0.034166
#
#
# Mechanical properties :
#
#
# Convention : Reuss Voigt Hill
#
# Bulk Modulus (GPa) = 20.30202 32.52982 26.41592
# Shear Modulus (GPa) = 18.86921 26.09119 22.48020
#
# Velocity S-wave (km/s) = 2.85382 3.35581 3.11494
# Velocity P-wave (km/s) = 4.42965 5.39034 4.93343
#
# Compressibility (1/GPa) = 0.04925618
#
# Stress axis : x y z
#
# Youngs Moduli (GPa) = 114.69923 33.03720 46.73855
#
# Poissons Ratio (x) = 0.16237 0.02756
# Poissons Ratio (y) = 0.56372 0.00275
# Poissons Ratio (z) = 0.06764 0.00194
#
# Static dielectric constant tensor:
#      x y z
#    x 1.905310 0.000000 -0.022140 
#    y 0.000000 1.912510 0.000000 
#    z -0.022140 0.000000 1.903350 
# 
# From -- ./inp_files/241845.got.cif
#   From: 2010.05.17/outbox.cif.g08.bks.cpg/sg12_121_cif.got.tgz:241845.got - 2010.06.03 13:09:07.
