data_PCOD9194986
_publ_section_title
;
Structure prediction by ZEFSAII (Michael W. Deem and Ramdas Pophale) SiO2 
 PCOD9194986
Probable space group: C 2/M
;
_chemical_formula_sum "Si O2"
_cell_formula_units_Z 60
_cell_length_a 12.432536
_cell_length_b 13.546564
_cell_length_c 16.271687
_cell_angle_alpha 90.000000
_cell_angle_beta 116.810771
_cell_angle_gamma 90.000000
_cell_volume 2445.852103
_symmetry_space_group_name_H-M "C 2/M"
_symmetry_group_IT_number 12
_symmetry_cell_setting 'monoclinic'
loop_
_space_group_symop_operation_xyz
x,y,z
-x,y,-z
-x,-y,-z
x,-y,z
1/2+x,1/2+y,z
1/2-x,1/2+y,-z
1/2-x,1/2-y,-z
1/2+x,1/2-y,z
loop_
_atom_site_type_symbol
_atom_site_label
_atom_site_fract_x
_atom_site_fract_y
_atom_site_fract_z
Si Si1 0.120900 0.208719 0.354867
Si Si2 0.876142 0.605212 0.764474
Si Si3 0.739915 0.885059 0.810543
Si Si4 0.132053 0.811284 0.698551
Si Si5 0.517899 0.641969 0.914197
Si Si6 0.126920 0.304726 0.536184
Si Si7 0.215680 0.000000 0.912128
Si Si8 0.116220 0.640950 0.941597
O O1 0.112508 0.297295 0.286587
O O2 0.128958 0.266274 0.444388
O O3 0.245358 0.148301 0.394570
O O4 0.995741 0.151992 0.313556
O O5 0.877685 0.500000 0.719057
O O6 0.743034 0.617729 0.757303
O O7 0.987802 0.603111 0.864097
O O8 0.658747 0.798465 0.743385
O O9 0.708346 0.876469 0.896771
O O10 0.878595 0.858839 0.836790
O O11 0.716179 0.000000 0.780175
O O12 0.122525 0.789366 0.597425
O O13 0.582762 0.746919 0.947435
O O14 0.500000 0.600910 0.000000
O O15 0.608572 0.583324 0.888397
O O16 0.000000 0.360420 0.500000
O O17 0.321555 0.914689 0.962678
#
# Coordination Sequence:
#
# PCOD9194986 Si02
#       8
#     8   8   8   8   8   8   4   8
#     4   9  17  32  59  84 119 161 197 236 295 348
#     4  11  21  36  58  89 120 159 202 244 296 359
#     4  12  22  39  63  86 115 157 202 246 300 355
#     4  10  20  34  59  87 121 157 202 247 294 353
#     4  12  24  41  64  88 116 155 199 246 305 359
#     4   8  16  32  55  88 118 154 198 245 287 338
#     4  12  23  42  63  90 118 157 199 251 293 367
#     4  12  23  38  65  88 120 153 201 249 298 357
#
# _framework density 24.531326
#
# number of rings (size 3 to 8) (size 9 to 14) (size 15 to 20)
#    0.000    1.333    6.000    0.600    0.000    0.000 
#    0.000    1.000    4.400   45.600    0.000    0.000 
#    0.000    0.000    0.000    0.000    0.000    0.000 
#
# Total GULP energy -167070.846860 kJ/mol
# GULP energy per Si atom -5569.028229 kJ/mol
# Density = 2.447549 g / cm^3
# Si number density = 24.531326 Si / 1000 Ang^3
#
#
#
# Elastic Constant Matrix: (Units=GPa)
#
#
# Indices 1 2 3 4 5 6 
#
# 1 122.9733 10.0649 55.6202 0.0000 51.4028 0.0000
# 2 10.0649 105.8454 7.4741 0.0000 5.7764 0.0000
# 3 55.6202 7.4741 117.7980 0.0000 34.6432 0.0000
# 4 0.0000 0.0000 0.0000 -13.8452 0.0000 -9.8350
# 5 51.4028 5.7764 34.6432 0.0000 74.7821 0.0000
# 6 0.0000 0.0000 0.0000 -9.8350 0.0000 35.1834
#
#
#
# Elastic Compliance Matrix: (Units=1/GPa)
#
#
# Indices 1 2 3 4 5 6 
#
# 1 0.012904 -0.000564 -0.004007 0.000000 -0.006970 0.000000
# 2 -0.000564 0.009533 -0.000273 0.000000 -0.000222 0.000000
# 3 -0.004007 -0.000273 0.011094 0.000000 -0.002364 0.000000
# 4 0.000000 0.000000 0.000000 -0.060261 0.000000 -0.016845
# 5 -0.006970 -0.000222 -0.002364 0.000000 0.019275 0.000000
# 6 0.000000 0.000000 0.000000 -0.016845 0.000000 0.023714
#
#
# Mechanical properties :
#
#
# Convention : Reuss Voigt Hill
#
# Bulk Modulus (GPa) = 41.94330 54.77056 48.35693
# Shear Modulus (GPa) = 147.52030 37.45457 92.48743
#
# Velocity S-wave (km/s) = 7.76312 3.91168 6.14684
# Velocity P-wave (km/s) = 9.87369 6.54040 8.37456
#
# Compressibility (1/GPa) = 0.02384171
#
# Stress axis : x y z
#
# Youngs Moduli (GPa) = 77.49661 104.90129 90.14164
#
# Poissons Ratio (x) = 0.05913 0.36122
# Poissons Ratio (y) = 0.04368 0.02464
# Poissons Ratio (z) = 0.31055 0.02867
#
# Static dielectric constant tensor:
#      x y z
#    x 2.066740 0.000000 -0.006980 
#    y 0.000000 1.907290 0.000000 
#    z -0.006980 0.000000 2.025340 
# 
# From -- ./inp_files/336059.got.cif
#   From: 2010.05.17/outbox.cif.g08.bks.cpg/sg12_169_cif.got.tgz:336059.got - 2010.06.03 13:09:07.
