data_PCOD9194836
_publ_section_title
;
Structure prediction by ZEFSAII (Michael W. Deem and Ramdas Pophale) SiO2 
 PCOD9194836
Probable space group: C 2/M
;
_chemical_formula_sum "Si O2"
_cell_formula_units_Z 64
_cell_length_a 15.530075
_cell_length_b 10.568346
_cell_length_c 30.438414
_cell_angle_alpha 90.000000
_cell_angle_beta 42.845507
_cell_angle_gamma 90.000000
_cell_volume 3397.244017
_symmetry_space_group_name_H-M "C 2/M"
_symmetry_group_IT_number 12
_symmetry_cell_setting 'monoclinic'
loop_
_space_group_symop_operation_xyz
x,y,z
-x,y,-z
-x,-y,-z
x,-y,z
1/2+x,1/2+y,z
1/2-x,1/2+y,-z
1/2-x,1/2-y,-z
1/2+x,1/2-y,z
loop_
_atom_site_type_symbol
_atom_site_label
_atom_site_fract_x
_atom_site_fract_y
_atom_site_fract_z
Si Si1 0.419589 0.145682 0.686045
Si Si2 0.796076 0.347977 0.586440
Si Si3 0.807976 0.649100 0.011100
Si Si4 0.674114 0.352065 0.154855
Si Si5 0.702603 0.143127 0.753039
Si Si6 0.414822 0.850018 0.114268
Si Si7 0.063733 0.714069 0.718572
Si Si8 0.042316 0.652238 0.552174
O O1 0.307476 0.248198 0.721722
O O2 0.483370 0.147135 0.710120
O O3 0.523492 0.183255 0.610078
O O4 0.377269 0.000000 0.692461
O O5 0.789224 0.500000 0.588433
O O6 0.665930 0.296379 0.653773
O O7 0.841541 0.300964 0.521253
O O8 0.911807 0.312668 0.575923
O O9 0.803642 0.500000 0.998636
O O10 0.730725 0.657372 0.085019
O O11 0.750000 0.750000 0.000000
O O12 0.956056 0.687413 0.957660
O O13 0.657747 0.500000 0.171395
O O14 0.785544 0.294496 0.143408
O O15 0.541248 0.289006 0.214378
O O16 0.592389 0.166799 0.830626
O O17 0.645467 0.144778 0.725556
O O18 0.752460 0.000000 0.743442
O O19 0.407024 0.000000 0.108359
O O20 0.050263 0.500000 0.547002
#
# Coordination Sequence:
#
# PCOD9194836 Si02
#       8
#     8   8   8   8   8   8   8   8
#     4  11  23  40  61  87 120 157 197 245 302 356
#     4   9  17  31  57  86 114 156 203 242 287 353
#     4  10  20  36  59  84 115 153 198 243 290 345
#     4  10  20  34  57  90 119 152 202 244 283 354
#     4  11  23  40  60  86 122 159 197 243 297 357
#     4   9  18  36  59  81 111 156 199 238 283 343
#     4  12  22  34  59  92 123 152 192 251 307 348
#     4   8  16  34  56  81 114 156 202 241 286 355
#
# _framework density 18.838799000000002
#
# number of rings (size 3 to 8) (size 9 to 14) (size 15 to 20)
#    0.000    2.000    2.500    2.625    0.000    3.000 
#    0.000    1.250    0.000    3.000    0.000    0.000 
#    0.000    0.000    0.000    0.000    0.000    0.000 
#
# Total GULP energy -178162.816540 kJ/mol
# GULP energy per Si atom -5567.588017 kJ/mol
# Density = 1.879592 g / cm^3
# Si number density = 18.838799 Si / 1000 Ang^3
#
#
#
# Elastic Constant Matrix: (Units=GPa)
#
#
# Indices 1 2 3 4 5 6 
#
# 1 72.0996 34.6157 22.0548 0.0000 2.4123 0.0000
# 2 34.6157 65.2978 46.2714 0.0000 -2.0490 0.0000
# 3 22.0548 46.2714 120.0440 0.0000 -16.9927 0.0000
# 4 0.0000 0.0000 0.0000 26.1490 0.0000 -0.1920
# 5 2.4123 -2.0490 -16.9927 0.0000 30.2481 0.0000
# 6 0.0000 0.0000 0.0000 -0.1920 0.0000 20.4274
#
#
#
# Elastic Compliance Matrix: (Units=1/GPa)
#
#
# Indices 1 2 3 4 5 6 
#
# 1 0.018748 -0.010117 0.000159 0.000000 -0.002091 0.000000
# 2 -0.010117 0.026857 -0.008823 0.000000 -0.002331 0.000000
# 3 0.000159 -0.008823 0.012619 0.000000 0.006479 0.000000
# 4 0.000000 0.000000 0.000000 0.038245 0.000000 0.000359
# 5 -0.002091 -0.002331 0.006479 0.000000 0.036708 0.000000
# 6 0.000000 0.000000 0.000000 0.000359 0.000000 0.048957
#
#
# Mechanical properties :
#
#
# Convention : Reuss Voigt Hill
#
# Bulk Modulus (GPa) = 48.39851 51.48059 49.93955
# Shear Modulus (GPa) = 22.06674 25.66486 23.86580
#
# Velocity S-wave (km/s) = 3.42621 3.69499 3.56313
# Velocity P-wave (km/s) = 6.43417 6.75205 6.59502
#
# Compressibility (1/GPa) = 0.02066179
#
# Stress axis : x y z
#
# Youngs Moduli (GPa) = 53.33784 37.23403 79.24518
#
# Poissons Ratio (x) = 0.37671 -0.01262
# Poissons Ratio (y) = 0.53964 0.69920
# Poissons Ratio (z) = -0.00850 0.32853
#
# Static dielectric constant tensor:
#      x y z
#    x 1.704690 0.000000 0.014370 
#    y 0.000000 1.637130 0.000000 
#    z 0.014370 0.000000 1.692660 
# 
# From -- ./inp_files/376084.got.cif
#   From: 2010.05.17/outbox.cif.g08.bks.cpg/sg12_189_cif.got.tgz:376084.got - 2010.06.03 13:09:07.
