data_PCOD9194167
_publ_section_title
;
Structure prediction by ZEFSAII (Michael W. Deem and Ramdas Pophale) SiO2 
 PCOD9194167
Probable space group: C 2/M
;
_chemical_formula_sum "Si O2"
_cell_formula_units_Z 40
_cell_length_a 22.644087
_cell_length_b 7.641512
_cell_length_c 28.006815
_cell_angle_alpha 90.000000
_cell_angle_beta 158.063527
_cell_angle_gamma 90.000000
_cell_volume 1810.420792
_symmetry_space_group_name_H-M "C 2/M"
_symmetry_group_IT_number 12
_symmetry_cell_setting 'monoclinic'
loop_
_space_group_symop_operation_xyz
x,y,z
-x,y,-z
-x,-y,-z
x,-y,z
1/2+x,1/2+y,z
1/2-x,1/2+y,-z
1/2-x,1/2-y,-z
1/2+x,1/2-y,z
loop_
_atom_site_type_symbol
_atom_site_label
_atom_site_fract_x
_atom_site_fract_y
_atom_site_fract_z
Si Si1 0.298108 0.807753 0.982718
Si Si2 0.029850 0.301427 0.290866
Si Si3 0.137811 0.212266 0.475635
Si Si4 0.958639 0.285048 0.914169
Si Si5 0.101855 0.212924 0.621735
O O1 0.127670 0.808303 0.829882
O O2 0.366335 0.000000 0.040824
O O3 0.250000 0.750000 0.000000
O O4 0.417922 0.722221 0.034266
O O5 0.989511 0.500000 0.246861
O O6 0.092502 0.296458 0.391660
O O7 0.182426 0.239463 0.375381
O O8 0.005455 0.260199 0.413793
O O9 0.139223 0.000000 0.471311
O O10 0.964302 0.500000 0.919653
O O11 0.782244 0.231172 0.765657
O O12 0.000000 0.230451 0.000000
O O13 0.000000 0.274002 0.500000
O O14 0.108096 0.000000 0.623441
#
# Coordination Sequence:
#
# PCOD9194167 Si02
#       5
#     8   8   8   8   8
#     4  11  23  37  57  83 115 149 187 232 282 336
#     4  10  20  34  55  82 112 145 182 223 275 336
#     4   9  18  33  56  83 109 140 182 229 278 329
#     4   9  18  33  55  82 110 143 187 237 282 327
#     4   9  17  29  52  82 108 136 181 239 283 318
#
# _framework density 22.094311000000001
#
# number of rings (size 3 to 8) (size 9 to 14) (size 15 to 20)
#    0.000    2.400    0.000    2.400    2.800    4.000 
#    0.000    0.000    0.000   11.400    0.000    0.000 
#    0.000    0.000    0.000    0.000    0.000    0.000 
#
# Total GULP energy -111471.844404 kJ/mol
# GULP energy per Si atom -5573.592220 kJ/mol
# Density = 2.204402 g / cm^3
# Si number density = 22.094311 Si / 1000 Ang^3
#
#
#
# Elastic Constant Matrix: (Units=GPa)
#
#
# Indices 1 2 3 4 5 6 
#
# 1 168.2870 17.5058 97.1586 0.0003 25.4913 0.0000
# 2 17.5058 34.9563 6.4473 -0.0002 3.8549 0.0009
# 3 97.1586 6.4473 166.3531 0.0008 26.9619 0.0002
# 4 0.0003 -0.0002 0.0008 8.6060 0.0001 0.5707
# 5 25.4913 3.8549 26.9619 0.0001 42.8492 0.0000
# 6 0.0000 0.0009 0.0002 0.5707 0.0000 16.2484
#
#
#
# Elastic Compliance Matrix: (Units=1/GPa)
#
#
# Indices 1 2 3 4 5 6 
#
# 1 0.009601 -0.003626 -0.005116 0.000000 -0.002167 0.000000
# 2 -0.003626 0.030354 0.001152 0.000001 -0.001298 -0.000002
# 3 -0.005116 0.001152 0.009441 -0.000001 -0.003001 0.000000
# 4 0.000000 0.000001 -0.000001 0.116470 0.000000 -0.004091
# 5 -0.002167 -0.001298 -0.003001 0.000000 0.026631 0.000000
# 6 0.000000 -0.000002 0.000000 -0.004091 0.000000 0.061688
#
#
# Mechanical properties :
#
#
# Convention : Reuss Voigt Hill
#
# Bulk Modulus (GPa) = 29.22623 67.97998 48.60310
# Shear Modulus (GPa) = 17.80813 30.10636 23.95725
#
# Velocity S-wave (km/s) = 2.84210 3.69539 3.29647
# Velocity P-wave (km/s) = 4.90171 7.00305 6.04440
#
# Compressibility (1/GPa) = 0.03421584
#
# Stress axis : x y z
#
# Youngs Moduli (GPa) = 104.15400 32.94496 105.92154
#
# Poissons Ratio (x) = 0.11945 0.54188
# Poissons Ratio (y) = 0.37763 -0.12198
# Poissons Ratio (z) = 0.53284 -0.03794
#
# Static dielectric constant tensor:
#      x y z
#    x 1.878130 0.000000 -0.015300 
#    y 0.000000 1.857600 0.000000 
#    z -0.015300 0.000000 1.833990 
# 
# From -- ./inp_files/162663.got.cif
#   From: 2010.05.17/outbox.cif.g08.bks.cpg/sg12_82_cif.got.tgz:162663.got - 2010.06.03 13:09:07.
