data_PCOD9194269
_publ_section_title
;
Structure prediction by ZEFSAII (Michael W. Deem and Ramdas Pophale) SiO2 
 PCOD9194269
Probable space group: C 2/M
;
_chemical_formula_sum "Si O2"
_cell_formula_units_Z 64
_cell_length_a 15.253694
_cell_length_b 8.320042
_cell_length_c 31.912761
_cell_angle_alpha 90.000000
_cell_angle_beta 129.806118
_cell_angle_gamma 90.000000
_cell_volume 3111.342394
_symmetry_space_group_name_H-M "C 2/M"
_symmetry_group_IT_number 12
_symmetry_cell_setting 'monoclinic'
loop_
_space_group_symop_operation_xyz
x,y,z
-x,y,-z
-x,-y,-z
x,-y,z
1/2+x,1/2+y,z
1/2-x,1/2+y,-z
1/2-x,1/2-y,-z
1/2+x,1/2-y,z
loop_
_atom_site_type_symbol
_atom_site_label
_atom_site_fract_x
_atom_site_fract_y
_atom_site_fract_z
Si Si1 0.931249 0.307696 0.047665
Si Si2 0.692209 0.680457 0.441079
Si Si3 0.720429 0.311236 0.750776
Si Si4 0.229055 0.192067 0.324543
Si Si5 0.468600 0.186365 0.674816
Si Si6 0.402883 0.817473 0.441528
Si Si7 0.720090 0.694673 0.925971
Si Si8 0.687980 0.803266 0.132018
O O1 0.935063 0.500000 0.044464
O O2 0.883077 0.263662 0.078583
O O3 0.059820 0.248737 0.081952
O O4 0.836543 0.251331 0.985345
O O5 0.649974 0.500000 0.436078
O O6 0.750000 0.750000 0.500000
O O7 0.594073 0.782392 0.388792
O O8 0.793519 0.672265 0.438158
O O9 0.745611 0.500000 0.755021
O O10 0.767253 0.228869 0.723235
O O11 0.584643 0.285695 0.712308
O O12 0.774756 0.249060 0.810686
O O13 0.121688 0.264945 0.316631
O O14 0.347510 0.253636 0.382531
O O15 0.226445 0.000000 0.330452
O O16 0.497356 0.000000 0.687439
O O17 0.500000 0.737509 0.500000
O O18 0.444711 0.000000 0.444361
O O19 0.715195 0.500000 0.926582
O O20 0.728810 0.744231 0.880382
O O21 0.687745 0.000000 0.132460
#
# Coordination Sequence:
#
# PCOD9194269 Si02
#       8
#     8   8   8   8   8   8   8   8
#     4   9  17  32  55  82 112 147 187 230 282 338
#     4  10  20  34  55  84 115 145 180 228 286 345
#     4  11  23  39  59  84 115 152 197 243 292 348
#     4  10  21  39  61  84 113 147 188 236 290 350
#     4  11  23  41  61  81 112 153 196 241 290 343
#     4   8  16  31  52  78 105 135 170 214 272 333
#     4   9  17  32  55  82 112 148 188 230 279 335
#     4   9  19  35  55  80 110 148 190 233 280 337
#
# _framework density 20.569901000000002
#
# number of rings (size 3 to 8) (size 9 to 14) (size 15 to 20)
#    0.000    2.375    0.000    3.375    1.750    2.500 
#    0.000    5.625    0.000    5.250    0.000    0.000 
#    0.000    0.000    0.000    0.000    0.000    0.000 
#
# Total GULP energy -178554.969583 kJ/mol
# GULP energy per Si atom -5579.842799 kJ/mol
# Density = 2.052308 g / cm^3
# Si number density = 20.569901 Si / 1000 Ang^3
#
#
#
# Elastic Constant Matrix: (Units=GPa)
#
#
# Indices 1 2 3 4 5 6 
#
# 1 50.5235 -9.0324 7.7362 0.0000 -18.3209 0.0000
# 2 -9.0324 18.9012 -3.9449 0.0000 -6.5055 0.0000
# 3 7.7362 -3.9449 31.0697 0.0000 -26.5360 0.0000
# 4 0.0000 0.0000 0.0000 19.1846 0.0000 -5.8631
# 5 -18.3209 -6.5055 -26.5360 0.0000 36.8176 0.0000
# 6 0.0000 0.0000 0.0000 -5.8631 0.0000 24.2689
#
#
#
# Elastic Compliance Matrix: (Units=1/GPa)
#
#
# Indices 1 2 3 4 5 6 
#
# 1 0.062339 0.087854 0.092045 0.000000 0.112885 0.000000
# 2 0.087854 0.210685 0.192513 0.000000 0.219696 0.000000
# 3 0.092045 0.192513 0.265019 0.000000 0.270829 0.000000
# 4 0.000000 0.000000 0.000000 0.056281 0.000000 0.013597
# 5 0.112885 0.219696 0.270829 0.000000 0.317350 0.000000
# 6 0.000000 0.000000 0.000000 0.013597 0.000000 0.044490
#
#
# Mechanical properties :
#
#
# Convention : Reuss Voigt Hill
#
# Bulk Modulus (GPa) = 0.77950 10.00137 5.39044
# Shear Modulus (GPa) = 7.82518 23.10326 15.46422
#
# Velocity S-wave (km/s) = 1.95255 3.35499 2.74485
# Velocity P-wave (km/s) = 2.33732 4.45877 3.55975
#
# Compressibility (1/GPa) = 1.28286660
#
# Stress axis : x y z
#
# Youngs Moduli (GPa) = 16.04125 4.74642 3.77331
#
# Poissons Ratio (x) = -0.41699 -0.34731
# Poissons Ratio (y) = -1.40929 -0.72641
# Poissons Ratio (z) = -1.47651 -0.91375
#
# Static dielectric constant tensor:
#      x y z
#    x 1.711590 0.000000 -0.003830 
#    y 0.000000 1.722650 0.000000 
#    z -0.003830 0.000000 1.756820 
# 
# From -- ./inp_files/375590.got.cif
#   From: 2010.05.17/outbox.cif.g08.bks.cpg/sg12_188_cif.got.tgz:375590.got - 2010.06.03 13:09:07.
