data_PCOD9194042
_publ_section_title
;
Structure prediction by ZEFSAII (Michael W. Deem and Ramdas Pophale) SiO2 
 PCOD9194042
Probable space group: C 2/M
;
_chemical_formula_sum "Si O2"
_cell_formula_units_Z 56
_cell_length_a 30.291316
_cell_length_b 12.606493
_cell_length_c 9.323391
_cell_angle_alpha 90.000000
_cell_angle_beta 62.066550
_cell_angle_gamma 90.000000
_cell_volume 3145.495682
_symmetry_space_group_name_H-M "C 2/M"
_symmetry_group_IT_number 12
_symmetry_cell_setting 'monoclinic'
loop_
_space_group_symop_operation_xyz
x,y,z
-x,y,-z
-x,-y,-z
x,-y,z
1/2+x,1/2+y,z
1/2-x,1/2+y,-z
1/2-x,1/2-y,-z
1/2+x,1/2-y,z
loop_
_atom_site_type_symbol
_atom_site_label
_atom_site_fract_x
_atom_site_fract_y
_atom_site_fract_z
Si Si1 0.319526 0.779119 0.496115
Si Si2 0.974460 0.199375 0.398595
Si Si3 0.457047 0.761954 0.967132
Si Si4 0.136067 0.626559 0.023647
Si Si5 0.767759 0.625527 0.301478
Si Si6 0.596880 0.380189 0.729535
Si Si7 0.395228 0.874252 0.607160
O O1 0.279713 0.702769 0.635141
O O2 0.291596 0.851791 0.422160
O O3 0.357162 0.699947 0.356281
O O4 0.352852 0.846327 0.555162
O O5 0.935209 0.129880 0.368133
O O6 0.943585 0.303793 0.495053
O O7 0.000000 0.150857 0.500000
O O8 0.017053 0.230550 0.220453
O O9 0.408619 0.830559 0.006651
O O10 0.500000 0.815424 0.000000
O O11 0.438227 0.662010 0.089047
O O12 0.134844 0.500000 0.019833
O O13 0.124984 0.657314 0.204633
O O14 0.189832 0.657344 0.878370
O O15 0.756087 0.500000 0.304451
O O16 0.613084 0.500000 0.728453
O O17 0.406144 0.000000 0.589571
#
# Coordination Sequence:
#
# PCOD9194042 Si02
#       7
#     8   8   8   8   8   8   8
#     4  10  20  36  58  82 109 142 178 230 269 322
#     4  10  20  34  55  79 109 140 181 228 264 317
#     4  10  20  35  53  78 110 144 181 222 269 316
#     4  10  20  35  55  81 112 145 178 217 271 325
#     4  10  20  35  58  84 109 140 180 224 273 323
#     4  10  21  37  56  77 106 145 184 224 274 324
#     4  10  21  36  56  81 113 148 178 218 272 327
#
# _framework density 17.803235999999998
#
# number of rings (size 3 to 8) (size 9 to 14) (size 15 to 20)
#    0.000    2.000    2.857    0.857    0.000    4.571 
#    0.000    0.000    0.000    0.000    0.000    0.000 
#    0.000    0.000    0.000    0.000    0.000    0.000 
#
# Total GULP energy -156152.192462 kJ/mol
# GULP energy per Si atom -5576.864017 kJ/mol
# Density = 1.776271 g / cm^3
# Si number density = 17.803236 Si / 1000 Ang^3
#
#
#
# Elastic Constant Matrix: (Units=GPa)
#
#
# Indices 1 2 3 4 5 6 
#
# 1 32.0399 0.8555 5.4994 0.0000 3.3028 0.0000
# 2 0.8555 45.2323 27.8791 0.0000 -6.5604 0.0000
# 3 5.4994 27.8791 102.9623 0.0000 -3.1923 0.0000
# 4 0.0000 0.0000 0.0000 -451.5499 0.0000 -32.1328
# 5 3.3028 -6.5604 -3.1923 0.0000 29.7282 0.0000
# 6 0.0000 0.0000 0.0000 -32.1328 0.0000 5.8588
#
#
#
# Elastic Compliance Matrix: (Units=1/GPa)
#
#
# Indices 1 2 3 4 5 6 
#
# 1 0.031909 -0.000030 -0.001812 0.000000 -0.003746 0.000000
# 2 -0.000030 0.027331 -0.007236 0.000000 0.005258 0.000000
# 3 -0.001812 -0.007236 0.011764 0.000000 -0.000132 0.000000
# 4 0.000000 0.000000 0.000000 -0.001593 0.000000 -0.008736
# 5 -0.003746 0.005258 -0.000132 0.000000 0.035200 0.000000
# 6 0.000000 0.000000 0.000000 -0.008736 0.000000 0.122769
#
#
# Mechanical properties :
#
#
# Convention : Reuss Voigt Hill
#
# Bulk Modulus (GPa) = 18.92206 27.63362 23.27784
# Shear Modulus (GPa) = 19.00035 -73.45922 -27.22944
#
# Velocity S-wave (km/s) = 3.27041 -6.43050 -3.91508
# Velocity P-wave (km/s) = 4.99122 6.29124 2.70808
#
# Compressibility (1/GPa) = 0.05284837
#
# Stress axis : x y z
#
# Youngs Moduli (GPa) = 31.33899 36.58842 85.00333
#
# Poissons Ratio (x) = 0.00109 0.15406
# Poissons Ratio (y) = 0.00093 0.61507
# Poissons Ratio (z) = 0.05680 0.26475
#
# Static dielectric constant tensor:
#      x y z
#    x 1.603320 0.000000 -0.002300 
#    y 0.000000 1.573920 0.000000 
#    z -0.002300 0.000000 1.616730 
# 
# From -- ./inp_files/103270.got.cif
#   From: 2010.05.17/outbox.cif.g08.bks.cpg/sg12_52_cif.got.tgz:103270.got - 2010.06.03 13:09:07.
