data_PCOD9194008
_publ_section_title
;
Structure prediction by ZEFSAII (Michael W. Deem and Ramdas Pophale) SiO2 
 PCOD9194008
Probable space group: C 2/M
;
_chemical_formula_sum "Si O2"
_cell_formula_units_Z 32
_cell_length_a 13.513071
_cell_length_b 22.790493
_cell_length_c 14.376956
_cell_angle_alpha 90.000000
_cell_angle_beta 160.686554
_cell_angle_gamma 90.000000
_cell_volume 1464.387535
_symmetry_space_group_name_H-M "C 2/M"
_symmetry_group_IT_number 12
_symmetry_cell_setting 'monoclinic'
loop_
_space_group_symop_operation_xyz
x,y,z
-x,y,-z
-x,-y,-z
x,-y,z
1/2+x,1/2+y,z
1/2-x,1/2+y,-z
1/2-x,1/2-y,-z
1/2+x,1/2-y,z
loop_
_atom_site_type_symbol
_atom_site_label
_atom_site_fract_x
_atom_site_fract_y
_atom_site_fract_z
Si Si1 0.860957 0.264670 0.477101
Si Si2 0.142842 0.685645 0.026052
Si Si3 0.899263 0.375983 0.199115
Si Si4 0.770195 0.067282 0.668436
O O1 0.000000 0.276449 0.500000
O O2 0.021346 0.206215 0.657887
O O3 0.956396 0.318704 0.624389
O O4 0.523472 0.244526 0.160031
O O5 0.116207 0.636460 0.924249
O O6 0.000000 0.671419 0.000000
O O7 0.119814 0.425876 0.433541
O O8 0.562797 0.391927 0.934338
O O9 0.500000 0.082188 0.500000
O O10 0.859131 0.000000 0.764984
#
# Coordination Sequence:
#
# PCOD9194008 Si02
#       4
#     8   8   8   8
#     4  10  20  34  54  87 123 154 189 231 281 345
#     4  10  21  36  56  87 125 155 188 233 279 341
#     4  12  21  37  63  85 114 158 197 233 293 353
#     4  11  25  42  60  85 114 146 194 254 304 345
#
# _framework density 21.852139999999999
#
# number of rings (size 3 to 8) (size 9 to 14) (size 15 to 20)
#    0.000    1.250    0.000    6.750    0.000    6.000 
#    0.000    0.000    0.000    4.500    0.000    0.000 
#    0.000    0.000    0.000    0.000    0.000    0.000 
#
# Total GULP energy -89485.858709 kJ/mol
# GULP energy per Si atom -5592.866169 kJ/mol
# Density = 2.180240 g / cm^3
# Si number density = 21.852140 Si / 1000 Ang^3
#
#
#
# Elastic Constant Matrix: (Units=GPa)
#
#
# Indices 1 2 3 4 5 6 
#
# 1 135.7877 55.3252 49.4341 0.0001 -12.5744 -0.0003
# 2 55.3252 55.1426 12.9336 -0.0016 -3.1763 -0.0020
# 3 49.4341 12.9336 104.3435 0.0001 2.6197 0.0007
# 4 0.0001 -0.0016 0.0001 27.0324 0.0000 -3.7008
# 5 -12.5744 -3.1763 2.6197 0.0000 44.4185 0.0000
# 6 -0.0003 -0.0020 0.0007 -3.7008 0.0000 17.2698
#
#
#
# Elastic Compliance Matrix: (Units=1/GPa)
#
#
# Indices 1 2 3 4 5 6 
#
# 1 0.015477 -0.013978 -0.005693 -0.000001 0.003717 -0.000001
# 2 -0.013978 0.031400 0.002777 0.000002 -0.001876 0.000004
# 3 -0.005693 0.002777 0.011990 0.000000 -0.002120 0.000000
# 4 -0.000001 0.000002 0.000000 0.038111 0.000000 0.008167
# 5 0.003717 -0.001876 -0.002120 0.000000 0.023556 0.000000
# 6 -0.000001 0.000004 0.000000 0.008167 0.000000 0.059655
#
#
# Mechanical properties :
#
#
# Convention : Reuss Voigt Hill
#
# Bulk Modulus (GPa) = 39.87457 58.96217 49.41837
# Shear Modulus (GPa) = 22.48853 29.58287 26.03570
#
# Velocity S-wave (km/s) = 3.21147 3.68336 3.45548
# Velocity P-wave (km/s) = 5.66025 6.71792 6.21164
#
# Compressibility (1/GPa) = 0.02507864
#
# Stress axis : x y z
#
# Youngs Moduli (GPa) = 64.61391 31.84710 83.40438
#
# Poissons Ratio (x) = 0.44517 0.47481
# Poissons Ratio (y) = 0.90320 -0.23165
# Poissons Ratio (z) = 0.36784 -0.08845
#
# Static dielectric constant tensor:
#      x y z
#    x 1.829730 0.000000 -0.023240 
#    y 0.000000 1.798910 0.000000 
#    z -0.023240 0.000000 1.804770 
# 
# From -- ./inp_files/217852.got.cif
#   From: 2010.05.17/outbox.cif.g08.bks.cpg/sg12_109_cif.got.tgz:217852.got - 2010.06.03 13:09:07.
