data_PCOD9194632
_publ_section_title
;
Structure prediction by ZEFSAII (Michael W. Deem and Ramdas Pophale) SiO2 
 PCOD9194632
Probable space group: C 2/M
;
_chemical_formula_sum "Si O2"
_cell_formula_units_Z 48
_cell_length_a 8.943200
_cell_length_b 27.087802
_cell_length_c 20.379991
_cell_angle_alpha 90.000000
_cell_angle_beta 152.307251
_cell_angle_gamma 90.000000
_cell_volume 2294.411964
_symmetry_space_group_name_H-M "C 2/M"
_symmetry_group_IT_number 12
_symmetry_cell_setting 'monoclinic'
loop_
_space_group_symop_operation_xyz
x,y,z
-x,y,-z
-x,-y,-z
x,-y,z
1/2+x,1/2+y,z
1/2-x,1/2+y,-z
1/2-x,1/2-y,-z
1/2+x,1/2-y,z
loop_
_atom_site_type_symbol
_atom_site_label
_atom_site_fract_x
_atom_site_fract_y
_atom_site_fract_z
Si Si1 0.954449 0.822218 0.556691
Si Si2 0.653477 0.347090 0.766300
Si Si3 0.737619 0.719456 0.289693
Si Si4 0.583193 0.334962 0.954235
Si Si5 0.099194 0.945992 0.964055
Si Si6 0.249252 0.552215 0.157341
O O1 0.591102 0.804165 0.424349
O O2 0.000000 0.838789 0.500000
O O3 0.033571 0.858283 0.646556
O O4 0.194017 0.776340 0.666248
O O5 0.467302 0.303294 0.730210
O O6 0.574806 0.396385 0.776558
O O7 0.033088 0.335313 0.910456
O O8 0.571139 0.704499 0.155971
O O9 0.479986 0.391703 0.895112
O O10 0.500000 0.327084 0.000000
O O11 0.006267 0.000000 0.897565
O O12 0.487809 0.944476 0.113724
O O13 0.000000 0.948003 0.000000
O O14 0.424197 0.500000 0.228468
O O15 0.000000 0.551612 0.000000
#
# Coordination Sequence:
#
# PCOD9194632 Si02
#       6
#     8   8   8   8   8   8
#     4  11  24  42  60  77 106 152 197 238 290 351
#     4  11  21  37  63  90 117 150 193 242 286 334
#     4  11  22  39  59  82 112 150 194 236 290 351
#     4  10  20  34  56  88 121 150 187 239 290 334
#     4   8  14  26  46  75 112 150 183 217 266 330
#     4   9  17  31  54  86 121 152 182 222 279 343
#
# _framework density 20.920393000000001
#
# number of rings (size 3 to 8) (size 9 to 14) (size 15 to 20)
#    0.000    2.000    0.000    6.000    0.000    0.667 
#    0.000    2.500    0.000    3.500    0.000    0.000 
#    0.000    0.000    0.000    0.000    0.000    0.000 
#
# Total GULP energy -133734.137390 kJ/mol
# GULP energy per Si atom -5572.255725 kJ/mol
# Density = 2.087278 g / cm^3
# Si number density = 20.920393 Si / 1000 Ang^3
#
#
#
# Elastic Constant Matrix: (Units=GPa)
#
#
# Indices 1 2 3 4 5 6 
#
# 1 124.7391 16.2307 24.7576 -0.0010 -11.1241 -0.0007
# 2 16.2307 49.0927 20.1778 -0.0010 -9.3825 0.0002
# 3 24.7576 20.1778 62.6158 -0.0151 -20.5427 -0.0043
# 4 -0.0010 -0.0010 -0.0151 6.5464 -0.0063 -4.9856
# 5 -11.1241 -9.3825 -20.5427 -0.0063 35.1700 -0.0034
# 6 -0.0007 0.0002 -0.0043 -4.9856 -0.0034 21.4202
#
#
#
# Elastic Compliance Matrix: (Units=1/GPa)
#
#
# Indices 1 2 3 4 5 6 
#
# 1 0.008839 -0.001663 -0.002706 -0.000005 0.000772 -0.000001
# 2 -0.001663 0.023941 -0.006352 -0.000012 0.002151 -0.000004
# 3 -0.002706 -0.006352 0.022577 0.000080 0.010637 0.000025
# 4 -0.000005 -0.000012 0.000080 0.185669 0.000079 0.043215
# 5 0.000772 0.002151 0.010637 0.000079 0.035464 0.000026
# 6 -0.000001 -0.000004 0.000025 0.043215 0.000026 0.056743
#
#
# Mechanical properties :
#
#
# Convention : Reuss Voigt Hill
#
# Bulk Modulus (GPa) = 29.48460 39.86442 34.67451
# Shear Modulus (GPa) = 13.66198 24.31275 18.98736
#
# Velocity S-wave (km/s) = 2.55825 3.41274 3.01591
# Velocity P-wave (km/s) = 4.78022 5.88436 5.36079
#
# Compressibility (1/GPa) = 0.03391601
#
# Stress axis : x y z
#
# Youngs Moduli (GPa) = 113.13582 41.76915 44.29316
#
# Poissons Ratio (x) = 0.06945 0.11985
# Poissons Ratio (y) = 0.18810 0.28135
# Poissons Ratio (z) = 0.30613 0.26531
#
# Static dielectric constant tensor:
#      x y z
#    x 1.887570 0.000000 -0.003820 
#    y 0.000000 1.864830 0.000000 
#    z -0.003820 0.000000 1.751840 
# 
# From -- ./inp_files/302796.got.cif
#   From: 2010.05.17/outbox.cif.g08.bks.cpg/sg12_152_cif.got.tgz:302796.got - 2010.06.03 13:09:07.
