data_PCOD9194585
_publ_section_title
;
Structure prediction by ZEFSAII (Michael W. Deem and Ramdas Pophale) SiO2 
 PCOD9194585
Probable space group: C 2/M
;
_chemical_formula_sum "Si O2"
_cell_formula_units_Z 56
_cell_length_a 31.475426
_cell_length_b 10.912807
_cell_length_c 9.579924
_cell_angle_alpha 90.000000
_cell_angle_beta 63.965404
_cell_angle_gamma 90.000000
_cell_volume 2956.666524
_symmetry_space_group_name_H-M "C 2/M"
_symmetry_group_IT_number 12
_symmetry_cell_setting 'monoclinic'
loop_
_space_group_symop_operation_xyz
x,y,z
-x,y,-z
-x,-y,-z
x,-y,z
1/2+x,1/2+y,z
1/2-x,1/2+y,-z
1/2-x,1/2-y,-z
1/2+x,1/2-y,z
loop_
_atom_site_type_symbol
_atom_site_label
_atom_site_fract_x
_atom_site_fract_y
_atom_site_fract_z
Si Si1 0.721684 0.865165 0.603152
Si Si2 0.699859 0.864549 0.184107
Si Si3 0.096620 0.853733 0.005099
Si Si4 0.130925 0.361932 0.542728
Si Si5 0.523202 0.357495 0.324466
Si Si6 0.932165 0.858067 0.264298
Si Si7 0.798126 0.768924 0.103180
O O1 0.750000 0.750000 0.500000
O O2 0.670018 0.861859 0.608619
O O3 0.716159 0.842787 0.775579
O O4 0.742606 0.000000 0.543462
O O5 0.661162 0.845236 0.358584
O O6 0.752309 0.855848 0.174464
O O7 0.693208 0.000000 0.134694
O O8 0.696227 0.768796 0.065255
O O9 0.070993 0.825075 0.895200
O O10 0.151561 0.818649 0.919089
O O11 0.093942 0.000000 0.022033
O O12 0.069285 0.802158 0.181213
O O13 0.109289 0.500000 0.571634
O O14 0.097299 0.246688 0.614537
O O15 0.500000 0.304029 0.500000
O O16 0.534523 0.500000 0.344364
O O17 0.483587 0.357718 0.260511
O O18 0.914395 0.000000 0.304262
#
# Coordination Sequence:
#
# PCOD9194585 Si02
#       7
#     8   8   8   8   8   8   8
#     4  11  22  37  58  83 114 153 196 239 285 335
#     4  10  22  38  53  76 115 157 190 233 288 337
#     4  10  20  34  56  86 115 149 191 241 292 342
#     4  10  21  38  57  81 116 153 188 231 285 338
#     4   9  19  35  56  85 119 149 184 238 296 343
#     4  10  20  36  60  88 117 149 191 237 285 342
#     4  11  21  36  56  82 112 150 196 239 281 342
#
# _framework density 18.940248
#
# number of rings (size 3 to 8) (size 9 to 14) (size 15 to 20)
#    0.000    1.857    2.857    1.286    2.000    2.857 
#    0.000    0.714    0.000    3.857    0.000    0.000 
#    0.000    0.000    0.000    0.000    0.000    0.000 
#
# Total GULP energy -155987.869493 kJ/mol
# GULP energy per Si atom -5570.995339 kJ/mol
# Density = 1.889714 g / cm^3
# Si number density = 18.940248 Si / 1000 Ang^3
#
#
#
# Elastic Constant Matrix: (Units=GPa)
#
#
# Indices 1 2 3 4 5 6 
#
# 1 33.4123 -3.0969 10.4130 0.0000 2.8600 0.0000
# 2 -3.0969 69.4567 31.7035 0.0000 -15.4503 0.0000
# 3 10.4130 31.7035 94.2884 0.0000 -3.8038 0.0000
# 4 0.0000 0.0000 0.0000 18.6542 0.0000 -2.1020
# 5 2.8600 -15.4503 -3.8038 0.0000 28.1955 0.0000
# 6 0.0000 0.0000 0.0000 -2.1020 0.0000 16.6787
#
#
#
# Elastic Compliance Matrix: (Units=1/GPa)
#
#
# Indices 1 2 3 4 5 6 
#
# 1 0.031841 0.003047 -0.004629 0.000000 -0.002185 0.000000
# 2 0.003047 0.019658 -0.006560 0.000000 0.009578 0.000000
# 3 -0.004629 -0.006560 0.013269 0.000000 -0.001335 0.000000
# 4 0.000000 0.000000 0.000000 0.054379 0.000000 0.006853
# 5 -0.002185 0.009578 -0.001335 0.000000 0.040757 0.000000
# 6 0.000000 0.000000 0.000000 0.006853 0.000000 0.060821
#
#
# Mechanical properties :
#
#
# Convention : Reuss Voigt Hill
#
# Bulk Modulus (GPa) = 20.62555 30.57739 25.60147
# Shear Modulus (GPa) = 19.74954 23.24820 21.49887
#
# Velocity S-wave (km/s) = 3.23263 3.50730 3.37276
# Velocity P-wave (km/s) = 4.98464 5.70795 5.35852
#
# Compressibility (1/GPa) = 0.04848355
#
# Stress axis : x y z
#
# Youngs Moduli (GPa) = 31.40588 50.86945 75.36463
#
# Poissons Ratio (x) = -0.15498 0.34886
# Poissons Ratio (y) = -0.09568 0.49439
# Poissons Ratio (z) = 0.14538 0.33370
#
# Static dielectric constant tensor:
#      x y z
#    x 1.657080 0.000000 0.000460 
#    y 0.000000 1.650640 0.000000 
#    z 0.000460 0.000000 1.700130 
# 
# From -- ./inp_files/110352.got.cif
#   From: 2010.05.17/outbox.cif.g08.bks.cpg/sg12_56_cif.got.tgz:110352.got - 2010.06.03 13:09:07.
