data_PCOD9194371
_publ_section_title
;
Structure prediction by ZEFSAII (Michael W. Deem and Ramdas Pophale) SiO2 
 PCOD9194371
Probable space group: C 2/M
;
_chemical_formula_sum "Si O2"
_cell_formula_units_Z 48
_cell_length_a 13.859979
_cell_length_b 20.667809
_cell_length_c 11.260531
_cell_angle_alpha 90.000000
_cell_angle_beta 133.742296
_cell_angle_gamma 90.000000
_cell_volume 2330.385918
_symmetry_space_group_name_H-M "C 2/M"
_symmetry_group_IT_number 12
_symmetry_cell_setting 'monoclinic'
loop_
_space_group_symop_operation_xyz
x,y,z
-x,y,-z
-x,-y,-z
x,-y,z
1/2+x,1/2+y,z
1/2-x,1/2+y,-z
1/2-x,1/2-y,-z
1/2+x,1/2-y,z
loop_
_atom_site_type_symbol
_atom_site_label
_atom_site_fract_x
_atom_site_fract_y
_atom_site_fract_z
Si Si1 0.697359 0.430452 0.132914
Si Si2 0.788490 0.320044 0.888736
Si Si3 0.948451 0.574600 0.165044
Si Si4 0.124081 0.612329 0.525879
Si Si5 0.224580 0.237816 0.342431
Si Si6 0.575067 0.688724 0.899901
O O1 0.634246 0.500000 0.057765
O O2 0.827959 0.426927 0.158728
O O3 0.748880 0.425080 0.312280
O O4 0.612946 0.370608 0.016003
O O5 0.773553 0.301110 0.738487
O O6 0.645275 0.327033 0.832887
O O7 0.888034 0.378072 0.012233
O O8 0.853751 0.254199 0.995187
O O9 0.973577 0.500000 0.149327
O O10 0.075033 0.602102 0.348889
O O11 0.161665 0.685756 0.594497
O O12 0.000000 0.590283 0.500000
O O13 0.250000 0.250000 0.500000
O O14 0.079734 0.204411 0.221452
#
# Coordination Sequence:
#
# PCOD9194371 Si02
#       6
#     8   8   8   8   8   8
#     4   9  17  33  59  88 121 157 193 244 303 364
#     4  10  21  38  62  86 120 156 200 250 299 359
#     4   9  18  35  61  90 118 158 202 242 301 364
#     4  10  20  34  55  87 124 157 195 243 297 357
#     4  12  25  36  59  85 120 158 205 252 303 358
#     4  10  21  38  59  88 119 156 198 247 303 362
#
# _framework density 20.597446999999999
#
# number of rings (size 3 to 8) (size 9 to 14) (size 15 to 20)
#    0.000    2.000    1.667    2.000    4.667    2.000 
#    0.000    2.500    0.000   10.000    0.000    4.667 
#    0.000    0.000    0.000    0.000    0.000    0.000 
#
# Total GULP energy -133774.080940 kJ/mol
# GULP energy per Si atom -5573.920039 kJ/mol
# Density = 2.055057 g / cm^3
# Si number density = 20.597447 Si / 1000 Ang^3
#
#
#
# Elastic Constant Matrix: (Units=GPa)
#
#
# Indices 1 2 3 4 5 6 
#
# 1 80.1213 25.2181 55.0121 0.0000 -0.4671 0.0000
# 2 25.2181 120.7060 53.2647 0.0000 -15.4728 0.0000
# 3 55.0121 53.2647 98.4038 0.0000 -23.3154 0.0000
# 4 0.0000 0.0000 0.0000 -1.4125 0.0000 -66.3777
# 5 -0.4671 -15.4728 -23.3154 0.0000 33.0632 0.0000
# 6 0.0000 0.0000 0.0000 -66.3777 0.0000 -121.7080
#
#
#
# Elastic Compliance Matrix: (Units=1/GPa)
#
#
# Indices 1 2 3 4 5 6 
#
# 1 0.022980 0.000817 -0.015754 0.000000 -0.010402 0.000000
# 2 0.000817 0.010949 -0.006203 0.000000 0.000761 0.000000
# 3 -0.015754 -0.006203 0.025917 0.000000 0.015150 0.000000
# 4 0.000000 0.000000 0.000000 0.028745 0.000000 -0.015677
# 5 -0.010402 0.000761 0.015150 0.000000 0.041138 0.000000
# 6 0.000000 0.000000 0.000000 -0.015677 0.000000 0.000334
#
#
# Mechanical properties :
#
#
# Convention : Reuss Voigt Hill
#
# Bulk Modulus (GPa) = 56.92747 62.91342 59.92044
# Shear Modulus (GPa) = 28.05898 -6.96240 10.54829
#
# Velocity S-wave (km/s) = 3.69488 -1.84053 2.26545
# Velocity P-wave (km/s) = 6.77502 5.10821 5.99978
#
# Compressibility (1/GPa) = 0.01756621
#
# Stress axis : x y z
#
# Youngs Moduli (GPa) = 43.51617 91.33580 38.58528
#
# Poissons Ratio (x) = -0.07466 0.60787
# Poissons Ratio (y) = -0.03557 0.23934
# Poissons Ratio (z) = 0.68555 0.56656
#
# Static dielectric constant tensor:
#      x y z
#    x 1.792400 0.000000 -0.016210 
#    y 0.000000 1.776950 0.000000 
#    z -0.016210 0.000000 1.774280 
# 
# From -- ./inp_files/147913.got.cif
#   From: 2010.05.17/outbox.cif.g08.bks.cpg/sg12_74_cif.got.tgz:147913.got - 2010.06.03 13:09:07.
