data_PCOD9194788
_publ_section_title
;
Structure prediction by ZEFSAII (Michael W. Deem and Ramdas Pophale) SiO2 
 PCOD9194788
Probable space group: C 2/M
;
_chemical_formula_sum "Si O2"
_cell_formula_units_Z 64
_cell_length_a 31.927735
_cell_length_b 8.254144
_cell_length_c 12.510873
_cell_angle_alpha 90.000000
_cell_angle_beta 90.413135
_cell_angle_gamma 90.000000
_cell_volume 3296.981246
_symmetry_space_group_name_H-M "C 2/M"
_symmetry_group_IT_number 12
_symmetry_cell_setting 'monoclinic'
loop_
_space_group_symop_operation_xyz
x,y,z
-x,y,-z
-x,-y,-z
x,-y,z
1/2+x,1/2+y,z
1/2-x,1/2+y,-z
1/2-x,1/2-y,-z
1/2+x,1/2-y,z
loop_
_atom_site_type_symbol
_atom_site_label
_atom_site_fract_x
_atom_site_fract_y
_atom_site_fract_z
Si Si1 0.826202 0.195781 0.272938
Si Si2 0.951303 0.803070 0.999994
Si Si3 0.499755 0.301777 0.376173
Si Si4 0.422958 0.305679 0.770713
Si Si5 0.670571 0.189761 0.265493
Si Si6 0.202536 0.805534 0.492385
Si Si7 0.079201 0.801648 0.770743
Si Si8 0.751190 0.192261 0.876561
O O1 0.817095 0.243193 0.394884
O O2 0.873412 0.250656 0.250219
O O3 0.789899 0.253311 0.191472
O O4 0.825271 0.000000 0.267840
O O5 0.931959 0.741844 0.889827
O O6 0.947543 0.000000 0.000182
O O7 0.932041 0.746359 0.110314
O O8 0.000000 0.764470 0.000000
O O9 0.500000 0.249817 0.500000
O O10 0.499913 0.500000 0.376335
O O11 0.541462 0.248109 0.312319
O O12 0.457478 0.251746 0.312269
O O13 0.428058 0.500000 0.773090
O O14 0.374939 0.268833 0.746374
O O15 0.684046 0.225057 0.386948
O O16 0.707025 0.250926 0.186010
O O17 0.666394 0.000000 0.247080
O O18 0.250000 0.750000 0.500000
O O19 0.199279 0.000000 0.481433
O O20 0.078855 0.000000 0.768617
O O21 0.751809 0.000000 0.877639
O O22 0.750000 0.250000 0.000000
#
# Coordination Sequence:
#
# PCOD9194788 Si02
#       8
#     8   8   8   8   8   8   8   8
#     4  10  22  38  61  92 125 159 202 251 305 369
#     4   9  15  28  51  82 116 148 191 246 297 354
#     4   9  17  29  50  82 121 157 197 250 302 356
#     4  10  20  34  57  88 117 154 203 252 307 362
#     4  12  26  43  62  88 123 163 209 255 309 370
#     4  11  22  39  64  91 120 157 203 257 312 366
#     4   9  17  30  50  82 119 155 193 242 297 353
#     4  12  26  45  67  90 124 162 203 251 307 369
#
# _framework density 19.411697
#
# number of rings (size 3 to 8) (size 9 to 14) (size 15 to 20)
#    0.000    1.750    2.500    2.625    3.500    0.500 
#    0.000    0.000    0.000    1.500    0.000    0.000 
#    0.000    0.000    0.000    0.000    0.000    0.000 
#
# Total GULP energy -178604.505239 kJ/mol
# GULP energy per Si atom -5581.390789 kJ/mol
# Density = 1.936751 g / cm^3
# Si number density = 19.411697 Si / 1000 Ang^3
#
#
#
# Elastic Constant Matrix: (Units=GPa)
#
#
# Indices 1 2 3 4 5 6 
#
# 1 138.4681 -16.5946 91.3322 0.0000 -18.7685 0.0000
# 2 -16.5946 10.3013 5.2216 0.0000 -12.5059 0.0000
# 3 91.3322 5.2216 182.1860 0.0000 -15.4733 0.0000
# 4 0.0000 0.0000 0.0000 17.5725 0.0000 2.5540
# 5 -18.7685 -12.5059 -15.4733 0.0000 41.0275 0.0000
# 6 0.0000 0.0000 0.0000 2.5540 0.0000 22.0907
#
#
#
# Elastic Compliance Matrix: (Units=1/GPa)
#
#
# Indices 1 2 3 4 5 6 
#
# 1 0.089263 0.310349 -0.043535 0.000000 0.119015 0.000000
# 2 0.310349 1.233156 -0.151806 0.000000 0.460607 0.000000
# 3 -0.043535 -0.151806 0.026905 0.000000 -0.056042 0.000000
# 4 0.000000 0.000000 0.000000 0.057880 0.000000 -0.006692
# 5 0.119015 0.460607 -0.056042 0.000000 0.198084 0.000000
# 6 0.000000 0.000000 0.000000 -0.006692 0.000000 0.046042
#
#
# Mechanical properties :
#
#
# Convention : Reuss Voigt Hill
#
# Bulk Modulus (GPa) = 0.63318 54.54153 27.58735
# Shear Modulus (GPa) = 2.56705 32.87123 17.71914
#
# Velocity S-wave (km/s) = 1.15122 4.11952 3.02455
# Velocity P-wave (km/s) = 1.44705 7.12640 5.14196
#
# Compressibility (1/GPa) = 1.57934052
#
# Stress axis : x y z
#
# Youngs Moduli (GPa) = 11.20286 0.81093 37.16782
#
# Poissons Ratio (x) = -0.25167 1.61812
# Poissons Ratio (y) = -3.47680 5.64228
# Poissons Ratio (z) = 0.48772 0.12310
#
# Static dielectric constant tensor:
#      x y z
#    x 1.697030 0.000000 -0.031880 
#    y 0.000000 1.689640 0.000000 
#    z -0.031880 0.000000 1.672800 
# 
# From -- ./inp_files/187550.got.cif
#   From: 2010.05.17/outbox.cif.g08.bks.cpg/sg12_94_cif.got.tgz:187550.got - 2010.06.03 13:09:07.
