data_PCOD9194325
_publ_section_title
;
Structure prediction by ZEFSAII (Michael W. Deem and Ramdas Pophale) SiO2 
 PCOD9194325
Probable space group: C 2/M
;
_chemical_formula_sum "Si O2"
_cell_formula_units_Z 56
_cell_length_a 22.942751
_cell_length_b 15.419017
_cell_length_c 24.409904
_cell_angle_alpha 90.000000
_cell_angle_beta 161.114287
_cell_angle_gamma 90.000000
_cell_volume 2795.027751
_symmetry_space_group_name_H-M "C 2/M"
_symmetry_group_IT_number 12
_symmetry_cell_setting 'monoclinic'
loop_
_space_group_symop_operation_xyz
x,y,z
-x,y,-z
-x,-y,-z
x,-y,z
1/2+x,1/2+y,z
1/2-x,1/2+y,-z
1/2-x,1/2-y,-z
1/2+x,1/2-y,z
loop_
_atom_site_type_symbol
_atom_site_label
_atom_site_fract_x
_atom_site_fract_y
_atom_site_fract_z
Si Si1 0.106061 0.398015 0.739955
Si Si2 0.194454 0.598552 0.145641
Si Si3 0.056020 0.250341 0.610018
Si Si4 0.671847 0.400275 0.959686
Si Si5 0.890516 0.603960 0.052234
Si Si6 0.744874 0.326019 0.576444
Si Si7 0.301766 0.638294 0.583271
O O1 0.137167 0.500000 0.754722
O O2 0.121641 0.333407 0.702712
O O3 0.901300 0.389517 0.581613
O O4 0.246273 0.365397 0.911199
O O5 0.272122 0.500000 0.215262
O O6 0.306079 0.671500 0.275550
O O7 0.170887 0.631683 0.062415
O O8 0.000000 0.592841 0.000000
O O9 0.000000 0.279626 0.500000
O O10 0.901320 0.206552 0.510232
O O11 0.735635 0.500000 0.017831
O O12 0.459332 0.401470 0.760388
O O13 0.764177 0.359879 0.988124
O O14 0.875697 0.500000 0.036992
O O15 0.093834 0.626970 0.249075
O O16 0.670531 0.377814 0.457158
O O17 0.821887 0.239643 0.616030
#
# Coordination Sequence:
#
# PCOD9194325 Si02
#       7
#     8   8   8   8   8   8   8
#     4  10  22  41  62  90 127 162 204 255 304 363
#     4  10  22  40  61  87 118 157 204 254 309 363
#     4  11  24  41  61  88 117 161 212 252 309 365
#     4  10  20  34  57  87 118 160 200 239 306 366
#     4  10  20  34  55  85 119 156 195 243 307 369
#     4  10  21  35  54  87 118 154 201 247 308 359
#     4  10  20  35  57  88 120 156 200 249 302 362
#
# _framework density 20.035578000000001
#
# number of rings (size 3 to 8) (size 9 to 14) (size 15 to 20)
#    0.000    1.857    1.429    2.143    2.000    2.286 
#    0.000    0.000    0.000    0.429    0.000    0.000 
#    0.000    0.000    0.000    0.000    0.000    0.000 
#
# Total GULP energy -156182.368618 kJ/mol
# GULP energy per Si atom -5577.941736 kJ/mol
# Density = 1.998998 g / cm^3
# Si number density = 20.035578 Si / 1000 Ang^3
#
#
#
# Elastic Constant Matrix: (Units=GPa)
#
#
# Indices 1 2 3 4 5 6 
#
# 1 51.2573 17.6111 -1.4219 0.0526 -21.3424 -0.0058
# 2 17.6111 54.9205 8.8285 0.0324 -13.8297 0.0220
# 3 -1.4219 8.8285 65.4275 0.0828 -17.9794 0.0182
# 4 0.0526 0.0324 0.0828 36.7181 0.0146 7.7342
# 5 -21.3424 -13.8297 -17.9794 0.0146 33.6936 0.0088
# 6 -0.0058 0.0220 0.0182 7.7342 0.0088 48.8976
#
#
#
# Elastic Compliance Matrix: (Units=1/GPa)
#
#
# Indices 1 2 3 4 5 6 
#
# 1 0.030225 -0.005641 0.007081 -0.000065 0.020609 0.000010
# 2 -0.005641 0.021375 -0.001849 -0.000006 0.004214 -0.000009
# 3 0.007081 -0.001849 0.019583 -0.000059 0.014177 0.000001
# 4 -0.000065 -0.000006 -0.000059 0.028173 -0.000086 -0.004456
# 5 0.020609 0.004214 0.014177 -0.000086 0.052028 0.000000
# 6 0.000010 -0.000009 0.000001 -0.004456 0.000000 0.021156
#
#
# Mechanical properties :
#
#
# Convention : Reuss Voigt Hill
#
# Bulk Modulus (GPa) = 14.21127 24.62674 19.41901
# Shear Modulus (GPa) = 25.40485 33.63437 29.51961
#
# Velocity S-wave (km/s) = 3.56474 4.10168 3.84260
# Velocity P-wave (km/s) = 4.90424 5.89490 5.42225
#
# Compressibility (1/GPa) = 0.07036668
#
# Stress axis : x y z
#
# Youngs Moduli (GPa) = 33.08519 46.78299 51.06416
#
# Poissons Ratio (x) = 0.26390 -0.36160
# Poissons Ratio (y) = 0.18663 0.09441
# Poissons Ratio (z) = -0.23429 0.08650
#
# Static dielectric constant tensor:
#      x y z
#    x 1.713400 -0.000010 -0.015540 
#    y -0.000010 1.739740 -0.000010 
#    z -0.015540 -0.000010 1.723470 
# 
# From -- ./inp_files/349815.got.cif
#   From: 2010.05.17/outbox.cif.g08.bks.cpg/sg12_175_cif.got.tgz:349815.got - 2010.06.03 13:09:07.
