data_PCOD9194333
_publ_section_title
;
Structure prediction by ZEFSAII (Michael W. Deem and Ramdas Pophale) SiO2 
 PCOD9194333
Probable space group: C 2/M
;
_chemical_formula_sum "Si O2"
_cell_formula_units_Z 56
_cell_length_a 25.184710
_cell_length_b 8.946338
_cell_length_c 14.880263
_cell_angle_alpha 90.000000
_cell_angle_beta 58.595820
_cell_angle_gamma 90.000000
_cell_volume 2861.560251
_symmetry_space_group_name_H-M "C 2/M"
_symmetry_group_IT_number 12
_symmetry_cell_setting 'monoclinic'
loop_
_space_group_symop_operation_xyz
x,y,z
-x,y,-z
-x,-y,-z
x,-y,z
1/2+x,1/2+y,z
1/2-x,1/2+y,-z
1/2-x,1/2-y,-z
1/2+x,1/2-y,z
loop_
_atom_site_type_symbol
_atom_site_label
_atom_site_fract_x
_atom_site_fract_y
_atom_site_fract_z
Si Si1 0.139869 0.168191 0.930634
Si Si2 0.315632 0.672398 0.306941
Si Si3 0.060663 0.820959 0.505287
Si Si4 0.254644 0.673628 0.899549
Si Si5 0.312297 0.179665 0.678633
Si Si6 0.918680 0.324730 0.324944
Si Si7 0.023259 0.667545 0.082025
O O1 0.141348 0.173632 0.821099
O O2 0.186884 0.296838 0.917943
O O3 0.161995 0.000000 0.934747
O O4 0.075467 0.205694 0.034906
O O5 0.310778 0.500000 0.341212
O O6 0.247204 0.721486 0.332421
O O7 0.351547 0.767742 0.349449
O O8 0.123389 0.745893 0.412611
O O9 0.056899 0.765718 0.611086
O O10 0.000000 0.778559 0.500000
O O11 0.066523 0.000000 0.496772
O O12 0.270258 0.500000 0.892073
O O13 0.299164 0.757061 0.789706
O O14 0.250000 0.750000 0.000000
O O15 0.313529 0.000000 0.679847
O O16 0.914540 0.500000 0.351084
O O17 0.967871 0.306561 0.200493
O O18 0.048637 0.500000 0.079044
O O19 0.000000 0.664584 0.000000
#
# Coordination Sequence:
#
# PCOD9194333 Si02
#       7
#     8   8   8   8   8   8   8
#     4  10  20  34  55  85 122 163 203 248 305 363
#     4   9  19  36  59  90 125 157 196 246 303 373
#     4  11  26  47  67  88 119 162 211 262 312 369
#     4  11  22  38  61  89 123 161 204 253 305 362
#     4  10  22  42  67  94 124 161 203 253 312 371
#     4  11  23  38  62  92 123 164 210 259 313 369
#     4  10  20  35  55  86 126 164 203 247 303 369
#
# _framework density 19.569742999999999
#
# number of rings (size 3 to 8) (size 9 to 14) (size 15 to 20)
#    0.000    1.714    1.429    3.857    0.000    7.143 
#    0.000    2.857    0.000    0.000    0.000    0.000 
#    0.000    0.000    0.000    0.000    0.000    0.000 
#
# Total GULP energy -156257.353188 kJ/mol
# GULP energy per Si atom -5580.619757 kJ/mol
# Density = 1.952520 g / cm^3
# Si number density = 19.569743 Si / 1000 Ang^3
#
#
#
# Elastic Constant Matrix: (Units=GPa)
#
#
# Indices 1 2 3 4 5 6 
#
# 1 89.7126 52.0516 53.2781 0.0000 1.8290 0.0000
# 2 52.0516 84.5953 42.9542 0.0000 -1.6616 0.0000
# 3 53.2781 42.9542 95.6720 0.0000 -0.3361 0.0000
# 4 0.0000 0.0000 0.0000 33.2031 0.0000 -1.0273
# 5 1.8290 -1.6616 -0.3361 0.0000 31.4954 0.0000
# 6 0.0000 0.0000 0.0000 -1.0273 0.0000 30.2028
#
#
#
# Elastic Compliance Matrix: (Units=1/GPa)
#
#
# Indices 1 2 3 4 5 6 
#
# 1 0.020964 -0.009071 -0.007608 0.000000 -0.001777 0.000000
# 2 -0.009071 0.019254 -0.003587 0.000000 0.001504 0.000000
# 3 -0.007608 -0.003587 0.016301 0.000000 0.000427 0.000000
# 4 0.000000 0.000000 0.000000 0.030149 0.000000 0.001026
# 5 -0.001777 0.001504 0.000427 0.000000 0.031938 0.000000
# 6 0.000000 0.000000 0.000000 0.001026 0.000000 0.033144
#
#
# Mechanical properties :
#
#
# Convention : Reuss Voigt Hill
#
# Bulk Modulus (GPa) = 62.55604 62.94976 62.75290
# Shear Modulus (GPa) = 25.30190 27.09333 26.19761
#
# Velocity S-wave (km/s) = 3.59961 3.72486 3.66277
# Velocity P-wave (km/s) = 7.02220 7.12293 7.07274
#
# Compressibility (1/GPa) = 0.01598567
#
# Stress axis : x y z
#
# Youngs Moduli (GPa) = 47.69980 51.93825 61.34414
#
# Poissons Ratio (x) = 0.47114 0.46672
# Poissons Ratio (y) = 0.43269 0.22007
# Poissons Ratio (z) = 0.36291 0.18633
#
# Static dielectric constant tensor:
#      x y z
#    x 1.723130 0.000000 0.008630 
#    y 0.000000 1.678320 0.000000 
#    z 0.008630 0.000000 1.698700 
# 
# From -- ./inp_files/238380.got.cif
#   From: 2010.05.17/outbox.cif.g08.bks.cpg/sg12_120_cif.got.tgz:238380.got - 2010.06.03 13:09:07.
