data_PCOD9194345
_publ_section_title
;
Structure prediction by ZEFSAII (Michael W. Deem and Ramdas Pophale) SiO2 
 PCOD9194345
Probable space group: C 2/M
;
_chemical_formula_sum "Si O2"
_cell_formula_units_Z 56
_cell_length_a 14.436643
_cell_length_b 14.468202
_cell_length_c 20.250979
_cell_angle_alpha 90.000000
_cell_angle_beta 43.549667
_cell_angle_gamma 90.000000
_cell_volume 2914.307536
_symmetry_space_group_name_H-M "C 2/M"
_symmetry_group_IT_number 12
_symmetry_cell_setting 'monoclinic'
loop_
_space_group_symop_operation_xyz
x,y,z
-x,y,-z
-x,-y,-z
x,-y,z
1/2+x,1/2+y,z
1/2-x,1/2+y,-z
1/2-x,1/2-y,-z
1/2+x,1/2-y,z
loop_
_atom_site_type_symbol
_atom_site_label
_atom_site_fract_x
_atom_site_fract_y
_atom_site_fract_z
Si Si1 0.794706 0.102719 0.436622
Si Si2 0.348238 0.394238 0.051658
Si Si3 0.855857 0.304444 0.741154
Si Si4 0.885729 0.098849 0.748017
Si Si5 0.778400 0.783168 0.317785
Si Si6 0.134166 0.610457 0.653791
Si Si7 0.544475 0.607003 0.138841
O O1 0.751251 0.175610 0.404383
O O2 0.736014 0.116787 0.539300
O O3 0.956625 0.103030 0.352995
O O4 0.753326 0.000000 0.435485
O O5 0.301003 0.500000 0.072368
O O6 0.254236 0.344803 0.152346
O O7 0.500000 0.392169 0.000000
O O8 0.362885 0.359240 0.969020
O O9 0.829170 0.194775 0.754177
O O10 0.832639 0.322193 0.675679
O O11 0.997181 0.340450 0.697505
O O12 0.880805 0.102023 0.830038
O O13 0.830870 0.000000 0.753256
O O14 0.807555 0.674533 0.317220
O O15 0.915917 0.828872 0.218285
O O16 0.114897 0.500000 0.678189
O O17 0.501664 0.500000 0.145312
#
# Coordination Sequence:
#
# PCOD9194345 Si02
#       7
#     8   8   8   8   8   8   8
#     4   9  19  39  63  80 113 156 193 239 296 344
#     4  10  20  34  55  86 119 149 189 243 295 348
#     4  12  23  35  61  89 117 154 199 241 292 355
#     4   9  19  37  59  83 110 151 200 240 280 345
#     4  11  21  36  59  87 116 153 193 241 295 347
#     4  11  24  41  58  87 125 157 191 245 301 348
#     4   9  17  35  59  79 106 147 193 235 282 334
#
# _framework density 19.215541999999999
#
# number of rings (size 3 to 8) (size 9 to 14) (size 15 to 20)
#    0.000    1.857    4.286    2.143    0.000    3.429 
#    0.000    1.429    0.000    3.000    0.000    0.000 
#    0.000    0.000    0.000    0.000    0.000    0.000 
#
# Total GULP energy -155924.707804 kJ/mol
# GULP energy per Si atom -5568.739564 kJ/mol
# Density = 1.917181 g / cm^3
# Si number density = 19.215542 Si / 1000 Ang^3
#
#
#
# Elastic Constant Matrix: (Units=GPa)
#
#
# Indices 1 2 3 4 5 6 
#
# 1 30.4414 5.6661 22.0056 0.0000 6.3790 0.0000
# 2 5.6661 95.8540 31.6313 0.0000 12.4199 0.0000
# 3 22.0056 31.6313 71.7605 0.0000 17.3688 0.0000
# 4 0.0000 0.0000 0.0000 28.0726 0.0000 3.8619
# 5 6.3790 12.4199 17.3688 0.0000 10.1329 0.0000
# 6 0.0000 0.0000 0.0000 3.8619 0.0000 15.4906
#
#
#
# Elastic Compliance Matrix: (Units=1/GPa)
#
#
# Indices 1 2 3 4 5 6 
#
# 1 0.043101 0.002693 -0.012028 0.000000 -0.009817 0.000000
# 2 0.002693 0.012975 -0.003906 0.000000 -0.010904 0.000000
# 3 -0.012028 -0.003906 0.027950 0.000000 -0.035548 0.000000
# 4 0.000000 0.000000 0.000000 0.036887 0.000000 -0.009196
# 5 -0.009817 -0.010904 -0.035548 0.000000 0.179166 0.000000
# 6 0.000000 0.000000 0.000000 -0.009196 0.000000 0.066848
#
#
# Mechanical properties :
#
#
# Convention : Reuss Voigt Hill
#
# Bulk Modulus (GPa) = 17.37805 35.18468 26.28137
# Shear Modulus (GPa) = 12.11859 19.98942 16.05401
#
# Velocity S-wave (km/s) = 2.51403 3.22883 2.89359
# Velocity P-wave (km/s) = 4.18217 5.67897 4.98704
#
# Compressibility (1/GPa) = 0.05754387
#
# Stress axis : x y z
#
# Youngs Moduli (GPa) = 23.20145 77.07060 35.77876
#
# Poissons Ratio (x) = -0.20759 0.43035
# Poissons Ratio (y) = -0.06249 0.13976
# Poissons Ratio (z) = 0.27907 0.30105
#
# Static dielectric constant tensor:
#      x y z
#    x 1.735630 0.000000 0.044640 
#    y 0.000000 1.744190 0.000000 
#    z 0.044640 0.000000 1.663190 
# 
# From -- ./inp_files/310760.got.cif
#   From: 2010.05.17/outbox.cif.g08.bks.cpg/sg12_156_cif.got.tgz:310760.got - 2010.06.03 13:09:07.
