data_PCOD9194390
_publ_section_title
;
Structure prediction by ZEFSAII (Michael W. Deem and Ramdas Pophale) SiO2 
 PCOD9194390
Probable space group: C 2/M
;
_chemical_formula_sum "Si O2"
_cell_formula_units_Z 64
_cell_length_a 20.590600
_cell_length_b 20.542620
_cell_length_c 7.952213
_cell_angle_alpha 90.000000
_cell_angle_beta 96.044661
_cell_angle_gamma 90.000000
_cell_volume 3344.964199
_symmetry_space_group_name_H-M "C 2/M"
_symmetry_group_IT_number 12
_symmetry_cell_setting 'monoclinic'
loop_
_space_group_symop_operation_xyz
x,y,z
-x,y,-z
-x,-y,-z
x,-y,z
1/2+x,1/2+y,z
1/2-x,1/2+y,-z
1/2-x,1/2-y,-z
1/2+x,1/2-y,z
loop_
_atom_site_type_symbol
_atom_site_label
_atom_site_fract_x
_atom_site_fract_y
_atom_site_fract_z
Si Si1 0.943566 0.833192 0.590180
Si Si2 0.853656 0.076161 0.766484
Si Si3 0.328646 0.762379 0.524019
Si Si4 0.112732 0.926040 0.853969
Si Si5 0.458942 0.289668 0.152441
Si Si6 0.785347 0.318340 0.823145
Si Si7 0.670034 0.211002 0.823951
Si Si8 0.217380 0.074395 0.587945
O O1 0.914013 0.879578 0.725240
O O2 0.879571 0.796422 0.498353
O O3 0.000000 0.870858 0.500000
O O4 0.990901 0.779052 0.682255
O O5 0.842902 0.083783 0.963733
O O6 0.798992 0.092744 0.610255
O O7 0.867785 0.000000 0.741413
O O8 0.250000 0.750000 0.500000
O O9 0.338666 0.781441 0.721269
O O10 0.337455 0.811812 0.370644
O O11 0.085478 0.000000 0.861435
O O12 0.064895 0.864892 0.845681
O O13 0.152653 0.923933 0.689899
O O14 0.396829 0.244365 0.141457
O O15 0.500000 0.278906 0.000000
O O16 0.723752 0.269471 0.829152
O O17 0.764672 0.377746 0.699721
O O18 0.808182 0.334606 0.017205
O O19 0.240451 0.000000 0.594527
#
# Coordination Sequence:
#
# PCOD9194390 Si02
#       8
#     8   8   8   8   8   8   8   8
#     4  12  22  34  54  75 109 144 184 230 274 313
#     4  10  21  35  51  73 104 148 196 229 260 301
#     4  10  21  36  54  76 103 139 179 223 273 330
#     4  10  21  35  50  70 103 148 192 232 264 300
#     4  12  21  33  51  73 108 145 187 231 270 307
#     4  10  20  34  56  75 100 140 181 217 280 326
#     4  10  20  35  50  76 105 139 181 226 264 325
#     4  10  20  36  56  78 106 137 183 234 271 315
#
# _framework density 19.133239
#
# number of rings (size 3 to 8) (size 9 to 14) (size 15 to 20)
#    0.000    1.500    3.750    3.000    0.000    3.000 
#    0.000    0.000    0.000    0.000    0.000    0.000 
#    0.000    5.000    0.000    0.125    0.000    0.000 
#
# Total GULP energy -178134.843562 kJ/mol
# GULP energy per Si atom -5566.713861 kJ/mol
# Density = 1.908969 g / cm^3
# Si number density = 19.133239 Si / 1000 Ang^3
#
#
#
# Elastic Constant Matrix: (Units=GPa)
#
#
# Indices 1 2 3 4 5 6 
#
# 1 69.4643 20.8036 17.0574 0.0000 -3.3527 0.0000
# 2 20.8036 33.5824 4.7051 0.0000 10.5483 0.0000
# 3 17.0574 4.7051 112.6104 0.0000 9.1929 0.0000
# 4 0.0000 0.0000 0.0000 21.3732 0.0000 3.3008
# 5 -3.3527 10.5483 9.1929 0.0000 27.0149 0.0000
# 6 0.0000 0.0000 0.0000 3.3008 0.0000 15.7609
#
#
#
# Elastic Compliance Matrix: (Units=1/GPa)
#
#
# Indices 1 2 3 4 5 6 
#
# 1 0.020121 -0.014980 -0.003192 0.000000 0.009433 0.000000
# 2 -0.014980 0.045106 0.002030 0.000000 -0.020162 0.000000
# 3 -0.003192 0.002030 0.009644 0.000000 -0.004471 0.000000
# 4 0.000000 0.000000 0.000000 0.048351 0.000000 -0.010126
# 5 0.009433 -0.020162 -0.004471 0.000000 0.047581 0.000000
# 6 0.000000 0.000000 0.000000 -0.010126 0.000000 0.065569
#
#
# Mechanical properties :
#
#
# Convention : Reuss Voigt Hill
#
# Bulk Modulus (GPa) = 23.48113 33.42103 28.45108
# Shear Modulus (GPa) = 17.67711 24.36922 21.02317
#
# Velocity S-wave (km/s) = 3.04286 3.57271 3.31838
# Velocity P-wave (km/s) = 4.96431 5.87575 5.43916
#
# Compressibility (1/GPa) = 0.04258738
#
# Stress axis : x y z
#
# Youngs Moduli (GPa) = 49.69850 22.17005 103.69373
#
# Poissons Ratio (x) = 0.33211 0.33098
# Poissons Ratio (y) = 0.74450 -0.21054
# Poissons Ratio (z) = 0.15863 -0.04501
#
# Static dielectric constant tensor:
#      x y z
#    x 1.684640 0.000000 -0.000980 
#    y 0.000000 1.679720 0.000000 
#    z -0.000980 0.000000 1.850880 
# 
# From -- ./inp_files/90190.got.cif
#   From: 2010.05.17/outbox.cif.g08.bks.cpg/sg12_46_cif.got.tgz:90190.got - 2010.06.03 13:09:07.
