data_PCOD9194437
_publ_section_title
;
Structure prediction by ZEFSAII (Michael W. Deem and Ramdas Pophale) SiO2 
 PCOD9194437
Probable space group: C 2/M
;
_chemical_formula_sum "Si O2"
_cell_formula_units_Z 36
_cell_length_a 15.112455
_cell_length_b 9.231766
_cell_length_c 28.846117
_cell_angle_alpha 90.000000
_cell_angle_beta 155.760981
_cell_angle_gamma 90.000000
_cell_volume 1652.216618
_symmetry_space_group_name_H-M "C 2/M"
_symmetry_group_IT_number 12
_symmetry_cell_setting 'monoclinic'
loop_
_space_group_symop_operation_xyz
x,y,z
-x,y,-z
-x,-y,-z
x,-y,z
1/2+x,1/2+y,z
1/2-x,1/2+y,-z
1/2-x,1/2-y,-z
1/2+x,1/2-y,z
loop_
_atom_site_type_symbol
_atom_site_label
_atom_site_fract_x
_atom_site_fract_y
_atom_site_fract_z
Si Si1 0.388787 0.829537 0.896818
Si Si2 0.593442 0.674627 0.183802
Si Si3 0.000000 0.763444 0.500000
Si Si4 0.961077 0.163746 0.585729
Si Si5 0.477489 0.331433 0.748246
O O1 0.495468 0.740425 0.906204
O O2 0.145853 0.771519 0.791456
O O3 0.391138 0.000000 0.884707
O O4 0.500000 0.816995 0.000000
O O5 0.597088 0.500000 0.184498
O O6 0.492467 0.723446 0.184811
O O7 0.832824 0.742633 0.301223
O O8 0.029860 0.844685 0.465814
O O9 0.227108 0.680738 0.615085
O O10 0.750000 0.250000 0.500000
O O11 0.965244 0.000000 0.606915
O O12 0.534379 0.500000 0.777552
#
# Coordination Sequence:
#
# PCOD9194437 Si02
#       5
#     8   8   4   8   8
#     4  10  21  38  59  82 111 148 188 232 284 340
#     4  10  21  37  56  80 110 145 187 234 282 332
#     4  10  20  34  56  82 113 150 189 230 275 328
#     4  11  22  36  55  82 116 151 188 230 278 334
#     4   9  19  35  55  81 113 148 186 229 280 335
#
# _framework density 21.788910000000001
#
# number of rings (size 3 to 8) (size 9 to 14) (size 15 to 20)
#    0.000    2.000    0.000    3.333    0.000    5.778 
#    0.000    5.556    0.000    0.000    0.000    0.000 
#    0.000    0.000    0.000    0.000    0.000    0.000 
#
# Total GULP energy -100428.721222 kJ/mol
# GULP energy per Si atom -5579.373401 kJ/mol
# Density = 2.173932 g / cm^3
# Si number density = 21.788910 Si / 1000 Ang^3
#
#
#
# Elastic Constant Matrix: (Units=GPa)
#
#
# Indices 1 2 3 4 5 6 
#
# 1 122.6116 29.0953 24.6546 -0.0020 -24.9383 0.0020
# 2 29.0953 72.7966 6.3822 -0.0035 -13.4629 0.0037
# 3 24.6546 6.3822 66.6751 -0.0111 -13.8716 0.0124
# 4 -0.0020 -0.0035 -0.0111 30.2939 -0.0021 -21.9261
# 5 -24.9383 -13.4629 -13.8716 -0.0021 40.8618 0.0022
# 6 0.0020 0.0037 0.0124 -21.9261 0.0022 43.2988
#
#
#
# Elastic Compliance Matrix: (Units=1/GPa)
#
#
# Indices 1 2 3 4 5 6 
#
# 1 0.010302 -0.003078 -0.002601 0.000000 0.004390 0.000000
# 2 -0.003078 0.015559 0.000349 0.000001 0.003367 -0.000001
# 3 -0.002601 0.000349 0.016807 0.000004 0.004233 -0.000003
# 4 0.000000 0.000001 0.000004 0.052108 0.000003 0.026387
# 5 0.004390 0.003367 0.004233 0.000003 0.029698 -0.000002
# 6 0.000000 -0.000001 -0.000003 0.026387 -0.000002 0.036458
#
#
# Mechanical properties :
#
#
# Convention : Reuss Voigt Hill
#
# Bulk Modulus (GPa) = 31.24163 42.48307 36.86235
# Shear Modulus (GPa) = 27.43299 36.35430 31.89364
#
# Velocity S-wave (km/s) = 3.55214 4.08913 3.83006
# Velocity P-wave (km/s) = 5.58507 6.46796 6.04266
#
# Compressibility (1/GPa) = 0.03200858
#
# Stress axis : x y z
#
# Youngs Moduli (GPa) = 97.06659 64.27170 59.49789
#
# Poissons Ratio (x) = 0.19780 0.15478
# Poissons Ratio (y) = 0.29873 -0.02077
# Poissons Ratio (z) = 0.25252 -0.02244
#
# Static dielectric constant tensor:
#      x y z
#    x 1.818880 0.000000 -0.015630 
#    y 0.000000 1.741440 0.000000 
#    z -0.015630 0.000000 1.884450 
# 
# From -- ./inp_files/360394.got.cif
#   From: 2010.05.17/outbox.cif.g08.bks.cpg/sg12_181_cif.got.tgz:360394.got - 2010.06.03 13:09:07.
