data_PCOD9194326
_publ_section_title
;
Structure prediction by ZEFSAII (Michael W. Deem and Ramdas Pophale) SiO2 
 PCOD9194326
Probable space group: C 2/M
;
_chemical_formula_sum "Si O2"
_cell_formula_units_Z 56
_cell_length_a 9.209943
_cell_length_b 19.751750
_cell_length_c 21.980616
_cell_angle_alpha 90.000000
_cell_angle_beta 46.198727
_cell_angle_gamma 90.000000
_cell_volume 2885.931877
_symmetry_space_group_name_H-M "C 2/M"
_symmetry_group_IT_number 12
_symmetry_cell_setting 'monoclinic'
loop_
_space_group_symop_operation_xyz
x,y,z
-x,y,-z
-x,-y,-z
x,-y,z
1/2+x,1/2+y,z
1/2-x,1/2+y,-z
1/2-x,1/2-y,-z
1/2+x,1/2-y,z
loop_
_atom_site_type_symbol
_atom_site_label
_atom_site_fract_x
_atom_site_fract_y
_atom_site_fract_z
Si Si1 0.977224 0.778084 0.940610
Si Si2 0.149787 0.074779 0.551819
Si Si3 0.978909 0.575836 0.354781
Si Si4 0.888664 0.801946 0.833055
Si Si5 0.897835 0.281338 0.322925
Si Si6 0.410286 0.576103 0.287868
Si Si7 0.529509 0.279327 0.577202
O O1 0.983226 0.814522 0.873021
O O2 0.155074 0.721690 0.895620
O O3 0.750000 0.750000 0.000000
O O4 0.000000 0.815148 0.000000
O O5 0.356091 0.079055 0.454150
O O6 0.161845 0.081961 0.621066
O O7 0.030876 0.140682 0.565882
O O8 0.063282 0.000000 0.563685
O O9 0.942999 0.500000 0.339967
O O10 0.915245 0.639331 0.332455
O O11 0.211701 0.582849 0.304428
O O12 0.012156 0.739757 0.767362
O O13 0.935640 0.866993 0.778112
O O14 0.669777 0.254266 0.397876
O O15 0.016352 0.241188 0.340387
O O16 0.491957 0.500000 0.257306
O O17 0.750000 0.250000 0.500000
#
# Coordination Sequence:
#
# PCOD9194326 Si02
#       7
#     8   8   8   8   8   8   8
#     4   9  20  38  62  90 114 140 172 218 282 361
#     4  10  21  35  53  74 110 163 213 247 286 334
#     4  10  21  36  53  76 114 164 212 252 291 333
#     4  11  20  35  61  88 117 145 183 235 289 348
#     4  12  24  36  55  84 112 149 197 248 299 339
#     4  10  20  34  55  85 119 156 198 244 291 337
#     4  12  24  36  52  76 114 155 200 256 298 336
#
# _framework density 19.404478000000001
#
# number of rings (size 3 to 8) (size 9 to 14) (size 15 to 20)
#    0.000    1.429    2.857    3.429    0.000    3.429 
#    0.000    1.429    0.000    4.286    0.000    4.000 
#    0.000    0.000    0.000    0.000    0.000    0.000 
#
# Total GULP energy -155976.895293 kJ/mol
# GULP energy per Si atom -5570.603403 kJ/mol
# Density = 1.936031 g / cm^3
# Si number density = 19.404478 Si / 1000 Ang^3
#
#
#
# Elastic Constant Matrix: (Units=GPa)
#
#
# Indices 1 2 3 4 5 6 
#
# 1 95.1203 17.8869 31.7773 -0.0001 -3.7053 0.0007
# 2 17.8869 108.7499 37.4368 0.0000 -1.9168 0.0002
# 3 31.7773 37.4368 79.1055 0.0002 3.6342 0.0000
# 4 -0.0001 0.0000 0.0002 13.9327 -0.0001 0.2020
# 5 -3.7053 -1.9168 3.6342 -0.0001 37.4581 -0.0003
# 6 0.0007 0.0002 0.0000 0.2020 -0.0003 19.3846
#
#
#
# Elastic Compliance Matrix: (Units=1/GPa)
#
#
# Indices 1 2 3 4 5 6 
#
# 1 0.012258 -0.000317 -0.004851 0.000000 0.001667 0.000000
# 2 -0.000317 0.011036 -0.005143 0.000000 0.001032 0.000000
# 3 -0.004851 -0.005143 0.017134 0.000000 -0.002405 0.000000
# 4 0.000000 0.000000 0.000000 0.071785 0.000000 -0.000748
# 5 0.001667 0.001032 -0.002405 0.000000 0.027148 0.000000
# 6 0.000000 0.000000 0.000000 -0.000748 0.000000 0.051595
#
#
# Mechanical properties :
#
#
# Convention : Reuss Voigt Hill
#
# Bulk Modulus (GPa) = 50.48661 50.79753 50.64207
# Shear Modulus (GPa) = 22.91687 27.21337 25.06512
#
# Velocity S-wave (km/s) = 3.44031 3.74896 3.59795
# Velocity P-wave (km/s) = 6.46958 6.70632 6.58901
#
# Compressibility (1/GPa) = 0.01980723
#
# Stress axis : x y z
#
# Youngs Moduli (GPa) = 81.57897 90.61087 58.36212
#
# Poissons Ratio (x) = 0.02872 0.28310
# Poissons Ratio (y) = 0.02585 0.30016
# Poissons Ratio (z) = 0.39572 0.46601
#
# Static dielectric constant tensor:
#      x y z
#    x 1.701910 0.000000 0.030450 
#    y 0.000000 1.704860 0.000000 
#    z 0.030450 0.000000 1.760340 
# 
# From -- ./inp_files/301661.got.cif
#   From: 2010.05.17/outbox.cif.g08.bks.cpg/sg12_151_cif.got.tgz:301661.got - 2010.06.03 13:09:07.
