data_PCOD9194456
_publ_section_title
;
Structure prediction by ZEFSAII (Michael W. Deem and Ramdas Pophale) SiO2 
 PCOD9194456
Probable space group: C 2/M
;
_chemical_formula_sum "Si O2"
_cell_formula_units_Z 56
_cell_length_a 11.115043
_cell_length_b 32.367267
_cell_length_c 7.706556
_cell_angle_alpha 90.000000
_cell_angle_beta 119.322738
_cell_angle_gamma 90.000000
_cell_volume 2417.306593
_symmetry_space_group_name_H-M "C 2/M"
_symmetry_group_IT_number 12
_symmetry_cell_setting 'monoclinic'
loop_
_space_group_symop_operation_xyz
x,y,z
-x,y,-z
-x,-y,-z
x,-y,z
1/2+x,1/2+y,z
1/2-x,1/2+y,-z
1/2-x,1/2-y,-z
1/2+x,1/2-y,z
loop_
_atom_site_type_symbol
_atom_site_label
_atom_site_fract_x
_atom_site_fract_y
_atom_site_fract_z
Si Si1 0.627836 0.204982 0.227043
Si Si2 0.647448 0.952753 0.201680
Si Si3 0.035436 0.623919 0.325801
Si Si4 0.859095 0.202994 0.788148
Si Si5 0.235719 0.339174 0.998247
Si Si6 0.519871 0.372063 0.305811
Si Si7 0.447215 0.544190 0.265415
O O1 0.599405 0.169764 0.346999
O O2 0.650214 0.251701 0.298818
O O3 0.742681 0.187246 0.179325
O O4 0.500000 0.205071 0.000000
O O5 0.629405 0.912980 0.315288
O O6 0.783213 0.946594 0.176817
O O7 0.665169 0.000000 0.288862
O O8 0.500000 0.953797 0.000000
O O9 0.000000 0.615782 0.500000
O O10 0.893643 0.630312 0.114536
O O11 0.878299 0.164209 0.675976
O O12 0.738470 0.192322 0.838604
O O13 0.000000 0.204790 0.000000
O O14 0.377897 0.363151 0.104249
O O15 0.500000 0.371788 0.500000
O O16 0.543660 0.419102 0.264372
O O17 0.500000 0.540396 0.500000
O O18 0.462003 0.500000 0.187794
#
# Coordination Sequence:
#
# PCOD9194456 Si02
#       7
#     8   8   8   8   8   8   8
#     4   9  18  35  56  77 106 147 192 233 281 339
#     4  10  20  37  61  86 114 152 195 236 283 343
#     4  11  23  36  55  84 116 148 187 235 288 343
#     4   9  19  34  54  81 110 145 188 234 284 340
#     4  10  20  37  57  76 110 152 190 236 284 335
#     4  10  20  34  56  83 112 144 185 235 289 344
#     4   9  18  33  56  84 111 144 185 226 274 334
#
# _framework density 23.166277999999998
#
# number of rings (size 3 to 8) (size 9 to 14) (size 15 to 20)
#    0.000    2.286    0.000    3.429    0.000    5.429 
#    0.000    1.429    0.000    4.714    0.000    0.000 
#    0.000    0.000    0.000    0.000    0.000    0.000 
#
# Total GULP energy -156128.378145 kJ/mol
# GULP energy per Si atom -5576.013505 kJ/mol
# Density = 2.311355 g / cm^3
# Si number density = 23.166278 Si / 1000 Ang^3
#
#
#
# Elastic Constant Matrix: (Units=GPa)
#
#
# Indices 1 2 3 4 5 6 
#
# 1 43.0062 35.7990 12.1229 0.0000 -2.3969 0.0000
# 2 35.7990 209.4419 14.9222 0.0000 -22.8763 0.0000
# 3 12.1229 14.9222 69.5236 0.0000 15.9930 0.0000
# 4 0.0000 0.0000 0.0000 -33.0621 0.0000 -75.7249
# 5 -2.3969 -22.8763 15.9930 0.0000 42.5334 0.0000
# 6 0.0000 0.0000 0.0000 -75.7249 0.0000 -189.6991
#
#
#
# Elastic Compliance Matrix: (Units=1/GPa)
#
#
# Indices 1 2 3 4 5 6 
#
# 1 0.028151 -0.004435 -0.004130 0.000000 0.000754 0.000000
# 2 -0.004435 0.006006 -0.001315 0.000000 0.003475 0.000000
# 3 -0.004130 -0.001315 0.017080 0.000000 -0.007362 0.000000
# 4 0.000000 0.000000 0.000000 -0.352862 0.000000 0.140857
# 5 0.000754 0.003475 -0.007362 0.000000 0.028191 0.000000
# 6 0.000000 0.000000 0.000000 0.140857 0.000000 -0.061499
#
#
# Mechanical properties :
#
#
# Convention : Reuss Voigt Hill
#
# Bulk Modulus (GPa) = 31.77074 49.74000 40.75537
# Shear Modulus (GPa) = -16.41053 -18.77038 -17.59046
#
# Velocity S-wave (km/s) = -2.66443 -2.84957 -2.75855
# Velocity P-wave (km/s) = 2.06843 3.26967 2.73580
#
# Compressibility (1/GPa) = 0.03147550
#
# Stress axis : x y z
#
# Youngs Moduli (GPa) = 35.52330 166.50347 58.54934
#
# Poissons Ratio (x) = 0.73845 0.24182
# Poissons Ratio (y) = 0.15755 0.07700
# Poissons Ratio (z) = 0.14672 0.21896
#
# Static dielectric constant tensor:
#      x y z
#    x 2.013420 0.000000 -0.006150 
#    y 0.000000 1.937550 0.000000 
#    z -0.006150 0.000000 1.906890 
# 
# From -- ./inp_files/54785.got.cif
#   From: 2010.05.17/outbox.cif.g08.bks.cpg/sg12_28_cif.got.tgz:54785.got - 2010.06.03 13:09:07.
