data_PCOD9194186
_publ_section_title
;
Structure prediction by ZEFSAII (Michael W. Deem and Ramdas Pophale) SiO2 
 PCOD9194186
Probable space group: C 2/M
;
_chemical_formula_sum "Si O2"
_cell_formula_units_Z 64
_cell_length_a 27.921406
_cell_length_b 11.869222
_cell_length_c 15.534375
_cell_angle_alpha 90.000000
_cell_angle_beta 140.197687
_cell_angle_gamma 90.000000
_cell_volume 3295.556574
_symmetry_space_group_name_H-M "C 2/M"
_symmetry_group_IT_number 12
_symmetry_cell_setting 'monoclinic'
loop_
_space_group_symop_operation_xyz
x,y,z
-x,y,-z
-x,-y,-z
x,-y,z
1/2+x,1/2+y,z
1/2-x,1/2+y,-z
1/2-x,1/2-y,-z
1/2+x,1/2-y,z
loop_
_atom_site_type_symbol
_atom_site_label
_atom_site_fract_x
_atom_site_fract_y
_atom_site_fract_z
Si Si1 0.854242 0.683360 0.193613
Si Si2 0.938547 0.868876 0.990167
Si Si3 0.747415 0.126531 0.101186
Si Si4 0.011820 0.785082 0.421297
Si Si5 0.212807 0.262519 0.236187
Si Si6 0.956644 0.128813 0.717361
Si Si7 0.219486 0.863867 0.507251
Si Si8 0.652640 0.122636 0.625856
O O1 0.815867 0.805435 0.153465
O O2 0.831658 0.620449 0.249999
O O3 0.942683 0.699698 0.313203
O O4 0.819024 0.631575 0.060027
O O5 0.868310 0.792623 0.867099
O O6 0.913464 0.000000 0.969083
O O7 0.000000 0.869647 0.000000
O O8 0.981264 0.819412 0.133311
O O9 0.722315 0.184199 0.154804
O O10 0.770515 0.000000 0.150855
O O11 0.017449 0.861572 0.345326
O O12 0.088380 0.714989 0.527971
O O13 0.000000 0.837504 0.500000
O O14 0.237571 0.351582 0.342405
O O15 0.274306 0.162792 0.323193
O O16 0.869636 0.161302 0.606258
O O17 0.957034 0.000000 0.746288
O O18 0.250000 0.750000 0.500000
O O19 0.226541 0.000000 0.489302
O O20 0.627295 0.000000 0.562161
#
# Coordination Sequence:
#
# PCOD9194186 Si02
#       8
#     8   8   8   8   8   8   8   8
#     4   9  20  34  53  80 116 157 203 251 290 358
#     4  10  21  38  64  92 120 158 205 265 326 382
#     4  10  20  35  55  81 114 155 198 243 304 362
#     4  10  20  36  53  83 121 160 207 255 308 367
#     4  11  21  38  61  89 119 154 201 258 315 380
#     4  10  21  39  60  89 125 161 207 262 318 380
#     4  11  24  43  68  94 126 165 209 265 326 388
#     4  10  20  34  55  82 117 160 205 253 302 365
#
# _framework density 19.420086999999999
#
# number of rings (size 3 to 8) (size 9 to 14) (size 15 to 20)
#    0.000    1.875    1.250    2.625    0.000    5.500 
#    0.000    3.125    0.000    8.250    0.000    0.000 
#    0.000    0.000    0.000    0.000    0.000    0.000 
#
# Total GULP energy -178273.172020 kJ/mol
# GULP energy per Si atom -5571.036626 kJ/mol
# Density = 1.937589 g / cm^3
# Si number density = 19.420087 Si / 1000 Ang^3
#
#
#
# Elastic Constant Matrix: (Units=GPa)
#
#
# Indices 1 2 3 4 5 6 
#
# 1 61.0391 14.5558 16.9685 0.0000 8.9119 0.0000
# 2 14.5558 60.3278 3.2647 0.0000 4.9048 0.0000
# 3 16.9685 3.2647 89.4444 0.0000 5.3410 0.0000
# 4 0.0000 0.0000 0.0000 20.3034 0.0000 -1.7752
# 5 8.9119 4.9048 5.3410 0.0000 34.2303 0.0000
# 6 0.0000 0.0000 0.0000 -1.7752 0.0000 6.6184
#
#
#
# Elastic Compliance Matrix: (Units=1/GPa)
#
#
# Indices 1 2 3 4 5 6 
#
# 1 0.018793 -0.004052 -0.003190 0.000000 -0.003815 0.000000
# 2 -0.004052 0.017665 0.000214 0.000000 -0.001510 0.000000
# 3 -0.003190 0.000214 0.011840 0.000000 -0.001048 0.000000
# 4 0.000000 0.000000 0.000000 0.050436 0.000000 0.013528
# 5 -0.003815 -0.001510 -0.001048 0.000000 0.030587 0.000000
# 6 0.000000 0.000000 0.000000 0.013528 0.000000 0.154721
#
#
# Mechanical properties :
#
#
# Convention : Reuss Voigt Hill
#
# Bulk Modulus (GPa) = 29.20269 31.15435 30.17852
# Shear Modulus (GPa) = 16.15459 23.96525 20.05992
#
# Velocity S-wave (km/s) = 2.88731 3.51671 3.21744
# Velocity P-wave (km/s) = 5.11717 5.70673 5.41997
#
# Compressibility (1/GPa) = 0.03424342
#
# Stress axis : x y z
#
# Youngs Moduli (GPa) = 53.21216 56.60970 84.45970
#
# Poissons Ratio (x) = 0.22936 0.26938
# Poissons Ratio (y) = 0.21559 -0.01808
# Poissons Ratio (z) = 0.16972 -0.01212
#
# Static dielectric constant tensor:
#      x y z
#    x 1.668340 0.000000 -0.027800 
#    y 0.000000 1.687700 0.000000 
#    z -0.027800 0.000000 1.732850 
# 
# From -- ./inp_files/245954.got.cif
#   From: 2010.05.17/outbox.cif.g08.bks.cpg/sg12_123_cif.got.tgz:245954.got - 2010.06.03 13:09:07.
