data_PCOD9194572
_publ_section_title
;
Structure prediction by ZEFSAII (Michael W. Deem and Ramdas Pophale) SiO2 
 PCOD9194572
Probable space group: C 2/M
;
_chemical_formula_sum "Si O2"
_cell_formula_units_Z 56
_cell_length_a 24.146127
_cell_length_b 26.807169
_cell_length_c 10.506844
_cell_angle_alpha 90.000000
_cell_angle_beta 24.630323
_cell_angle_gamma 90.000000
_cell_volume 2834.384486
_symmetry_space_group_name_H-M "C 2/M"
_symmetry_group_IT_number 12
_symmetry_cell_setting 'monoclinic'
loop_
_space_group_symop_operation_xyz
x,y,z
-x,y,-z
-x,-y,-z
x,-y,z
1/2+x,1/2+y,z
1/2-x,1/2+y,-z
1/2-x,1/2-y,-z
1/2+x,1/2-y,z
loop_
_atom_site_type_symbol
_atom_site_label
_atom_site_fract_x
_atom_site_fract_y
_atom_site_fract_z
Si Si1 0.059217 0.112156 0.577253
Si Si2 0.353221 0.119575 0.346646
Si Si3 0.289716 0.624283 0.998407
Si Si4 0.252758 0.708564 0.267044
Si Si5 0.569447 0.941042 0.566451
Si Si6 0.722674 0.057799 0.737860
Si Si7 0.972823 0.213199 0.206499
O O1 0.146595 0.128339 0.272917
O O2 0.142002 0.068039 0.469141
O O3 0.052207 0.157440 0.691148
O O4 0.910160 0.102755 0.836367
O O5 0.273757 0.165687 0.571160
O O6 0.379198 0.079075 0.403650
O O7 0.286136 0.093176 0.366866
O O8 0.500000 0.137844 0.000000
O O9 0.252704 0.677718 0.136074
O O10 0.160659 0.589279 0.277537
O O11 0.145146 0.750770 0.507940
O O12 0.395932 0.731092 0.994620
O O13 0.589328 0.000000 0.510693
O O14 0.410735 0.931264 0.900388
O O15 0.712471 0.000000 0.720690
O O16 0.000000 0.214501 0.000000
#
# Coordination Sequence:
#
# PCOD9194572 Si02
#       7
#     8   8   8   8   8   8   8
#     4  10  22  39  56  78 111 147 185 227 270 321
#     4   9  17  33  56  81 114 148 179 218 274 334
#     4   9  21  40  56  74 109 154 187 219 271 327
#     4  10  21  36  57  82 109 143 182 223 270 325
#     4   9  18  33  55  81 109 143 183 227 273 323
#     4  10  20  34  56  86 113 142 184 231 273 316
#     4  11  22  36  57  83 110 138 176 226 277 325
#
# _framework density 19.757375
#
# number of rings (size 3 to 8) (size 9 to 14) (size 15 to 20)
#    0.000    2.286    0.000    2.143    0.000    7.429 
#    0.000    2.857    0.000    9.000    0.000    0.000 
#    0.000    0.000    0.000    0.000    0.000    0.000 
#
# Total GULP energy -156319.630990 kJ/mol
# GULP energy per Si atom -5582.843964 kJ/mol
# Density = 1.971241 g / cm^3
# Si number density = 19.757375 Si / 1000 Ang^3
#
#
#
# Elastic Constant Matrix: (Units=GPa)
#
#
# Indices 1 2 3 4 5 6 
#
# 1 21.5758 -4.0249 -5.1830 -0.0009 -3.6239 -0.0021
# 2 -4.0249 23.8698 13.1450 -0.0023 -19.0453 -0.0043
# 3 -5.1830 13.1450 64.3439 -0.0038 -5.6663 -0.0056
# 4 -0.0009 -0.0023 -0.0038 34.7713 0.0020 -9.0186
# 5 -3.6239 -19.0453 -5.6663 0.0020 27.0341 0.0018
# 6 -0.0021 -0.0043 -0.0056 -9.0186 0.0018 29.8770
#
#
#
# Elastic Compliance Matrix: (Units=1/GPa)
#
#
# Indices 1 2 3 4 5 6 
#
# 1 0.058997 0.036957 0.000195 0.000004 0.033985 0.000009
# 2 0.036957 0.132727 -0.015759 0.000006 0.095156 0.000015
# 3 0.000195 -0.015759 0.018136 0.000002 -0.007274 0.000002
# 4 0.000004 0.000006 0.000002 0.031202 0.000003 0.009419
# 5 0.033985 0.095156 -0.007274 0.000003 0.107058 0.000009
# 6 0.000009 0.000015 0.000002 0.009419 0.000009 0.036314
#
#
# Mechanical properties :
#
#
# Convention : Reuss Voigt Hill
#
# Bulk Modulus (GPa) = 3.95808 13.07374 8.51591
# Shear Modulus (GPa) = 11.74083 25.39330 18.56707
#
# Velocity S-wave (km/s) = 2.44037 3.58894 3.06887
# Velocity P-wave (km/s) = 3.15408 4.87908 4.10814
#
# Compressibility (1/GPa) = 0.25264771
#
# Stress axis : x y z
#
# Youngs Moduli (GPa) = 16.94988 7.53423 55.13898
#
# Poissons Ratio (x) = -0.27844 -0.01076
# Poissons Ratio (y) = -0.62641 0.86891
# Poissons Ratio (z) = -0.00331 0.11873
#
# Static dielectric constant tensor:
#      x y z
#    x 1.696640 0.000000 -0.001370 
#    y 0.000000 1.645920 0.000000 
#    z -0.001370 0.000000 1.714140 
# 
# From -- ./inp_files/185112.got.cif
#   From: 2010.05.17/outbox.cif.g08.bks.cpg/sg12_93_cif.got.tgz:185112.got - 2010.06.03 13:09:07.
