data_PCOD9194276
_publ_section_title
;
Structure prediction by ZEFSAII (Michael W. Deem and Ramdas Pophale) SiO2 
 PCOD9194276
Probable space group: C 2/M
;
_chemical_formula_sum "Si O2"
_cell_formula_units_Z 64
_cell_length_a 25.785257
_cell_length_b 8.423294
_cell_length_c 33.223883
_cell_angle_alpha 90.000000
_cell_angle_beta 153.229026
_cell_angle_gamma 90.000000
_cell_volume 3250.323504
_symmetry_space_group_name_H-M "C 2/M"
_symmetry_group_IT_number 12
_symmetry_cell_setting 'monoclinic'
loop_
_space_group_symop_operation_xyz
x,y,z
-x,y,-z
-x,-y,-z
x,-y,z
1/2+x,1/2+y,z
1/2-x,1/2+y,-z
1/2-x,1/2-y,-z
1/2+x,1/2-y,z
loop_
_atom_site_type_symbol
_atom_site_label
_atom_site_fract_x
_atom_site_fract_y
_atom_site_fract_z
Si Si1 0.419016 0.808628 0.776003
Si Si2 0.018774 0.811298 0.397268
Si Si3 0.075223 0.192239 0.346490
Si Si4 0.932682 0.690051 0.877130
Si Si5 0.394006 0.809547 0.155565
Si Si6 0.310016 0.307360 0.934633
Si Si7 0.727823 0.811452 0.789846
Si Si8 0.236727 0.311221 0.585942
O O1 0.410242 0.754968 0.815755
O O2 0.536153 0.749434 0.835007
O O3 0.310642 0.758595 0.673820
O O4 0.423922 0.000000 0.779592
O O5 0.885561 0.765109 0.307953
O O6 0.059796 0.752971 0.381432
O O7 0.105849 0.742633 0.490474
O O8 0.029380 0.000000 0.405431
O O9 0.194004 0.237531 0.406736
O O10 0.976485 0.265197 0.250000
O O11 0.065613 0.000000 0.339006
O O12 0.920466 0.500000 0.870711
O O13 0.841515 0.766627 0.844037
O O14 0.063079 0.737022 0.977516
O O15 0.267364 0.753262 0.080896
O O16 0.387491 0.000000 0.147846
O O17 0.317570 0.500000 0.940322
O O18 0.246357 0.260186 0.849051
O O19 0.712168 0.000000 0.779014
O O20 0.241711 0.500000 0.592364
#
# Coordination Sequence:
#
# PCOD9194276 Si02
#       8
#     8   8   8   8   8   8   8   8
#     4   9  20  39  59  81 114 152 192 233 278 332
#     4  11  21  34  55  84 117 151 186 229 282 336
#     4   9  18  31  50  81 118 151 184 224 275 333
#     4  11  24  40  59  83 111 150 193 236 284 335
#     4   9  17  33  57  83 114 151 185 226 280 334
#     4  10  21  37  59  87 115 145 185 233 286 340
#     4  11  23  40  60  84 114 148 189 237 283 334
#     4  10  20  34  55  84 116 151 190 229 274 332
#
# _framework density 19.690346000000002
#
# number of rings (size 3 to 8) (size 9 to 14) (size 15 to 20)
#    0.000    2.000    1.250    2.250    0.000    5.500 
#    0.000    0.625    0.000    3.750    0.000    0.000 
#    0.000    0.000    0.000    0.000    0.000    0.000 
#
# Total GULP energy -178661.731832 kJ/mol
# GULP energy per Si atom -5583.179120 kJ/mol
# Density = 1.964553 g / cm^3
# Si number density = 19.690346 Si / 1000 Ang^3
#
#
#
# Elastic Constant Matrix: (Units=GPa)
#
#
# Indices 1 2 3 4 5 6 
#
# 1 192.5069 -9.7436 35.6322 0.0001 42.5482 -0.0007
# 2 -9.7436 5.1785 -8.6343 0.0002 -8.3483 -0.0040
# 3 35.6322 -8.6343 62.9373 -0.0009 25.2700 -0.0003
# 4 0.0001 0.0002 -0.0009 31.4853 -0.0001 2.9565
# 5 42.5482 -8.3483 25.2700 -0.0001 34.3785 0.0000
# 6 -0.0007 -0.0040 -0.0003 2.9565 0.0000 20.9107
#
#
#
# Elastic Compliance Matrix: (Units=1/GPa)
#
#
# Indices 1 2 3 4 5 6 
#
# 1 0.007185 -0.001990 -0.000818 0.000000 -0.008774 0.000000
# 2 -0.001990 0.332711 0.018929 -0.000008 0.069343 0.000064
# 3 -0.000818 0.018929 0.023688 0.000000 -0.011803 0.000004
# 4 0.000000 -0.000008 0.000000 0.032188 -0.000002 -0.004551
# 5 -0.008774 0.069343 -0.011803 -0.000002 0.065462 0.000013
# 6 0.000000 0.000064 0.000004 -0.004551 0.000013 0.048466
#
#
# Mechanical properties :
#
#
# Convention : Reuss Voigt Hill
#
# Bulk Modulus (GPa) = 2.52637 32.79238 17.65937
# Shear Modulus (GPa) = 8.20480 33.57944 20.89212
#
# Velocity S-wave (km/s) = 2.04352 4.13410 3.26088
# Velocity P-wave (km/s) = 2.61797 6.28314 4.81309
#
# Compressibility (1/GPa) = 0.39582537
#
# Stress axis : x y z
#
# Youngs Moduli (GPa) = 139.18847 3.00561 42.21616
#
# Poissons Ratio (x) = 0.00598 0.03452
# Poissons Ratio (y) = 0.27699 -0.79910
# Poissons Ratio (z) = 0.11381 -0.05689
#
# Static dielectric constant tensor:
#      x y z
#    x 1.704500 0.000000 0.008010 
#    y 0.000000 1.669140 0.000000 
#    z 0.008010 0.000000 1.668740 
# 
# From -- ./inp_files/250035.got.cif
#   From: 2010.05.17/outbox.cif.g08.bks.cpg/sg12_126_cif.got.tgz:250035.got - 2010.06.03 13:09:07.
