data_PCOD9194964
_publ_section_title
;
Structure prediction by ZEFSAII (Michael W. Deem and Ramdas Pophale) SiO2 
 PCOD9194964
Probable space group: C 2/M
;
_chemical_formula_sum "Si O2"
_cell_formula_units_Z 38
_cell_length_a 26.044943
_cell_length_b 12.556595
_cell_length_c 11.426068
_cell_angle_alpha 90.000000
_cell_angle_beta 31.028613
_cell_angle_gamma 90.000000
_cell_volume 1926.159238
_symmetry_space_group_name_H-M "C 2/M"
_symmetry_group_IT_number 12
_symmetry_cell_setting 'monoclinic'
loop_
_space_group_symop_operation_xyz
x,y,z
-x,y,-z
-x,-y,-z
x,-y,z
1/2+x,1/2+y,z
1/2-x,1/2+y,-z
1/2-x,1/2-y,-z
1/2+x,1/2-y,z
loop_
_atom_site_type_symbol
_atom_site_label
_atom_site_fract_x
_atom_site_fract_y
_atom_site_fract_z
Si Si1 0.828491 0.125865 0.206386
Si Si2 0.872846 0.180775 0.864499
Si Si3 0.500000 0.500000 0.500000
Si Si4 0.645835 0.123202 0.258634
Si Si5 0.000000 0.231965 0.000000
Si Si6 0.899429 0.374509 0.382752
O O1 0.903478 0.161073 0.160459
O O2 0.711247 0.143613 0.454684
O O3 0.839226 0.000000 0.160871
O O4 0.858382 0.188676 0.030875
O O5 0.890792 0.292665 0.765184
O O6 0.954784 0.093869 0.673846
O O7 0.766303 0.135416 0.025907
O O8 0.609016 0.150342 0.462152
O O9 0.621385 0.000000 0.281389
O O10 0.974616 0.305276 0.160765
O O11 0.922103 0.500000 0.329150
#
# Coordination Sequence:
#
# PCOD9194964 Si02
#       6
#     8   8   2   8   4   8
#     4  10  21  40  55  80 115 149 181 231 286 330
#     4  10  20  34  59  83 118 145 182 227 283 339
#     4  12  20  32  58  90 112 144 184 228 282 344
#     4   9  18  38  58  83 111 155 180 221 283 346
#     4  12  22  34  60  84 102 144 202 234 262 326
#     4   9  20  38  59  78 113 147 181 227 285 334
#
# _framework density 19.728380000000001
#
# number of rings (size 3 to 8) (size 9 to 14) (size 15 to 20)
#    0.000    2.105    2.105    2.526    2.947    0.000 
#    0.000    2.632    0.000    3.789    0.000    0.000 
#    0.000    0.000    0.000    0.000    0.000    0.000 
#
# Total GULP energy -105826.033791 kJ/mol
# GULP energy per Si atom -5569.791252 kJ/mol
# Density = 1.968348 g / cm^3
# Si number density = 19.728380 Si / 1000 Ang^3
#
#
#
# Elastic Constant Matrix: (Units=GPa)
#
#
# Indices 1 2 3 4 5 6 
#
# 1 37.1688 39.4958 -5.1950 0.0000 -12.7433 0.0000
# 2 39.4958 104.1019 24.3032 0.0000 8.4634 0.0000
# 3 -5.1950 24.3032 46.3101 0.0000 3.4507 0.0000
# 4 0.0000 0.0000 0.0000 25.1587 0.0000 7.6512
# 5 -12.7433 8.4634 3.4507 0.0000 19.4620 0.0000
# 6 0.0000 0.0000 0.0000 7.6512 0.0000 24.7465
#
#
#
# Elastic Compliance Matrix: (Units=1/GPa)
#
#
# Indices 1 2 3 4 5 6 
#
# 1 0.229847 -0.120036 0.074660 0.000000 0.189461 0.000000
# 2 -0.120036 0.073918 -0.044595 0.000000 -0.102835 0.000000
# 3 0.074660 -0.044595 0.048931 0.000000 0.059603 0.000000
# 4 0.000000 0.000000 0.000000 0.043873 0.000000 -0.013565
# 5 0.189461 -0.102835 0.059603 0.000000 0.209589 0.000000
# 6 0.000000 0.000000 0.000000 -0.013565 0.000000 0.044604
#
#
# Mechanical properties :
#
#
# Convention : Reuss Voigt Hill
#
# Bulk Modulus (GPa) = 5.78852 33.86542 19.82697
# Shear Modulus (GPa) = 5.62881 22.47190 14.05035
#
# Velocity S-wave (km/s) = 1.69096 3.37866 2.67158
# Velocity P-wave (km/s) = 2.59864 5.69417 4.42586
#
# Compressibility (1/GPa) = 0.17275587
#
# Stress axis : x y z
#
# Youngs Moduli (GPa) = 4.35072 13.52844 20.43712
#
# Poissons Ratio (x) = 1.62390 -1.52585
# Poissons Ratio (y) = 0.52224 0.91139
# Poissons Ratio (z) = -0.32483 0.60330
#
# Static dielectric constant tensor:
#      x y z
#    x 1.714980 0.000000 -0.053290 
#    y 0.000000 1.657830 0.000000 
#    z -0.053290 0.000000 1.742050 
# 
# From -- ./inp_files/129264.got.cif
#   From: 2010.05.17/outbox.cif.g08.bks.cpg/sg12_65_cif.got.tgz:129264.got - 2010.06.03 13:09:07.
