data_PCOD9194468
_publ_section_title
;
Structure prediction by ZEFSAII (Michael W. Deem and Ramdas Pophale) SiO2 
 PCOD9194468
Probable space group: C 2/M
;
_chemical_formula_sum "Si O2"
_cell_formula_units_Z 56
_cell_length_a 25.233692
_cell_length_b 12.306742
_cell_length_c 9.504613
_cell_angle_alpha 90.000000
_cell_angle_beta 76.924770
_cell_angle_gamma 90.000000
_cell_volume 2875.081909
_symmetry_space_group_name_H-M "C 2/M"
_symmetry_group_IT_number 12
_symmetry_cell_setting 'monoclinic'
loop_
_space_group_symop_operation_xyz
x,y,z
-x,y,-z
-x,-y,-z
x,-y,z
1/2+x,1/2+y,z
1/2-x,1/2+y,-z
1/2-x,1/2-y,-z
1/2+x,1/2-y,z
loop_
_atom_site_type_symbol
_atom_site_label
_atom_site_fract_x
_atom_site_fract_y
_atom_site_fract_z
Si Si1 0.304642 0.255065 0.379258
Si Si2 0.254703 0.376875 0.162041
Si Si3 0.029872 0.210257 0.839438
Si Si4 0.123414 0.628696 0.870770
Si Si5 0.166293 0.775166 0.103788
Si Si6 0.058897 0.873062 0.298386
Si Si7 0.102076 0.119158 0.571507
O O1 0.250000 0.250000 0.500000
O O2 0.292764 0.347795 0.270588
O O3 0.329225 0.156190 0.272406
O O4 0.352116 0.290854 0.454814
O O5 0.236286 0.500000 0.176757
O O6 0.203503 0.296017 0.185464
O O7 0.291533 0.352841 0.003332
O O8 0.066693 0.316165 0.851510
O O9 0.072354 0.129418 0.739440
O O10 0.982076 0.210271 0.752388
O O11 0.000000 0.174800 0.000000
O O12 0.118497 0.500000 0.894702
O O13 0.140840 0.693403 0.001694
O O14 0.118651 0.842781 0.204845
O O15 0.061934 0.864655 0.464960
O O16 0.045484 0.000000 0.272086
O O17 0.126263 0.000000 0.539394
#
# Coordination Sequence:
#
# PCOD9194468 Si02
#       7
#     8   8   8   8   8   8   8
#     4  10  21  38  59  86 118 153 196 243 284 348
#     4  10  20  34  56  83 116 151 191 241 287 339
#     4  11  22  40  59  89 115 152 199 250 295 347
#     4  10  22  40  60  85 118 158 201 244 298 353
#     4  10  20  37  55  85 118 151 196 242 291 348
#     4  11  22  38  60  86 118 157 195 242 305 356
#     4  10  22  38  59  87 121 154 189 239 300 361
#
# _framework density 19.477706000000001
#
# number of rings (size 3 to 8) (size 9 to 14) (size 15 to 20)
#    0.000    1.714    1.429    3.000    0.000    3.714 
#    0.000    3.571    0.000    7.714    0.000    0.000 
#    0.000    0.000    0.000    0.000    0.000    0.000 
#
# Total GULP energy -156117.493393 kJ/mol
# GULP energy per Si atom -5575.624764 kJ/mol
# Density = 1.943337 g / cm^3
# Si number density = 19.477706 Si / 1000 Ang^3
#
#
#
# Elastic Constant Matrix: (Units=GPa)
#
#
# Indices 1 2 3 4 5 6 
#
# 1 80.1213 12.0813 13.2922 0.0000 -3.9458 0.0000
# 2 12.0813 56.9152 20.8406 0.0000 10.3448 0.0000
# 3 13.2922 20.8406 83.8377 0.0000 -8.1889 0.0000
# 4 0.0000 0.0000 0.0000 12.1624 0.0000 3.1543
# 5 -3.9458 10.3448 -8.1889 0.0000 35.9348 0.0000
# 6 0.0000 0.0000 0.0000 3.1543 0.0000 17.6634
#
#
#
# Elastic Compliance Matrix: (Units=1/GPa)
#
#
# Indices 1 2 3 4 5 6 
#
# 1 0.013188 -0.002703 -0.001229 0.000000 0.001946 0.000000
# 2 -0.002703 0.021664 -0.005722 0.000000 -0.007837 0.000000
# 3 -0.001229 -0.005722 0.014004 0.000000 0.004704 0.000000
# 4 0.000000 0.000000 0.000000 0.086214 0.000000 -0.015396
# 5 0.001946 -0.007837 0.004704 0.000000 0.031370 0.000000
# 6 0.000000 0.000000 0.000000 -0.015396 0.000000 0.059364
#
#
# Mechanical properties :
#
#
# Convention : Reuss Voigt Hill
#
# Bulk Modulus (GPa) = 33.84329 34.81139 34.32734
# Shear Modulus (GPa) = 19.61079 24.79613 22.20346
#
# Velocity S-wave (km/s) = 3.17651 3.57186 3.37997
# Velocity P-wave (km/s) = 5.55578 5.90949 5.73536
#
# Compressibility (1/GPa) = 0.02954795
#
# Stress axis : x y z
#
# Youngs Moduli (GPa) = 75.82412 46.16050 71.40562
#
# Poissons Ratio (x) = 0.12478 0.08775
# Poissons Ratio (y) = 0.20497 0.40859
# Poissons Ratio (z) = 0.09318 0.26414
#
# Static dielectric constant tensor:
#      x y z
#    x 1.719400 0.000000 -0.003530 
#    y 0.000000 1.632090 0.000000 
#    z -0.003530 0.000000 1.712670 
# 
# From -- ./inp_files/103143.got.cif
#   From: 2010.05.17/outbox.cif.g08.bks.cpg/sg12_52_cif.got.tgz:103143.got - 2010.06.03 13:09:07.
