data_PCOD9194424
_publ_section_title
;
Structure prediction by ZEFSAII (Michael W. Deem and Ramdas Pophale) SiO2 
 PCOD9194424
Probable space group: C 2/M
;
_chemical_formula_sum "Si O2"
_cell_formula_units_Z 56
_cell_length_a 15.048217
_cell_length_b 7.938345
_cell_length_c 21.975434
_cell_angle_alpha 90.000000
_cell_angle_beta 84.188362
_cell_angle_gamma 90.000000
_cell_volume 2611.647241
_symmetry_space_group_name_H-M "C 2/M"
_symmetry_group_IT_number 12
_symmetry_cell_setting 'monoclinic'
loop_
_space_group_symop_operation_xyz
x,y,z
-x,y,-z
-x,-y,-z
x,-y,z
1/2+x,1/2+y,z
1/2-x,1/2+y,-z
1/2-x,1/2-y,-z
1/2+x,1/2-y,z
loop_
_atom_site_type_symbol
_atom_site_label
_atom_site_fract_x
_atom_site_fract_y
_atom_site_fract_z
Si Si1 0.351101 0.800606 0.049755
Si Si2 0.921255 0.806899 0.785448
Si Si3 0.762205 0.204218 0.404542
Si Si4 0.350695 0.804459 0.917339
Si Si5 0.898613 0.797133 0.497164
Si Si6 0.100449 0.204328 0.826030
Si Si7 0.754127 0.302803 0.730225
O O1 0.256746 0.710302 0.069268
O O2 0.410267 0.770501 0.104927
O O3 0.333452 0.000000 0.045332
O O4 0.385803 0.746414 0.981021
O O5 0.881924 0.796065 0.856564
O O6 0.855600 0.714146 0.744503
O O7 0.021046 0.741449 0.787106
O O8 0.924793 0.000000 0.765320
O O9 0.845594 0.262697 0.440291
O O10 0.669749 0.253724 0.443766
O O11 0.763507 0.268609 0.335334
O O12 0.764841 0.000000 0.403361
O O13 0.374527 0.000000 0.905523
O O14 0.000000 0.734178 0.500000
O O15 0.903828 0.000000 0.492791
O O16 0.191945 0.265481 0.788748
O O17 0.098939 0.000000 0.830499
O O18 0.731463 0.500000 0.728403
#
# Coordination Sequence:
#
# PCOD9194424 Si02
#       7
#     8   8   8   8   8   8   8
#     4  10  20  34  56  82 106 138 184 231 280 344
#     4  11  23  37  56  83 109 142 191 237 278 334
#     4   9  19  35  56  83 114 149 187 224 271 324
#     4  10  20  35  55  79 109 143 178 228 292 341
#     4   9  18  34  58  87 117 148 183 224 269 320
#     4  10  22  38  56  79 110 146 183 230 287 337
#     4  10  21  39  58  77 110 153 187 224 279 333
#
# _framework density 21.442406999999999
#
# number of rings (size 3 to 8) (size 9 to 14) (size 15 to 20)
#    0.000    2.143    1.429    1.286    0.000    5.429 
#    0.000    5.714    0.000    0.000    0.000    0.000 
#    0.000    0.000    0.000    0.000    0.000    0.000 
#
# Total GULP energy -156311.338822 kJ/mol
# GULP energy per Si atom -5582.547815 kJ/mol
# Density = 2.139360 g / cm^3
# Si number density = 21.442407 Si / 1000 Ang^3
#
#
#
# Elastic Constant Matrix: (Units=GPa)
#
#
# Indices 1 2 3 4 5 6 
#
# 1 99.0245 4.3780 31.5128 0.0000 19.1739 0.0000
# 2 4.3780 21.3128 5.6857 0.0000 1.6989 0.0000
# 3 31.5128 5.6857 115.9313 0.0000 24.0389 0.0000
# 4 0.0000 0.0000 0.0000 19.5826 0.0000 0.7561
# 5 19.1739 1.6989 24.0389 0.0000 15.3036 0.0000
# 6 0.0000 0.0000 0.0000 0.7561 0.0000 19.0663
#
#
#
# Elastic Compliance Matrix: (Units=1/GPa)
#
#
# Indices 1 2 3 4 5 6 
#
# 1 0.013378 -0.001398 -0.000185 0.000000 -0.016317 0.000000
# 2 -0.001398 0.047748 -0.001818 0.000000 -0.000693 0.000000
# 3 -0.000185 -0.001818 0.012866 0.000000 -0.019777 0.000000
# 4 0.000000 0.000000 0.000000 0.051144 0.000000 -0.002028
# 5 -0.016317 -0.000693 -0.019777 0.000000 0.116929 0.000000
# 6 0.000000 0.000000 0.000000 -0.002028 0.000000 0.052529
#
#
# Mechanical properties :
#
#
# Convention : Reuss Voigt Hill
#
# Bulk Modulus (GPa) = 14.88309 35.49129 25.18719
# Shear Modulus (GPa) = 15.44196 23.76998 19.60597
#
# Velocity S-wave (km/s) = 2.68649 3.33310 3.02711
# Velocity P-wave (km/s) = 4.07173 5.60362 4.89794
#
# Compressibility (1/GPa) = 0.06719033
#
# Stress axis : x y z
#
# Youngs Moduli (GPa) = 74.74707 20.94342 77.72467
#
# Poissons Ratio (x) = 0.02928 0.01435
# Poissons Ratio (y) = 0.10452 0.14130
# Poissons Ratio (z) = 0.01380 0.03807
#
# Static dielectric constant tensor:
#      x y z
#    x 1.796770 0.000000 0.016210 
#    y 0.000000 1.777750 0.000000 
#    z 0.016210 0.000000 1.778730 
# 
# From -- ./inp_files/309057.got.cif
#   From: 2010.05.17/outbox.cif.g08.bks.cpg/sg12_155_cif.got.tgz:309057.got - 2010.06.03 13:09:07.
