data_PCOD9194353
_publ_section_title
;
Structure prediction by ZEFSAII (Michael W. Deem and Ramdas Pophale) SiO2 
 PCOD9194353
Probable space group: C 2/M
;
_chemical_formula_sum "Si O2"
_cell_formula_units_Z 40
_cell_length_a 20.220449
_cell_length_b 8.799842
_cell_length_c 9.376086
_cell_angle_alpha 90.000000
_cell_angle_beta 100.531129
_cell_angle_gamma 90.000000
_cell_volume 1640.248226
_symmetry_space_group_name_H-M "C 2/M"
_symmetry_group_IT_number 12
_symmetry_cell_setting 'monoclinic'
loop_
_space_group_symop_operation_xyz
x,y,z
-x,y,-z
-x,-y,-z
x,-y,z
1/2+x,1/2+y,z
1/2-x,1/2+y,-z
1/2-x,1/2-y,-z
1/2+x,1/2-y,z
loop_
_atom_site_type_symbol
_atom_site_label
_atom_site_fract_x
_atom_site_fract_y
_atom_site_fract_z
Si Si1 0.700771 0.329180 0.138965
Si Si2 0.854052 0.318953 0.262816
Si Si3 0.066889 0.319238 0.105262
Si Si4 0.677904 0.673638 0.464070
Si Si5 0.994122 0.820820 0.327288
O O1 0.701305 0.500000 0.078185
O O2 0.778738 0.272516 0.175434
O O3 0.637850 0.229873 0.062238
O O4 0.675531 0.340841 0.292978
O O5 0.859041 0.500000 0.243131
O O6 0.857399 0.280127 0.433779
O O7 0.921599 0.234087 0.242807
O O8 0.066488 0.500000 0.100899
O O9 0.050815 0.268690 0.261677
O O10 0.000000 0.258643 0.000000
O O11 0.671382 0.500000 0.517131
O O12 0.750000 0.750000 0.500000
O O13 0.000000 0.798094 0.500000
O O14 0.003607 0.000000 0.305266
#
# Coordination Sequence:
#
# PCOD9194353 Si02
#       5
#     8   8   8   8   8
#     4   9  19  35  56  83 115 155 201 247 297 358
#     4  10  20  34  55  86 121 155 197 249 302 357
#     4  11  25  43  63  89 121 160 207 254 303 365
#     4   9  16  27  46  77 115 151 191 238 290 349
#     4  11  24  41  63  93 127 162 203 250 302 363
#
# _framework density 24.386551999999998
#
# number of rings (size 3 to 8) (size 9 to 14) (size 15 to 20)
#    0.000    2.000    0.000    4.800    0.000   12.800 
#    0.000    1.000    0.000    0.000    0.000    0.000 
#    0.000    0.000    0.000    0.000    0.000    0.000 
#
# Total GULP energy -111442.598060 kJ/mol
# GULP energy per Si atom -5572.129903 kJ/mol
# Density = 2.433105 g / cm^3
# Si number density = 24.386552 Si / 1000 Ang^3
#
#
#
# Elastic Constant Matrix: (Units=GPa)
#
#
# Indices 1 2 3 4 5 6 
#
# 1 199.1081 38.6991 19.0870 0.0000 13.0542 0.0000
# 2 38.6991 64.1155 16.1675 0.0000 18.5631 0.0000
# 3 19.0870 16.1675 65.7830 0.0000 7.2587 0.0000
# 4 0.0000 0.0000 0.0000 10.7715 0.0000 9.0737
# 5 13.0542 18.5631 7.2587 0.0000 36.6667 0.0000
# 6 0.0000 0.0000 0.0000 9.0737 0.0000 13.0770
#
#
#
# Elastic Compliance Matrix: (Units=1/GPa)
#
#
# Indices 1 2 3 4 5 6 
#
# 1 0.005738 -0.003170 -0.000856 0.000000 -0.000269 0.000000
# 2 -0.003170 0.020874 -0.003240 0.000000 -0.008798 0.000000
# 3 -0.000856 -0.003240 0.016390 0.000000 -0.001299 0.000000
# 4 0.000000 0.000000 0.000000 0.223437 0.000000 -0.155036
# 5 -0.000269 -0.008798 -0.001299 0.000000 0.032080 0.000000
# 6 0.000000 0.000000 0.000000 -0.155036 0.000000 0.184045
#
#
# Mechanical properties :
#
#
# Convention : Reuss Voigt Hill
#
# Bulk Modulus (GPa) = 35.12412 52.99041 44.05726
# Shear Modulus (GPa) = 9.86999 29.10658 19.48829
#
# Velocity S-wave (km/s) = 2.01398 3.45853 2.82997
# Velocity P-wave (km/s) = 4.45449 6.14207 5.36505
#
# Compressibility (1/GPa) = 0.02847047
#
# Stress axis : x y z
#
# Youngs Moduli (GPa) = 174.27138 47.90578 61.01438
#
# Poissons Ratio (x) = 0.15185 0.05224
# Poissons Ratio (y) = 0.55240 0.19767
# Poissons Ratio (z) = 0.14922 0.15520
#
# Static dielectric constant tensor:
#      x y z
#    x 1.964360 0.000000 0.024700 
#    y 0.000000 1.960280 0.000000 
#    z 0.024700 0.000000 2.190780 
# 
# From -- ./inp_files/162652.got.cif
#   From: 2010.05.17/outbox.cif.g08.bks.cpg/sg12_82_cif.got.tgz:162652.got - 2010.06.03 13:09:07.
