data_PCOD9194164
_publ_section_title
;
Structure prediction by ZEFSAII (Michael W. Deem and Ramdas Pophale) SiO2 
 PCOD9194164
Probable space group: C 2/M
;
_chemical_formula_sum "Si O2"
_cell_formula_units_Z 56
_cell_length_a 34.125798
_cell_length_b 8.900079
_cell_length_c 12.721421
_cell_angle_alpha 90.000000
_cell_angle_beta 120.013482
_cell_angle_gamma 90.000000
_cell_volume 3345.676284
_symmetry_space_group_name_H-M "C 2/M"
_symmetry_group_IT_number 12
_symmetry_cell_setting 'monoclinic'
loop_
_space_group_symop_operation_xyz
x,y,z
-x,y,-z
-x,-y,-z
x,-y,z
1/2+x,1/2+y,z
1/2-x,1/2+y,-z
1/2-x,1/2-y,-z
1/2+x,1/2-y,z
loop_
_atom_site_type_symbol
_atom_site_label
_atom_site_fract_x
_atom_site_fract_y
_atom_site_fract_z
Si Si1 0.388191 0.679692 0.978126
Si Si2 0.110071 0.179969 0.610188
Si Si3 0.702433 0.820647 0.061259
Si Si4 0.049408 0.319557 0.111348
Si Si5 0.050943 0.819739 0.736863
Si Si6 0.453944 0.179715 0.646914
Si Si7 0.298694 0.179401 0.188961
O O1 0.384027 0.500000 0.970512
O O2 0.339467 0.752921 0.931838
O O3 0.412746 0.739517 0.907314
O O4 0.420101 0.720101 0.120738
O O5 0.079737 0.218622 0.672079
O O6 0.084476 0.244967 0.475207
O O7 0.159425 0.249701 0.693418
O O8 0.113137 0.000000 0.608767
O O9 0.750455 0.748612 0.155824
O O10 0.704263 0.000000 0.075061
O O11 0.695147 0.785896 0.927307
O O12 0.053991 0.500000 0.106053
O O13 0.051426 0.282273 0.237128
O O14 0.000000 0.277321 0.000000
O O15 0.002848 0.738759 0.675432
O O16 0.043681 0.000000 0.727335
O O17 0.452181 0.000000 0.633797
O O18 0.297975 0.000000 0.199837
#
# Coordination Sequence:
#
# PCOD9194164 Si02
#       7
#     8   8   8   8   8   8   8
#     4  11  21  34  56  83 112 143 183 228 272 324
#     4  11  22  37  55  78 114 150 183 223 274 330
#     4  10  20  34  55  82 113 146 179 222 276 325
#     4  10  21  38  56  77 107 144 186 232 277 320
#     4  10  21  35  52  78 112 148 181 222 273 325
#     4  11  23  37  55  78 108 146 190 231 271 326
#     4  10  20  34  55  82 112 144 183 224 268 325
#
# _framework density 16.738021
#
# number of rings (size 3 to 8) (size 9 to 14) (size 15 to 20)
#    0.000    1.571    2.857    2.571    0.000    6.000 
#    0.000    0.000    0.000    0.857    0.000    0.000 
#    0.000    0.000    0.000    0.000    0.000    0.000 
#
# Total GULP energy -156449.843364 kJ/mol
# GULP energy per Si atom -5587.494406 kJ/mol
# Density = 1.669992 g / cm^3
# Si number density = 16.738021 Si / 1000 Ang^3
#
#
#
# Elastic Constant Matrix: (Units=GPa)
#
#
# Indices 1 2 3 4 5 6 
#
# 1 133.7874 54.5084 70.8270 0.0000 30.0179 0.0000
# 2 54.5084 46.4759 52.2273 0.0000 13.8563 0.0000
# 3 70.8270 52.2273 125.9902 0.0000 22.5811 0.0000
# 4 0.0000 0.0000 0.0000 28.7361 0.0000 4.3117
# 5 30.0179 13.8563 22.5811 0.0000 25.0268 0.0000
# 6 0.0000 0.0000 0.0000 4.3117 0.0000 33.5273
#
#
#
# Elastic Compliance Matrix: (Units=1/GPa)
#
#
# Indices 1 2 3 4 5 6 
#
# 1 0.016553 -0.014870 -0.001263 0.000000 -0.010482 0.000000
# 2 -0.014870 0.055265 -0.014628 0.000000 0.000436 0.000000
# 3 -0.001263 -0.014628 0.015493 0.000000 -0.004366 0.000000
# 4 0.000000 0.000000 0.000000 0.035484 0.000000 -0.004563
# 5 -0.010482 0.000436 -0.004366 0.000000 0.056227 0.000000
# 6 0.000000 0.000000 0.000000 -0.004563 0.000000 0.030413
#
#
# Mechanical properties :
#
#
# Convention : Reuss Voigt Hill
#
# Bulk Modulus (GPa) = 38.77506 73.48651 56.13079
# Shear Modulus (GPa) = 17.88558 26.03742 21.96150
#
# Velocity S-wave (km/s) = 3.27243 3.94837 3.62618
# Velocity P-wave (km/s) = 6.12328 8.04894 7.15122
#
# Compressibility (1/GPa) = 0.02578977
#
# Stress axis : x y z
#
# Youngs Moduli (GPa) = 60.41019 18.09470 64.54421
#
# Poissons Ratio (x) = 0.26907 0.08151
# Poissons Ratio (y) = 0.89831 0.94415
# Poissons Ratio (z) = 0.07629 0.26469
#
# Static dielectric constant tensor:
#      x y z
#    x 1.533600 0.000000 -0.003320 
#    y 0.000000 1.554980 0.000000 
#    z -0.003320 0.000000 1.546550 
# 
# From -- ./inp_files/180644.got.cif
#   From: 2010.05.17/outbox.cif.g08.bks.cpg/sg12_91_cif.got.tgz:180644.got - 2010.06.03 13:09:07.
