data_PCOD9194305
_publ_section_title
;
Structure prediction by ZEFSAII (Michael W. Deem and Ramdas Pophale) SiO2 
 PCOD9194305
Probable space group: C 2/M
;
_chemical_formula_sum "Si O2"
_cell_formula_units_Z 40
_cell_length_a 10.335603
_cell_length_b 19.722686
_cell_length_c 11.618552
_cell_angle_alpha 90.000000
_cell_angle_beta 120.718113
_cell_angle_gamma 90.000000
_cell_volume 2036.086293
_symmetry_space_group_name_H-M "C 2/M"
_symmetry_group_IT_number 12
_symmetry_cell_setting 'monoclinic'
loop_
_space_group_symop_operation_xyz
x,y,z
-x,y,-z
-x,-y,-z
x,-y,z
1/2+x,1/2+y,z
1/2-x,1/2+y,-z
1/2-x,1/2-y,-z
1/2+x,1/2-y,z
loop_
_atom_site_type_symbol
_atom_site_label
_atom_site_fract_x
_atom_site_fract_y
_atom_site_fract_z
Si Si1 0.168711 0.190767 0.393911
Si Si2 0.335114 0.342352 0.221597
Si Si3 0.316802 0.422926 0.431350
Si Si4 0.327232 0.292481 0.877627
Si Si5 0.842365 0.924358 0.998041
O O1 0.250000 0.250000 0.500000
O O2 0.219514 0.118894 0.470186
O O3 0.185509 0.199058 0.265464
O O4 0.989876 0.191375 0.334276
O O5 0.260853 0.379639 0.296380
O O6 0.243531 0.280138 0.127004
O O7 0.369987 0.398801 0.140758
O O8 0.500000 0.425531 0.500000
O O9 0.262895 0.500000 0.407703
O O10 0.257732 0.360917 0.900832
O O11 0.500000 0.290319 0.000000
O O12 0.775336 0.000000 0.965941
O O13 0.000000 0.928832 0.000000
#
# Coordination Sequence:
#
# PCOD9194305 Si02
#       5
#     8   8   8   8   8
#     4  11  21  36  56  86 113 144 186 227 278 335
#     4  11  20  37  59  82 116 146 186 234 279 331
#     4   9  19  33  55  84 111 143 183 233 280 320
#     4  11  22  37  58  84 111 148 190 228 280 332
#     4  10  20  34  55  85 114 144 186 232 281 328
#
# _framework density 19.645533
#
# number of rings (size 3 to 8) (size 9 to 14) (size 15 to 20)
#    0.000    1.600    6.000    1.200    0.000    1.600 
#    0.000    0.000    0.000    6.000    0.000    2.800 
#    0.000    0.000    0.000    0.000    0.000    0.000 
#
# Total GULP energy -111480.199925 kJ/mol
# GULP energy per Si atom -5574.009996 kJ/mol
# Density = 1.960082 g / cm^3
# Si number density = 19.645533 Si / 1000 Ang^3
#
#
#
# Elastic Constant Matrix: (Units=GPa)
#
#
# Indices 1 2 3 4 5 6 
#
# 1 16.3984 26.2554 18.5158 0.0000 -11.1444 0.0000
# 2 26.2554 189.2539 59.5651 0.0000 1.5435 0.0000
# 3 18.5158 59.5651 116.4034 0.0000 -21.9714 0.0000
# 4 0.0000 0.0000 0.0000 20.1168 0.0000 0.2864
# 5 -11.1444 1.5435 -21.9714 0.0000 25.9590 0.0000
# 6 0.0000 0.0000 0.0000 0.2864 0.0000 21.0256
#
#
#
# Elastic Compliance Matrix: (Units=1/GPa)
#
#
# Indices 1 2 3 4 5 6 
#
# 1 0.128514 -0.018065 -0.000692 0.000000 0.055660 0.000000
# 2 -0.018065 0.009150 -0.004017 0.000000 -0.011699 0.000000
# 3 -0.000692 -0.004017 0.012788 0.000000 0.010766 0.000000
# 4 0.000000 0.000000 0.000000 0.049719 0.000000 -0.000677
# 5 0.055660 -0.011699 0.010766 0.000000 0.072225 0.000000
# 6 0.000000 0.000000 0.000000 -0.000677 0.000000 0.047570
#
#
# Mechanical properties :
#
#
# Convention : Reuss Voigt Hill
#
# Bulk Modulus (GPa) = 9.53248 58.96979 34.25114
# Shear Modulus (GPa) = 12.48494 27.93492 20.20993
#
# Velocity S-wave (km/s) = 2.52367 3.77496 3.21086
# Velocity P-wave (km/s) = 3.65440 7.00589 5.58736
#
# Compressibility (1/GPa) = 0.10490448
#
# Stress axis : x y z
#
# Youngs Moduli (GPa) = 7.78126 109.29294 78.19603
#
# Poissons Ratio (x) = 1.97438 0.05411
# Poissons Ratio (y) = 0.14057 0.31410
# Poissons Ratio (z) = 0.00538 0.43900
#
# Static dielectric constant tensor:
#      x y z
#    x 1.725670 0.000000 -0.023940 
#    y 0.000000 1.736120 0.000000 
#    z -0.023940 0.000000 1.718650 
# 
# From -- ./inp_files/130858.got.cif
#   From: 2010.05.17/outbox.cif.g08.bks.cpg/sg12_66_cif.got.tgz:130858.got - 2010.06.03 13:09:07.
