data_PCOD9194119
_publ_section_title
;
Structure prediction by ZEFSAII (Michael W. Deem and Ramdas Pophale) SiO2 
 PCOD9194119
Probable space group: C 2/M
;
_chemical_formula_sum "Si O2"
_cell_formula_units_Z 48
_cell_length_a 22.471836
_cell_length_b 13.396554
_cell_length_c 15.630248
_cell_angle_alpha 90.000000
_cell_angle_beta 147.997269
_cell_angle_gamma 90.000000
_cell_volume 2493.677912
_symmetry_space_group_name_H-M "C 2/M"
_symmetry_group_IT_number 12
_symmetry_cell_setting 'monoclinic'
loop_
_space_group_symop_operation_xyz
x,y,z
-x,y,-z
-x,-y,-z
x,-y,z
1/2+x,1/2+y,z
1/2-x,1/2+y,-z
1/2-x,1/2-y,-z
1/2+x,1/2-y,z
loop_
_atom_site_type_symbol
_atom_site_label
_atom_site_fract_x
_atom_site_fract_y
_atom_site_fract_z
Si Si1 0.337527 0.884406 0.417717
Si Si2 0.479031 0.619905 0.743551
Si Si3 0.223566 0.380319 0.463498
Si Si4 0.564306 0.678505 0.494457
Si Si5 0.679523 0.884707 0.221402
Si Si6 0.599091 0.315667 0.056442
O O1 0.328786 0.859402 0.508441
O O2 0.413873 0.797320 0.472498
O O3 0.213672 0.868062 0.226986
O O4 0.371447 0.000000 0.448549
O O5 0.479640 0.500000 0.745029
O O6 0.352943 0.654251 0.616689
O O7 0.498934 0.655525 0.671172
O O8 0.564878 0.657825 0.918963
O O9 0.228772 0.500000 0.464964
O O10 0.164560 0.352211 0.302585
O O11 0.500000 0.642989 0.500000
O O12 0.687056 0.627541 0.634103
O O13 0.617279 0.803094 0.088979
O O14 0.646822 0.000000 0.169709
O O15 0.500000 0.347610 0.000000
#
# Coordination Sequence:
#
# PCOD9194119 Si02
#       6
#     8   8   8   8   8   8
#     4  10  20  34  55  81 114 145 176 222 273 322
#     4  10  20  34  55  84 112 138 178 225 270 323
#     4   8  15  30  53  78 104 141 178 214 265 319
#     4  10  22  38  59  80 100 142 197 231 262 308
#     4   9  20  36  54  80 113 144 181 224 267 318
#     4  11  21  31  54  84 118 146 169 211 274 341
#
# _framework density 19.248677000000001
#
# number of rings (size 3 to 8) (size 9 to 14) (size 15 to 20)
#    0.000    2.333    1.667    2.000    2.333    4.667 
#    0.000    4.167    0.000    2.000    0.000    0.000 
#    0.000    0.000    0.000    0.000    0.000    0.000 
#
# Total GULP energy -134002.212032 kJ/mol
# GULP energy per Si atom -5583.425501 kJ/mol
# Density = 1.920487 g / cm^3
# Si number density = 19.248677 Si / 1000 Ang^3
#
#
#
# Elastic Constant Matrix: (Units=GPa)
#
#
# Indices 1 2 3 4 5 6 
#
# 1 70.6810 -8.3927 31.9111 0.0000 -21.8940 0.0000
# 2 -8.3927 109.3933 22.5911 0.0000 -1.2862 0.0000
# 3 31.9111 22.5911 90.6726 0.0000 -17.6859 0.0000
# 4 0.0000 0.0000 0.0000 16.8029 0.0000 -1.3818
# 5 -21.8940 -1.2862 -17.6859 0.0000 16.8435 0.0000
# 6 0.0000 0.0000 0.0000 -1.3818 0.0000 14.7848
#
#
#
# Elastic Compliance Matrix: (Units=1/GPa)
#
#
# Indices 1 2 3 4 5 6 
#
# 1 0.025282 0.003114 -0.004046 0.000000 0.028852 0.000000
# 2 0.003114 0.010089 -0.003357 0.000000 0.001293 0.000000
# 3 -0.004046 -0.003357 0.015359 0.000000 0.010612 0.000000
# 4 0.000000 0.000000 0.000000 0.059975 0.000000 0.005605
# 5 0.028852 0.001293 0.010612 0.000000 0.108114 0.000000
# 6 0.000000 0.000000 0.000000 0.005605 0.000000 0.068161
#
#
# Mechanical properties :
#
#
# Convention : Reuss Voigt Hill
#
# Bulk Modulus (GPa) = 23.72405 40.32955 32.02680
# Shear Modulus (GPa) = 16.14952 24.66207 20.40579
#
# Velocity S-wave (km/s) = 2.89968 3.58332 3.25947
# Velocity P-wave (km/s) = 4.85414 6.17394 5.55339
#
# Compressibility (1/GPa) = 0.04215132
#
# Stress axis : x y z
#
# Youngs Moduli (GPa) = 39.55459 99.11953 65.10870
#
# Poissons Ratio (x) = -0.30869 0.26342
# Poissons Ratio (y) = -0.12319 0.21860
# Poissons Ratio (z) = 0.16003 0.33279
#
# Static dielectric constant tensor:
#      x y z
#    x 1.650550 0.000000 0.003370 
#    y 0.000000 1.709810 0.000000 
#    z 0.003370 0.000000 1.664550 
# 
# From -- ./inp_files/143528.got.cif
#   From: 2010.05.17/outbox.cif.g08.bks.cpg/sg12_72_cif.got.tgz:143528.got - 2010.06.03 13:09:07.
