data_PCOD9194244
_publ_section_title
;
Structure prediction by ZEFSAII (Michael W. Deem and Ramdas Pophale) SiO2 
 PCOD9194244
Probable space group: C 2/M
;
_chemical_formula_sum "Si O2"
_cell_formula_units_Z 60
_cell_length_a 19.230501
_cell_length_b 7.172267
_cell_length_c 16.609317
_cell_angle_alpha 90.000000
_cell_angle_beta 99.794249
_cell_angle_gamma 90.000000
_cell_volume 2257.472080
_symmetry_space_group_name_H-M "C 2/M"
_symmetry_group_IT_number 12
_symmetry_cell_setting 'monoclinic'
loop_
_space_group_symop_operation_xyz
x,y,z
-x,y,-z
-x,-y,-z
x,-y,z
1/2+x,1/2+y,z
1/2-x,1/2+y,-z
1/2-x,1/2-y,-z
1/2+x,1/2-y,z
loop_
_atom_site_type_symbol
_atom_site_label
_atom_site_fract_x
_atom_site_fract_y
_atom_site_fract_z
Si Si1 0.728586 0.787675 0.692606
Si Si2 0.252992 0.726103 0.875164
Si Si3 0.970489 0.275776 0.771786
Si Si4 0.601644 0.224960 0.900092
Si Si5 0.517396 0.500000 0.370628
Si Si6 0.407742 0.228680 0.436777
Si Si7 0.911704 0.289349 0.930580
Si Si8 0.678595 0.781436 0.433480
O O1 0.745604 0.706882 0.781861
O O2 0.660339 0.717969 0.631450
O O3 0.796522 0.784991 0.648375
O O4 0.709233 0.000000 0.705547
O O5 0.256318 0.500000 0.879110
O O6 0.181486 0.787902 0.904043
O O7 0.327087 0.794913 0.921648
O O8 0.962132 0.500000 0.758232
O O9 0.051747 0.233167 0.814433
O O10 0.928759 0.215083 0.844871
O O11 0.954577 0.161999 0.689090
O O12 0.603255 0.000000 0.904811
O O13 0.568270 0.290847 0.977864
O O14 0.472434 0.336786 0.412125
O O15 0.383551 0.294812 0.521953
O O16 0.415833 0.000000 0.438757
O O17 0.939763 0.500000 0.931593
O O18 0.833741 0.500000 0.575535
O O19 0.750000 0.750000 0.500000
#
# Coordination Sequence:
#
# PCOD9194244 Si02
#       8
#     8   8   8   8   4   8   8   8
#     4   9  18  31  49  75 114 156 189 231 290 344
#     4  10  20  34  55  83 117 151 187 237 292 347
#     4  10  22  40  59  84 115 148 200 246 290 345
#     4   9  18  38  61  80 112 152 191 237 299 341
#     4  12  22  32  57  84 109 152 188 232 297 336
#     4   9  19  33  50  80 119 149 188 236 288 346
#     4  10  21  38  59  80 110 155 192 238 292 349
#     4   9  17  28  46  73 110 153 187 229 285 344
#
# _framework density 26.578402000000001
#
# number of rings (size 3 to 8) (size 9 to 14) (size 15 to 20)
#    0.000    2.400    0.000    3.200    5.600    4.267 
#    4.800    0.667    0.000    0.000    0.000    1.867 
#    0.000    4.267    0.000    0.000    0.000    0.000 
#
# Total GULP energy -167380.086211 kJ/mol
# GULP energy per Si atom -5579.336207 kJ/mol
# Density = 2.651791 g / cm^3
# Si number density = 26.578402 Si / 1000 Ang^3
#
#
#
# Elastic Constant Matrix: (Units=GPa)
#
#
# Indices 1 2 3 4 5 6 
#
# 1 134.6161 -9.4596 22.5277 0.0000 -15.8141 0.0000
# 2 -9.4596 155.1365 1.3986 0.0000 -5.7398 0.0000
# 3 22.5277 1.3986 165.6222 0.0000 -17.6158 0.0000
# 4 0.0000 0.0000 0.0000 -542.6570 0.0000 -382.9044
# 5 -15.8141 -5.7398 -17.6158 0.0000 39.9370 0.0000
# 6 0.0000 0.0000 0.0000 -382.9044 0.0000 -165.6722
#
#
#
# Elastic Compliance Matrix: (Units=1/GPa)
#
#
# Indices 1 2 3 4 5 6 
#
# 1 0.007940 0.000598 -0.000778 0.000000 0.002887 0.000000
# 2 0.000598 0.006526 -0.000012 0.000000 0.001169 0.000000
# 3 -0.000778 -0.000012 0.006412 0.000000 0.002518 0.000000
# 4 0.000000 0.000000 0.000000 0.002921 0.000000 -0.006752
# 5 0.002887 0.001169 0.002518 0.000000 0.027461 0.000000
# 6 0.000000 0.000000 0.000000 -0.006752 0.000000 0.009569
#
#
# Mechanical properties :
#
#
# Convention : Reuss Voigt Hill
#
# Bulk Modulus (GPa) = 48.79697 53.81204 51.30450
# Shear Modulus (GPa) = 73.48222 -104.28458 -15.40118
#
# Velocity S-wave (km/s) = 5.26378 -6.27071 -2.40981
# Velocity P-wave (km/s) = 7.43926 5.66909 3.40618
#
# Compressibility (1/GPa) = 0.02049308
#
# Stress axis : x y z
#
# Youngs Moduli (GPa) = 125.94664 153.23861 155.96705
#
# Poissons Ratio (x) = -0.09163 0.12134
# Poissons Ratio (y) = -0.07531 0.00188
# Poissons Ratio (z) = 0.09798 0.00185
#
# Static dielectric constant tensor:
#      x y z
#    x 2.103150 0.000000 0.057720 
#    y 0.000000 1.999870 0.000000 
#    z 0.057720 0.000000 2.071480 
# 
# From -- ./inp_files/281199.got.cif
#   From: 2010.05.17/outbox.cif.g08.bks.cpg/sg12_141_cif.got.tgz:281199.got - 2010.06.03 13:09:07.
