data_PCOD9194674
_publ_section_title
;
Structure prediction by ZEFSAII (Michael W. Deem and Ramdas Pophale) SiO2 
 PCOD9194674
Probable space group: C 2/M
;
_chemical_formula_sum "Si O2"
_cell_formula_units_Z 40
_cell_length_a 29.194145
_cell_length_b 10.209220
_cell_length_c 14.090218
_cell_angle_alpha 90.000000
_cell_angle_beta 151.598321
_cell_angle_gamma 90.000000
_cell_volume 1997.530983
_symmetry_space_group_name_H-M "C 2/M"
_symmetry_group_IT_number 12
_symmetry_cell_setting 'monoclinic'
loop_
_space_group_symop_operation_xyz
x,y,z
-x,y,-z
-x,-y,-z
x,-y,z
1/2+x,1/2+y,z
1/2-x,1/2+y,-z
1/2-x,1/2-y,-z
1/2+x,1/2-y,z
loop_
_atom_site_type_symbol
_atom_site_label
_atom_site_fract_x
_atom_site_fract_y
_atom_site_fract_z
Si Si1 0.705185 0.146270 0.150078
Si Si2 0.416355 0.271937 0.559709
Si Si3 0.620164 0.347020 0.844094
Si Si4 0.018328 0.654600 0.926885
Si Si5 0.611221 0.860851 0.674375
O O1 0.816317 0.150898 0.382895
O O2 0.683648 0.000000 0.071633
O O3 0.678463 0.259605 0.026472
O O4 0.629880 0.166468 0.098774
O O5 0.507619 0.336495 0.671421
O O6 0.455710 0.226856 0.732752
O O7 0.387892 0.154359 0.436777
O O8 0.642407 0.500000 0.882217
O O9 0.640692 0.271632 0.782634
O O10 0.993967 0.500000 0.879306
O O11 0.000000 0.702448 0.000000
O O12 0.500000 0.869521 0.500000
O O13 0.655809 0.000000 0.785252
#
# Coordination Sequence:
#
# PCOD9194674 Si02
#       5
#     8   8   8   8   8
#     4  10  21  37  58  83 113 149 185 225 277 333
#     4  10  20  34  57  82 112 146 186 231 276 324
#     4  10  21  36  55  82 115 149 187 230 272 320
#     4   9  19  37  59  83 112 145 183 229 281 336
#     4   9  18  33  54  80 112 151 189 224 269 325
#
# _framework density 20.024721
#
# number of rings (size 3 to 8) (size 9 to 14) (size 15 to 20)
#    0.000    2.400    0.000    1.800    0.000   12.400 
#    0.000    0.000    0.000   15.000    0.000    0.000 
#    0.000    0.000    0.000    0.000    0.000    0.000 
#
# Total GULP energy -111477.979504 kJ/mol
# GULP energy per Si atom -5573.898975 kJ/mol
# Density = 1.997914 g / cm^3
# Si number density = 20.024721 Si / 1000 Ang^3
#
#
#
# Elastic Constant Matrix: (Units=GPa)
#
#
# Indices 1 2 3 4 5 6 
#
# 1 111.1977 55.3207 61.7640 0.0000 -22.8138 0.0000
# 2 55.3207 153.8706 45.5233 0.0000 -7.1614 0.0000
# 3 61.7640 45.5233 122.5383 0.0000 20.0885 0.0000
# 4 0.0000 0.0000 0.0000 -9.4813 0.0000 -28.3511
# 5 -22.8138 -7.1614 20.0885 0.0000 35.9357 0.0000
# 6 0.0000 0.0000 0.0000 -28.3511 0.0000 -3.9030
#
#
#
# Elastic Compliance Matrix: (Units=1/GPa)
#
#
# Indices 1 2 3 4 5 6 
#
# 1 0.022498 -0.003040 -0.013709 0.000000 0.021341 0.000000
# 2 -0.003040 0.008079 -0.001560 0.000000 0.000552 0.000000
# 3 -0.013709 -0.001560 0.018856 0.000000 -0.019555 0.000000
# 4 0.000000 0.000000 0.000000 0.005090 0.000000 -0.036974
# 5 0.021341 0.000552 -0.019555 0.000000 0.052418 0.000000
# 6 0.000000 0.000000 0.000000 -0.036974 0.000000 0.012365
#
#
# Mechanical properties :
#
#
# Convention : Reuss Voigt Hill
#
# Bulk Modulus (GPa) = 78.02894 79.20251 78.61572
# Shear Modulus (GPa) = 31.21181 19.51020 25.36100
#
# Velocity S-wave (km/s) = 3.95227 3.12477 3.56263
# Velocity P-wave (km/s) = 7.73810 7.25653 7.50118
#
# Compressibility (1/GPa) = 0.01281576
#
# Stress axis : x y z
#
# Youngs Moduli (GPa) = 44.44757 123.77829 53.03329
#
# Poissons Ratio (x) = 0.37623 0.72706
# Poissons Ratio (y) = 0.13510 0.08272
# Poissons Ratio (z) = 0.60935 0.19308
#
# Static dielectric constant tensor:
#      x y z
#    x 1.706240 0.000000 0.036410 
#    y 0.000000 1.727750 0.000000 
#    z 0.036410 0.000000 1.742050 
# 
# From -- ./inp_files/250226.got.cif
#   From: 2010.05.17/outbox.cif.g08.bks.cpg/sg12_126_cif.got.tgz:250226.got - 2010.06.03 13:09:07.
