data_PCOD9194702
_publ_section_title
;
Structure prediction by ZEFSAII (Michael W. Deem and Ramdas Pophale) SiO2 
 PCOD9194702
Probable space group: C 2/M
;
_chemical_formula_sum "Si O2"
_cell_formula_units_Z 48
_cell_length_a 13.439624
_cell_length_b 32.003386
_cell_length_c 8.985757
_cell_angle_alpha 90.000000
_cell_angle_beta 34.239948
_cell_angle_gamma 90.000000
_cell_volume 2174.621534
_symmetry_space_group_name_H-M "C 2/M"
_symmetry_group_IT_number 12
_symmetry_cell_setting 'monoclinic'
loop_
_space_group_symop_operation_xyz
x,y,z
-x,y,-z
-x,-y,-z
x,-y,z
1/2+x,1/2+y,z
1/2-x,1/2+y,-z
1/2-x,1/2-y,-z
1/2+x,1/2-y,z
loop_
_atom_site_type_symbol
_atom_site_label
_atom_site_fract_x
_atom_site_fract_y
_atom_site_fract_z
Si Si1 0.121309 0.218533 0.497649
Si Si2 0.101087 0.954694 0.716433
Si Si3 0.511413 0.044386 0.306028
Si Si4 0.982942 0.365800 0.698879
Si Si5 0.619264 0.778989 0.063878
Si Si6 0.607998 0.362715 0.711689
O O1 0.082299 0.177234 0.640166
O O2 0.000000 0.216338 0.500000
O O3 0.067288 0.259358 0.657261
O O4 0.313951 0.222294 0.186735
O O5 0.310898 0.955177 0.492575
O O6 0.060442 0.908582 0.702691
O O7 0.057965 0.000000 0.697435
O O8 0.000000 0.954801 0.000000
O O9 0.500000 0.044356 0.500000
O O10 0.594641 0.088807 0.162109
O O11 0.594515 0.000000 0.157610
O O12 0.182934 0.363579 0.511493
O O13 0.000000 0.362992 0.500000
O O14 0.875580 0.326749 0.891072
O O15 0.750000 0.750000 0.000000
O O16 0.500000 0.358130 0.000000
#
# Coordination Sequence:
#
# PCOD9194702 Si02
#       6
#     8   8   8   8   8   8
#     4  10  23  41  61  81 115 151 191 243 292 347
#     4   8  14  28  49  77 114 149 185 232 278 333
#     4   8  14  26  46  76 110 145 184 230 282 331
#     4  10  20  34  57  84 119 152 189 242 287 342
#     4  10  22  40  61  82 111 155 194 234 292 347
#     4  10  22  35  58  92 116 150 200 239 290 342
#
# _framework density 22.072807000000001
#
# number of rings (size 3 to 8) (size 9 to 14) (size 15 to 20)
#    0.000    2.667    0.000    1.500    7.000    1.333 
#    0.000    0.000    0.000    1.500    0.000    4.667 
#    0.000    0.000    0.000    0.000    0.000    0.000 
#
# Total GULP energy -133839.597313 kJ/mol
# GULP energy per Si atom -5576.649888 kJ/mol
# Density = 2.202257 g / cm^3
# Si number density = 22.072807 Si / 1000 Ang^3
#
#
#
# Elastic Constant Matrix: (Units=GPa)
#
#
# Indices 1 2 3 4 5 6 
#
# 1 42.9596 16.6513 7.3491 0.0000 3.8423 0.0000
# 2 16.6513 245.3831 68.4762 0.0000 21.1898 0.0000
# 3 7.3491 68.4762 86.5428 0.0000 7.1319 0.0000
# 4 0.0000 0.0000 0.0000 24.6669 0.0000 3.8792
# 5 3.8423 21.1898 7.1319 0.0000 24.2680 0.0000
# 6 0.0000 0.0000 0.0000 3.8792 0.0000 12.4832
#
#
#
# Elastic Compliance Matrix: (Units=1/GPa)
#
#
# Indices 1 2 3 4 5 6 
#
# 1 0.024112 -0.001161 -0.000920 0.000000 -0.002534 0.000000
# 2 -0.001161 0.005581 -0.004028 0.000000 -0.003505 0.000000
# 3 -0.000920 -0.004028 0.014879 0.000000 -0.000710 0.000000
# 4 0.000000 0.000000 0.000000 0.042623 0.000000 -0.013245
# 5 -0.002534 -0.003505 -0.000710 0.000000 0.044877 0.000000
# 6 0.000000 0.000000 0.000000 -0.013245 0.000000 0.084224
#
#
# Mechanical properties :
#
#
# Convention : Reuss Voigt Hill
#
# Bulk Modulus (GPa) = 30.90932 62.20431 46.55682
# Shear Modulus (GPa) = 20.89440 31.11088 26.00264
#
# Velocity S-wave (km/s) = 3.08004 3.75836 3.43598
# Velocity P-wave (km/s) = 5.16553 6.86122 6.07285
#
# Compressibility (1/GPa) = 0.03235270
#
# Stress axis : x y z
#
# Youngs Moduli (GPa) = 41.47389 179.18373 67.20870
#
# Poissons Ratio (x) = 0.20794 0.06186
# Poissons Ratio (y) = 0.04813 0.27074
# Poissons Ratio (z) = 0.03818 0.72182
#
# Static dielectric constant tensor:
#      x y z
#    x 1.963890 0.000000 -0.101990 
#    y 0.000000 1.865210 0.000000 
#    z -0.101990 0.000000 1.898020 
# 
# From -- ./inp_files/68037.got.cif
#   From: 2010.05.17/outbox.cif.g08.bks.cpg/sg12_35_cif.got.tgz:68037.got - 2010.06.03 13:09:07.
