data_PCOD9194750
_publ_section_title
;
Structure prediction by ZEFSAII (Michael W. Deem and Ramdas Pophale) SiO2 
 PCOD9194750
Probable space group: C 2/M
;
_chemical_formula_sum "Si O2"
_cell_formula_units_Z 64
_cell_length_a 29.242956
_cell_length_b 7.714628
_cell_length_c 12.996073
_cell_angle_alpha 90.000000
_cell_angle_beta 85.096316
_cell_angle_gamma 90.000000
_cell_volume 2921.163612
_symmetry_space_group_name_H-M "C 2/M"
_symmetry_group_IT_number 12
_symmetry_cell_setting 'monoclinic'
loop_
_space_group_symop_operation_xyz
x,y,z
-x,y,-z
-x,-y,-z
x,-y,z
1/2+x,1/2+y,z
1/2-x,1/2+y,-z
1/2-x,1/2-y,-z
1/2+x,1/2-y,z
loop_
_atom_site_type_symbol
_atom_site_label
_atom_site_fract_x
_atom_site_fract_y
_atom_site_fract_z
Si Si1 0.549437 0.709397 0.723276
Si Si2 0.196697 0.706941 0.778615
Si Si3 0.468969 0.205251 0.599078
Si Si4 0.449683 0.288042 0.042509
Si Si5 0.296333 0.701267 0.819058
Si Si6 0.134414 0.299276 0.367897
Si Si7 0.360766 0.702961 0.408800
Si Si8 0.146754 0.790978 0.000549
O O1 0.550652 0.500000 0.721315
O O2 0.500033 0.767724 0.693138
O O3 0.558444 0.764448 0.837941
O O4 0.590051 0.773136 0.640940
O O5 0.198461 0.500000 0.765185
O O6 0.247710 0.776788 0.792772
O O7 0.174170 0.777682 0.678866
O O8 0.166276 0.749027 0.884351
O O9 0.500000 0.279499 0.500000
O O10 0.417518 0.274849 0.619348
O O11 0.463688 0.000000 0.580131
O O12 0.450265 0.500000 0.039543
O O13 0.500000 0.228563 0.000000
O O14 0.406079 0.230265 0.984136
O O15 0.286547 0.500000 0.845474
O O16 0.332402 0.709430 0.719303
O O17 0.320222 0.778200 0.916133
O O18 0.132080 0.500000 0.336625
O O19 0.152519 0.288490 0.481225
O O20 0.366214 0.500000 0.429781
O O21 0.145574 0.000000 0.010612
#
# Coordination Sequence:
#
# PCOD9194750 Si02
#       8
#     8   8   8   8   8   8   8   8
#     4  10  20  34  57  87 114 151 202 245 287 344
#     4  11  23  40  63  91 120 154 200 251 310 366
#     4  10  21  37  56  81 118 156 189 231 290 352
#     4   9  18  33  55  87 120 151 191 240 292 343
#     4  10  24  42  62  89 120 159 203 251 304 358
#     4  11  24  41  61  88 123 162 200 245 304 362
#     4  11  22  39  63  90 120 156 205 254 297 355
#     4  10  20  39  64  89 121 158 202 250 294 351
#
# _framework density 21.909077
#
# number of rings (size 3 to 8) (size 9 to 14) (size 15 to 20)
#    0.000    1.750    2.500    1.500    1.750    3.750 
#    0.000    0.000    0.000    0.750    0.000    0.000 
#    0.000    0.000    0.000    0.000    0.000    0.000 
#
# Total GULP energy -178822.212246 kJ/mol
# GULP energy per Si atom -5588.194133 kJ/mol
# Density = 2.185921 g / cm^3
# Si number density = 21.909077 Si / 1000 Ang^3
#
#
#
# Elastic Constant Matrix: (Units=GPa)
#
#
# Indices 1 2 3 4 5 6 
#
# 1 138.1693 -5.3738 27.9898 0.0000 23.5753 0.0000
# 2 -5.3738 37.7498 -15.5635 0.0000 1.2091 0.0000
# 3 27.9898 -15.5635 65.9767 0.0000 24.5179 0.0000
# 4 0.0000 0.0000 0.0000 57.5315 0.0000 -36.6691
# 5 23.5753 1.2091 24.5179 0.0000 34.7900 0.0000
# 6 0.0000 0.0000 0.0000 -36.6691 0.0000 54.2198
#
#
#
# Elastic Compliance Matrix: (Units=1/GPa)
#
#
# Indices 1 2 3 4 5 6 
#
# 1 0.008378 0.000614 -0.001750 0.000000 -0.004465 0.000000
# 2 0.000614 0.031126 0.010349 0.000000 -0.008791 0.000000
# 3 -0.001750 0.010349 0.024432 0.000000 -0.016392 0.000000
# 4 0.000000 0.000000 0.000000 0.030551 0.000000 0.020662
# 5 -0.004465 -0.008791 -0.016392 0.000000 0.043627 0.000000
# 6 0.000000 0.000000 0.000000 0.020662 0.000000 0.032417
#
#
# Mechanical properties :
#
#
# Convention : Reuss Voigt Hill
#
# Bulk Modulus (GPa) = 12.14156 28.44452 20.29304
# Shear Modulus (GPa) = 27.84597 44.96447 36.40522
#
# Velocity S-wave (km/s) = 3.56895 4.53517 4.08076
# Velocity P-wave (km/s) = 4.74731 6.35884 5.61123
#
# Compressibility (1/GPa) = 0.08236175
#
# Stress axis : x y z
#
# Youngs Moduli (GPa) = 119.36354 32.12761 40.92988
#
# Poissons Ratio (x) = -0.01973 0.07162
# Poissons Ratio (y) = -0.07331 -0.42358
# Poissons Ratio (z) = 0.20888 -0.33248
#
# Static dielectric constant tensor:
#      x y z
#    x 1.814260 0.000000 0.023140 
#    y 0.000000 1.989360 0.000000 
#    z 0.023140 0.000000 1.780890 
# 
# From -- ./inp_files/187478.got.cif
#   From: 2010.05.17/outbox.cif.g08.bks.cpg/sg12_94_cif.got.tgz:187478.got - 2010.06.03 13:09:07.
