data_PCOD9194660
_publ_section_title
;
Structure prediction by ZEFSAII (Michael W. Deem and Ramdas Pophale) SiO2 
 PCOD9194660
Probable space group: C 2/M
;
_chemical_formula_sum "Si O2"
_cell_formula_units_Z 56
_cell_length_a 18.991735
_cell_length_b 18.389528
_cell_length_c 9.489665
_cell_angle_alpha 90.000000
_cell_angle_beta 64.401383
_cell_angle_gamma 90.000000
_cell_volume 2988.938802
_symmetry_space_group_name_H-M "C 2/M"
_symmetry_group_IT_number 12
_symmetry_cell_setting 'monoclinic'
loop_
_space_group_symop_operation_xyz
x,y,z
-x,y,-z
-x,-y,-z
x,-y,z
1/2+x,1/2+y,z
1/2-x,1/2+y,-z
1/2-x,1/2-y,-z
1/2+x,1/2-y,z
loop_
_atom_site_type_symbol
_atom_site_label
_atom_site_fract_x
_atom_site_fract_y
_atom_site_fract_z
Si Si1 0.187560 0.815549 0.030486
Si Si2 0.919221 0.580875 0.981320
Si Si3 0.591584 0.224951 0.893959
Si Si4 0.911060 0.192081 0.616152
Si Si5 0.076398 0.366677 0.346375
Si Si6 0.753496 0.584637 0.742088
Si Si7 0.321638 0.303796 0.412041
O O1 0.127546 0.780777 0.972383
O O2 0.229681 0.881195 0.913777
O O3 0.250000 0.750000 0.000000
O O4 0.136590 0.837948 0.208921
O O5 0.884287 0.500000 0.006788
O O6 0.931510 0.609417 0.810614
O O7 0.874045 0.645052 0.101904
O O8 0.000000 0.574696 0.000000
O O9 0.613192 0.255408 0.723843
O O10 0.500000 0.221814 0.000000
O O11 0.913642 0.279350 0.646475
O O12 0.858479 0.174091 0.527031
O O13 0.000000 0.170425 0.500000
O O14 0.153630 0.402366 0.345323
O O15 0.000000 0.387975 0.500000
O O16 0.735057 0.500000 0.748037
O O17 0.709148 0.631690 0.661249
O O18 0.250000 0.250000 0.500000
#
# Coordination Sequence:
#
# PCOD9194660 Si02
#       7
#     8   8   8   8   8   8   8
#     4  11  19  38  60  88 117 157 207 253 300 365
#     4  10  21  34  50  80 123 165 199 241 296 362
#     4  10  20  34  57  79 111 157 205 253 297 358
#     4  11  21  36  65  96 118 154 207 268 318 356
#     4  11  22  37  60  92 126 161 206 247 303 376
#     4  11  24  41  63  89 128 173 205 249 317 376
#     4  11  22  39  60  90 124 157 209 261 307 364
#
# _framework density 18.735747
#
# number of rings (size 3 to 8) (size 9 to 14) (size 15 to 20)
#    0.000    1.286    4.286    2.143    6.000    1.143 
#    0.000    2.857    0.000   16.286    0.000    0.000 
#    0.000    0.000    0.000    0.000    0.000    0.000 
#
# Total GULP energy -156240.520859 kJ/mol
# GULP energy per Si atom -5580.018602 kJ/mol
# Density = 1.869310 g / cm^3
# Si number density = 18.735747 Si / 1000 Ang^3
#
#
#
# Elastic Constant Matrix: (Units=GPa)
#
#
# Indices 1 2 3 4 5 6 
#
# 1 76.9493 17.7749 19.1039 0.0000 -4.1670 0.0000
# 2 17.7749 107.0164 35.6910 0.0000 -6.8926 0.0000
# 3 19.1039 35.6910 71.3172 0.0000 -5.9831 0.0000
# 4 0.0000 0.0000 0.0000 13.6779 0.0000 1.1331
# 5 -4.1670 -6.8926 -5.9831 0.0000 37.7956 0.0000
# 6 0.0000 0.0000 0.0000 1.1331 0.0000 12.8072
#
#
#
# Elastic Compliance Matrix: (Units=1/GPa)
#
#
# Indices 1 2 3 4 5 6 
#
# 1 0.014096 -0.001262 -0.003074 0.000000 0.000837 0.000000
# 2 -0.001262 0.011381 -0.005265 0.000000 0.001103 0.000000
# 3 -0.003074 -0.005265 0.017605 0.000000 0.001488 0.000000
# 4 0.000000 0.000000 0.000000 0.073651 0.000000 -0.006516
# 5 0.000837 0.001103 0.001488 0.000000 0.026987 0.000000
# 6 0.000000 0.000000 0.000000 -0.006516 0.000000 0.078657
#
#
# Mechanical properties :
#
#
# Convention : Reuss Voigt Hill
#
# Bulk Modulus (GPa) = 41.87708 44.49138 43.18423
# Shear Modulus (GPa) = 20.03697 25.03701 22.53699
#
# Velocity S-wave (km/s) = 3.27379 3.65954 3.47203
# Velocity P-wave (km/s) = 6.05725 6.45404 6.25879
#
# Compressibility (1/GPa) = 0.02387941
#
# Stress axis : x y z
#
# Youngs Moduli (GPa) = 70.94412 87.86600 56.80195
#
# Poissons Ratio (x) = 0.11089 0.17461
# Poissons Ratio (y) = 0.08954 0.29907
# Poissons Ratio (z) = 0.21808 0.46262
#
# Static dielectric constant tensor:
#      x y z
#    x 1.708210 0.000000 0.005730 
#    y 0.000000 1.658400 0.000000 
#    z 0.005730 0.000000 1.686120 
# 
# From -- ./inp_files/87822.got.cif
#   From: 2010.05.17/outbox.cif.g08.bks.cpg/sg12_44_cif.got.tgz:87822.got - 2010.06.03 13:09:07.
