data_PCOD9194706
_publ_section_title
;
Structure prediction by ZEFSAII (Michael W. Deem and Ramdas Pophale) SiO2 
 PCOD9194706
Probable space group: C 2/M
;
_chemical_formula_sum "Si O2"
_cell_formula_units_Z 48
_cell_length_a 24.361415
_cell_length_b 9.452046
_cell_length_c 14.590721
_cell_angle_alpha 90.000000
_cell_angle_beta 137.886258
_cell_angle_gamma 90.000000
_cell_volume 2253.053946
_symmetry_space_group_name_H-M "C 2/M"
_symmetry_group_IT_number 12
_symmetry_cell_setting 'monoclinic'
loop_
_space_group_symop_operation_xyz
x,y,z
-x,y,-z
-x,-y,-z
x,-y,z
1/2+x,1/2+y,z
1/2-x,1/2+y,-z
1/2-x,1/2-y,-z
1/2+x,1/2-y,z
loop_
_atom_site_type_symbol
_atom_site_label
_atom_site_fract_x
_atom_site_fract_y
_atom_site_fract_z
Si Si1 0.851652 0.331559 0.302544
Si Si2 0.189042 0.338641 0.545067
Si Si3 0.074871 0.831295 0.286618
Si Si4 0.185655 0.663783 0.065425
Si Si5 0.553678 0.835883 0.750926
Si Si6 0.376364 0.336093 0.848093
O O1 0.836799 0.500000 0.272010
O O2 0.861535 0.310549 0.423464
O O3 0.770839 0.246762 0.173183
O O4 0.926155 0.293658 0.328093
O O5 0.173872 0.500000 0.495574
O O6 0.159342 0.229405 0.432720
O O7 0.283245 0.330936 0.692883
O O8 0.068775 0.795052 0.171147
O O9 0.006902 0.760116 0.265916
O O10 0.073276 0.000000 0.290713
O O11 0.199219 0.500000 0.106187
O O12 0.127139 0.736420 0.068655
O O13 0.140028 0.670116 0.912049
O O14 0.525935 0.000000 0.718226
O O15 0.393031 0.500000 0.894437
#
# Coordination Sequence:
#
# PCOD9194706 Si02
#       6
#     8   8   8   8   8   8
#     4   9  19  37  59  80 106 142 178 213 262 323
#     4   9  18  35  58  79 102 137 178 219 265 318
#     4  11  23  36  53  79 109 142 180 222 265 310
#     4  10  20  34  57  85 107 134 177 226 266 304
#     4  10  22  38  54  77 111 147 178 211 262 323
#     4   9  20  38  57  78 106 142 179 215 266 324
#
# _framework density 21.304416
#
# number of rings (size 3 to 8) (size 9 to 14) (size 15 to 20)
#    0.000    2.333    0.000    3.000    0.000    7.333 
#    0.000    6.667    0.000    0.000    0.000    0.000 
#    0.000    0.000    0.000    0.000    0.000    0.000 
#
# Total GULP energy -134114.676151 kJ/mol
# GULP energy per Si atom -5588.111506 kJ/mol
# Density = 2.125593 g / cm^3
# Si number density = 21.304416 Si / 1000 Ang^3
#
#
#
# Elastic Constant Matrix: (Units=GPa)
#
#
# Indices 1 2 3 4 5 6 
#
# 1 135.6848 48.1051 6.8428 0.0000 -20.2017 0.0000
# 2 48.1051 52.6528 17.6231 0.0000 -14.2548 0.0000
# 3 6.8428 17.6231 43.3890 0.0000 -6.2169 0.0000
# 4 0.0000 0.0000 0.0000 25.7408 0.0000 -0.2667
# 5 -20.2017 -14.2548 -6.2169 0.0000 32.0640 0.0000
# 6 0.0000 0.0000 0.0000 -0.2667 0.0000 32.3842
#
#
#
# Elastic Compliance Matrix: (Units=1/GPa)
#
#
# Indices 1 2 3 4 5 6 
#
# 1 0.011438 -0.010606 0.002943 0.000000 0.003062 0.000000
# 2 -0.010606 0.034176 -0.011303 0.000000 0.006320 0.000000
# 3 0.002943 -0.011303 0.027483 0.000000 0.002158 0.000000
# 4 0.000000 0.000000 0.000000 0.038852 0.000000 0.000320
# 5 0.003062 0.006320 0.002158 0.000000 0.036345 0.000000
# 6 0.000000 0.000000 0.000000 0.000320 0.000000 0.030882
#
#
# Mechanical properties :
#
#
# Convention : Reuss Voigt Hill
#
# Bulk Modulus (GPa) = 28.43753 41.87427 35.15590
# Shear Modulus (GPa) = 21.85034 28.64819 25.24926
#
# Velocity S-wave (km/s) = 3.20601 3.67100 3.44636
# Velocity P-wave (km/s) = 5.20402 6.13728 5.68982
#
# Compressibility (1/GPa) = 0.03516480
#
# Stress axis : x y z
#
# Youngs Moduli (GPa) = 87.43130 29.26019 36.38581
#
# Poissons Ratio (x) = 0.31032 -0.10707
# Poissons Ratio (y) = 0.92726 0.41127
# Poissons Ratio (z) = -0.25727 0.33073
#
# Static dielectric constant tensor:
#      x y z
#    x 1.821510 0.000000 0.037880 
#    y 0.000000 1.699490 0.000000 
#    z 0.037880 0.000000 1.790020 
# 
# From -- ./inp_files/244895.got.cif
#   From: 2010.05.17/outbox.cif.g08.bks.cpg/sg12_123_cif.got.tgz:244895.got - 2010.06.03 13:09:07.
