data_PCOD9194113
_publ_section_title
;
Structure prediction by ZEFSAII (Michael W. Deem and Ramdas Pophale) SiO2 
 PCOD9194113
Probable space group: C 2/M
;
_chemical_formula_sum "Si O2"
_cell_formula_units_Z 64
_cell_length_a 15.512100
_cell_length_b 8.541694
_cell_length_c 26.506143
_cell_angle_alpha 90.000000
_cell_angle_beta 107.158207
_cell_angle_gamma 90.000000
_cell_volume 3355.745505
_symmetry_space_group_name_H-M "C 2/M"
_symmetry_group_IT_number 12
_symmetry_cell_setting 'monoclinic'
loop_
_space_group_symop_operation_xyz
x,y,z
-x,y,-z
-x,-y,-z
x,-y,z
1/2+x,1/2+y,z
1/2-x,1/2+y,-z
1/2-x,1/2-y,-z
1/2+x,1/2-y,z
loop_
_atom_site_type_symbol
_atom_site_label
_atom_site_fract_x
_atom_site_fract_y
_atom_site_fract_z
Si Si1 0.693832 0.810726 0.942563
Si Si2 0.940685 0.313227 0.331029
Si Si3 0.700386 0.675125 0.444331
Si Si4 0.996501 0.689027 0.940488
Si Si5 0.992745 0.821636 0.442934
Si Si6 0.691043 0.689103 0.133445
Si Si7 0.249099 0.808844 0.254388
Si Si8 0.634011 0.690295 0.330243
O O1 0.590001 0.761606 0.930638
O O2 0.741134 0.757998 0.899131
O O3 0.695696 0.000000 0.944177
O O4 0.750000 0.750000 0.000000
O O5 0.945363 0.500000 0.328618
O O6 0.939372 0.265684 0.389843
O O7 0.849401 0.258641 0.288015
O O8 0.031808 0.245257 0.321912
O O9 0.737340 0.500000 0.445583
O O10 0.750000 0.750000 0.500000
O O11 0.595093 0.668959 0.440895
O O12 0.696404 0.748760 0.387853
O O13 0.991237 0.500000 0.938409
O O14 0.908633 0.756363 0.898622
O O15 0.000000 0.736675 0.000000
O O16 0.000000 0.750086 0.500000
O O17 0.957335 0.000000 0.442197
O O18 0.692456 0.500000 0.134122
O O19 0.721196 0.744200 0.193900
O O20 0.177593 0.761249 0.284965
O O21 0.249704 0.000000 0.254282
O O22 0.634171 0.500000 0.333059
#
# Coordination Sequence:
#
# PCOD9194113 Si02
#       8
#     8   8   8   8   8   8   8   8
#     4  10  20  34  55  81 112 147 180 222 274 321
#     4  10  20  35  57  83 108 138 182 234 276 318
#     4   9  18  30  48  73 100 131 168 213 265 319
#     4  10  20  35  55  81 116 150 178 221 278 322
#     4   9  19  35  52  74 107 143 175 216 275 335
#     4  10  21  37  57  83 110 144 190 227 263 322
#     4   9  20  38  58  79 109 147 184 224 272 324
#     4   9  19  38  57  73 105 148 180 215 275 336
#
# _framework density 19.071767000000001
#
# number of rings (size 3 to 8) (size 9 to 14) (size 15 to 20)
#    0.000    2.500    1.250    1.125    1.750    4.000 
#    0.000    4.375    0.000    0.000    0.000    0.000 
#    0.000    0.000    0.000    0.000    0.000    0.000 
#
# Total GULP energy -178463.338828 kJ/mol
# GULP energy per Si atom -5576.979338 kJ/mol
# Density = 1.902836 g / cm^3
# Si number density = 19.071767 Si / 1000 Ang^3
#
#
#
# Elastic Constant Matrix: (Units=GPa)
#
#
# Indices 1 2 3 4 5 6 
#
# 1 137.4853 18.0762 104.0010 0.0000 -3.3382 0.0000
# 2 18.0762 10.3000 25.2370 0.0000 1.2062 0.0000
# 3 104.0010 25.2370 212.4768 0.0000 -4.3720 0.0000
# 4 0.0000 0.0000 0.0000 22.8482 0.0000 3.3936
# 5 -3.3382 1.2062 -4.3720 0.0000 35.4841 0.0000
# 6 0.0000 0.0000 0.0000 3.3936 0.0000 20.3255
#
#
#
# Elastic Compliance Matrix: (Units=1/GPa)
#
#
# Indices 1 2 3 4 5 6 
#
# 1 0.012209 -0.009779 -0.004796 0.000000 0.000890 0.000000
# 2 -0.009779 0.146369 -0.012752 0.000000 -0.007467 0.000000
# 3 -0.004796 -0.012752 0.008590 0.000000 0.001041 0.000000
# 4 0.000000 0.000000 0.000000 0.044880 0.000000 -0.007493
# 5 0.000890 -0.007467 0.001041 0.000000 0.028647 0.000000
# 6 0.000000 0.000000 0.000000 -0.007493 0.000000 0.050450
#
#
# Mechanical properties :
#
#
# Convention : Reuss Voigt Hill
#
# Bulk Modulus (GPa) = 8.88785 72.76561 40.82673
# Shear Modulus (GPa) = 13.04448 29.92809 21.48628
#
# Velocity S-wave (km/s) = 2.61812 3.96565 3.36013
# Velocity P-wave (km/s) = 3.71614 7.69448 6.04213
#
# Compressibility (1/GPa) = 0.11251314
#
# Stress axis : x y z
#
# Youngs Moduli (GPa) = 81.90822 6.83206 116.41517
#
# Poissons Ratio (x) = 0.06681 0.55833
# Poissons Ratio (y) = 0.80099 1.48454
# Poissons Ratio (z) = 0.39283 0.08712
#
# Static dielectric constant tensor:
#      x y z
#    x 1.654970 0.000000 -0.019990 
#    y 0.000000 1.680530 0.000000 
#    z -0.019990 0.000000 1.664140 
# 
# From -- ./inp_files/359983.got.cif
#   From: 2010.05.17/outbox.cif.g08.bks.cpg/sg12_180_cif.got.tgz:359983.got - 2010.06.03 13:09:07.
