data_PCOD9194931
_publ_section_title
;
Structure prediction by ZEFSAII (Michael W. Deem and Ramdas Pophale) SiO2 
 PCOD9194931
Probable space group: C 2/M
;
_chemical_formula_sum "Si O2"
_cell_formula_units_Z 48
_cell_length_a 18.893997
_cell_length_b 11.833675
_cell_length_c 15.174683
_cell_angle_alpha 90.000000
_cell_angle_beta 37.666976
_cell_angle_gamma 90.000000
_cell_volume 2073.264475
_symmetry_space_group_name_H-M "C 2/M"
_symmetry_group_IT_number 12
_symmetry_cell_setting 'monoclinic'
loop_
_space_group_symop_operation_xyz
x,y,z
-x,y,-z
-x,-y,-z
x,-y,z
1/2+x,1/2+y,z
1/2-x,1/2+y,-z
1/2-x,1/2-y,-z
1/2+x,1/2-y,z
loop_
_atom_site_type_symbol
_atom_site_label
_atom_site_fract_x
_atom_site_fract_y
_atom_site_fract_z
Si Si1 0.337794 0.629980 0.761417
Si Si2 0.686894 0.121319 0.462460
Si Si3 0.647739 0.870716 0.292698
Si Si4 0.620100 0.131050 0.845058
Si Si5 0.353399 0.373374 0.948707
Si Si6 0.596321 0.730868 0.700313
O O1 0.385894 0.500000 0.701170
O O2 0.408696 0.746371 0.670857
O O3 0.225175 0.638914 0.810053
O O4 0.303842 0.636155 0.898299
O O5 0.680597 0.131692 0.363328
O O6 0.620506 0.217222 0.581449
O O7 0.819192 0.126336 0.365751
O O8 0.636325 0.000000 0.537224
O O9 0.597668 0.000000 0.327929
O O10 0.757464 0.865399 0.118662
O O11 0.644436 0.185438 0.727523
O O12 0.598721 0.000000 0.849920
O O13 0.500000 0.182084 0.000000
O O14 0.402734 0.500000 0.906885
O O15 0.461874 0.290852 0.847757
#
# Coordination Sequence:
#
# PCOD9194931 Si02
#       6
#     8   8   8   8   8   8
#     4  10  20  38  60  90 129 164 205 254 313 372
#     4  10  22  38  59  86 121 162 204 258 314 371
#     4  10  20  38  62  92 124 159 203 253 316 370
#     4  10  20  34  58  90 122 158 204 255 305 363
#     4  10  22  38  63  94 122 159 206 261 314 369
#     4  11  21  37  60  86 118 158 209 255 309 368
#
# _framework density 23.151893000000001
#
# number of rings (size 3 to 8) (size 9 to 14) (size 15 to 20)
#    0.000    1.833    1.667    2.500    0.000    0.000 
#    0.000    6.667    0.000    4.000    0.000    0.000 
#    0.000    0.000    0.000    0.000    0.000    0.000 
#
# Total GULP energy -133861.311724 kJ/mol
# GULP energy per Si atom -5577.554655 kJ/mol
# Density = 2.309920 g / cm^3
# Si number density = 23.151893 Si / 1000 Ang^3
#
#
#
# Elastic Constant Matrix: (Units=GPa)
#
#
# Indices 1 2 3 4 5 6 
#
# 1 117.7070 36.4018 52.5889 0.0000 16.1281 0.0000
# 2 36.4018 163.3691 29.0030 0.0000 16.9836 0.0000
# 3 52.5889 29.0030 101.5367 0.0000 18.7098 0.0000
# 4 0.0000 0.0000 0.0000 -18.7483 0.0000 18.7437
# 5 16.1281 16.9836 18.7098 0.0000 36.8260 0.0000
# 6 0.0000 0.0000 0.0000 18.7437 0.0000 17.4850
#
#
#
# Elastic Compliance Matrix: (Units=1/GPa)
#
#
# Indices 1 2 3 4 5 6 
#
# 1 0.011520 -0.001460 -0.005234 0.000000 -0.001713 0.000000
# 2 -0.001460 0.006806 -0.000803 0.000000 -0.002092 0.000000
# 3 -0.005234 -0.000803 0.013568 0.000000 -0.004231 0.000000
# 4 0.000000 0.000000 0.000000 -0.025746 0.000000 0.027599
# 5 -0.001713 -0.002092 -0.004231 0.000000 0.031019 0.000000
# 6 0.000000 0.000000 0.000000 0.027599 0.000000 0.027606
#
#
# Mechanical properties :
#
#
# Convention : Reuss Voigt Hill
#
# Bulk Modulus (GPa) = 59.16410 68.73336 63.94873
# Shear Modulus (GPa) = 58.54696 24.75381 41.65039
#
# Velocity S-wave (km/s) = 5.03419 3.27340 4.24607
# Velocity P-wave (km/s) = 7.70721 6.63621 7.19167
#
# Compressibility (1/GPa) = 0.01690214
#
# Stress axis : x y z
#
# Youngs Moduli (GPa) = 86.80352 146.92221 73.70012
#
# Poissons Ratio (x) = 0.21445 0.38576
# Poissons Ratio (y) = 0.12670 0.05916
# Poissons Ratio (z) = 0.45434 0.11794
#
# Static dielectric constant tensor:
#      x y z
#    x 1.836440 0.000000 -0.038390 
#    y 0.000000 1.982240 0.000000 
#    z -0.038390 0.000000 1.861510 
# 
# From -- ./inp_files/232794.got.cif
#   From: 2010.05.17/outbox.cif.g08.bks.cpg/sg12_117_cif.got.tgz:232794.got - 2010.06.03 13:09:07.
