data_PCOD9194697
_publ_section_title
;
Structure prediction by ZEFSAII (Michael W. Deem and Ramdas Pophale) SiO2 
 PCOD9194697
Probable space group: C 2/M
;
_chemical_formula_sum "Si O2"
_cell_formula_units_Z 56
_cell_length_a 11.749287
_cell_length_b 20.090431
_cell_length_c 14.170873
_cell_angle_alpha 90.000000
_cell_angle_beta 132.132528
_cell_angle_gamma 90.000000
_cell_volume 2480.642771
_symmetry_space_group_name_H-M "C 2/M"
_symmetry_group_IT_number 12
_symmetry_cell_setting 'monoclinic'
loop_
_space_group_symop_operation_xyz
x,y,z
-x,y,-z
-x,-y,-z
x,-y,z
1/2+x,1/2+y,z
1/2-x,1/2+y,-z
1/2-x,1/2-y,-z
1/2+x,1/2-y,z
loop_
_atom_site_type_symbol
_atom_site_label
_atom_site_fract_x
_atom_site_fract_y
_atom_site_fract_z
Si Si1 0.774731 0.421845 0.545478
Si Si2 0.684807 0.830056 0.607053
Si Si3 0.444249 0.205917 0.114940
Si Si4 0.868142 0.609706 0.230696
Si Si5 0.412631 0.571974 0.037542
Si Si6 0.221476 0.822957 0.680358
Si Si7 0.136926 0.829687 0.838785
O O1 0.730216 0.500000 0.511225
O O2 0.746444 0.372249 0.441107
O O3 0.703489 0.382639 0.595801
O O4 0.962204 0.420016 0.660615
O O5 0.500000 0.833852 0.500000
O O6 0.716193 0.871424 0.719705
O O7 0.714219 0.750486 0.628662
O O8 0.390775 0.178559 0.186926
O O9 0.603990 0.171139 0.184135
O O10 0.466033 0.282819 0.151071
O O11 0.309456 0.192666 0.966250
O O12 0.759272 0.569623 0.100339
O O13 0.487443 0.500000 0.086902
O O14 0.500000 0.609100 0.000000
O O15 0.396246 0.600124 0.132773
O O16 0.118016 0.824914 0.716632
#
# Coordination Sequence:
#
# PCOD9194697 Si02
#       7
#     8   8   8   8   8   8   8
#     4  10  22  38  58  85 115 150 195 244 293 342
#     4  10  21  37  60  85 110 144 196 251 294 331
#     4   9  19  33  55  87 116 137 184 227 283 341
#     4   9  18  36  58  83 110 146 187 240 286 329
#     4  10  22  36  52  83 119 155 190 223 272 346
#     4  11  21  37  60  87 113 151 189 239 291 345
#     4  10  20  34  57  84 117 150 180 231 279 342
#
# _framework density 22.574793
#
# number of rings (size 3 to 8) (size 9 to 14) (size 15 to 20)
#    0.000    2.143    1.429    1.286    2.000    3.714 
#    0.000    0.000    0.000    5.571    0.000    0.000 
#    0.000    0.000    0.000    0.000    0.000    0.000 
#
# Total GULP energy -156072.467347 kJ/mol
# GULP energy per Si atom -5574.016691 kJ/mol
# Density = 2.252341 g / cm^3
# Si number density = 22.574793 Si / 1000 Ang^3
#
#
#
# Elastic Constant Matrix: (Units=GPa)
#
#
# Indices 1 2 3 4 5 6 
#
# 1 70.0666 28.6545 31.3903 0.0000 -28.0037 0.0000
# 2 28.6545 131.3254 27.9110 0.0000 -38.2148 0.0000
# 3 31.3903 27.9110 63.7877 0.0000 -24.4572 0.0000
# 4 0.0000 0.0000 0.0000 -6.9314 0.0000 10.6095
# 5 -28.0037 -38.2148 -24.4572 0.0000 47.5673 0.0000
# 6 0.0000 0.0000 0.0000 10.6095 0.0000 16.1730
#
#
#
# Elastic Compliance Matrix: (Units=1/GPa)
#
#
# Indices 1 2 3 4 5 6 
#
# 1 0.020910 -0.000719 -0.006822 0.000000 0.008225 0.000000
# 2 -0.000719 0.010096 -0.001390 0.000000 0.006973 0.000000
# 3 -0.006822 -0.001390 0.022014 0.000000 0.006186 0.000000
# 4 0.000000 0.000000 0.000000 -0.071988 0.000000 0.047224
# 5 0.008225 0.006973 0.006186 0.000000 0.034647 0.000000
# 6 0.000000 0.000000 0.000000 0.047224 0.000000 0.030853
#
#
# Mechanical properties :
#
#
# Convention : Reuss Voigt Hill
#
# Bulk Modulus (GPa) = 28.44337 49.01015 38.72676
# Shear Modulus (GPa) = 65.69196 23.17670 44.43433
#
# Velocity S-wave (km/s) = 5.40027 3.20763 4.44138
# Velocity P-wave (km/s) = 7.17710 5.95616 6.59495
#
# Compressibility (1/GPa) = 0.03515758
#
# Stress axis : x y z
#
# Youngs Moduli (GPa) = 47.82510 99.04788 45.42571
#
# Poissons Ratio (x) = 0.07124 0.30987
# Poissons Ratio (y) = 0.03440 0.06315
# Poissons Ratio (z) = 0.32624 0.13770
#
# Static dielectric constant tensor:
#      x y z
#    x 1.861890 0.000000 0.038450 
#    y 0.000000 1.925910 0.000000 
#    z 0.038450 0.000000 1.892690 
# 
# From -- ./inp_files/206751.got.cif
#   From: 2010.05.17/outbox.cif.g08.bks.cpg/sg12_104_cif.got.tgz:206751.got - 2010.06.03 13:09:07.
