data_PCOD9194193
_publ_section_title
;
Structure prediction by ZEFSAII (Michael W. Deem and Ramdas Pophale) SiO2 
 PCOD9194193
Probable space group: C 2/M
;
_chemical_formula_sum "Si O2"
_cell_formula_units_Z 56
_cell_length_a 25.353273
_cell_length_b 15.049500
_cell_length_c 8.623811
_cell_angle_alpha 90.000000
_cell_angle_beta 55.016989
_cell_angle_gamma 90.000000
_cell_volume 2695.938581
_symmetry_space_group_name_H-M "C 2/M"
_symmetry_group_IT_number 12
_symmetry_cell_setting 'monoclinic'
loop_
_space_group_symop_operation_xyz
x,y,z
-x,y,-z
-x,-y,-z
x,-y,z
1/2+x,1/2+y,z
1/2-x,1/2+y,-z
1/2-x,1/2-y,-z
1/2+x,1/2-y,z
loop_
_atom_site_type_symbol
_atom_site_label
_atom_site_fract_x
_atom_site_fract_y
_atom_site_fract_z
Si Si1 0.815288 0.402147 0.041267
Si Si2 0.359957 0.104277 0.299718
Si Si3 0.262844 0.796568 0.642390
Si Si4 0.965929 0.752001 0.209793
Si Si5 0.297220 0.604740 0.994967
Si Si6 0.123500 0.806419 0.388376
Si Si7 0.554935 0.845954 0.304578
O O1 0.788061 0.500000 0.117201
O O2 0.767327 0.366445 0.991769
O O3 0.886601 0.404204 0.851926
O O4 0.827260 0.365141 0.192442
O O5 0.307402 0.118394 0.522807
O O6 0.417760 0.171765 0.240279
O O7 0.378660 0.000000 0.255356
O O8 0.250000 0.750000 0.500000
O O9 0.205609 0.833153 0.847534
O O10 0.310030 0.729918 0.653092
O O11 0.924432 0.820620 0.384801
O O12 0.020235 0.705050 0.222987
O O13 0.000000 0.790086 0.000000
O O14 0.294279 0.500000 0.037952
O O15 0.355795 0.623061 0.777126
O O16 0.087613 0.727990 0.357803
O O17 0.500000 0.891582 0.500000
#
# Coordination Sequence:
#
# PCOD9194193 Si02
#       7
#     8   8   8   8   8   8   8
#     4  10  20  34  55  82 121 164 195 237 293 356
#     4  10  21  35  52  84 126 162 200 242 293 349
#     4  11  22  35  59  87 117 157 196 244 297 354
#     4  10  20  35  58  84 117 158 206 252 295 346
#     4  11  23  40  61  87 121 157 199 246 302 360
#     4  10  22  37  60  85 115 156 202 249 292 356
#     4  10  20  35  52  80 114 156 208 245 284 347
#
# _framework density 20.771985000000001
#
# number of rings (size 3 to 8) (size 9 to 14) (size 15 to 20)
#    0.000    1.714    2.857    1.714    2.000    1.143 
#    0.000    0.714    0.000    4.286    0.000    0.000 
#    0.000    0.000    0.000    0.000    0.000    0.000 
#
# Total GULP energy -156059.057858 kJ/mol
# GULP energy per Si atom -5573.537781 kJ/mol
# Density = 2.072471 g / cm^3
# Si number density = 20.771985 Si / 1000 Ang^3
#
#
#
# Elastic Constant Matrix: (Units=GPa)
#
#
# Indices 1 2 3 4 5 6 
#
# 1 58.3026 17.1631 5.7912 0.0000 18.6717 0.0000
# 2 17.1631 47.4890 37.4233 0.0000 1.7129 0.0000
# 3 5.7912 37.4233 162.8429 0.0000 -5.1791 0.0000
# 4 0.0000 0.0000 0.0000 24.1274 0.0000 1.7695
# 5 18.6717 1.7129 -5.1791 0.0000 34.6401 0.0000
# 6 0.0000 0.0000 0.0000 1.7695 0.0000 5.4984
#
#
#
# Elastic Compliance Matrix: (Units=1/GPa)
#
#
# Indices 1 2 3 4 5 6 
#
# 1 0.023511 -0.008666 0.000770 0.000000 -0.012129 0.000000
# 2 -0.008666 0.029072 -0.006300 0.000000 0.002292 0.000000
# 3 0.000770 -0.006300 0.007594 0.000000 0.001032 0.000000
# 4 0.000000 0.000000 0.000000 0.042448 0.000000 -0.013661
# 5 -0.012129 0.002292 0.001032 0.000000 0.035447 0.000000
# 6 0.000000 0.000000 0.000000 -0.013661 0.000000 0.186266
#
#
# Mechanical properties :
#
#
# Convention : Reuss Voigt Hill
#
# Bulk Modulus (GPa) = 31.46253 43.26553 37.36403
# Shear Modulus (GPa) = 13.76173 26.73699 20.24936
#
# Velocity S-wave (km/s) = 2.57673 3.59160 3.12563
# Velocity P-wave (km/s) = 4.90226 6.17037 5.57251
#
# Compressibility (1/GPa) = 0.03178384
#
# Stress axis : x y z
#
# Youngs Moduli (GPa) = 42.53306 34.39793 131.68069
#
# Poissons Ratio (x) = 0.29810 -0.10136
# Poissons Ratio (y) = 0.36860 0.82957
# Poissons Ratio (z) = -0.03274 0.21670
#
# Static dielectric constant tensor:
#      x y z
#    x 1.764020 0.000000 -0.002900 
#    y 0.000000 1.758240 0.000000 
#    z -0.002900 0.000000 1.845580 
# 
# From -- ./inp_files/104456.got.cif
#   From: 2010.05.17/outbox.cif.g08.bks.cpg/sg12_53_cif.got.tgz:104456.got - 2010.06.03 13:09:07.
