data_PCOD9194471
_publ_section_title
;
Structure prediction by ZEFSAII (Michael W. Deem and Ramdas Pophale) SiO2 
 PCOD9194471
Probable space group: C 2/M
;
_chemical_formula_sum "Si O2"
_cell_formula_units_Z 56
_cell_length_a 19.617066
_cell_length_b 9.147999
_cell_length_c 28.443931
_cell_angle_alpha 90.000000
_cell_angle_beta 38.557982
_cell_angle_gamma 90.000000
_cell_volume 3181.641875
_symmetry_space_group_name_H-M "C 2/M"
_symmetry_group_IT_number 12
_symmetry_cell_setting 'monoclinic'
loop_
_space_group_symop_operation_xyz
x,y,z
-x,y,-z
-x,-y,-z
x,-y,z
1/2+x,1/2+y,z
1/2-x,1/2+y,-z
1/2-x,1/2-y,-z
1/2+x,1/2-y,z
loop_
_atom_site_type_symbol
_atom_site_label
_atom_site_fract_x
_atom_site_fract_y
_atom_site_fract_z
Si Si1 0.071015 0.323567 0.007780
Si Si2 0.339410 0.828616 0.293206
Si Si3 0.174375 0.824640 0.134179
Si Si4 0.987495 0.824945 0.862928
Si Si5 0.494936 0.828172 0.709664
Si Si6 0.637122 0.825343 0.546348
Si Si7 0.382277 0.667974 0.539946
O O1 0.065719 0.500000 0.015944
O O2 0.028053 0.248480 0.078261
O O3 0.198774 0.281895 0.933557
O O4 0.000000 0.284738 0.000000
O O5 0.401928 0.731910 0.221403
O O6 0.406432 0.811605 0.305857
O O7 0.214494 0.790359 0.371981
O O8 0.345985 0.000000 0.276155
O O9 0.110837 0.781454 0.120270
O O10 0.106645 0.757578 0.213827
O O11 0.168634 0.000000 0.140025
O O12 0.987505 0.000000 0.866796
O O13 0.542037 0.779789 0.634131
O O14 0.467954 0.000000 0.721944
O O15 0.750000 0.750000 0.500000
O O16 0.614717 0.773100 0.506024
O O17 0.647563 0.000000 0.544095
O O18 0.500000 0.667977 0.500000
O O19 0.356399 0.500000 0.538684
#
# Coordination Sequence:
#
# PCOD9194471 Si02
#       7
#     8   8   8   8   8   8   8
#     4  10  21  38  57  78 108 143 177 213 262 323
#     4   9  17  34  56  78 108 142 180 222 269 323
#     4   9  19  35  56  82 107 135 178 223 262 316
#     4  10  20  34  56  84 107 134 177 223 269 316
#     4   9  18  33  54  81 109 139 177 224 274 321
#     4  11  21  35  57  83 113 147 189 233 279 330
#     4  10  21  38  57  80 111 149 192 233 278 332
#
# _framework density 17.600974999999998
#
# number of rings (size 3 to 8) (size 9 to 14) (size 15 to 20)
#    0.000    2.286    1.429    1.286    0.000    3.429 
#    2.571    0.000    0.000    0.000    0.000    0.000 
#    0.000    0.000    0.000    0.000    0.000    0.000 
#
# Total GULP energy -156210.877975 kJ/mol
# GULP energy per Si atom -5578.959928 kJ/mol
# Density = 1.756091 g / cm^3
# Si number density = 17.600975 Si / 1000 Ang^3
#
#
#
# Elastic Constant Matrix: (Units=GPa)
#
#
# Indices 1 2 3 4 5 6 
#
# 1 82.8231 39.6832 78.7780 0.0000 2.1694 0.0001
# 2 39.6832 39.2474 54.2537 0.0000 7.6449 0.0001
# 3 78.7780 54.2537 168.1028 0.0000 2.6742 -0.0001
# 4 0.0000 0.0000 0.0000 34.2511 0.0000 6.3278
# 5 2.1694 7.6449 2.6742 0.0000 22.1737 0.0000
# 6 0.0001 0.0001 -0.0001 6.3278 0.0000 23.2125
#
#
#
# Elastic Compliance Matrix: (Units=1/GPa)
#
#
# Indices 1 2 3 4 5 6 
#
# 1 0.027832 -0.019788 -0.006735 0.000000 0.004912 0.000000
# 2 -0.019788 0.064936 -0.011381 0.000000 -0.019080 0.000000
# 3 -0.006735 -0.011381 0.012729 0.000000 0.003047 0.000000
# 4 0.000000 0.000000 0.000000 0.030745 0.000000 -0.008381
# 5 0.004912 -0.019080 0.003047 0.000000 0.050829 0.000000
# 6 0.000000 0.000000 0.000000 -0.008381 0.000000 0.045365
#
#
# Mechanical properties :
#
#
# Convention : Reuss Voigt Hill
#
# Bulk Modulus (GPa) = 33.68101 70.62256 52.15179
# Shear Modulus (GPa) = 15.71638 23.75801 19.73720
#
# Velocity S-wave (km/s) = 2.99143 3.67796 3.35232
# Velocity P-wave (km/s) = 5.57754 7.63203 6.68419
#
# Compressibility (1/GPa) = 0.02969032
#
# Stress axis : x y z
#
# Youngs Moduli (GPa) = 35.92964 15.39980 78.55908
#
# Poissons Ratio (x) = 0.30474 0.52906
# Poissons Ratio (y) = 0.71099 0.89405
# Poissons Ratio (z) = 0.24197 0.17526
#
# Static dielectric constant tensor:
#      x y z
#    x 1.588030 0.000000 -0.006680 
#    y 0.000000 1.594320 0.000000 
#    z -0.006680 0.000000 1.585070 
# 
# From -- ./inp_files/362957.got.cif
#   From: 2010.05.17/outbox.cif.g08.bks.cpg/sg12_182_cif.got.tgz:362957.got - 2010.06.03 13:09:07.
