data_PCOD9194663
_publ_section_title
;
Structure prediction by ZEFSAII (Michael W. Deem and Ramdas Pophale) SiO2 
 PCOD9194663
Probable space group: C 2/M
;
_chemical_formula_sum "Si O2"
_cell_formula_units_Z 48
_cell_length_a 20.111169
_cell_length_b 17.985075
_cell_length_c 14.071095
_cell_angle_alpha 90.000000
_cell_angle_beta 25.489561
_cell_angle_gamma 90.000000
_cell_volume 2190.261068
_symmetry_space_group_name_H-M "C 2/M"
_symmetry_group_IT_number 12
_symmetry_cell_setting 'monoclinic'
loop_
_space_group_symop_operation_xyz
x,y,z
-x,y,-z
-x,-y,-z
x,-y,z
1/2+x,1/2+y,z
1/2-x,1/2+y,-z
1/2-x,1/2-y,-z
1/2+x,1/2-y,z
loop_
_atom_site_type_symbol
_atom_site_label
_atom_site_fract_x
_atom_site_fract_y
_atom_site_fract_z
Si Si1 0.363831 0.621851 0.729924
Si Si2 0.222738 0.703496 0.438047
Si Si3 0.227613 0.084669 0.942340
Si Si4 0.822418 0.657881 0.211371
Si Si5 0.873539 0.911963 0.361856
Si Si6 0.094148 0.278562 0.249763
O O1 0.500000 0.579186 0.500000
O O2 0.295440 0.586271 0.913101
O O3 0.230734 0.637217 0.825322
O O4 0.448326 0.699233 0.651234
O O5 0.250000 0.750000 0.500000
O O6 0.301720 0.753598 0.255309
O O7 0.296489 0.625210 0.369158
O O8 0.043384 0.698337 0.642291
O O9 0.056193 0.105921 0.127341
O O10 0.265915 0.000000 0.863588
O O11 0.350334 0.149916 0.761614
O O12 0.712183 0.618863 0.432629
O O13 0.000000 0.637530 0.000000
O O14 0.858479 0.000000 0.381456
O O15 0.250000 0.250000 0.000000
#
# Coordination Sequence:
#
# PCOD9194663 Si02
#       6
#     8   8   8   8   8   8
#     4  11  19  36  56  82 111 141 179 230 277 316
#     4  10  20  36  54  78 109 145 186 223 264 321
#     4  10  22  37  57  82 110 148 184 220 271 328
#     4  11  23  34  55  85 111 143 181 225 276 323
#     4  10  22  39  55  78 115 151 181 219 270 328
#     4  10  20  34  57  80 104 144 188 225 265 319
#
# _framework density 21.915196000000002
#
# number of rings (size 3 to 8) (size 9 to 14) (size 15 to 20)
#    0.000    1.667    3.333    3.000   11.667    2.000 
#    0.000    0.000    0.000    2.000    0.000    0.000 
#    0.000    0.000    0.000    0.000    0.000    0.000 
#
# Total GULP energy -133911.945225 kJ/mol
# GULP energy per Si atom -5579.664384 kJ/mol
# Density = 2.186532 g / cm^3
# Si number density = 21.915196 Si / 1000 Ang^3
#
#
#
# Elastic Constant Matrix: (Units=GPa)
#
#
# Indices 1 2 3 4 5 6 
#
# 1 88.5306 24.8308 32.0599 0.0004 -50.9154 -0.0001
# 2 24.8308 121.6138 33.6403 0.0004 -27.2971 -0.0002
# 3 32.0599 33.6403 73.4242 0.0005 -38.6119 -0.0002
# 4 0.0004 0.0004 0.0005 8.2363 -0.0004 -6.9721
# 5 -50.9154 -27.2971 -38.6119 -0.0004 51.8300 0.0001
# 6 -0.0001 -0.0002 -0.0002 -6.9721 0.0001 6.8655
#
#
#
# Elastic Compliance Matrix: (Units=1/GPa)
#
#
# Indices 1 2 3 4 5 6 
#
# 1 0.026496 0.000060 0.003465 0.000000 0.028641 0.000000
# 2 0.000060 0.009683 -0.002877 0.000000 0.003016 0.000000
# 3 0.003465 -0.002877 0.023704 -0.000002 0.019548 -0.000001
# 4 0.000000 0.000000 -0.000002 0.865106 0.000003 0.878541
# 5 0.028641 0.003016 0.019548 0.000003 0.063581 0.000003
# 6 0.000000 0.000000 -0.000001 0.878541 0.000003 1.037840
#
#
# Mechanical properties :
#
#
# Convention : Reuss Voigt Hill
#
# Bulk Modulus (GPa) = 16.34509 51.62562 33.98535
# Shear Modulus (GPa) = 2.44438 26.25555 14.34997
#
# Velocity S-wave (km/s) = 1.05726 3.46504 2.56167
# Velocity P-wave (km/s) = 2.99415 6.29419 4.92858
#
# Compressibility (1/GPa) = 0.06118044
#
# Stress axis : x y z
#
# Youngs Moduli (GPa) = 37.74156 103.27218 42.18669
#
# Poissons Ratio (x) = -0.00625 -0.14617
# Poissons Ratio (y) = -0.00228 0.12136
# Poissons Ratio (z) = -0.13077 0.29709
#
# Static dielectric constant tensor:
#      x y z
#    x 2.000080 0.000000 -0.095570 
#    y 0.000000 1.930750 0.000000 
#    z -0.095570 0.000000 1.952190 
# 
# From -- ./inp_files/74475.got.cif
#   From: 2010.05.17/outbox.cif.g08.bks.cpg/sg12_38_cif.got.tgz:74475.got - 2010.06.03 13:09:07.
