data_PCOD9194376
_publ_section_title
;
Structure prediction by ZEFSAII (Michael W. Deem and Ramdas Pophale) SiO2 
 PCOD9194376
Probable space group: C 2/M
;
_chemical_formula_sum "Si O2"
_cell_formula_units_Z 64
_cell_length_a 23.659646
_cell_length_b 14.160459
_cell_length_c 17.634348
_cell_angle_alpha 90.000000
_cell_angle_beta 29.658451
_cell_angle_gamma 90.000000
_cell_volume 2923.477827
_symmetry_space_group_name_H-M "C 2/M"
_symmetry_group_IT_number 12
_symmetry_cell_setting 'monoclinic'
loop_
_space_group_symop_operation_xyz
x,y,z
-x,y,-z
-x,-y,-z
x,-y,z
1/2+x,1/2+y,z
1/2-x,1/2+y,-z
1/2-x,1/2-y,-z
1/2+x,1/2-y,z
loop_
_atom_site_type_symbol
_atom_site_label
_atom_site_fract_x
_atom_site_fract_y
_atom_site_fract_z
Si Si1 0.953989 0.101465 0.399934
Si Si2 0.383097 0.894580 0.461105
Si Si3 0.110574 0.263877 0.410173
Si Si4 0.253062 0.643526 0.520129
Si Si5 0.100214 0.606064 0.839188
Si Si6 0.604899 0.817244 0.115759
Si Si7 0.322738 0.609653 0.952694
Si Si8 0.740946 0.106111 0.824896
O O1 0.934079 0.181812 0.482870
O O2 0.869866 0.113694 0.425466
O O3 0.084613 0.101892 0.222264
O O4 0.926645 0.000000 0.466028
O O5 0.341334 0.839284 0.585206
O O6 0.283354 0.904394 0.515325
O O7 0.485009 0.838208 0.297665
O O8 0.424867 0.000000 0.431559
O O9 0.184247 0.203018 0.263667
O O10 0.000000 0.309039 0.500000
O O11 0.250000 0.750000 0.500000
O O12 0.155416 0.637259 0.697621
O O13 0.058778 0.500000 0.870430
O O14 0.197769 0.602744 0.788818
O O15 0.000000 0.660174 0.000000
O O16 0.626265 0.706538 0.069063
O O17 0.701341 0.856051 0.061877
O O18 0.634157 0.876049 0.005848
O O19 0.316086 0.500000 0.992088
O O20 0.787221 0.000000 0.788470
#
# Coordination Sequence:
#
# PCOD9194376 Si02
#       8
#     8   8   8   8   8   8   8   8
#     4  11  21  39  63  93 128 163 208 262 323 380
#     4  12  25  43  66  95 129 173 218 265 322 381
#     4  12  25  41  60  92 125 168 210 264 319 379
#     4  12  21  39  65  92 129 167 213 265 314 383
#     4  10  20  34  55  88 124 157 195 246 317 382
#     4  11  22  40  62  92 127 165 220 263 317 388
#     4  10  21  37  61  89 123 166 214 270 316 366
#     4  11  22  37  59  90 126 162 204 262 323 379
#
# _framework density 21.891734
#
# number of rings (size 3 to 8) (size 9 to 14) (size 15 to 20)
#    0.000    0.875    3.750    4.125    1.750    3.250 
#    0.000    0.625    0.000    0.000    0.000    0.000 
#    0.000   12.500    0.000    0.000    0.000    0.000 
#
# Total GULP energy -178308.358562 kJ/mol
# GULP energy per Si atom -5572.136205 kJ/mol
# Density = 2.184191 g / cm^3
# Si number density = 21.891734 Si / 1000 Ang^3
#
#
#
# Elastic Constant Matrix: (Units=GPa)
#
#
# Indices 1 2 3 4 5 6 
#
# 1 58.6554 7.4591 -1.3896 0.0000 4.9963 0.0000
# 2 7.4591 136.5658 8.0952 0.0000 17.5764 0.0000
# 3 -1.3896 8.0952 62.5245 0.0000 2.2557 0.0000
# 4 0.0000 0.0000 0.0000 28.6364 0.0000 1.0074
# 5 4.9963 17.5764 2.2557 0.0000 30.3837 0.0000
# 6 0.0000 0.0000 0.0000 1.0074 0.0000 20.7989
#
#
#
# Elastic Compliance Matrix: (Units=1/GPa)
#
#
# Indices 1 2 3 4 5 6 
#
# 1 0.017360 -0.000658 0.000562 0.000000 -0.002516 0.000000
# 2 -0.000658 0.007983 -0.000888 0.000000 -0.004444 0.000000
# 3 0.000562 -0.000888 0.016149 0.000000 -0.000778 0.000000
# 4 0.000000 0.000000 0.000000 0.034980 0.000000 -0.001694
# 5 -0.002516 -0.004444 -0.000778 0.000000 0.035955 0.000000
# 6 0.000000 0.000000 0.000000 -0.001694 0.000000 0.048162
#
#
# Mechanical properties :
#
#
# Convention : Reuss Voigt Hill
#
# Bulk Modulus (GPa) = 25.30071 31.78613 28.54342
# Shear Modulus (GPa) = 28.45258 32.20253 30.32755
#
# Velocity S-wave (km/s) = 3.60904 3.83951 3.72606
# Velocity P-wave (km/s) = 5.38044 5.84867 5.61944
#
# Compressibility (1/GPa) = 0.03952458
#
# Stress axis : x y z
#
# Youngs Moduli (GPa) = 57.60371 125.26648 61.92247
#
# Poissons Ratio (x) = 0.08239 -0.03478
# Poissons Ratio (y) = 0.03788 0.05498
# Poissons Ratio (z) = -0.03236 0.11122
#
# Static dielectric constant tensor:
#      x y z
#    x 1.859950 0.000000 -0.057300 
#    y 0.000000 1.860400 0.000000 
#    z -0.057300 0.000000 1.730170 
# 
# From -- ./inp_files/290078.got.cif
#   From: 2010.05.17/outbox.cif.g08.bks.cpg/sg12_146_cif.got.tgz:290078.got - 2010.06.03 13:09:07.
