data_PCOD9194149
_publ_section_title
;
Structure prediction by ZEFSAII (Michael W. Deem and Ramdas Pophale) SiO2 
 PCOD9194149
Probable space group: C 2/M
;
_chemical_formula_sum "Si O2"
_cell_formula_units_Z 40
_cell_length_a 28.044111
_cell_length_b 8.597284
_cell_length_c 19.587467
_cell_angle_alpha 90.000000
_cell_angle_beta 152.202536
_cell_angle_gamma 90.000000
_cell_volume 2202.372975
_symmetry_space_group_name_H-M "C 2/M"
_symmetry_group_IT_number 12
_symmetry_cell_setting 'monoclinic'
loop_
_space_group_symop_operation_xyz
x,y,z
-x,y,-z
-x,-y,-z
x,-y,z
1/2+x,1/2+y,z
1/2-x,1/2+y,-z
1/2-x,1/2-y,-z
1/2+x,1/2-y,z
loop_
_atom_site_type_symbol
_atom_site_label
_atom_site_fract_x
_atom_site_fract_y
_atom_site_fract_z
Si Si1 0.384989 0.811158 0.361688
Si Si2 0.275340 0.686506 0.957853
Si Si3 0.327205 0.813488 0.654631
Si Si4 0.212421 0.187131 0.244988
Si Si5 0.436787 0.186663 0.060343
O O1 0.500000 0.751884 0.500000
O O2 0.316819 0.769495 0.210014
O O3 0.319135 0.763261 0.344244
O O4 0.389547 0.000000 0.369739
O O5 0.283158 0.500000 0.968919
O O6 0.250000 0.750000 0.000000
O O7 0.376689 0.755157 0.051098
O O8 0.250000 0.750000 0.500000
O O9 0.298976 0.753323 0.694079
O O10 0.444718 0.766054 0.789017
O O11 0.323301 0.000000 0.649117
O O12 0.209364 0.000000 0.243056
O O13 0.122619 0.244606 0.080582
O O14 0.431146 0.000000 0.049548
#
# Coordination Sequence:
#
# PCOD9194149 Si02
#       5
#     8   8   8   8   8
#     4   8  16  32  53  77 105 138 176 215 259 315
#     4  10  20  34  55  82 110 143 182 226 275 324
#     4  11  24  39  56  80 110 144 182 229 283 333
#     4  10  20  35  58  84 109 143 184 225 273 330
#     4  10  21  38  58  79 107 146 188 227 273 330
#
# _framework density 18.162229
#
# number of rings (size 3 to 8) (size 9 to 14) (size 15 to 20)
#    0.000    2.200    0.000    4.200    0.000    7.200 
#    0.000    4.000    0.000   20.400    0.000    0.000 
#    0.000    0.000    0.000    0.000    0.000    0.000 
#
# Total GULP energy -111647.076357 kJ/mol
# GULP energy per Si atom -5582.353818 kJ/mol
# Density = 1.812089 g / cm^3
# Si number density = 18.162229 Si / 1000 Ang^3
#
#
#
# Elastic Constant Matrix: (Units=GPa)
#
#
# Indices 1 2 3 4 5 6 
#
# 1 209.1895 48.3048 127.0432 0.0000 2.8660 0.0000
# 2 48.3048 47.7171 40.6833 0.0000 4.7475 0.0000
# 3 127.0432 40.6833 137.1596 0.0000 25.4737 0.0000
# 4 0.0000 0.0000 0.0000 27.8745 0.0000 -4.8363
# 5 2.8660 4.7475 25.4737 0.0000 33.0346 0.0000
# 6 0.0000 0.0000 0.0000 -4.8363 0.0000 35.2007
#
#
#
# Elastic Compliance Matrix: (Units=1/GPa)
#
#
# Indices 1 2 3 4 5 6 
#
# 1 0.013466 -0.003261 -0.013277 0.000000 0.009539 0.000000
# 2 -0.003261 0.029061 -0.005692 0.000000 0.000495 0.000000
# 3 -0.013277 -0.005692 0.024406 0.000000 -0.016850 0.000000
# 4 0.000000 0.000000 0.000000 0.036751 0.000000 0.005049
# 5 0.009539 0.000495 -0.016850 0.000000 0.042366 0.000000
# 6 0.000000 0.000000 0.000000 0.005049 0.000000 0.029102
#
#
# Mechanical properties :
#
#
# Convention : Reuss Voigt Hill
#
# Bulk Modulus (GPa) = 44.49504 91.79210 68.14357
# Shear Modulus (GPa) = 22.01636 31.09095 26.55366
#
# Velocity S-wave (km/s) = 3.48545 4.14194 3.82779
# Velocity P-wave (km/s) = 6.38355 8.57461 7.55889
#
# Compressibility (1/GPa) = 0.02247442
#
# Stress axis : x y z
#
# Youngs Moduli (GPa) = 74.26106 34.41014 40.97296
#
# Poissons Ratio (x) = 0.11221 0.54400
# Poissons Ratio (y) = 0.24216 0.23320
# Poissons Ratio (z) = 0.98597 0.19585
#
# Static dielectric constant tensor:
#      x y z
#    x 1.609800 0.000000 0.022980 
#    y 0.000000 1.618080 0.000000 
#    z 0.022980 0.000000 1.604360 
# 
# From -- ./inp_files/211436.got.cif
#   From: 2010.05.17/outbox.cif.g08.bks.cpg/sg12_106_cif.got.tgz:211436.got - 2010.06.03 13:09:07.
