data_PCOD9194245
_publ_section_title
;
Structure prediction by ZEFSAII (Michael W. Deem and Ramdas Pophale) SiO2 
 PCOD9194245
Probable space group: C 2/M
;
_chemical_formula_sum "Si O2"
_cell_formula_units_Z 56
_cell_length_a 29.651856
_cell_length_b 8.553480
_cell_length_c 22.132968
_cell_angle_alpha 90.000000
_cell_angle_beta 149.276441
_cell_angle_gamma 90.000000
_cell_volume 2867.921444
_symmetry_space_group_name_H-M "C 2/M"
_symmetry_group_IT_number 12
_symmetry_cell_setting 'monoclinic'
loop_
_space_group_symop_operation_xyz
x,y,z
-x,y,-z
-x,-y,-z
x,-y,z
1/2+x,1/2+y,z
1/2-x,1/2+y,-z
1/2-x,1/2-y,-z
1/2+x,1/2-y,z
loop_
_atom_site_type_symbol
_atom_site_label
_atom_site_fract_x
_atom_site_fract_y
_atom_site_fract_z
Si Si1 0.009294 0.686964 0.295091
Si Si2 0.168495 0.685447 0.135530
Si Si3 0.536699 0.313116 0.887563
Si Si4 0.787195 0.311620 0.479573
Si Si5 0.374529 0.311581 0.788686
Si Si6 0.969922 0.815791 0.375634
Si Si7 0.134662 0.315262 0.634095
O O1 0.007050 0.500000 0.299994
O O2 0.112192 0.739331 0.413807
O O3 0.970049 0.734249 0.185387
O O4 0.961725 0.766393 0.296900
O O5 0.171806 0.500000 0.133281
O O6 0.115818 0.733470 0.135309
O O7 0.266412 0.753908 0.255853
O O8 0.120609 0.759580 0.022687
O O9 0.536298 0.500000 0.879881
O O10 0.450889 0.269893 0.829093
O O11 0.786691 0.500000 0.481037
O O12 0.750000 0.250000 0.500000
O O13 0.719238 0.264918 0.348777
O O14 0.376030 0.500000 0.798227
O O15 0.904684 0.723258 0.345092
O O16 0.068080 0.769373 0.511288
O O17 0.956290 0.000000 0.368213
O O18 0.131709 0.500000 0.618806
#
# Coordination Sequence:
#
# PCOD9194245 Si02
#       7
#     8   8   8   8   8   8   8
#     4  11  22  37  59  89 124 163 202 243 297 357
#     4  12  25  40  60  87 118 156 203 252 300 355
#     4  11  23  40  60  83 118 163 206 250 298 353
#     4  10  20  34  55  83 117 153 192 239 289 343
#     4  10  21  38  59  85 118 160 203 246 298 356
#     4  11  22  39  65  96 125 155 193 241 298 356
#     4  11  22  41  66  92 122 155 195 245 300 354
#
# _framework density 19.526337000000002
#
# number of rings (size 3 to 8) (size 9 to 14) (size 15 to 20)
#    0.000    1.143    1.429    6.857    0.000    5.143 
#    0.000    0.714    0.000    0.000    0.000    0.000 
#    0.000    0.000    0.000    0.000    0.000    0.000 
#
# Total GULP energy -156653.357163 kJ/mol
# GULP energy per Si atom -5594.762756 kJ/mol
# Density = 1.948189 g / cm^3
# Si number density = 19.526337 Si / 1000 Ang^3
#
#
#
# Elastic Constant Matrix: (Units=GPa)
#
#
# Indices 1 2 3 4 5 6 
#
# 1 71.3499 -4.1538 21.1908 0.0000 -19.3496 0.0000
# 2 -4.1538 35.7261 -1.1332 0.0000 0.8823 0.0000
# 3 21.1908 -1.1332 57.8393 0.0000 -9.4823 0.0000
# 4 0.0000 0.0000 0.0000 27.7205 0.0000 -6.6286
# 5 -19.3496 0.8823 -9.4823 0.0000 23.9399 0.0000
# 6 0.0000 0.0000 0.0000 -6.6286 0.0000 33.5438
#
#
#
# Elastic Compliance Matrix: (Units=1/GPa)
#
#
# Indices 1 2 3 4 5 6 
#
# 1 0.019219 0.001748 -0.004781 0.000000 0.013575 0.000000
# 2 0.001748 0.028184 -0.000029 0.000000 0.000362 0.000000
# 3 -0.004781 -0.000029 0.019685 0.000000 0.003934 0.000000
# 4 0.000000 0.000000 0.000000 0.037864 0.000000 0.007482
# 5 0.013575 0.000362 0.003934 0.000000 0.054288 0.000000
# 6 0.000000 0.000000 0.000000 0.007482 0.000000 0.031290
#
#
# Mechanical properties :
#
#
# Convention : Reuss Voigt Hill
#
# Bulk Modulus (GPa) = 16.40334 21.85811 19.13072
# Shear Modulus (GPa) = 23.04396 26.97493 25.00944
#
# Velocity S-wave (km/s) = 3.43905 3.72084 3.58272
# Velocity P-wave (km/s) = 4.91816 5.44775 5.18972
#
# Compressibility (1/GPa) = 0.06096321
#
# Stress axis : x y z
#
# Youngs Moduli (GPa) = 52.03237 35.48108 50.79904
#
# Poissons Ratio (x) = -0.06201 0.24289
# Poissons Ratio (y) = -0.09093 0.00146
# Poissons Ratio (z) = 0.24879 0.00102
#
# Static dielectric constant tensor:
#      x y z
#    x 1.676720 0.000000 0.006300 
#    y 0.000000 1.656780 0.000000 
#    z 0.006300 0.000000 1.674020 
# 
# From -- ./inp_files/329693.got.cif
#   From: 2010.05.17/outbox.cif.g08.bks.cpg/sg12_165_cif.got.tgz:329693.got - 2010.06.03 13:09:07.
