data_PCOD9194452
_publ_section_title
;
Structure prediction by ZEFSAII (Michael W. Deem and Ramdas Pophale) SiO2 
 PCOD9194452
Probable space group: C 2/M
;
_chemical_formula_sum "Si O2"
_cell_formula_units_Z 64
_cell_length_a 29.619872
_cell_length_b 7.520329
_cell_length_c 20.470542
_cell_angle_alpha 90.000000
_cell_angle_beta 141.161412
_cell_angle_gamma 90.000000
_cell_volume 2859.604210
_symmetry_space_group_name_H-M "C 2/M"
_symmetry_group_IT_number 12
_symmetry_cell_setting 'monoclinic'
loop_
_space_group_symop_operation_xyz
x,y,z
-x,y,-z
-x,-y,-z
x,-y,z
1/2+x,1/2+y,z
1/2-x,1/2+y,-z
1/2-x,1/2-y,-z
1/2+x,1/2-y,z
loop_
_atom_site_type_symbol
_atom_site_label
_atom_site_fract_x
_atom_site_fract_y
_atom_site_fract_z
Si Si1 0.683107 0.713286 0.471122
Si Si2 0.466914 0.209576 0.029649
Si Si3 0.466382 0.714749 0.759643
Si Si4 0.447447 0.285058 0.265673
Si Si5 0.212606 0.787161 0.888853
Si Si6 0.948177 0.708613 0.498389
Si Si7 0.694251 0.781173 0.129399
Si Si8 0.291022 0.296532 0.355709
O O1 0.673792 0.500000 0.467391
O O2 0.750000 0.750000 0.500000
O O3 0.609197 0.779019 0.355440
O O4 0.699320 0.785852 0.561771
O O5 0.519007 0.229209 0.150176
O O6 0.455806 0.000000 0.005481
O O7 0.500000 0.284709 0.000000
O O8 0.388231 0.279696 0.960893
O O9 0.465587 0.500000 0.758467
O O10 0.529354 0.773300 0.780730
O O11 0.445468 0.500000 0.262976
O O12 0.369473 0.218945 0.200730
O O13 0.509581 0.231862 0.386195
O O14 0.261290 0.720626 0.883971
O O15 0.207740 0.000000 0.875693
O O16 0.250000 0.750000 0.000000
O O17 0.936139 0.500000 0.472694
O O18 0.870331 0.795962 0.413609
O O19 0.000000 0.779523 0.500000
O O20 0.735350 0.720190 0.241075
O O21 0.695516 0.000000 0.129357
O O22 0.267242 0.500000 0.339351
#
# Coordination Sequence:
#
# PCOD9194452 Si02
#       8
#     8   8   8   8   8   8   8   8
#     4  10  22  38  60  88 116 150 191 238 291 348
#     4  10  22  38  59  85 112 150 195 236 282 340
#     4  10  21  39  59  85 117 145 188 239 284 345
#     4  10  20  37  59  82 109 149 195 233 280 347
#     4  10  20  34  56  83 111 146 187 234 283 336
#     4  11  23  36  53  84 121 152 187 236 288 340
#     4   9  19  36  57  84 113 143 191 237 276 332
#     4  10  20  39  63  83 113 156 194 238 285 339
#
# _framework density 22.38072
#
# number of rings (size 3 to 8) (size 9 to 14) (size 15 to 20)
#    0.000    2.000    1.250    1.875    1.750    4.250 
#    0.000    1.250    0.000    0.000    0.000    0.000 
#    0.000    0.000    0.000    0.000    0.000    0.000 
#
# Total GULP energy -178874.354290 kJ/mol
# GULP energy per Si atom -5589.823572 kJ/mol
# Density = 2.232978 g / cm^3
# Si number density = 22.380720 Si / 1000 Ang^3
#
#
#
# Elastic Constant Matrix: (Units=GPa)
#
#
# Indices 1 2 3 4 5 6 
#
# 1 156.5295 3.5407 60.6320 0.0000 -12.5091 0.0000
# 2 3.5407 57.3478 -6.4709 0.0000 2.6492 -0.0001
# 3 60.6320 -6.4709 137.2165 0.0000 -11.1812 0.0000
# 4 0.0000 0.0000 0.0000 17.1303 0.0000 -1.3151
# 5 -12.5091 2.6492 -11.1812 0.0000 40.6975 0.0000
# 6 0.0000 -0.0001 0.0000 -1.3151 0.0000 2.4642
#
#
#
# Elastic Compliance Matrix: (Units=1/GPa)
#
#
# Indices 1 2 3 4 5 6 
#
# 1 0.007844 -0.000937 -0.003385 0.000000 0.001542 0.000000
# 2 -0.000937 0.017678 0.001157 0.000000 -0.001121 0.000000
# 3 -0.003385 0.001157 0.008947 0.000000 0.001343 0.000000
# 4 0.000000 0.000000 0.000000 0.060870 0.000000 0.032485
# 5 0.001542 -0.001121 0.001343 0.000000 0.025487 0.000000
# 6 0.000000 0.000000 0.000000 0.032485 0.000000 0.423141
#
#
# Mechanical properties :
#
#
# Convention : Reuss Voigt Hill
#
# Bulk Modulus (GPa) = 35.53927 51.83305 43.68616
# Shear Modulus (GPa) = 8.93371 31.61787 20.27579
#
# Velocity S-wave (km/s) = 2.00009 3.76271 3.01316
# Velocity P-wave (km/s) = 4.60952 6.48747 5.62739
#
# Compressibility (1/GPa) = 0.02813789
#
# Stress axis : x y z
#
# Youngs Moduli (GPa) = 127.48511 56.56865 111.76615
#
# Poissons Ratio (x) = 0.05303 0.37828
# Poissons Ratio (y) = 0.11951 -0.12926
# Poissons Ratio (z) = 0.43149 -0.06542
#
# Static dielectric constant tensor:
#      x y z
#    x 1.802370 0.000000 -0.007470 
#    y 0.000000 1.855370 0.000000 
#    z -0.007470 0.000000 1.780480 
# 
# From -- ./inp_files/295776.got.cif
#   From: 2010.05.17/outbox.cif.g08.bks.cpg/sg12_148_cif.got.tgz:295776.got - 2010.06.03 13:09:07.
