data_PCOD9194401
_publ_section_title
;
Structure prediction by ZEFSAII (Michael W. Deem and Ramdas Pophale) SiO2 
 PCOD9194401
Probable space group: C 2/M
;
_chemical_formula_sum "Si O2"
_cell_formula_units_Z 48
_cell_length_a 23.830830
_cell_length_b 16.975478
_cell_length_c 12.637893
_cell_angle_alpha 90.000000
_cell_angle_beta 31.047543
_cell_angle_gamma 90.000000
_cell_volume 2636.782961
_symmetry_space_group_name_H-M "C 2/M"
_symmetry_group_IT_number 12
_symmetry_cell_setting 'monoclinic'
loop_
_space_group_symop_operation_xyz
x,y,z
-x,y,-z
-x,-y,-z
x,-y,z
1/2+x,1/2+y,z
1/2-x,1/2+y,-z
1/2-x,1/2-y,-z
1/2+x,1/2-y,z
loop_
_atom_site_type_symbol
_atom_site_label
_atom_site_fract_x
_atom_site_fract_y
_atom_site_fract_z
Si Si1 0.704840 0.673669 0.007810
Si Si2 0.787279 0.089931 0.799675
Si Si3 0.113954 0.593469 0.695612
Si Si4 0.125954 0.337224 0.896900
Si Si5 0.774070 0.691350 0.661566
Si Si6 0.466172 0.709364 0.441549
O O1 0.752743 0.661249 0.815023
O O2 0.750000 0.750000 0.000000
O O3 0.724863 0.602568 0.055751
O O4 0.576527 0.688815 0.204746
O O5 0.691868 0.134972 0.892902
O O6 0.898582 0.132855 0.586887
O O7 0.786881 0.000000 0.770080
O O8 0.092650 0.500000 0.716402
O O9 0.157046 0.610503 0.744324
O O10 0.196102 0.627553 0.475085
O O11 0.000741 0.643718 0.877089
O O12 0.172497 0.249432 0.798811
O O13 0.883510 0.742734 0.502575
O O14 0.500000 0.749193 0.500000
#
# Coordination Sequence:
#
# PCOD9194401 Si02
#       6
#     8   8   8   8   8   8
#     4  11  19  34  52  80 112 145 176 224 277 331
#     4  10  20  34  56  80 105 143 189 230 273 331
#     4  11  23  37  58  86 117 145 187 245 290 325
#     4  10  20  40  59  80 109 153 196 230 272 342
#     4  11  21  34  59  82 113 146 190 228 279 338
#     4   9  18  32  52  77 105 143 185 223 262 329
#
# _framework density 18.204001000000002
#
# number of rings (size 3 to 8) (size 9 to 14) (size 15 to 20)
#    0.000    1.667    5.000    3.500    0.000    3.667 
#    0.000    0.000    0.000    2.500    0.000   14.000 
#    0.000    0.000    0.000    0.000    0.000    0.000 
#
# Total GULP energy -133753.833571 kJ/mol
# GULP energy per Si atom -5573.076399 kJ/mol
# Density = 1.816257 g / cm^3
# Si number density = 18.204001 Si / 1000 Ang^3
#
#
#
# Elastic Constant Matrix: (Units=GPa)
#
#
# Indices 1 2 3 4 5 6 
#
# 1 47.9560 10.2035 38.1704 0.0000 4.6739 0.0000
# 2 10.2035 58.3189 28.5012 0.0000 7.1800 0.0000
# 3 38.1704 28.5012 106.6738 0.0000 23.4372 0.0000
# 4 0.0000 0.0000 0.0000 17.1970 0.0000 6.4874
# 5 4.6739 7.1800 23.4372 0.0000 34.3532 0.0000
# 6 0.0000 0.0000 0.0000 6.4874 0.0000 19.1921
#
#
#
# Elastic Compliance Matrix: (Units=1/GPa)
#
#
# Indices 1 2 3 4 5 6 
#
# 1 0.029563 -0.000071 -0.011386 0.000000 0.003760 0.000000
# 2 -0.000071 0.019734 -0.005109 0.000000 -0.000629 0.000000
# 3 -0.011386 -0.005109 0.016749 0.000000 -0.008810 0.000000
# 4 0.000000 0.000000 0.000000 0.066648 0.000000 -0.022529
# 5 0.003760 -0.000629 -0.008810 0.000000 0.034740 0.000000
# 6 0.000000 0.000000 0.000000 -0.022529 0.000000 0.059720
#
#
# Mechanical properties :
#
#
# Convention : Reuss Voigt Hill
#
# Bulk Modulus (GPa) = 30.38113 40.74434 35.56274
# Shear Modulus (GPa) = 18.43268 23.22004 20.82636
#
# Velocity S-wave (km/s) = 3.18553 3.57535 3.38606
# Velocity P-wave (km/s) = 5.50051 6.28290 5.90468
#
# Compressibility (1/GPa) = 0.03291516
#
# Stress axis : x y z
#
# Youngs Moduli (GPa) = 33.82550 50.67464 59.70470
#
# Poissons Ratio (x) = 0.00360 0.67978
# Poissons Ratio (y) = 0.00240 0.30502
# Poissons Ratio (z) = 0.38513 0.25889
#
# Static dielectric constant tensor:
#      x y z
#    x 1.652000 0.000000 -0.000540 
#    y 0.000000 1.642570 0.000000 
#    z -0.000540 0.000000 1.647400 
# 
# From -- ./inp_files/177303.got.cif
#   From: 2010.05.17/outbox.cif.g08.bks.cpg/sg12_89_cif.got.tgz:177303.got - 2010.06.03 13:09:07.
