data_PCOD9194348
_publ_section_title
;
Structure prediction by ZEFSAII (Michael W. Deem and Ramdas Pophale) SiO2 
 PCOD9194348
Probable space group: C 2/M
;
_chemical_formula_sum "Si O2"
_cell_formula_units_Z 32
_cell_length_a 11.585371
_cell_length_b 13.240764
_cell_length_c 10.473229
_cell_angle_alpha 90.000000
_cell_angle_beta 120.794828
_cell_angle_gamma 90.000000
_cell_volume 1380.065965
_symmetry_space_group_name_H-M "C 2/M"
_symmetry_group_IT_number 12
_symmetry_cell_setting 'monoclinic'
loop_
_space_group_symop_operation_xyz
x,y,z
-x,y,-z
-x,-y,-z
x,-y,z
1/2+x,1/2+y,z
1/2-x,1/2+y,-z
1/2-x,1/2-y,-z
1/2+x,1/2-y,z
loop_
_atom_site_type_symbol
_atom_site_label
_atom_site_fract_x
_atom_site_fract_y
_atom_site_fract_z
Si Si1 0.234442 0.612105 0.935574
Si Si2 0.030040 0.219465 0.829554
Si Si3 0.876400 0.189897 0.509645
Si Si4 0.827966 0.608033 0.797935
O O1 0.219109 0.500000 0.871769
O O2 0.385896 0.652478 0.024997
O O3 0.203303 0.606871 0.070078
O O4 0.139055 0.700959 0.829976
O O5 0.955274 0.153003 0.680485
O O6 0.922679 0.297715 0.824364
O O7 0.750000 0.250000 0.500000
O O8 0.802627 0.118465 0.365915
O O9 0.000000 0.241229 0.500000
O O10 0.895255 0.500000 0.804781
#
# Coordination Sequence:
#
# PCOD9194348 Si02
#       4
#     8   8   8   8
#     4  10  20  35  59  87 113 150 204 250 290 352
#     4  10  20  34  55  86 119 152 187 247 309 348
#     4  10  20  36  57  88 119 157 197 243 299 356
#     4  10  20  35  60  89 114 149 203 254 293 346
#
# _framework density 23.187298999999999
#
# number of rings (size 3 to 8) (size 9 to 14) (size 15 to 20)
#    0.000    2.000    2.500    1.500    0.000    3.500 
#    0.000    0.000    0.000   32.250    0.000    0.000 
#    0.000    0.000    0.000    0.000    0.000    0.000 
#
# Total GULP energy -89154.693678 kJ/mol
# GULP energy per Si atom -5572.168355 kJ/mol
# Density = 2.313452 g / cm^3
# Si number density = 23.187299 Si / 1000 Ang^3
#
#
#
# Elastic Constant Matrix: (Units=GPa)
#
#
# Indices 1 2 3 4 5 6 
#
# 1 116.1239 3.7282 -0.1542 0.0000 18.4948 0.0000
# 2 3.7282 66.9400 8.6407 0.0000 7.7275 0.0000
# 3 -0.1542 8.6407 127.9302 0.0000 17.8398 0.0000
# 4 0.0000 0.0000 0.0000 10.7262 0.0000 -2.0444
# 5 18.4948 7.7275 17.8398 0.0000 27.3869 0.0000
# 6 0.0000 0.0000 0.0000 -2.0444 0.0000 17.5452
#
#
#
# Elastic Compliance Matrix: (Units=1/GPa)
#
#
# Indices 1 2 3 4 5 6 
#
# 1 0.009772 0.000168 0.001020 0.000000 -0.007311 0.000000
# 2 0.000168 0.015471 -0.000462 0.000000 -0.004178 0.000000
# 3 0.001020 -0.000462 0.008719 0.000000 -0.006238 0.000000
# 4 0.000000 0.000000 0.000000 0.095347 0.000000 0.011110
# 5 -0.007311 -0.004178 -0.006238 0.000000 0.046693 0.000000
# 6 0.000000 0.000000 0.000000 0.011110 0.000000 0.058290
#
#
# Mechanical properties :
#
#
# Convention : Reuss Voigt Hill
#
# Bulk Modulus (GPa) = 28.23745 37.26928 32.75337
# Shear Modulus (GPa) = 20.43774 31.05030 25.74402
#
# Velocity S-wave (km/s) = 2.97209 3.66335 3.33568
# Velocity P-wave (km/s) = 4.89716 5.83109 5.38441
#
# Compressibility (1/GPa) = 0.03541396
#
# Stress axis : x y z
#
# Youngs Moduli (GPa) = 102.33485 64.63562 114.69080
#
# Poissons Ratio (x) = -0.01086 -0.11698
# Poissons Ratio (y) = -0.01720 0.05301
# Poissons Ratio (z) = -0.10437 0.02987
#
# Static dielectric constant tensor:
#      x y z
#    x 1.995230 0.000000 0.039340 
#    y 0.000000 1.873140 0.000000 
#    z 0.039340 0.000000 1.900640 
# 
# From -- ./inp_files/127212.got.cif
#   From: 2010.05.17/outbox.cif.g08.bks.cpg/sg12_64_cif.got.tgz:127212.got - 2010.06.03 13:09:07.
