data_PCOD9194349
_publ_section_title
;
Structure prediction by ZEFSAII (Michael W. Deem and Ramdas Pophale) SiO2 
 PCOD9194349
Probable space group: C 2/M
;
_chemical_formula_sum "Si O2"
_cell_formula_units_Z 64
_cell_length_a 14.979524
_cell_length_b 25.555657
_cell_length_c 12.218149
_cell_angle_alpha 90.000000
_cell_angle_beta 140.396576
_cell_angle_gamma 90.000000
_cell_volume 2981.606012
_symmetry_space_group_name_H-M "C 2/M"
_symmetry_group_IT_number 12
_symmetry_cell_setting 'monoclinic'
loop_
_space_group_symop_operation_xyz
x,y,z
-x,y,-z
-x,-y,-z
x,-y,z
1/2+x,1/2+y,z
1/2-x,1/2+y,-z
1/2-x,1/2-y,-z
1/2+x,1/2-y,z
loop_
_atom_site_type_symbol
_atom_site_label
_atom_site_fract_x
_atom_site_fract_y
_atom_site_fract_z
Si Si1 0.152856 0.174389 0.178292
Si Si2 0.262396 0.208410 0.740170
Si Si3 0.352049 0.902531 0.908791
Si Si4 0.930533 0.656288 0.322934
Si Si5 0.871682 0.838829 0.604142
Si Si6 0.505337 0.939138 0.749129
Si Si7 0.304983 0.559106 0.435124
Si Si8 0.395060 0.741057 0.199215
O O1 0.153740 0.237657 0.185615
O O2 0.265816 0.157487 0.194517
O O3 0.197450 0.155627 0.341930
O O4 0.000000 0.155335 0.000000
O O5 0.338210 0.158769 0.867341
O O6 0.212619 0.191204 0.572170
O O7 0.138821 0.222378 0.709037
O O8 0.227237 0.929278 0.723042
O O9 0.500000 0.922389 0.000000
O O10 0.374469 0.916886 0.055436
O O11 0.984791 0.599861 0.342193
O O12 0.964631 0.701594 0.267739
O O13 0.000000 0.674210 0.500000
O O14 0.898095 0.895665 0.576489
O O15 0.007634 0.803716 0.756439
O O16 0.349539 0.934629 0.654546
O O17 0.529416 0.000000 0.749733
O O18 0.353446 0.500000 0.496487
O O19 0.250000 0.750000 0.000000
#
# Coordination Sequence:
#
# PCOD9194349 Si02
#       8
#     8   8   8   8   8   8   8   8
#     4  11  23  38  56  83 119 158 199 245 299 359
#     4  10  20  34  55  86 119 153 191 236 297 364
#     4   9  17  30  54  87 118 146 186 241 297 355
#     4  11  23  39  57  84 118 153 199 250 299 353
#     4  11  21  36  60  84 115 155 198 246 294 355
#     4  10  20  36  59  85 116 157 202 247 296 349
#     4   9  19  35  57  87 118 151 194 247 301 353
#     4  11  22  37  58  84 119 155 190 239 301 368
#
# _framework density 21.464943000000002
#
# number of rings (size 3 to 8) (size 9 to 14) (size 15 to 20)
#    0.000    1.750    0.000    6.000    0.000    4.750 
#    0.000    0.625    0.000   13.500    0.000    0.000 
#    0.000    0.000    0.000    0.000    0.000    0.000 
#
# Total GULP energy -178726.859802 kJ/mol
# GULP energy per Si atom -5585.214369 kJ/mol
# Density = 2.141609 g / cm^3
# Si number density = 21.464943 Si / 1000 Ang^3
#
#
#
# Elastic Constant Matrix: (Units=GPa)
#
#
# Indices 1 2 3 4 5 6 
#
# 1 41.8937 3.5529 8.1131 0.0000 -5.3145 0.0000
# 2 3.5529 93.0947 38.0058 0.0000 1.0378 0.0000
# 3 8.1131 38.0058 54.7868 0.0000 1.7093 0.0000
# 4 0.0000 0.0000 0.0000 23.3124 0.0000 0.3228
# 5 -5.3145 1.0378 1.7093 0.0000 25.5952 0.0000
# 6 0.0000 0.0000 0.0000 0.3228 0.0000 21.7982
#
#
#
# Elastic Compliance Matrix: (Units=1/GPa)
#
#
# Indices 1 2 3 4 5 6 
#
# 1 0.025373 0.000801 -0.004486 0.000000 0.005535 0.000000
# 2 0.000801 0.015011 -0.010540 0.000000 0.000262 0.000000
# 3 -0.004486 -0.010540 0.026299 0.000000 -0.002260 0.000000
# 4 0.000000 0.000000 0.000000 0.042905 0.000000 -0.000635
# 5 0.005535 0.000262 -0.002260 0.000000 0.040360 0.000000
# 6 0.000000 0.000000 0.000000 -0.000635 0.000000 0.045885
#
#
# Mechanical properties :
#
#
# Convention : Reuss Voigt Hill
#
# Bulk Modulus (GPa) = 26.15490 32.12430 29.13960
# Shear Modulus (GPa) = 21.09470 23.48137 22.28804
#
# Velocity S-wave (km/s) = 3.13829 3.31107 3.22583
# Velocity P-wave (km/s) = 5.03420 5.44206 5.24210
#
# Compressibility (1/GPa) = 0.03823376
#
# Stress axis : x y z
#
# Youngs Moduli (GPa) = 39.41213 66.61658 38.02401
#
# Poissons Ratio (x) = -0.05338 0.17057
# Poissons Ratio (y) = -0.03158 0.40078
# Poissons Ratio (z) = 0.17680 0.70215
#
# Static dielectric constant tensor:
#      x y z
#    x 1.851950 0.000000 0.000850 
#    y 0.000000 1.758910 0.000000 
#    z 0.000850 0.000000 1.820290 
# 
# From -- ./inp_files/149814.got.cif
#   From: 2010.05.17/outbox.cif.g08.bks.cpg/sg12_75_cif.got.tgz:149814.got - 2010.06.03 13:09:07.
