data_PCOD9194679
_publ_section_title
;
Structure prediction by ZEFSAII (Michael W. Deem and Ramdas Pophale) SiO2 
 PCOD9194679
Probable space group: C 2/M
;
_chemical_formula_sum "Si O2"
_cell_formula_units_Z 56
_cell_length_a 14.930752
_cell_length_b 8.552412
_cell_length_c 24.869680
_cell_angle_alpha 90.000000
_cell_angle_beta 120.093853
_cell_angle_gamma 90.000000
_cell_volume 2747.638698
_symmetry_space_group_name_H-M "C 2/M"
_symmetry_group_IT_number 12
_symmetry_cell_setting 'monoclinic'
loop_
_space_group_symop_operation_xyz
x,y,z
-x,y,-z
-x,-y,-z
x,-y,z
1/2+x,1/2+y,z
1/2-x,1/2+y,-z
1/2-x,1/2-y,-z
1/2+x,1/2-y,z
loop_
_atom_site_type_symbol
_atom_site_label
_atom_site_fract_x
_atom_site_fract_y
_atom_site_fract_z
Si Si1 0.935127 0.181867 0.816998
Si Si2 0.509174 0.817031 0.276373
Si Si3 0.078262 0.682821 0.943776
Si Si4 0.103538 0.311452 0.501267
Si Si5 0.740290 0.814229 0.075236
Si Si6 0.666623 0.685652 0.405885
Si Si7 0.780875 0.313013 0.204467
O O1 0.813115 0.212862 0.783311
O O2 0.985181 0.284825 0.785536
O O3 0.985443 0.220916 0.889747
O O4 0.953723 0.000000 0.810370
O O5 0.599773 0.727468 0.333908
O O6 0.393979 0.766798 0.259215
O O7 0.521309 0.000000 0.291116
O O8 0.050808 0.500000 0.935301
O O9 0.174560 0.717124 0.932421
O O10 0.127301 0.723156 0.016421
O O11 0.100583 0.500000 0.502179
O O12 0.213413 0.260297 0.560339
O O13 0.112849 0.260404 0.442095
O O14 0.000000 0.253551 0.500000
O O15 0.754291 0.774797 0.141415
O O16 0.757439 0.000000 0.071084
O O17 0.668155 0.500000 0.413806
O O18 0.784298 0.500000 0.194069
#
# Coordination Sequence:
#
# PCOD9194679 Si02
#       7
#     8   8   8   8   8   8   8
#     4  11  23  39  59  84 111 148 195 243 293 348
#     4  11  23  41  61  82 116 159 195 237 287 342
#     4  10  20  35  55  82 113 145 184 236 300 355
#     4   9  19  38  63  90 122 158 193 231 279 334
#     4  10  20  34  57  83 109 145 189 238 291 353
#     4  10  21  37  60  90 121 154 193 238 281 331
#     4  10  23  40  58  81 113 150 192 241 295 351
#
# _framework density 20.381136999999999
#
# number of rings (size 3 to 8) (size 9 to 14) (size 15 to 20)
#    0.000    1.857    1.429    2.143    0.000    6.000 
#    0.000    8.571    0.000    0.000    0.000    0.000 
#    0.000    0.000    0.000    0.000    0.000    0.000 
#
# Total GULP energy -156376.900702 kJ/mol
# GULP energy per Si atom -5584.889311 kJ/mol
# Density = 2.033475 g / cm^3
# Si number density = 20.381137 Si / 1000 Ang^3
#
#
#
# Elastic Constant Matrix: (Units=GPa)
#
#
# Indices 1 2 3 4 5 6 
#
# 1 92.6555 15.8752 21.4362 0.0000 19.2233 0.0000
# 2 15.8752 9.9931 2.7139 0.0000 6.8405 0.0000
# 3 21.4362 2.7139 73.9797 0.0000 19.3881 0.0000
# 4 0.0000 0.0000 0.0000 34.9178 0.0000 -0.7038
# 5 19.2233 6.8405 19.3881 0.0000 17.5551 0.0000
# 6 0.0000 0.0000 0.0000 -0.7038 0.0000 18.2797
#
#
#
# Elastic Compliance Matrix: (Units=1/GPa)
#
#
# Indices 1 2 3 4 5 6 
#
# 1 0.016302 -0.019906 -0.001897 0.000000 -0.007999 0.000000
# 2 -0.019906 0.169618 0.015698 0.000000 -0.061631 0.000000
# 3 -0.001897 0.015698 0.020476 0.000000 -0.026654 0.000000
# 4 0.000000 0.000000 0.000000 0.028661 0.000000 0.001104
# 5 -0.007999 -0.061631 -0.026654 0.000000 0.119174 0.000000
# 6 0.000000 0.000000 0.000000 0.001104 0.000000 0.054748
#
#
# Mechanical properties :
#
#
# Convention : Reuss Voigt Hill
#
# Bulk Modulus (GPa) = 5.14976 28.51988 16.83482
# Shear Modulus (GPa) = 10.28979 23.25739 16.77359
#
# Velocity S-wave (km/s) = 2.24936 3.38172 2.87190
# Velocity P-wave (km/s) = 3.04605 5.41033 4.39033
#
# Compressibility (1/GPa) = 0.19418392
#
# Stress axis : x y z
#
# Youngs Moduli (GPa) = 61.34296 5.89561 48.83725
#
# Poissons Ratio (x) = 0.11736 0.09264
# Poissons Ratio (y) = 1.22112 -0.76662
# Poissons Ratio (z) = 0.11636 -0.09255
#
# Static dielectric constant tensor:
#      x y z
#    x 1.747950 0.000000 0.026630 
#    y 0.000000 1.697880 0.000000 
#    z 0.026630 0.000000 1.734030 
# 
# From -- ./inp_files/339089.got.cif
#   From: 2010.05.17/outbox.cif.g08.bks.cpg/sg12_170_cif.got.tgz:339089.got - 2010.06.03 13:09:07.
