data_PCOD9194904
_publ_section_title
;
Structure prediction by ZEFSAII (Michael W. Deem and Ramdas Pophale) SiO2 
 PCOD9194904
Probable space group: C 2/M
;
_chemical_formula_sum "Si O2"
_cell_formula_units_Z 58
_cell_length_a 28.463628
_cell_length_b 20.989912
_cell_length_c 14.634523
_cell_angle_alpha 90.000000
_cell_angle_beta 19.539750
_cell_angle_gamma 90.000000
_cell_volume 2924.318073
_symmetry_space_group_name_H-M "C 2/M"
_symmetry_group_IT_number 12
_symmetry_cell_setting 'monoclinic'
loop_
_space_group_symop_operation_xyz
x,y,z
-x,y,-z
-x,-y,-z
x,-y,z
1/2+x,1/2+y,z
1/2-x,1/2+y,-z
1/2-x,1/2-y,-z
1/2+x,1/2-y,z
loop_
_atom_site_type_symbol
_atom_site_label
_atom_site_fract_x
_atom_site_fract_y
_atom_site_fract_z
Si Si1 0.127537 0.215234 0.434846
Si Si2 0.836950 0.326222 0.408961
Si Si3 0.309755 0.373244 0.843105
Si Si4 0.169314 0.824675 0.988940
Si Si5 0.500000 0.500000 0.500000
Si Si6 0.334606 0.796840 0.211071
Si Si7 0.530346 0.071450 0.336539
Si Si8 0.763879 0.574072 0.693185
O O1 0.117572 0.174148 0.360856
O O2 0.232531 0.183192 0.315870
O O3 0.969865 0.218137 0.760593
O O4 0.197856 0.282782 0.284388
O O5 0.726073 0.273275 0.649375
O O6 0.813837 0.335698 0.343198
O O7 0.810386 0.389130 0.516961
O O8 0.999474 0.301388 0.117443
O O9 0.307903 0.347950 0.949710
O O10 0.380456 0.442632 0.714490
O O11 0.151538 0.378777 0.096131
O O12 0.148819 0.884191 0.958233
O O13 0.500000 0.075379 0.500000
O O14 0.393018 0.078245 0.527763
O O15 0.582272 0.000000 0.222788
O O16 0.728163 0.500000 0.745161
#
# Coordination Sequence:
#
# PCOD9194904 Si02
#       8
#     8   8   8   8   2   8   8   8
#     4  12  25  41  62  95 126 168 212 266 316 372
#     4  10  21  41  66 101 121 166 205 262 317 375
#     4  12  24  40  63  86 134 171 213 258 311 374
#     4  12  26  41  62  96 129 167 212 266 320 375
#     4  12  24  44  58  88 132 180 218 244 314 396
#     4  10  21  39  69  95 128 158 213 259 317 373
#     4  10  20  34  58  88 115 162 210 247 295 368
#     4  11  24  41  66  94 129 166 210 259 322 383
#
# _framework density 19.833684000000002
#
# number of rings (size 3 to 8) (size 9 to 14) (size 15 to 20)
#    0.000    0.966    4.828    2.069    2.897    0.000 
#    0.000    1.379    1.517    0.828    0.000    0.000 
#    0.000    0.000    0.000    0.000    0.000    0.000 
#
# Total GULP energy -161617.568501 kJ/mol
# GULP energy per Si atom -5573.019603 kJ/mol
# Density = 1.978854 g / cm^3
# Si number density = 19.833684 Si / 1000 Ang^3
#
#
#
# Elastic Constant Matrix: (Units=GPa)
#
#
# Indices 1 2 3 4 5 6 
#
# 1 97.5809 48.2677 -2.0861 0.0027 23.9473 -0.0028
# 2 48.2677 114.0392 48.9365 0.0008 15.0004 -0.0008
# 3 -2.0861 48.9365 73.4315 0.0016 -0.9728 -0.0019
# 4 0.0027 0.0008 0.0016 25.0173 -0.0018 2.0903
# 5 23.9473 15.0004 -0.9728 -0.0018 27.9119 0.0015
# 6 -0.0028 -0.0008 -0.0019 2.0903 0.0015 19.6490
#
#
#
# Elastic Compliance Matrix: (Units=1/GPa)
#
#
# Indices 1 2 3 4 5 6 
#
# 1 0.016968 -0.008464 0.005993 -0.000003 -0.009800 0.000004
# 2 -0.008464 0.017987 -0.012265 0.000001 -0.002832 -0.000002
# 3 0.005993 -0.012265 0.021992 -0.000002 0.002216 0.000002
# 4 -0.000003 0.000001 -0.000002 0.040331 0.000005 -0.004290
# 5 -0.009800 -0.002832 0.002216 0.000005 0.045834 -0.000005
# 6 0.000004 -0.000002 0.000002 -0.004290 -0.000005 0.051350
#
#
# Mechanical properties :
#
#
# Convention : Reuss Voigt Hill
#
# Bulk Modulus (GPa) = 36.39834 52.80976 44.60405
# Shear Modulus (GPa) = 21.45073 27.17787 24.31430
#
# Velocity S-wave (km/s) = 3.29223 3.70576 3.50510
# Velocity P-wave (km/s) = 5.73091 6.70778 6.23849
#
# Compressibility (1/GPa) = 0.02747378
#
# Stress axis : x y z
#
# Youngs Moduli (GPa) = 58.93472 55.59479 45.47205
#
# Poissons Ratio (x) = 0.47058 -0.27252
# Poissons Ratio (y) = 0.49885 0.55772
# Poissons Ratio (z) = -0.35320 0.68188
#
# Static dielectric constant tensor:
#      x y z
#    x 1.715360 0.000000 0.000360 
#    y 0.000000 1.688370 0.000000 
#    z 0.000360 0.000000 1.759300 
# 
# From -- ./inp_files/251859.got.cif
#   From: 2010.05.17/outbox.cif.g08.bks.cpg/sg12_126_cif.got.tgz:251859.got - 2010.06.03 13:09:07.
