data_PCOD9194722
_publ_section_title
;
Structure prediction by ZEFSAII (Michael W. Deem and Ramdas Pophale) SiO2 
 PCOD9194722
Probable space group: C 2/M
;
_chemical_formula_sum "Si O2"
_cell_formula_units_Z 48
_cell_length_a 15.255127
_cell_length_b 8.928994
_cell_length_c 17.747244
_cell_angle_alpha 90.000000
_cell_angle_beta 90.961023
_cell_angle_gamma 90.000000
_cell_volume 2417.064196
_symmetry_space_group_name_H-M "C 2/M"
_symmetry_group_IT_number 12
_symmetry_cell_setting 'monoclinic'
loop_
_space_group_symop_operation_xyz
x,y,z
-x,y,-z
-x,-y,-z
x,-y,z
1/2+x,1/2+y,z
1/2-x,1/2+y,-z
1/2-x,1/2-y,-z
1/2+x,1/2-y,z
loop_
_atom_site_type_symbol
_atom_site_label
_atom_site_fract_x
_atom_site_fract_y
_atom_site_fract_z
Si Si1 0.397745 0.666346 0.482205
Si Si2 0.647210 0.832330 0.669251
Si Si3 0.383421 0.820129 0.797215
Si Si4 0.645400 0.671551 0.357933
Si Si5 0.032065 0.682211 0.918961
Si Si6 0.194971 0.317696 0.830340
O O1 0.500000 0.655264 0.500000
O O2 0.357554 0.500000 0.476423
O O3 0.387664 0.743797 0.402218
O O4 0.361090 0.739946 0.558333
O O5 0.752008 0.838614 0.658911
O O6 0.640950 0.772772 0.753905
O O7 0.610148 0.000000 0.667343
O O8 0.396685 0.759065 0.712366
O O9 0.461806 0.774272 0.854061
O O10 0.290765 0.755220 0.826839
O O11 0.378393 0.000000 0.794981
O O12 0.610284 0.500000 0.360546
O O13 0.031925 0.500000 0.920023
O O14 0.131191 0.725196 0.897889
O O15 0.000000 0.735289 0.000000
O O16 0.204656 0.500000 0.827876
#
# Coordination Sequence:
#
# PCOD9194722 Si02
#       6
#     8   8   8   8   8   8
#     4  10  21  33  47  73 105 137 173 216 265 311
#     4   9  18  32  51  72  97 136 180 217 256 311
#     4  10  20  34  57  86 109 138 186 230 264 316
#     4   9  19  36  53  71 103 143 176 213 269 321
#     4   9  19  36  58  83 112 146 180 218 269 329
#     4   9  19  37  58  80 111 148 180 218 275 328
#
# _framework density 19.858802000000001
#
# number of rings (size 3 to 8) (size 9 to 14) (size 15 to 20)
#    0.000    2.667    0.000    2.000    2.333    4.333 
#    0.000    1.667    0.000    3.500    0.000    0.000 
#    0.000    0.000    0.000    0.000    0.000    0.000 
#
# Total GULP energy -133756.561846 kJ/mol
# GULP energy per Si atom -5573.190077 kJ/mol
# Density = 1.981360 g / cm^3
# Si number density = 19.858802 Si / 1000 Ang^3
#
#
#
# Elastic Constant Matrix: (Units=GPa)
#
#
# Indices 1 2 3 4 5 6 
#
# 1 37.7645 5.7725 4.6369 0.0000 -4.7682 0.0000
# 2 5.7725 25.2849 4.7179 0.0000 6.5099 0.0000
# 3 4.6369 4.7179 41.7281 0.0000 -14.2055 0.0000
# 4 0.0000 0.0000 0.0000 21.7057 0.0000 4.6247
# 5 -4.7682 6.5099 -14.2055 0.0000 37.9671 0.0000
# 6 0.0000 0.0000 0.0000 4.6247 0.0000 -16.0951
#
#
#
# Elastic Compliance Matrix: (Units=1/GPa)
#
#
# Indices 1 2 3 4 5 6 
#
# 1 0.028292 -0.007494 -0.000744 0.000000 0.004560 0.000000
# 2 -0.007494 0.045915 -0.008433 0.000000 -0.011969 0.000000
# 3 -0.000744 -0.008433 0.029178 0.000000 0.012269 0.000000
# 4 0.000000 0.000000 0.000000 0.043413 0.000000 0.012474
# 5 0.004560 -0.011969 0.012269 0.000000 0.033554 0.000000
# 6 0.000000 0.000000 0.000000 0.012474 0.000000 -0.058547
#
#
# Mechanical properties :
#
#
# Convention : Reuss Voigt Hill
#
# Bulk Modulus (GPa) = 14.27711 15.00355 14.64033
# Shear Modulus (GPa) = 28.01165 14.69224 21.35195
#
# Velocity S-wave (km/s) = 3.75979 2.72294 3.28256
# Velocity P-wave (km/s) = 5.10421 4.17821 4.66424
#
# Compressibility (1/GPa) = 0.07004217
#
# Stress axis : x y z
#
# Youngs Moduli (GPa) = 35.34506 21.77916 34.27267
#
# Poissons Ratio (x) = 0.16322 0.02551
# Poissons Ratio (y) = 0.26488 0.28903
# Poissons Ratio (z) = 0.02631 0.18367
#
# Static dielectric constant tensor:
#      x y z
#    x 1.706190 0.000000 -0.038500 
#    y 0.000000 1.711690 0.000000 
#    z -0.038500 0.000000 1.749430 
# 
# From -- ./inp_files/267718.got.cif
#   From: 2010.05.17/outbox.cif.g08.bks.cpg/sg12_134_cif.got.tgz:267718.got - 2010.06.03 13:09:07.
