data_PCOD9194195
_publ_section_title
;
Structure prediction by ZEFSAII (Michael W. Deem and Ramdas Pophale) SiO2 
 PCOD9194195
Probable space group: C 2/M
;
_chemical_formula_sum "Si O2"
_cell_formula_units_Z 64
_cell_length_a 15.077683
_cell_length_b 7.444142
_cell_length_c 24.293944
_cell_angle_alpha 90.000000
_cell_angle_beta 85.674165
_cell_angle_gamma 90.000000
_cell_volume 2718.994379
_symmetry_space_group_name_H-M "C 2/M"
_symmetry_group_IT_number 12
_symmetry_cell_setting 'monoclinic'
loop_
_space_group_symop_operation_xyz
x,y,z
-x,y,-z
-x,-y,-z
x,-y,z
1/2+x,1/2+y,z
1/2-x,1/2+y,-z
1/2-x,1/2-y,-z
1/2+x,1/2-y,z
loop_
_atom_site_type_symbol
_atom_site_label
_atom_site_fract_x
_atom_site_fract_y
_atom_site_fract_z
Si Si1 0.703809 0.283899 0.371912
Si Si2 0.467022 0.212589 0.559844
Si Si3 0.614480 0.215620 0.771727
Si Si4 0.908019 0.280215 0.348255
Si Si5 0.797257 0.284659 0.055208
Si Si6 0.325442 0.285295 0.745735
Si Si7 0.146438 0.211251 0.139722
Si Si8 0.462585 0.216895 0.108220
O O1 0.706858 0.500000 0.368972
O O2 0.637450 0.235776 0.423813
O O3 0.806774 0.226386 0.368918
O O4 0.660928 0.214012 0.316389
O O5 0.500000 0.286515 0.500000
O O6 0.522757 0.284200 0.609352
O O7 0.485284 0.000000 0.558104
O O8 0.574352 0.280359 0.715470
O O9 0.720562 0.245739 0.763011
O O10 0.574907 0.282813 0.830859
O O11 0.603909 0.000000 0.773422
O O12 0.909386 0.500000 0.346805
O O13 0.799933 0.500000 0.060175
O O14 0.733624 0.213329 0.106661
O O15 0.896953 0.221239 0.063053
O O16 0.750000 0.250000 0.000000
O O17 0.340907 0.500000 0.741209
O O18 0.373791 0.214743 0.798235
O O19 0.064611 0.229493 0.102409
O O20 0.163200 0.000000 0.147314
O O21 0.461968 0.000000 0.108740
#
# Coordination Sequence:
#
# PCOD9194195 Si02
#       8
#     8   8   8   8   8   8   8   8
#     4   9  18  33  54  77  99 132 178 219 255 307
#     4  10  21  35  50  73 107 142 175 214 263 314
#     4   8  13  27  52  76 100 133 173 210 251 311
#     4   8  16  31  51  74 101 137 174 208 256 316
#     4  10  22  40  59  77 106 145 182 216 257 308
#     4   8  14  29  53  77 103 133 168 212 261 313
#     4  10  20  35  55  80 108 139 170 209 267 321
#     4  10  20  34  55  83 107 135 176 220 259 303
#
# _framework density 23.538115999999999
#
# number of rings (size 3 to 8) (size 9 to 14) (size 15 to 20)
#    0.000    2.875    1.250    1.500    1.750    2.250 
#    0.000    3.125    0.000    3.000    0.000    0.000 
#    0.000    0.000    0.000    0.000    0.000    0.000 
#
# Total GULP energy -178640.212846 kJ/mol
# GULP energy per Si atom -5582.506651 kJ/mol
# Density = 2.348454 g / cm^3
# Si number density = 23.538116 Si / 1000 Ang^3
#
#
#
# Elastic Constant Matrix: (Units=GPa)
#
#
# Indices 1 2 3 4 5 6 
#
# 1 49.0841 -6.4877 -4.5042 0.0000 16.2033 0.0000
# 2 -6.4877 68.9408 4.9558 0.0000 2.3707 0.0000
# 3 -4.5042 4.9558 38.1827 0.0000 13.2063 0.0000
# 4 0.0000 0.0000 0.0000 -0.3696 0.0000 -1.0405
# 5 16.2033 2.3707 13.2063 0.0000 29.9863 0.0000
# 6 0.0000 0.0000 0.0000 -1.0405 0.0000 5.9702
#
#
#
# Elastic Compliance Matrix: (Units=1/GPa)
#
#
# Indices 1 2 3 4 5 6 
#
# 1 0.028130 0.002621 0.009800 0.000000 -0.019723 0.000000
# 2 0.002621 0.014890 -0.000857 0.000000 -0.002216 0.000000
# 3 0.009800 -0.000857 0.034524 0.000000 -0.020432 0.000000
# 4 0.000000 0.000000 0.000000 -1.815024 0.000000 -0.316335
# 5 -0.019723 -0.002216 -0.020432 0.000000 0.053180 0.000000
# 6 0.000000 0.000000 0.000000 -0.316335 0.000000 0.112366
#
#
# Mechanical properties :
#
#
# Convention : Reuss Voigt Hill
#
# Bulk Modulus (GPa) = 9.93332 16.01504 12.97418
# Shear Modulus (GPa) = -3.20204 17.93362 7.36579
#
# Velocity S-wave (km/s) = -1.16761 2.76324 1.77090
# Velocity P-wave (km/s) = 1.55290 4.12302 3.11535
#
# Compressibility (1/GPa) = 0.10067125
#
# Stress axis : x y z
#
# Youngs Moduli (GPa) = 35.54951 67.16077 28.96528
#
# Poissons Ratio (x) = -0.17603 -0.28385
# Poissons Ratio (y) = -0.09317 0.02482
# Poissons Ratio (z) = -0.34838 0.05755
#
# Static dielectric constant tensor:
#      x y z
#    x 1.880070 0.000000 0.020110 
#    y 0.000000 1.829750 0.000000 
#    z 0.020110 0.000000 1.918680 
# 
# From -- ./inp_files/335623.got.cif
#   From: 2010.05.17/outbox.cif.g08.bks.cpg/sg12_168_cif.got.tgz:335623.got - 2010.06.03 13:09:07.
