data_PCOD9194154
_publ_section_title
;
Structure prediction by ZEFSAII (Michael W. Deem and Ramdas Pophale) SiO2 
 PCOD9194154
Probable space group: C 2/M
;
_chemical_formula_sum "Si O2"
_cell_formula_units_Z 48
_cell_length_a 17.908701
_cell_length_b 9.032958
_cell_length_c 21.033465
_cell_angle_alpha 90.000000
_cell_angle_beta 49.461373
_cell_angle_gamma 90.000000
_cell_volume 2585.831253
_symmetry_space_group_name_H-M "C 2/M"
_symmetry_group_IT_number 12
_symmetry_cell_setting 'monoclinic'
loop_
_space_group_symop_operation_xyz
x,y,z
-x,y,-z
-x,-y,-z
x,-y,z
1/2+x,1/2+y,z
1/2-x,1/2+y,-z
1/2-x,1/2-y,-z
1/2+x,1/2-y,z
loop_
_atom_site_type_symbol
_atom_site_label
_atom_site_fract_x
_atom_site_fract_y
_atom_site_fract_z
Si Si1 0.905496 0.830570 0.909291
Si Si2 0.023770 0.323313 0.738952
Si Si3 0.221505 0.826362 0.581829
Si Si4 0.359889 0.322324 0.739581
Si Si5 0.604563 0.173373 0.412807
Si Si6 0.287564 0.829999 0.075763
O O1 0.808287 0.827669 0.917736
O O2 0.984773 0.731086 0.829108
O O3 0.938699 0.000000 0.894605
O O4 0.869207 0.769129 0.996897
O O5 0.024860 0.500000 0.734937
O O6 0.128748 0.255321 0.663935
O O7 0.946727 0.257243 0.730488
O O8 0.250000 0.750000 0.500000
O O9 0.313308 0.816069 0.578592
O O10 0.198657 0.000000 0.584474
O O11 0.370997 0.500000 0.739064
O O12 0.366095 0.269098 0.664205
O O13 0.257501 0.282946 0.831699
O O14 0.500000 0.219264 0.500000
O O15 0.595811 0.000000 0.398356
O O16 0.321274 0.000000 0.060507
#
# Coordination Sequence:
#
# PCOD9194154 Si02
#       6
#     8   8   8   8   8   8
#     4   9  16  27  46  74 106 140 180 223 266 314
#     4  11  21  34  54  79 111 148 184 224 270 317
#     4  11  23  39  59  83 111 141 177 221 268 323
#     4  10  20  34  55  82 111 143 182 226 269 319
#     4  10  22  39  58  81 109 140 175 218 270 326
#     4   8  15  27  44  72 107 140 175 217 266 317
#
# _framework density 18.562695999999999
#
# number of rings (size 3 to 8) (size 9 to 14) (size 15 to 20)
#    0.000    2.167    0.000    5.000    0.000    7.667 
#    0.000    0.000    0.000    1.000    0.000    7.000 
#    0.000    0.000    0.000    0.000    0.000    0.000 
#
# Total GULP energy -133971.129090 kJ/mol
# GULP energy per Si atom -5582.130379 kJ/mol
# Density = 1.852045 g / cm^3
# Si number density = 18.562696 Si / 1000 Ang^3
#
#
#
# Elastic Constant Matrix: (Units=GPa)
#
#
# Indices 1 2 3 4 5 6 
#
# 1 27.8139 36.1011 41.3731 0.0000 -0.2922 0.0000
# 2 36.1011 135.2777 93.0718 0.0000 -0.3335 0.0000
# 3 41.3731 93.0718 175.8581 0.0000 5.1537 0.0000
# 4 0.0000 0.0000 0.0000 39.7192 0.0000 1.1581
# 5 -0.2922 -0.3335 5.1537 0.0000 21.3091 0.0000
# 6 0.0000 0.0000 0.0000 1.1581 0.0000 19.6585
#
#
#
# Elastic Compliance Matrix: (Units=1/GPa)
#
#
# Indices 1 2 3 4 5 6 
#
# 1 0.063746 -0.010419 -0.009572 0.000000 0.003026 0.000000
# 2 -0.010419 0.013388 -0.004670 0.000000 0.001196 0.000000
# 3 -0.009572 -0.004670 0.010490 0.000000 -0.002741 0.000000
# 4 0.000000 0.000000 0.000000 0.025220 0.000000 -0.001486
# 5 0.003026 0.001196 -0.002741 0.000000 0.047651 0.000000
# 6 0.000000 0.000000 0.000000 -0.001486 0.000000 0.050956
#
#
# Mechanical properties :
#
#
# Convention : Reuss Voigt Hill
#
# Bulk Modulus (GPa) = 26.10681 75.56019 50.83350
# Shear Modulus (GPa) = 18.27882 27.36428 22.82155
#
# Velocity S-wave (km/s) = 3.14141 3.84364 3.51013
# Velocity P-wave (km/s) = 5.22040 7.77765 6.62361
#
# Compressibility (1/GPa) = 0.03830418
#
# Stress axis : x y z
#
# Youngs Moduli (GPa) = 15.68719 74.69237 95.32940
#
# Poissons Ratio (x) = 0.77821 0.91247
# Poissons Ratio (y) = 0.16344 0.44514
# Poissons Ratio (z) = 0.15015 0.34878
#
# Static dielectric constant tensor:
#      x y z
#    x 1.629070 0.000000 0.006160 
#    y 0.000000 1.626370 0.000000 
#    z 0.006160 0.000000 1.640460 
# 
# From -- ./inp_files/313601.got.cif
#   From: 2010.05.17/outbox.cif.g08.bks.cpg/sg12_157_cif.got.tgz:313601.got - 2010.06.03 13:09:07.
