data_PCOD9194687
_publ_section_title
;
Structure prediction by ZEFSAII (Michael W. Deem and Ramdas Pophale) SiO2 
 PCOD9194687
Probable space group: C 2/M
;
_chemical_formula_sum "Si O2"
_cell_formula_units_Z 48
_cell_length_a 27.703666
_cell_length_b 7.577490
_cell_length_c 11.167072
_cell_angle_alpha 90.000000
_cell_angle_beta 60.663974
_cell_angle_gamma 90.000000
_cell_volume 2043.617256
_symmetry_space_group_name_H-M "C 2/M"
_symmetry_group_IT_number 12
_symmetry_cell_setting 'monoclinic'
loop_
_space_group_symop_operation_xyz
x,y,z
-x,y,-z
-x,-y,-z
x,-y,z
1/2+x,1/2+y,z
1/2-x,1/2+y,-z
1/2-x,1/2-y,-z
1/2+x,1/2-y,z
loop_
_atom_site_type_symbol
_atom_site_label
_atom_site_fract_x
_atom_site_fract_y
_atom_site_fract_z
Si Si1 0.439071 0.292292 0.089819
Si Si2 0.338188 0.705126 0.349590
Si Si3 0.863802 0.712566 0.684917
Si Si4 0.035132 0.704653 0.581755
Si Si5 0.765213 0.791297 0.656433
Si Si6 0.429275 0.785676 0.838905
O O1 0.445360 0.500000 0.108888
O O2 0.396819 0.216436 0.238886
O O3 0.500000 0.211897 0.000000
O O4 0.412911 0.274588 0.989854
O O5 0.347297 0.500000 0.366764
O O6 0.295321 0.714057 0.290550
O O7 0.304304 0.783907 0.501829
O O8 0.868445 0.500000 0.677547
O O9 0.905851 0.782012 0.529654
O O10 0.801088 0.760084 0.730993
O O11 0.888246 0.771498 0.782517
O O12 0.044020 0.500000 0.602830
O O13 0.000000 0.706107 0.500000
O O14 0.991688 0.780177 0.730057
O O15 0.758842 0.000000 0.647799
O O16 0.430889 0.000000 0.835007
#
# Coordination Sequence:
#
# PCOD9194687 Si02
#       6
#     8   8   8   8   8   8
#     4  10  22  38  56  77 108 147 178 211 265 325
#     4   9  20  39  56  75 107 144 179 217 264 317
#     4   9  17  31  53  79 109 142 174 215 270 319
#     4   7  12  25  45  70 102 137 170 206 250 302
#     4  10  20  34  57  84 106 133 178 229 268 309
#     4   9  18  33  52  78 109 141 180 220 257 310
#
# _framework density 23.487763999999999
#
# number of rings (size 3 to 8) (size 9 to 14) (size 15 to 20)
#    0.000    3.000    0.000    2.500    2.333    2.333 
#    0.000    0.833    0.000    3.000    0.000    0.000 
#    0.000    0.000    0.000    0.000    0.000    0.000 
#
# Total GULP energy -133950.235679 kJ/mol
# GULP energy per Si atom -5581.259820 kJ/mol
# Density = 2.343430 g / cm^3
# Si number density = 23.487764 Si / 1000 Ang^3
#
#
#
# Elastic Constant Matrix: (Units=GPa)
#
#
# Indices 1 2 3 4 5 6 
#
# 1 113.4218 1.9508 10.7414 0.0000 -4.8149 0.0000
# 2 1.9508 68.9071 6.0079 0.0000 -1.4159 0.0000
# 3 10.7414 6.0079 71.6325 0.0000 -12.0845 0.0000
# 4 0.0000 0.0000 0.0000 9.4842 0.0000 10.4956
# 5 -4.8149 -1.4159 -12.0845 0.0000 29.1709 0.0000
# 6 0.0000 0.0000 0.0000 10.4956 0.0000 10.8801
#
#
#
# Elastic Compliance Matrix: (Units=1/GPa)
#
#
# Indices 1 2 3 4 5 6 
#
# 1 0.008972 -0.000132 -0.001167 0.000000 0.000991 0.000000
# 2 -0.000132 0.014622 -0.001172 0.000000 0.000202 0.000000
# 3 -0.001167 -0.001172 0.015258 0.000000 0.006071 0.000000
# 4 0.000000 0.000000 0.000000 -1.561251 0.000000 1.506073
# 5 0.000991 0.000202 0.006071 0.000000 0.036969 0.000000
# 6 0.000000 0.000000 0.000000 1.506073 0.000000 -1.360935
#
#
# Mechanical properties :
#
#
# Convention : Reuss Voigt Hill
#
# Bulk Modulus (GPa) = 29.49089 32.37349 30.93219
# Shear Modulus (GPa) = -1.76671 25.59114 11.91221
#
# Velocity S-wave (km/s) = -0.86823 3.30442 2.25448
# Velocity P-wave (km/s) = 3.40265 5.32653 4.46934
#
# Compressibility (1/GPa) = 0.03390878
#
# Stress axis : x y z
#
# Youngs Moduli (GPa) = 111.46402 68.38814 65.54067
#
# Poissons Ratio (x) = 0.00902 0.07649
# Poissons Ratio (y) = 0.01470 0.07685
# Poissons Ratio (z) = 0.13008 0.08019
#
# Static dielectric constant tensor:
#      x y z
#    x 1.943190 0.000000 -0.000950 
#    y 0.000000 1.871620 0.000000 
#    z -0.000950 0.000000 1.911530 
# 
# From -- ./inp_files/179729.got.cif
#   From: 2010.05.17/outbox.cif.g08.bks.cpg/sg12_90_cif.got.tgz:179729.got - 2010.06.03 13:09:07.
