data_PCOD9194378
_publ_section_title
;
Structure prediction by ZEFSAII (Michael W. Deem and Ramdas Pophale) SiO2 
 PCOD9194378
Probable space group: C 2/M
;
_chemical_formula_sum "Si O2"
_cell_formula_units_Z 56
_cell_length_a 9.485737
_cell_length_b 12.599411
_cell_length_c 29.366872
_cell_angle_alpha 90.000000
_cell_angle_beta 61.040844
_cell_angle_gamma 90.000000
_cell_volume 3070.928726
_symmetry_space_group_name_H-M "C 2/M"
_symmetry_group_IT_number 12
_symmetry_cell_setting 'monoclinic'
loop_
_space_group_symop_operation_xyz
x,y,z
-x,y,-z
-x,-y,-z
x,-y,z
1/2+x,1/2+y,z
1/2-x,1/2+y,-z
1/2-x,1/2-y,-z
1/2+x,1/2-y,z
loop_
_atom_site_type_symbol
_atom_site_label
_atom_site_fract_x
_atom_site_fract_y
_atom_site_fract_z
Si Si1 0.045370 0.877060 0.042695
Si Si2 0.736356 0.123770 0.676290
Si Si3 0.535235 0.873591 0.800988
Si Si4 0.833870 0.378301 0.053147
Si Si5 0.070525 0.749860 0.619905
Si Si6 0.687195 0.271078 0.856569
Si Si7 0.906864 0.374397 0.562141
O O1 0.203199 0.829204 0.039936
O O2 0.916317 0.863679 0.103003
O O3 0.081674 0.000000 0.028933
O O4 0.000000 0.834869 0.000000
O O5 0.640540 0.130504 0.738727
O O6 0.628913 0.179052 0.653688
O O7 0.910744 0.179792 0.654304
O O8 0.759974 0.000000 0.661052
O O9 0.614544 0.794252 0.825714
O O10 0.359541 0.822816 0.819747
O O11 0.525123 0.000000 0.816339
O O12 0.791854 0.500000 0.070989
O O13 0.821990 0.313639 0.101067
O O14 0.000000 0.382556 0.000000
O O15 0.229737 0.821159 0.585896
O O16 0.012515 0.679178 0.585910
O O17 0.889648 0.500000 0.573796
O O18 0.000000 0.359890 0.500000
#
# Coordination Sequence:
#
# PCOD9194378 Si02
#       7
#     8   8   8   8   8   8   8
#     4  10  22  38  57  82 110 141 181 223 272 343
#     4  10  21  39  59  83 114 150 198 247 290 340
#     4  11  25  41  61  88 115 147 192 243 291 344
#     4  10  22  38  57  82 110 141 181 223 272 343
#     4  10  20  36  60  84 116 160 202 240 290 344
#     4  12  22  40  60  82 112 150 180 230 294 338
#     4  10  20  34  55  88 125 159 198 243 291 342
#
# _framework density 18.235526
#
# number of rings (size 3 to 8) (size 9 to 14) (size 15 to 20)
#    0.000    1.571    1.429    3.429    2.000    1.143 
#    0.000    0.000    0.000   13.714    0.000    0.000 
#    0.000    0.000    0.000    0.000    0.000    0.000 
#
# Total GULP energy -156050.340120 kJ/mol
# GULP energy per Si atom -5573.226433 kJ/mol
# Density = 1.819402 g / cm^3
# Si number density = 18.235526 Si / 1000 Ang^3
#
#
#
# Elastic Constant Matrix: (Units=GPa)
#
#
# Indices 1 2 3 4 5 6 
#
# 1 133.8494 15.2722 45.5878 0.0000 -3.1757 0.0000
# 2 15.2722 35.6927 16.4643 0.0000 0.1842 0.0000
# 3 45.5878 16.4643 79.4165 0.0000 -4.0011 0.0000
# 4 0.0000 0.0000 0.0000 31.6674 0.0000 -3.9825
# 5 -3.1757 0.1842 -4.0011 0.0000 31.2223 0.0000
# 6 0.0000 0.0000 0.0000 -3.9825 0.0000 24.4349
#
#
#
# Elastic Compliance Matrix: (Units=1/GPa)
#
#
# Indices 1 2 3 4 5 6 
#
# 1 0.009381 -0.001702 -0.005016 0.000000 0.000321 0.000000
# 2 -0.001702 0.031320 -0.005570 0.000000 -0.001072 0.000000
# 3 -0.005016 -0.005570 0.016710 0.000000 0.001664 0.000000
# 4 0.000000 0.000000 0.000000 0.032239 0.000000 0.005254
# 5 0.000321 -0.001072 0.001664 0.000000 0.032281 0.000000
# 6 0.000000 0.000000 0.000000 0.005254 0.000000 0.041782
#
#
# Mechanical properties :
#
#
# Convention : Reuss Voigt Hill
#
# Bulk Modulus (GPa) = 30.45548 44.84524 37.65036
# Shear Modulus (GPa) = 25.09610 28.90718 27.00164
#
# Velocity S-wave (km/s) = 3.71377 3.98579 3.85218
# Velocity P-wave (km/s) = 5.92679 6.76961 6.36218
#
# Compressibility (1/GPa) = 0.03283481
#
# Stress axis : x y z
#
# Youngs Moduli (GPa) = 106.59420 31.92841 59.84460
#
# Poissons Ratio (x) = 0.05434 0.30019
# Poissons Ratio (y) = 0.18141 0.33335
# Poissons Ratio (z) = 0.53470 0.17785
#
# Static dielectric constant tensor:
#      x y z
#    x 1.648450 0.000000 -0.002520 
#    y 0.000000 1.654760 0.000000 
#    z -0.002520 0.000000 1.669870 
# 
# From -- ./inp_files/332838.got.cif
#   From: 2010.05.17/outbox.cif.g08.bks.cpg/sg12_167_cif.got.tgz:332838.got - 2010.06.03 13:09:07.
