data_PCOD9194321
_publ_section_title
;
Structure prediction by ZEFSAII (Michael W. Deem and Ramdas Pophale) SiO2 
 PCOD9194321
Probable space group: C 2/M
;
_chemical_formula_sum "Si O2"
_cell_formula_units_Z 64
_cell_length_a 15.960612
_cell_length_b 8.768833
_cell_length_c 31.543827
_cell_angle_alpha 90.000000
_cell_angle_beta 129.806973
_cell_angle_gamma 90.000000
_cell_volume 3391.432665
_symmetry_space_group_name_H-M "C 2/M"
_symmetry_group_IT_number 12
_symmetry_cell_setting 'monoclinic'
loop_
_space_group_symop_operation_xyz
x,y,z
-x,y,-z
-x,-y,-z
x,-y,z
1/2+x,1/2+y,z
1/2-x,1/2+y,-z
1/2-x,1/2-y,-z
1/2+x,1/2-y,z
loop_
_atom_site_type_symbol
_atom_site_label
_atom_site_fract_x
_atom_site_fract_y
_atom_site_fract_z
Si Si1 0.543952 0.817399 0.061222
Si Si2 0.682275 0.815845 0.239893
Si Si3 0.921146 0.815920 0.556397
Si Si4 0.674195 0.684267 0.632986
Si Si5 0.250601 0.318076 0.828457
Si Si6 0.069486 0.683201 0.831965
Si Si7 0.258233 0.182477 0.434492
Si Si8 0.645258 0.681650 0.942665
O O1 0.661478 0.749792 0.110178
O O2 0.460498 0.744950 0.067455
O O3 0.546140 0.000000 0.066985
O O4 0.500000 0.782528 0.000000
O O5 0.757089 0.768498 0.303584
O O6 0.724845 0.749954 0.209500
O O7 0.556652 0.769951 0.206923
O O8 0.684726 0.000000 0.237986
O O9 0.854062 0.775330 0.577362
O O10 0.855023 0.743360 0.496052
O O11 0.047400 0.769431 0.596591
O O12 0.916550 0.000000 0.550676
O O13 0.676649 0.500000 0.631490
O O14 0.725953 0.748785 0.606783
O O15 0.263757 0.500000 0.831268
O O16 0.131015 0.282411 0.808104
O O17 0.074189 0.500000 0.839869
O O18 0.134273 0.762022 0.891081
O O19 0.263416 0.000000 0.433920
O O20 0.649328 0.500000 0.945714
O O21 0.750000 0.750000 0.000000
#
# Coordination Sequence:
#
# PCOD9194321 Si02
#       8
#     8   8   8   8   8   8   8   8
#     4  11  23  39  60  87 119 153 191 237 292 354
#     4  10  22  41  62  83 115 159 200 243 294 356
#     4   9  19  36  56  81 118 157 195 241 294 356
#     4  10  21  37  58  83 113 156 203 240 292 353
#     4  11  23  39  61  88 116 151 194 242 295 349
#     4  10  22  41  62  85 118 154 191 240 297 351
#     4  10  20  34  55  85 118 153 194 246 302 348
#     4  12  24  38  60  89 120 153 192 238 291 351
#
# _framework density 18.871081
#
# number of rings (size 3 to 8) (size 9 to 14) (size 15 to 20)
#    0.000    1.625    1.250    3.375    0.000    8.000 
#    0.000    0.000    0.000    0.000    0.000    0.000 
#    0.000    0.000    0.000    0.000    0.000    0.000 
#
# Total GULP energy -178820.521261 kJ/mol
# GULP energy per Si atom -5588.141289 kJ/mol
# Density = 1.882813 g / cm^3
# Si number density = 18.871081 Si / 1000 Ang^3
#
#
#
# Elastic Constant Matrix: (Units=GPa)
#
#
# Indices 1 2 3 4 5 6 
#
# 1 149.4048 44.2619 74.2572 0.0000 -21.1354 0.0000
# 2 44.2619 27.0025 35.4343 0.0000 -8.4165 0.0000
# 3 74.2572 35.4343 116.0822 0.0000 -22.1351 0.0000
# 4 0.0000 0.0000 0.0000 22.3072 0.0000 -7.5315
# 5 -21.1354 -8.4165 -22.1351 0.0000 18.7470 0.0000
# 6 0.0000 0.0000 0.0000 -7.5315 0.0000 28.7637
#
#
#
# Elastic Compliance Matrix: (Units=1/GPa)
#
#
# Indices 1 2 3 4 5 6 
#
# 1 0.013983 -0.018181 -0.002511 0.000000 0.004638 0.000000
# 2 -0.018181 0.086151 -0.014456 0.000000 0.001113 0.000000
# 3 -0.002511 -0.014456 0.016592 0.000000 0.010269 0.000000
# 4 0.000000 0.000000 0.000000 0.049176 0.000000 0.012876
# 5 0.004638 0.001113 0.010269 0.000000 0.071195 0.000000
# 6 0.000000 0.000000 0.000000 0.012876 0.000000 0.038138
#
#
# Mechanical properties :
#
#
# Convention : Reuss Voigt Hill
#
# Bulk Modulus (GPa) = 21.53692 66.71069 44.12380
# Shear Modulus (GPa) = 13.85012 23.19933 18.52472
#
# Velocity S-wave (km/s) = 2.71206 3.51003 3.13652
# Velocity P-wave (km/s) = 4.60917 7.20101 6.04562
#
# Compressibility (1/GPa) = 0.04643190
#
# Stress axis : x y z
#
# Youngs Moduli (GPa) = 71.51291 11.60746 60.27082
#
# Poissons Ratio (x) = 0.21103 0.15135
# Poissons Ratio (y) = 1.30015 0.87125
# Poissons Ratio (z) = 0.17958 0.16779
#
# Static dielectric constant tensor:
#      x y z
#    x 1.620750 0.000000 0.005250 
#    y 0.000000 1.636810 0.000000 
#    z 0.005250 0.000000 1.631900 
# 
# From -- ./inp_files/375644.got.cif
#   From: 2010.05.17/outbox.cif.g08.bks.cpg/sg12_188_cif.got.tgz:375644.got - 2010.06.03 13:09:07.
