data_PCOD9194577
_publ_section_title
;
Structure prediction by ZEFSAII (Michael W. Deem and Ramdas Pophale) SiO2 
 PCOD9194577
Probable space group: C 2/M
;
_chemical_formula_sum "Si O2"
_cell_formula_units_Z 64
_cell_length_a 19.238517
_cell_length_b 8.645032
_cell_length_c 20.749116
_cell_angle_alpha 90.000000
_cell_angle_beta 98.773954
_cell_angle_gamma 90.000000
_cell_volume 3410.559534
_symmetry_space_group_name_H-M "C 2/M"
_symmetry_group_IT_number 12
_symmetry_cell_setting 'monoclinic'
loop_
_space_group_symop_operation_xyz
x,y,z
-x,y,-z
-x,-y,-z
x,-y,z
1/2+x,1/2+y,z
1/2-x,1/2+y,-z
1/2-x,1/2-y,-z
1/2+x,1/2-y,z
loop_
_atom_site_type_symbol
_atom_site_label
_atom_site_fract_x
_atom_site_fract_y
_atom_site_fract_z
Si Si1 0.584775 0.815743 0.589662
Si Si2 0.770148 0.315509 0.072028
Si Si3 0.331780 0.317383 0.281784
Si Si4 0.049393 0.182755 0.215996
Si Si5 0.806783 0.315479 0.813791
Si Si6 0.828474 0.687207 0.521517
Si Si7 0.093559 0.316811 0.832309
Si Si8 0.057990 0.687625 0.361799
O O1 0.639529 0.775881 0.653751
O O2 0.619205 0.758439 0.528317
O O3 0.508132 0.760889 0.602981
O O4 0.577536 0.000000 0.581314
O O5 0.759859 0.500000 0.072008
O O6 0.724530 0.239095 0.122486
O O7 0.851436 0.284271 0.102862
O O8 0.750000 0.250000 0.000000
O O9 0.337468 0.500000 0.295536
O O10 0.252513 0.281471 0.248637
O O11 0.378646 0.272680 0.226707
O O12 0.122426 0.229039 0.193947
O O13 0.050012 0.244354 0.289589
O O14 0.985561 0.263250 0.169103
O O15 0.039198 0.000000 0.214899
O O16 0.817682 0.500000 0.816135
O O17 0.824804 0.500000 0.518871
O O18 0.750000 0.750000 0.500000
O O19 0.868513 0.729563 0.593358
O O20 0.096025 0.500000 0.819105
O O21 0.055142 0.500000 0.356658
#
# Coordination Sequence:
#
# PCOD9194577 Si02
#       8
#     8   8   8   8   8   8   8   8
#     4  10  20  36  59  81 108 149 195 239 291 354
#     4  10  21  39  65  94 124 160 200 238 283 342
#     4  10  20  34  56  86 114 147 192 240 289 343
#     4  12  24  37  58  89 122 153 196 249 298 347
#     4  10  22  39  59  85 122 160 196 240 293 346
#     4  10  23  40  57  81 111 149 196 245 301 359
#     4  10  20  37  60  87 120 157 194 233 284 344
#     4  10  21  39  60  80 110 154 198 240 295 359
#
# _framework density 18.765249000000001
#
# number of rings (size 3 to 8) (size 9 to 14) (size 15 to 20)
#    0.000    1.750    1.250    3.000    1.750    5.500 
#    0.000    0.625    0.000    6.000    0.000    0.000 
#    0.000    0.000    0.000    0.000    0.000    0.000 
#
# Total GULP energy -178724.469473 kJ/mol
# GULP energy per Si atom -5585.139671 kJ/mol
# Density = 1.872254 g / cm^3
# Si number density = 18.765249 Si / 1000 Ang^3
#
#
#
# Elastic Constant Matrix: (Units=GPa)
#
#
# Indices 1 2 3 4 5 6 
#
# 1 115.8078 17.1722 34.3723 0.0000 4.2908 0.0000
# 2 17.1722 11.3384 8.5219 0.0000 1.7592 0.0000
# 3 34.3723 8.5219 74.6117 0.0000 15.7922 0.0000
# 4 0.0000 0.0000 0.0000 25.4105 0.0000 2.3565
# 5 4.2908 1.7592 15.7922 0.0000 18.9333 0.0000
# 6 0.0000 0.0000 0.0000 2.3565 0.0000 30.7051
#
#
#
# Elastic Compliance Matrix: (Units=1/GPa)
#
#
# Indices 1 2 3 4 5 6 
#
# 1 0.012122 -0.015482 -0.004298 0.000000 0.002276 0.000000
# 2 -0.015482 0.116252 -0.005589 0.000000 -0.002631 0.000000
# 3 -0.004298 -0.005589 0.019072 0.000000 -0.014415 0.000000
# 4 0.000000 0.000000 0.000000 0.039636 0.000000 -0.003042
# 5 0.002276 -0.002631 -0.014415 0.000000 0.064569 0.000000
# 6 0.000000 0.000000 0.000000 -0.003042 0.000000 0.032801
#
#
# Mechanical properties :
#
#
# Convention : Reuss Voigt Hill
#
# Bulk Modulus (GPa) = 10.34029 35.76565 23.05297
# Shear Modulus (GPa) = 13.60820 24.45588 19.03204
#
# Velocity S-wave (km/s) = 2.69584 3.61398 3.18813
# Velocity P-wave (km/s) = 3.90030 6.04279 5.08565
#
# Compressibility (1/GPa) = 0.09670912
#
# Stress axis : x y z
#
# Youngs Moduli (GPa) = 82.49487 8.60199 52.43303
#
# Poissons Ratio (x) = 0.13317 0.22535
# Poissons Ratio (y) = 1.27717 0.29304
# Poissons Ratio (z) = 0.35455 0.04807
#
# Static dielectric constant tensor:
#      x y z
#    x 1.659730 0.000000 0.006360 
#    y 0.000000 1.636210 0.000000 
#    z 0.006360 0.000000 1.623500 
# 
# From -- ./inp_files/314207.got.cif
#   From: 2010.05.17/outbox.cif.g08.bks.cpg/sg12_158_cif.got.tgz:314207.got - 2010.06.03 13:09:07.
