data_PCOD9194647
_publ_section_title
;
Structure prediction by ZEFSAII (Michael W. Deem and Ramdas Pophale) SiO2 
 PCOD9194647
Probable space group: C 2/M
;
_chemical_formula_sum "Si O2"
_cell_formula_units_Z 56
_cell_length_a 13.555741
_cell_length_b 19.813351
_cell_length_c 15.519526
_cell_angle_alpha 90.000000
_cell_angle_beta 134.540565
_cell_angle_gamma 90.000000
_cell_volume 2970.977284
_symmetry_space_group_name_H-M "C 2/M"
_symmetry_group_IT_number 12
_symmetry_cell_setting 'monoclinic'
loop_
_space_group_symop_operation_xyz
x,y,z
-x,y,-z
-x,-y,-z
x,-y,z
1/2+x,1/2+y,z
1/2-x,1/2+y,-z
1/2-x,1/2-y,-z
1/2+x,1/2-y,z
loop_
_atom_site_type_symbol
_atom_site_label
_atom_site_fract_x
_atom_site_fract_y
_atom_site_fract_z
Si Si1 0.872231 0.280374 0.354045
Si Si2 0.834703 0.575511 0.384029
Si Si3 0.556026 0.222554 0.947155
Si Si4 0.688388 0.154857 0.278790
Si Si5 0.077451 0.921267 0.685741
Si Si6 0.259472 0.578130 0.478865
Si Si7 0.877588 0.798284 0.180267
O O1 0.817412 0.357263 0.316314
O O2 0.757358 0.228812 0.319642
O O3 0.908951 0.248911 0.282956
O O4 0.000000 0.278554 0.500000
O O5 0.790069 0.500000 0.327031
O O6 0.766409 0.588958 0.435766
O O7 0.000000 0.571193 0.500000
O O8 0.453765 0.161040 0.860744
O O9 0.553711 0.269802 0.862809
O O10 0.500000 0.255539 0.000000
O O11 0.713144 0.202727 0.062812
O O12 0.800747 0.107219 0.300051
O O13 0.671956 0.126988 0.364699
O O14 0.080757 0.873797 0.770974
O O15 0.921405 0.912314 0.554897
O O16 0.096849 0.000000 0.713934
O O17 0.223806 0.500000 0.439473
#
# Coordination Sequence:
#
# PCOD9194647 Si02
#       7
#     8   8   8   8   8   8   8
#     4  10  20  34  56  90 116 147 186 245 297 350
#     4   9  20  36  52  78 121 159 191 233 293 359
#     4  11  22  41  60  83 112 160 200 255 294 333
#     4  11  21  34  59  87 113 153 202 241 291 349
#     4  10  20  37  60  88 125 157 189 242 304 364
#     4  10  21  35  55  87 126 163 188 233 307 363
#     4  10  23  40  60  86 120 153 204 245 295 354
#
# _framework density 18.849017
#
# number of rings (size 3 to 8) (size 9 to 14) (size 15 to 20)
#    0.000    1.857    2.857    2.571    6.000    1.714 
#    0.000    2.143    0.000    3.857    0.000    0.000 
#    0.000    0.000    0.000    0.000    0.000    0.000 
#
# Total GULP energy -156147.608785 kJ/mol
# GULP energy per Si atom -5576.700314 kJ/mol
# Density = 1.880612 g / cm^3
# Si number density = 18.849017 Si / 1000 Ang^3
#
#
#
# Elastic Constant Matrix: (Units=GPa)
#
#
# Indices 1 2 3 4 5 6 
#
# 1 82.0133 31.2742 35.9805 0.0000 1.9174 0.0000
# 2 31.2742 122.6941 46.8038 0.0000 -15.4679 0.0000
# 3 35.9805 46.8038 88.2016 0.0000 -7.4840 0.0000
# 4 0.0000 0.0000 0.0000 14.1274 0.0000 -1.0268
# 5 1.9174 -15.4679 -7.4840 0.0000 17.2380 0.0000
# 6 0.0000 0.0000 0.0000 -1.0268 0.0000 29.3097
#
#
#
# Elastic Compliance Matrix: (Units=1/GPa)
#
#
# Indices 1 2 3 4 5 6 
#
# 1 0.015840 -0.002753 -0.005565 0.000000 -0.006648 0.000000
# 2 -0.002753 0.011602 -0.004282 0.000000 0.008858 0.000000
# 3 -0.005565 -0.004282 0.016203 0.000000 0.003811 0.000000
# 4 0.000000 0.000000 0.000000 0.070965 0.000000 0.002486
# 5 -0.006648 0.008858 0.003811 0.000000 0.068354 0.000000
# 6 0.000000 0.000000 0.000000 0.002486 0.000000 0.034205
#
#
# Mechanical properties :
#
#
# Convention : Reuss Voigt Hill
#
# Bulk Modulus (GPa) = 54.21281 57.89177 56.05229
# Shear Modulus (GPa) = 20.11926 24.05839 22.08883
#
# Velocity S-wave (km/s) = 3.27064 3.57651 3.42699
# Velocity P-wave (km/s) = 6.56406 6.91631 6.74248
#
# Compressibility (1/GPa) = 0.01844583
#
# Stress axis : x y z
#
# Youngs Moduli (GPa) = 63.13252 86.19049 61.71512
#
# Poissons Ratio (x) = 0.23726 0.34344
# Poissons Ratio (y) = 0.17379 0.26427
# Poissons Ratio (z) = 0.35133 0.36908
#
# Static dielectric constant tensor:
#      x y z
#    x 1.700170 0.000000 -0.000640 
#    y 0.000000 1.659650 0.000000 
#    z -0.000640 0.000000 1.668110 
# 
# From -- ./inp_files/217736.got.cif
#   From: 2010.05.17/outbox.cif.g08.bks.cpg/sg12_109_cif.got.tgz:217736.got - 2010.06.03 13:09:07.
