data_PCOD9194078
_publ_section_title
;
Structure prediction by ZEFSAII (Michael W. Deem and Ramdas Pophale) SiO2 
 PCOD9194078
Probable space group: C 2/M
;
_chemical_formula_sum "Si O2"
_cell_formula_units_Z 48
_cell_length_a 23.255401
_cell_length_b 10.390258
_cell_length_c 10.707928
_cell_angle_alpha 90.000000
_cell_angle_beta 112.442950
_cell_angle_gamma 90.000000
_cell_volume 2391.386754
_symmetry_space_group_name_H-M "C 2/M"
_symmetry_group_IT_number 12
_symmetry_cell_setting 'monoclinic'
loop_
_space_group_symop_operation_xyz
x,y,z
-x,y,-z
-x,-y,-z
x,-y,z
1/2+x,1/2+y,z
1/2-x,1/2+y,-z
1/2-x,1/2-y,-z
1/2+x,1/2-y,z
loop_
_atom_site_type_symbol
_atom_site_label
_atom_site_fract_x
_atom_site_fract_y
_atom_site_fract_z
Si Si1 0.436433 0.652569 0.132580
Si Si2 0.791607 0.855654 0.604889
Si Si3 0.434390 0.344651 0.689259
Si Si4 0.098184 0.152096 0.605303
Si Si5 0.332723 0.856716 0.004797
Si Si6 0.224408 0.274691 0.780961
O O1 0.427993 0.500000 0.093377
O O2 0.508069 0.696724 0.176399
O O3 0.427372 0.666364 0.275792
O O4 0.384350 0.745134 0.031347
O O5 0.750000 0.750000 0.500000
O O6 0.864038 0.815460 0.671106
O O7 0.763022 0.861172 0.719154
O O8 0.788639 0.000000 0.546395
O O9 0.440812 0.500000 0.695275
O O10 0.438648 0.300399 0.547495
O O11 0.165922 0.214535 0.661555
O O12 0.104049 0.000000 0.592616
O O13 0.304155 0.841955 0.120593
O O14 0.358160 0.000000 0.009276
O O15 0.273441 0.831708 0.868074
#
# Coordination Sequence:
#
# PCOD9194078 Si02
#       6
#     8   8   8   8   8   8
#     4   9  18  32  53  79 106 141 183 223 265 315
#     4  11  22  36  56  82 114 145 177 220 270 328
#     4   9  17  31  52  78 108 141 179 218 264 321
#     4   9  15  27  52  80 105 135 178 226 265 311
#     4  10  21  36  57  81 109 143 183 231 274 316
#     4  10  20  34  55  80 111 143 180 222 273 323
#
# _framework density 20.072035
#
# number of rings (size 3 to 8) (size 9 to 14) (size 15 to 20)
#    0.000    2.333    1.667    1.500    0.000    7.333 
#    0.000    1.667    0.000    6.000    0.000    0.000 
#    0.000    0.000    0.000    0.000    0.000    0.000 
#
# Total GULP energy -133750.813953 kJ/mol
# GULP energy per Si atom -5572.950581 kJ/mol
# Density = 2.002635 g / cm^3
# Si number density = 20.072035 Si / 1000 Ang^3
#
#
#
# Elastic Constant Matrix: (Units=GPa)
#
#
# Indices 1 2 3 4 5 6 
#
# 1 71.1308 31.6510 6.7933 0.0000 25.9814 0.0000
# 2 31.6510 81.5419 23.0080 0.0000 22.8657 0.0000
# 3 6.7933 23.0080 44.5220 0.0000 23.0379 0.0000
# 4 0.0000 0.0000 0.0000 11.0843 0.0000 5.4543
# 5 25.9814 22.8657 23.0379 0.0000 30.6001 0.0000
# 6 0.0000 0.0000 0.0000 5.4543 0.0000 18.7237
#
#
#
# Elastic Compliance Matrix: (Units=1/GPa)
#
#
# Indices 1 2 3 4 5 6 
#
# 1 0.025295 -0.005985 0.013158 0.000000 -0.026911 0.000000
# 2 -0.005985 0.017234 -0.006485 0.000000 -0.002914 0.000000
# 3 0.013158 -0.006485 0.044359 0.000000 -0.039723 0.000000
# 4 0.000000 0.000000 0.000000 0.105314 0.000000 -0.030679
# 5 -0.026911 -0.002914 -0.039723 0.000000 0.087613 0.000000
# 6 0.000000 0.000000 0.000000 -0.030679 0.000000 0.062345
#
#
# Mechanical properties :
#
#
# Convention : Reuss Voigt Hill
#
# Bulk Modulus (GPa) = 11.32956 35.56659 23.44808
# Shear Modulus (GPa) = 13.50611 21.13112 17.31862
#
# Velocity S-wave (km/s) = 2.59681 3.24815 2.94057
# Velocity P-wave (km/s) = 3.82726 5.64139 4.82044
#
# Compressibility (1/GPa) = 0.08826470
#
# Stress axis : x y z
#
# Youngs Moduli (GPa) = 39.53418 58.02638 22.54335
#
# Poissons Ratio (x) = 0.34727 -0.29664
# Poissons Ratio (y) = 0.23660 0.14619
# Poissons Ratio (z) = -0.52021 0.37630
#
# Static dielectric constant tensor:
#      x y z
#    x 1.770210 0.000000 -0.039810 
#    y 0.000000 1.684230 0.000000 
#    z -0.039810 0.000000 1.755460 
# 
# From -- ./inp_files/164679.got.cif
#   From: 2010.05.17/outbox.cif.g08.bks.cpg/sg12_83_cif.got.tgz:164679.got - 2010.06.03 13:09:07.
