data_PCOD9194140
_publ_section_title
;
Structure prediction by ZEFSAII (Michael W. Deem and Ramdas Pophale) SiO2 
 PCOD9194140
Probable space group: C 2/M
;
_chemical_formula_sum "Si O2"
_cell_formula_units_Z 56
_cell_length_a 15.758646
_cell_length_b 8.241933
_cell_length_c 25.248953
_cell_angle_alpha 90.000000
_cell_angle_beta 60.677475
_cell_angle_gamma 90.000000
_cell_volume 2859.212808
_symmetry_space_group_name_H-M "C 2/M"
_symmetry_group_IT_number 12
_symmetry_cell_setting 'monoclinic'
loop_
_space_group_symop_operation_xyz
x,y,z
-x,y,-z
-x,-y,-z
x,-y,z
1/2+x,1/2+y,z
1/2-x,1/2+y,-z
1/2-x,1/2-y,-z
1/2+x,1/2-y,z
loop_
_atom_site_type_symbol
_atom_site_label
_atom_site_fract_x
_atom_site_fract_y
_atom_site_fract_z
Si Si1 0.913188 0.301536 0.790231
Si Si2 0.582024 0.696061 0.432590
Si Si3 0.307059 0.306939 0.123383
Si Si4 0.019860 0.303701 0.863640
Si Si5 0.851406 0.306786 0.994238
Si Si6 0.995327 0.304035 0.348148
Si Si7 0.225252 0.303807 0.567031
O O1 0.911727 0.500000 0.790383
O O2 0.803273 0.246409 0.835717
O O3 0.982677 0.252289 0.817360
O O4 0.952481 0.247173 0.721418
O O5 0.500000 0.750099 0.500000
O O6 0.581795 0.500000 0.432746
O O7 0.551728 0.752948 0.383778
O O8 0.687906 0.751276 0.420706
O O9 0.302843 0.500000 0.120437
O O10 0.375327 0.257868 0.150986
O O11 0.353031 0.242837 0.054830
O O12 0.021247 0.500000 0.864272
O O13 0.940960 0.245582 0.931337
O O14 0.854205 0.500000 0.990521
O O15 0.750000 0.250000 0.000000
O O16 0.993341 0.500000 0.347377
O O17 0.883158 0.246825 0.385273
O O18 0.224763 0.500000 0.568367
O O19 0.250000 0.250000 0.500000
#
# Coordination Sequence:
#
# PCOD9194140 Si02
#       7
#     8   8   8   8   8   8   8
#     4   9  20  40  58  77 114 154 187 230 285 333
#     4  10  20  35  55  82 116 144 171 226 289 331
#     4  11  22  38  59  85 116 152 191 238 287 335
#     4  10  21  39  60  83 114 153 190 234 287 339
#     4  11  21  36  60  88 116 150 191 237 289 339
#     4  10  21  37  59  83 108 147 194 230 268 336
#     4  10  20  34  55  82 109 142 180 222 276 332
#
# _framework density 19.585811
#
# number of rings (size 3 to 8) (size 9 to 14) (size 15 to 20)
#    0.000    1.857    2.857    1.286    0.000    4.857 
#    0.000    3.571    0.000    0.000    0.000    0.000 
#    0.000    0.000    0.000    0.000    0.000    0.000 
#
# Total GULP energy -156405.527270 kJ/mol
# GULP energy per Si atom -5585.911688 kJ/mol
# Density = 1.954123 g / cm^3
# Si number density = 19.585811 Si / 1000 Ang^3
#
#
#
# Elastic Constant Matrix: (Units=GPa)
#
#
# Indices 1 2 3 4 5 6 
#
# 1 136.1662 7.5710 38.7802 0.0000 29.4354 0.0000
# 2 7.5710 10.6090 7.3258 0.0000 1.5657 0.0000
# 3 38.7802 7.3258 115.2270 0.0000 30.2780 0.0000
# 4 0.0000 0.0000 0.0000 19.2965 0.0000 7.0616
# 5 29.4354 1.5657 30.2780 0.0000 22.4453 0.0000
# 6 0.0000 0.0000 0.0000 7.0616 0.0000 30.7147
#
#
#
# Elastic Compliance Matrix: (Units=1/GPa)
#
#
# Indices 1 2 3 4 5 6 
#
# 1 0.010585 -0.005831 0.000541 0.000000 -0.014203 0.000000
# 2 -0.005831 0.101887 -0.007214 0.000000 0.010271 0.000000
# 3 0.000541 -0.007214 0.013956 0.000000 -0.019032 0.000000
# 4 0.000000 0.000000 0.000000 0.056584 0.000000 -0.013009
# 5 -0.014203 0.010271 -0.019032 0.000000 0.088137 0.000000
# 6 0.000000 0.000000 0.000000 -0.013009 0.000000 0.035549
#
#
# Mechanical properties :
#
#
# Convention : Reuss Voigt Hill
#
# Bulk Modulus (GPa) = 9.86010 41.03958 25.44984
# Shear Modulus (GPa) = 13.67942 28.37964 21.02953
#
# Velocity S-wave (km/s) = 2.64566 3.81069 3.28031
# Velocity P-wave (km/s) = 3.79182 6.35303 5.23158
#
# Compressibility (1/GPa) = 0.10141885
#
# Stress axis : x y z
#
# Youngs Moduli (GPa) = 94.47697 9.81481 71.65184
#
# Poissons Ratio (x) = 0.05723 -0.03874
# Poissons Ratio (y) = 0.55088 0.51692
# Poissons Ratio (z) = -0.05108 0.07081
#
# Static dielectric constant tensor:
#      x y z
#    x 1.676050 0.000000 -0.015430 
#    y 0.000000 1.693200 0.000000 
#    z -0.015430 0.000000 1.667310 
# 
# From -- ./inp_files/338483.got.cif
#   From: 2010.05.17/outbox.cif.g08.bks.cpg/sg12_170_cif.got.tgz:338483.got - 2010.06.03 13:09:07.
