data_PCOD9194963
_publ_section_title
;
Structure prediction by ZEFSAII (Michael W. Deem and Ramdas Pophale) SiO2 
 PCOD9194963
Probable space group: C 2/M
;
_chemical_formula_sum "Si O2"
_cell_formula_units_Z 50
_cell_length_a 24.938137
_cell_length_b 12.040509
_cell_length_c 10.283054
_cell_angle_alpha 90.000000
_cell_angle_beta 57.033773
_cell_angle_gamma 90.000000
_cell_volume 2590.529305
_symmetry_space_group_name_H-M "C 2/M"
_symmetry_group_IT_number 12
_symmetry_cell_setting 'monoclinic'
loop_
_space_group_symop_operation_xyz
x,y,z
-x,y,-z
-x,-y,-z
x,-y,z
1/2+x,1/2+y,z
1/2-x,1/2+y,-z
1/2-x,1/2-y,-z
1/2+x,1/2-y,z
loop_
_atom_site_type_symbol
_atom_site_label
_atom_site_fract_x
_atom_site_fract_y
_atom_site_fract_z
Si Si1 0.500000 0.500000 0.500000
Si Si2 0.833225 0.131518 0.400186
Si Si3 0.750565 0.731172 0.706289
Si Si4 0.373121 0.126986 0.654764
Si Si5 0.827612 0.372850 0.008127
Si Si6 0.466976 0.872034 0.904830
Si Si7 0.041628 0.789932 0.620798
O O1 0.515385 0.400979 0.588527
O O2 0.782048 0.173937 0.574633
O O3 0.806492 0.176014 0.299082
O O4 0.901292 0.179059 0.354514
O O5 0.836106 0.000000 0.395498
O O6 0.807749 0.646238 0.660392
O O7 0.724124 0.787364 0.871335
O O8 0.353478 0.148247 0.829454
O O9 0.424882 0.212723 0.532782
O O10 0.395081 0.000000 0.613676
O O11 0.803302 0.500000 0.043992
O O12 0.890444 0.365432 0.015566
O O13 0.491769 0.784600 0.766470
O O14 0.481895 0.000000 0.844666
O O15 0.500000 0.852755 0.000000
#
# Coordination Sequence:
#
# PCOD9194963 Si02
#       7
#     2   8   8   8   8   8   8
#     4  12  24  40  60  84 120 168 204 252 286 356
#     4  10  20  36  56  83 112 151 193 245 294 350
#     4  10  20  34  59  83 116 151 190 241 300 362
#     4  10  21  37  61  89 116 152 195 249 301 355
#     4  10  20  35  55  83 119 152 191 241 293 355
#     4  10  21  38  63  91 120 155 198 252 308 360
#     4  11  22  39  62  84 121 156 205 245 296 357
#
# _framework density 19.301075000000001
#
# number of rings (size 3 to 8) (size 9 to 14) (size 15 to 20)
#    0.000    1.760    0.800    3.840    0.000    0.000 
#    0.000    8.400   21.120    0.000    0.000    0.000 
#    0.000    0.000    0.000    0.000    0.000    0.000 
#
# Total GULP energy -139341.598241 kJ/mol
# GULP energy per Si atom -5573.663930 kJ/mol
# Density = 1.925714 g / cm^3
# Si number density = 19.301075 Si / 1000 Ang^3
#
#
#
# Elastic Constant Matrix: (Units=GPa)
#
#
# Indices 1 2 3 4 5 6 
#
# 1 53.6159 14.3339 -3.4578 0.0000 11.5628 0.0000
# 2 14.3339 129.7878 45.6262 0.0000 -5.8819 0.0000
# 3 -3.4578 45.6262 38.9875 0.0000 6.2091 0.0000
# 4 0.0000 0.0000 0.0000 24.8729 0.0000 11.7188
# 5 11.5628 -5.8819 6.2091 0.0000 21.6897 0.0000
# 6 0.0000 0.0000 0.0000 11.7188 0.0000 22.6518
#
#
#
# Elastic Compliance Matrix: (Units=1/GPa)
#
#
# Indices 1 2 3 4 5 6 
#
# 1 0.027602 -0.010578 0.018469 0.000000 -0.022871 0.000000
# 2 -0.010578 0.018750 -0.025764 0.000000 0.018099 0.000000
# 3 0.018469 -0.025764 0.062991 0.000000 -0.034865 0.000000
# 4 0.000000 0.000000 0.000000 0.053163 0.000000 -0.027504
# 5 -0.022871 0.018099 -0.034865 0.000000 0.073186 0.000000
# 6 0.000000 0.000000 0.000000 -0.027504 0.000000 0.058376
#
#
# Mechanical properties :
#
#
# Convention : Reuss Voigt Hill
#
# Bulk Modulus (GPa) = 13.58713 37.26620 25.42666
# Shear Modulus (GPa) = 14.11052 24.90214 19.50633
#
# Velocity S-wave (km/s) = 2.70677 3.59582 3.18250
# Velocity P-wave (km/s) = 4.10167 6.04894 5.16785
#
# Compressibility (1/GPa) = 0.07359904
#
# Stress axis : x y z
#
# Youngs Moduli (GPa) = 36.22872 53.33197 15.87533
#
# Poissons Ratio (x) = 0.56413 -0.29320
# Poissons Ratio (y) = 0.38321 0.40901
# Poissons Ratio (z) = -0.66912 1.37404
#
# Static dielectric constant tensor:
#      x y z
#    x 1.711770 0.000000 0.016150 
#    y 0.000000 1.639180 0.000000 
#    z 0.016150 0.000000 1.652720 
# 
# From -- ./inp_files/103071.got.cif
#   From: 2010.05.17/outbox.cif.g08.bks.cpg/sg12_52_cif.got.tgz:103071.got - 2010.06.03 13:09:07.
