data_PCOD9194594
_publ_section_title
;
Structure prediction by ZEFSAII (Michael W. Deem and Ramdas Pophale) SiO2 
 PCOD9194594
Probable space group: C 2/M
;
_chemical_formula_sum "Si O2"
_cell_formula_units_Z 44
_cell_length_a 23.424652
_cell_length_b 7.747678
_cell_length_c 13.554676
_cell_angle_alpha 90.000000
_cell_angle_beta 124.838758
_cell_angle_gamma 90.000000
_cell_volume 2019.071043
_symmetry_space_group_name_H-M "C 2/M"
_symmetry_group_IT_number 12
_symmetry_cell_setting 'monoclinic'
loop_
_space_group_symop_operation_xyz
x,y,z
-x,y,-z
-x,-y,-z
x,-y,z
1/2+x,1/2+y,z
1/2-x,1/2+y,-z
1/2-x,1/2-y,-z
1/2+x,1/2-y,z
loop_
_atom_site_type_symbol
_atom_site_label
_atom_site_fract_x
_atom_site_fract_y
_atom_site_fract_z
Si Si1 0.852080 0.708716 0.300949
Si Si2 0.282691 0.809287 0.738398
Si Si3 0.400140 0.209162 0.565211
Si Si4 0.250000 0.250000 0.500000
Si Si5 0.073259 0.202426 0.031065
Si Si6 0.948011 0.290381 0.214421
O O1 0.847099 0.500000 0.293936
O O2 0.774606 0.784565 0.233776
O O3 0.890855 0.758147 0.441151
O O4 0.895161 0.764332 0.248279
O O5 0.260765 0.691576 0.626141
O O6 0.275447 0.000000 0.682400
O O7 0.359481 0.788245 0.854247
O O8 0.334230 0.270800 0.562229
O O9 0.473932 0.266869 0.681201
O O10 0.399393 0.000000 0.569235
O O11 0.073477 0.226177 0.914035
O O12 0.077100 0.000000 0.059255
O O13 0.000000 0.271615 0.000000
O O14 0.947902 0.500000 0.212215
#
# Coordination Sequence:
#
# PCOD9194594 Si02
#       6
#     8   8   8   4   8   8
#     4   9  19  36  59  88 120 152 190 240 292 338
#     4  11  23  39  62  88 115 152 196 237 282 344
#     4   9  17  32  56  84 114 149 190 233 279 337
#     4  10  20  34  56  86 118 144 180 234 288 330
#     4  11  25  42  59  83 117 153 190 239 295 345
#     4  10  20  37  62  87 114 154 198 238 284 342
#
# _framework density 21.792199
#
# number of rings (size 3 to 8) (size 9 to 14) (size 15 to 20)
#    0.000    2.000    0.000    3.273    0.000    8.727 
#    0.000    6.364    0.000    5.455    0.000    0.000 
#    0.000    0.000    0.000    0.000    0.000    0.000 
#
# Total GULP energy -122472.639520 kJ/mol
# GULP energy per Si atom -5566.938160 kJ/mol
# Density = 2.174260 g / cm^3
# Si number density = 21.792199 Si / 1000 Ang^3
#
#
#
# Elastic Constant Matrix: (Units=GPa)
#
#
# Indices 1 2 3 4 5 6 
#
# 1 165.7404 -2.1223 57.0595 0.0000 5.7952 0.0000
# 2 -2.1223 47.3510 -4.4721 0.0000 8.2054 0.0000
# 3 57.0595 -4.4721 87.0781 0.0000 17.4787 0.0000
# 4 0.0000 0.0000 0.0000 -16.8625 0.0000 1.1442
# 5 5.7952 8.2054 17.4787 0.0000 46.3323 0.0000
# 6 0.0000 0.0000 0.0000 1.1442 0.0000 4.8584
#
#
#
# Elastic Compliance Matrix: (Units=1/GPa)
#
#
# Indices 1 2 3 4 5 6 
#
# 1 0.007842 -0.000349 -0.005380 0.000000 0.001110 0.000000
# 2 -0.000349 0.022146 0.002320 0.000000 -0.004754 0.000000
# 3 -0.005380 0.002320 0.016311 0.000000 -0.005891 0.000000
# 4 0.000000 0.000000 0.000000 -0.058370 0.000000 0.013747
# 5 0.001110 -0.004754 -0.005891 0.000000 0.024509 0.000000
# 6 0.000000 0.000000 0.000000 0.013747 0.000000 0.202589
#
#
# Mechanical properties :
#
#
# Convention : Reuss Voigt Hill
#
# Bulk Modulus (GPa) = 25.32773 44.56663 34.94718
# Shear Modulus (GPa) = 21.27619 23.51261 22.39440
#
# Velocity S-wave (km/s) = 3.12800 3.28829 3.20915
# Velocity P-wave (km/s) = 4.96925 5.90866 5.45920
#
# Compressibility (1/GPa) = 0.03948242
#
# Stress axis : x y z
#
# Youngs Moduli (GPa) = 127.51404 45.15458 61.30952
#
# Poissons Ratio (x) = 0.01576 0.32982
# Poissons Ratio (y) = 0.04450 -0.14225
# Poissons Ratio (z) = 0.68597 -0.10477
#
# Static dielectric constant tensor:
#      x y z
#    x 1.740820 0.000000 -0.001240 
#    y 0.000000 1.428200 0.000000 
#    z -0.001240 0.000000 1.738900 
# 
# From -- ./inp_files/173199.got.cif
#   From: 2010.05.17/outbox.cif.g08.bks.cpg/sg12_87_cif.got.tgz:173199.got - 2010.06.03 13:09:07.
