data_PCOD9194504
_publ_section_title
;
Structure prediction by ZEFSAII (Michael W. Deem and Ramdas Pophale) SiO2 
 PCOD9194504
Probable space group: C 2/M
;
_chemical_formula_sum "Si O2"
_cell_formula_units_Z 48
_cell_length_a 29.167950
_cell_length_b 9.305508
_cell_length_c 7.903892
_cell_angle_alpha 90.000000
_cell_angle_beta 100.203043
_cell_angle_gamma 90.000000
_cell_volume 2111.369594
_symmetry_space_group_name_H-M "C 2/M"
_symmetry_group_IT_number 12
_symmetry_cell_setting 'monoclinic'
loop_
_space_group_symop_operation_xyz
x,y,z
-x,y,-z
-x,-y,-z
x,-y,z
1/2+x,1/2+y,z
1/2-x,1/2+y,-z
1/2-x,1/2-y,-z
1/2+x,1/2-y,z
loop_
_atom_site_type_symbol
_atom_site_label
_atom_site_fract_x
_atom_site_fract_y
_atom_site_fract_z
Si Si1 0.722287 0.331642 0.834820
Si Si2 0.360280 0.167034 0.390337
Si Si3 0.025303 0.663401 0.201143
Si Si4 0.894305 0.836180 0.909787
Si Si5 0.943563 0.166479 0.309762
Si Si6 0.684530 0.838859 0.268660
O O1 0.713683 0.500000 0.867201
O O2 0.675529 0.250924 0.753568
O O3 0.760018 0.324863 0.706350
O O4 0.750000 0.250000 0.000000
O O5 0.410192 0.244212 0.411313
O O6 0.336344 0.173528 0.558204
O O7 0.365187 0.000000 0.344492
O O8 0.030859 0.500000 0.265577
O O9 0.073782 0.737974 0.188844
O O10 0.992462 0.757237 0.300739
O O11 0.000000 0.658170 0.000000
O O12 0.842408 0.776059 0.862805
O O13 0.896238 0.000000 0.852695
O O14 0.916098 0.830590 0.111112
O O15 0.948829 0.000000 0.362697
O O16 0.673478 0.000000 0.196753
#
# Coordination Sequence:
#
# PCOD9194504 Si02
#       6
#     8   8   8   8   8   8
#     4  11  23  40  62  87 113 144 184 230 278 329
#     4  11  23  39  58  82 113 149 187 228 277 331
#     4   9  17  31  54  82 112 147 186 230 279 328
#     4  10  20  34  56  84 113 146 186 232 279 329
#     4  10  20  35  56  84 115 147 187 233 279 329
#     4  10  23  40  57  80 113 150 186 227 277 332
#
# _framework density 22.734058000000001
#
# number of rings (size 3 to 8) (size 9 to 14) (size 15 to 20)
#    0.000    1.833    0.000    4.000    0.000    9.333 
#    0.000    0.833    0.000    5.000    0.000    0.000 
#    0.000    0.000    0.000    0.000    0.000    0.000 
#
# Total GULP energy -134337.995631 kJ/mol
# GULP energy per Si atom -5597.416485 kJ/mol
# Density = 2.268231 g / cm^3
# Si number density = 22.734058 Si / 1000 Ang^3
#
#
#
# Elastic Constant Matrix: (Units=GPa)
#
#
# Indices 1 2 3 4 5 6 
#
# 1 112.3408 52.2916 8.3703 0.0000 -18.6980 0.0000
# 2 52.2916 169.8316 30.4847 0.0000 -13.6708 0.0000
# 3 8.3703 30.4847 53.7979 0.0000 -6.6911 0.0000
# 4 0.0000 0.0000 0.0000 17.0359 0.0000 -5.4503
# 5 -18.6980 -13.6708 -6.6911 0.0000 41.7766 0.0000
# 6 0.0000 0.0000 0.0000 -5.4503 0.0000 39.1480
#
#
#
# Elastic Compliance Matrix: (Units=1/GPa)
#
#
# Indices 1 2 3 4 5 6 
#
# 1 0.010996 -0.003170 0.000580 0.000000 0.003977 0.000000
# 2 -0.003170 0.007573 -0.003741 0.000000 0.000460 0.000000
# 3 0.000580 -0.003741 0.020914 0.000000 0.002385 0.000000
# 4 0.000000 0.000000 0.000000 0.061436 0.000000 0.008553
# 5 0.003977 0.000460 0.002385 0.000000 0.026249 0.000000
# 6 0.000000 0.000000 0.000000 0.008553 0.000000 0.026735
#
#
# Mechanical properties :
#
#
# Convention : Reuss Voigt Hill
#
# Bulk Modulus (GPa) = 37.28319 57.58483 47.43401
# Shear Modulus (GPa) = 28.48942 35.91368 32.20155
#
# Velocity S-wave (km/s) = 3.54384 3.97889 3.76765
# Velocity P-wave (km/s) = 5.76024 6.81862 6.31165
#
# Compressibility (1/GPa) = 0.02682174
#
# Stress axis : x y z
#
# Youngs Moduli (GPa) = 90.94604 132.05537 47.81454
#
# Poissons Ratio (x) = 0.41855 -0.02773
# Poissons Ratio (y) = 0.28825 0.17886
# Poissons Ratio (z) = -0.05274 0.49397
#
# Static dielectric constant tensor:
#      x y z
#    x 1.802570 0.000000 -0.019030 
#    y 0.000000 1.784430 0.000000 
#    z -0.019030 0.000000 1.881130 
# 
# From -- ./inp_files/108561.got.cif
#   From: 2010.05.17/outbox.cif.g08.bks.cpg/sg12_55_cif.got.tgz:108561.got - 2010.06.03 13:09:07.
