data_PCOD9194311
_publ_section_title
;
Structure prediction by ZEFSAII (Michael W. Deem and Ramdas Pophale) SiO2 
 PCOD9194311
Probable space group: C 2/M
;
_chemical_formula_sum "Si O2"
_cell_formula_units_Z 64
_cell_length_a 20.210540
_cell_length_b 8.318096
_cell_length_c 23.970130
_cell_angle_alpha 90.000000
_cell_angle_beta 131.080890
_cell_angle_gamma 90.000000
_cell_volume 3037.514410
_symmetry_space_group_name_H-M "C 2/M"
_symmetry_group_IT_number 12
_symmetry_cell_setting 'monoclinic'
loop_
_space_group_symop_operation_xyz
x,y,z
-x,y,-z
-x,-y,-z
x,-y,z
1/2+x,1/2+y,z
1/2-x,1/2+y,-z
1/2-x,1/2-y,-z
1/2+x,1/2-y,z
loop_
_atom_site_type_symbol
_atom_site_label
_atom_site_fract_x
_atom_site_fract_y
_atom_site_fract_z
Si Si1 0.826799 0.820608 0.326557
Si Si2 0.263817 0.186094 0.181575
Si Si3 0.270833 0.689512 0.629237
Si Si4 0.951144 0.693474 0.242664
Si Si5 0.384051 0.308908 0.592132
Si Si6 0.067304 0.693986 0.206893
Si Si7 0.426009 0.807831 0.917186
Si Si8 0.506407 0.182030 0.437040
O O1 0.779691 0.704849 0.256795
O O2 0.804205 0.778328 0.377648
O O3 0.930164 0.801009 0.375223
O O4 0.796871 0.000000 0.297322
O O5 0.353676 0.251287 0.203917
O O6 0.172355 0.269779 0.117450
O O7 0.256247 0.000000 0.162528
O O8 0.251129 0.500000 0.615112
O O9 0.303851 0.748818 0.586963
O O10 0.354791 0.719973 0.716198
O O11 0.953532 0.500000 0.253533
O O12 0.027935 0.768737 0.323239
O O13 0.980012 0.722455 0.194932
O O14 0.375851 0.500000 0.580872
O O15 0.403343 0.226251 0.543614
O O16 0.084312 0.500000 0.217829
O O17 0.063017 0.748770 0.140713
O O18 0.435917 0.000000 0.920332
O O19 0.500000 0.743154 0.000000
O O20 0.500000 0.187065 0.500000
O O21 0.482958 0.000000 0.407224
#
# Coordination Sequence:
#
# PCOD9194311 Si02
#       8
#     8   8   8   8   8   8   8   8
#     4  12  23  36  58  86 114 147 189 234 280 332
#     4  11  21  34  55  82 111 143 184 236 283 329
#     4  10  20  34  55  85 116 144 183 234 280 327
#     4   9  18  32  53  79 108 143 184 230 277 328
#     4  10  20  34  56  85 115 147 184 229 279 332
#     4   9  17  32  53  77 107 146 188 226 274 334
#     4  10  21  36  54  78 111 150 190 234 284 338
#     4  11  24  41  60  83 115 153 189 229 280 335
#
# _framework density 21.069859999999998
#
# number of rings (size 3 to 8) (size 9 to 14) (size 15 to 20)
#    0.000    1.750    2.500    2.625    0.000    3.250 
#    0.000    1.250    0.000    0.000    0.000    0.000 
#    0.000    0.000    0.000    0.000    0.000    0.000 
#
# Total GULP energy -178735.838931 kJ/mol
# GULP energy per Si atom -5585.494967 kJ/mol
# Density = 2.102190 g / cm^3
# Si number density = 21.069860 Si / 1000 Ang^3
#
#
#
# Elastic Constant Matrix: (Units=GPa)
#
#
# Indices 1 2 3 4 5 6 
#
# 1 154.2488 5.3988 18.6885 0.0000 -4.4788 0.0000
# 2 5.3988 27.2168 -6.7332 0.0000 -6.6654 0.0000
# 3 18.6885 -6.7332 53.5675 0.0000 0.2141 0.0000
# 4 0.0000 0.0000 0.0000 18.3970 0.0000 1.4753
# 5 -4.4788 -6.6654 0.2141 0.0000 24.4814 0.0000
# 6 0.0000 0.0000 0.0000 1.4753 0.0000 25.5100
#
#
#
# Elastic Compliance Matrix: (Units=1/GPa)
#
#
# Indices 1 2 3 4 5 6 
#
# 1 0.006889 -0.001826 -0.002636 0.000000 0.000786 0.000000
# 2 -0.001826 0.041184 0.005770 0.000000 0.010828 0.000000
# 3 -0.002636 0.005770 0.020309 0.000000 0.000911 0.000000
# 4 0.000000 0.000000 0.000000 0.054610 0.000000 -0.003158
# 5 0.000786 0.010828 0.000911 0.000000 0.043931 0.000000
# 6 0.000000 0.000000 0.000000 -0.003158 0.000000 0.039383
#
#
# Mechanical properties :
#
#
# Convention : Reuss Voigt Hill
#
# Bulk Modulus (GPa) = 14.08484 29.97127 22.02805
# Shear Modulus (GPa) = 21.99190 28.18961 25.09076
#
# Velocity S-wave (km/s) = 3.23423 3.66172 3.45459
# Velocity P-wave (km/s) = 4.54383 5.66861 5.13710
#
# Compressibility (1/GPa) = 0.07099832
#
# Stress axis : x y z
#
# Youngs Moduli (GPa) = 145.15526 24.28152 49.23823
#
# Poissons Ratio (x) = 0.04434 0.12980
# Poissons Ratio (y) = 0.26508 -0.28413
# Poissons Ratio (z) = 0.38265 -0.14011
#
# Static dielectric constant tensor:
#      x y z
#    x 1.806740 0.000000 -0.011850 
#    y 0.000000 1.718620 0.000000 
#    z -0.011850 0.000000 1.760140 
# 
# From -- ./inp_files/346196.got.cif
#   From: 2010.05.17/outbox.cif.g08.bks.cpg/sg12_174_cif.got.tgz:346196.got - 2010.06.03 13:09:07.
