data_PCOD9194654
_publ_section_title
;
Structure prediction by ZEFSAII (Michael W. Deem and Ramdas Pophale) SiO2 
 PCOD9194654
Probable space group: C 2/M
;
_chemical_formula_sum "Si O2"
_cell_formula_units_Z 64
_cell_length_a 22.419842
_cell_length_b 21.210787
_cell_length_c 8.992348
_cell_angle_alpha 90.000000
_cell_angle_beta 129.493117
_cell_angle_gamma 90.000000
_cell_volume 3299.981413
_symmetry_space_group_name_H-M "C 2/M"
_symmetry_group_IT_number 12
_symmetry_cell_setting 'monoclinic'
loop_
_space_group_symop_operation_xyz
x,y,z
-x,y,-z
-x,-y,-z
x,-y,z
1/2+x,1/2+y,z
1/2-x,1/2+y,-z
1/2-x,1/2-y,-z
1/2+x,1/2-y,z
loop_
_atom_site_type_symbol
_atom_site_label
_atom_site_fract_x
_atom_site_fract_y
_atom_site_fract_z
Si Si1 0.421087 0.883089 0.806814
Si Si2 0.306842 0.866935 0.902538
Si Si3 0.037840 0.237257 0.213264
Si Si4 0.292042 0.311609 0.503755
Si Si5 0.802791 0.930586 0.041139
Si Si6 0.173539 0.281008 0.805557
Si Si7 0.933207 0.826317 0.295021
Si Si8 0.208577 0.614794 0.618717
O O1 0.365281 0.883506 0.862904
O O2 0.442986 0.812102 0.781234
O O3 0.368829 0.909559 0.587796
O O4 0.500000 0.911207 0.000000
O O5 0.243874 0.825920 0.713180
O O6 0.256090 0.916862 0.915184
O O7 0.351306 0.828287 0.100877
O O8 0.118114 0.201196 0.359029
O O9 0.976406 0.213886 0.236766
O O10 0.000000 0.216783 0.000000
O O11 0.250000 0.250000 0.500000
O O12 0.267087 0.366063 0.579527
O O13 0.868267 0.876212 0.141366
O O14 0.836907 0.000000 0.110748
O O15 0.751791 0.926572 0.810094
O O16 0.110768 0.227718 0.682329
O O17 0.189107 0.322196 0.684529
O O18 0.250000 0.250000 0.000000
O O19 0.000000 0.857498 0.500000
#
# Coordination Sequence:
#
# PCOD9194654 Si02
#       8
#     8   8   8   8   8   8   8   8
#     4  10  20  34  56  93 129 147 176 243 326 395
#     4  10  20  35  60  87 117 159 204 248 309 364
#     4  11  21  30  50  86 127 155 181 224 307 384
#     4  11  19  32  58  85 124 155 189 241 306 382
#     4  11  25  44  62  80 115 171 233 262 277 337
#     4  11  19  31  56  85 122 154 197 245 309 379
#     4  12  24  35  56  89 126 160 199 247 311 362
#     4  10  20  35  62  86 115 160 202 249 310 366
#
# _framework density 19.39405
#
# number of rings (size 3 to 8) (size 9 to 14) (size 15 to 20)
#    0.000    1.250    5.000    4.500    0.000    0.250 
#    0.000    4.375    0.000    5.625    0.000    0.000 
#    0.000    0.000    0.000    0.000    0.000    0.000 
#
# Total GULP energy -178387.019994 kJ/mol
# GULP energy per Si atom -5574.594375 kJ/mol
# Density = 1.934991 g / cm^3
# Si number density = 19.394050 Si / 1000 Ang^3
#
#
#
# Elastic Constant Matrix: (Units=GPa)
#
#
# Indices 1 2 3 4 5 6 
#
# 1 111.7740 17.4772 30.7165 0.0000 -2.9444 0.0000
# 2 17.4772 46.6662 10.4664 0.0000 1.0937 0.0000
# 3 30.7165 10.4664 124.0367 0.0000 -0.0218 0.0000
# 4 0.0000 0.0000 0.0000 4.5645 0.0000 1.5554
# 5 -2.9444 1.0937 -0.0218 0.0000 41.3274 0.0000
# 6 0.0000 0.0000 0.0000 1.5554 0.0000 5.4769
#
#
#
# Elastic Compliance Matrix: (Units=1/GPa)
#
#
# Indices 1 2 3 4 5 6 
#
# 1 0.010094 -0.003301 -0.002221 0.000000 0.000805 0.000000
# 2 -0.003301 0.022936 -0.001118 0.000000 -0.000843 0.000000
# 3 -0.002221 -0.001118 0.008706 0.000000 -0.000124 0.000000
# 4 0.000000 0.000000 0.000000 0.242558 0.000000 -0.068886
# 5 0.000805 -0.000843 -0.000124 0.000000 0.024277 0.000000
# 6 0.000000 0.000000 0.000000 -0.068886 0.000000 0.202148
#
#
# Mechanical properties :
#
#
# Convention : Reuss Voigt Hill
#
# Bulk Modulus (GPa) = 35.14200 44.42187 39.78194
# Shear Modulus (GPa) = 9.37233 25.19486 17.28360
#
# Velocity S-wave (km/s) = 2.20070 3.60822 2.98850
# Velocity P-wave (km/s) = 4.96153 6.34930 5.69782
#
# Compressibility (1/GPa) = 0.02845598
#
# Stress axis : x y z
#
# Youngs Moduli (GPa) = 99.06480 43.60022 114.85706
#
# Poissons Ratio (x) = 0.14393 0.25511
# Poissons Ratio (y) = 0.32704 0.12841
# Poissons Ratio (z) = 0.22003 0.04874
#
# Static dielectric constant tensor:
#      x y z
#    x 1.794750 0.000000 0.005040 
#    y 0.000000 1.629530 0.000000 
#    z 0.005040 0.000000 1.702920 
# 
# From -- ./inp_files/90682.got.cif
#   From: 2010.05.17/outbox.cif.g08.bks.cpg/sg12_46_cif.got.tgz:90682.got - 2010.06.03 13:09:07.
