data_PCOD9194365
_publ_section_title
;
Structure prediction by ZEFSAII (Michael W. Deem and Ramdas Pophale) SiO2 
 PCOD9194365
Probable space group: C 2/M
;
_chemical_formula_sum "Si O2"
_cell_formula_units_Z 56
_cell_length_a 27.663682
_cell_length_b 7.907453
_cell_length_c 19.210995
_cell_angle_alpha 90.000000
_cell_angle_beta 142.695341
_cell_angle_gamma 90.000000
_cell_volume 2546.872042
_symmetry_space_group_name_H-M "C 2/M"
_symmetry_group_IT_number 12
_symmetry_cell_setting 'monoclinic'
loop_
_space_group_symop_operation_xyz
x,y,z
-x,y,-z
-x,-y,-z
x,-y,z
1/2+x,1/2+y,z
1/2-x,1/2+y,-z
1/2-x,1/2-y,-z
1/2+x,1/2-y,z
loop_
_atom_site_type_symbol
_atom_site_label
_atom_site_fract_x
_atom_site_fract_y
_atom_site_fract_z
Si Si1 0.642999 0.799121 0.523751
Si Si2 0.662702 0.297927 0.928406
Si Si3 0.477848 0.197794 0.330304
Si Si4 0.088717 0.202905 0.125412
Si Si5 0.305075 0.293489 0.881896
Si Si6 0.204851 0.311072 0.377407
Si Si7 0.125883 0.295859 0.666185
O O1 0.561218 0.738514 0.394013
O O2 0.721951 0.703583 0.592860
O O3 0.619748 0.771004 0.577309
O O4 0.660718 0.000000 0.533416
O O5 0.654736 0.500000 0.913846
O O6 0.594754 0.213319 0.805246
O O7 0.750000 0.250000 0.000000
O O8 0.653192 0.249324 0.998140
O O9 0.442265 0.272864 0.361261
O O10 0.495831 0.000000 0.364218
O O11 0.149965 0.265094 0.135651
O O12 0.128767 0.237032 0.247260
O O13 0.085637 0.000000 0.116911
O O14 0.000000 0.263742 0.000000
O O15 0.301295 0.500000 0.873397
O O16 0.214195 0.232987 0.785399
O O17 0.180342 0.500000 0.365648
O O18 0.250000 0.250000 0.500000
O O19 0.125365 0.500000 0.676255
#
# Coordination Sequence:
#
# PCOD9194365 Si02
#       7
#     8   8   8   8   8   8   8
#     4  10  20  37  62  88 117 153 201 251 301 362
#     4  11  21  34  52  77 114 158 202 247 296 352
#     4  10  20  34  55  87 120 157 200 245 296 357
#     4  10  21  41  69  97 123 157 205 259 319 384
#     4   9  17  32  57  83 111 150 196 240 287 354
#     4  12  26  44  67  93 126 164 208 260 319 379
#     4   9  15  30  57  84 114 152 197 239 282 346
#
# _framework density 21.987753999999999
#
# number of rings (size 3 to 8) (size 9 to 14) (size 15 to 20)
#    0.000    1.857    2.857    2.143    0.000    3.714 
#    0.000    5.000    0.000    1.714    0.000    0.000 
#    0.000    0.000    0.000    0.000    0.000    0.000 
#
# Total GULP energy -156073.382902 kJ/mol
# GULP energy per Si atom -5574.049389 kJ/mol
# Density = 2.193771 g / cm^3
# Si number density = 21.987754 Si / 1000 Ang^3
#
#
#
# Elastic Constant Matrix: (Units=GPa)
#
#
# Indices 1 2 3 4 5 6 
#
# 1 53.1906 5.1683 35.7135 0.0000 -9.0011 0.0000
# 2 5.1683 24.9147 3.3729 0.0000 -5.2590 0.0000
# 3 35.7135 3.3729 132.6084 0.0000 2.5926 0.0000
# 4 0.0000 0.0000 0.0000 27.4582 0.0000 -7.3379
# 5 -9.0011 -5.2590 2.5926 0.0000 34.5760 0.0000
# 6 0.0000 0.0000 0.0000 -7.3379 0.0000 5.3423
#
#
#
# Elastic Compliance Matrix: (Units=1/GPa)
#
#
# Indices 1 2 3 4 5 6 
#
# 1 0.024674 -0.002841 -0.006700 0.000000 0.006494 0.000000
# 2 -0.002841 0.041980 -0.000414 0.000000 0.005677 0.000000
# 3 -0.006700 -0.000414 0.009405 0.000000 -0.002512 0.000000
# 4 0.000000 0.000000 0.000000 0.057540 0.000000 0.079034
# 5 0.006494 0.005677 -0.002512 0.000000 0.031664 0.000000
# 6 0.000000 0.000000 0.000000 0.079034 0.000000 0.295744
#
#
# Mechanical properties :
#
#
# Convention : Reuss Voigt Hill
#
# Bulk Modulus (GPa) = 17.80916 33.24700 25.52808
# Shear Modulus (GPa) = 10.00737 24.57256 17.28996
#
# Velocity S-wave (km/s) = 2.13570 3.34661 2.80723
# Velocity P-wave (km/s) = 3.76813 5.48513 4.70560
#
# Compressibility (1/GPa) = 0.05615088
#
# Stress axis : x y z
#
# Youngs Moduli (GPa) = 40.52929 23.82063 106.32684
#
# Poissons Ratio (x) = 0.06767 0.71235
# Poissons Ratio (y) = 0.11513 0.04399
# Poissons Ratio (z) = 0.27153 0.00986
#
# Static dielectric constant tensor:
#      x y z
#    x 1.810560 0.000000 -0.012470 
#    y 0.000000 1.822010 0.000000 
#    z -0.012470 0.000000 1.911450 
# 
# From -- ./inp_files/329654.got.cif
#   From: 2010.05.17/outbox.cif.g08.bks.cpg/sg12_165_cif.got.tgz:329654.got - 2010.06.03 13:09:07.
