data_PCOD9194988
_publ_section_title
;
Structure prediction by ZEFSAII (Michael W. Deem and Ramdas Pophale) SiO2 
 PCOD9194988
Probable space group: C 2/M
;
_chemical_formula_sum "Si O2"
_cell_formula_units_Z 48
_cell_length_a 11.586369
_cell_length_b 26.275778
_cell_length_c 16.869627
_cell_angle_alpha 90.000000
_cell_angle_beta 22.930928
_cell_angle_gamma 90.000000
_cell_volume 2001.017737
_symmetry_space_group_name_H-M "C 2/M"
_symmetry_group_IT_number 12
_symmetry_cell_setting 'monoclinic'
loop_
_space_group_symop_operation_xyz
x,y,z
-x,y,-z
-x,-y,-z
x,-y,z
1/2+x,1/2+y,z
1/2-x,1/2+y,-z
1/2-x,1/2-y,-z
1/2+x,1/2-y,z
loop_
_atom_site_type_symbol
_atom_site_label
_atom_site_fract_x
_atom_site_fract_y
_atom_site_fract_z
Si Si1 0.816608 0.754209 0.770951
Si Si2 0.074518 0.773229 0.764334
Si Si3 0.473270 0.000000 0.737847
Si Si4 0.833708 0.000000 0.229989
Si Si5 0.429753 0.630743 0.677235
Si Si6 0.598759 0.104336 0.726245
Si Si7 0.000308 0.893567 0.805223
O O1 0.061385 0.748381 0.684954
O O2 0.810436 0.739643 0.683037
O O3 0.791205 0.815139 0.783447
O O4 0.500000 0.731446 0.000000
O O5 0.109749 0.834734 0.733564
O O6 0.750000 0.750000 0.000000
O O7 0.410156 0.000000 0.684726
O O8 0.638756 0.049285 0.663062
O O9 0.153856 0.000000 0.983715
O O10 0.828955 0.054593 0.278098
O O11 0.260972 0.609152 0.707699
O O12 0.760615 0.638521 0.432048
O O13 0.410994 0.598608 0.769459
O O14 0.260031 0.111510 0.964743
#
# Coordination Sequence:
#
# PCOD9194988 Si02
#       7
#     8   8   4   4   8   8   8
#     4   9  17  33  55  86 119 150 205 247 297 365
#     4   9  17  32  56  89 113 156 202 243 300 360
#     4   9  20  39  54  88 124 146 205 255 275 364
#     4   9  20  40  60  89 117 159 199 246 299 347
#     4  10  20  34  59  88 115 153 199 244 298 355
#     4  10  20  35  58  84 117 156 193 245 301 341
#     4  10  20  38  62  86 121 155 203 243 294 361
#
# _framework density 23.987794000000001
#
# number of rings (size 3 to 8) (size 9 to 14) (size 15 to 20)
#    0.000    2.500    0.000    3.500    0.000    2.667 
#   21.000    4.167    0.000   57.000    0.000    0.000 
#    0.000    0.000    0.000    0.000    0.000    0.000 
#
# Total GULP energy -133694.411018 kJ/mol
# GULP energy per Si atom -5570.600459 kJ/mol
# Density = 2.393320 g / cm^3
# Si number density = 23.987794 Si / 1000 Ang^3
#
#
#
# Elastic Constant Matrix: (Units=GPa)
#
#
# Indices 1 2 3 4 5 6 
#
# 1 110.9081 37.9380 -7.3860 0.1107 9.1548 0.0410
# 2 37.9380 129.1484 -5.2800 0.0002 -5.8126 0.0676
# 3 -7.3860 -5.2800 97.5982 0.2042 24.9161 -0.0864
# 4 0.1107 0.0002 0.2042 -2.5943 -0.0387 7.0853
# 5 9.1548 -5.8126 24.9161 -0.0387 37.8395 0.0420
# 6 0.0410 0.0676 -0.0864 7.0853 0.0420 39.8031
#
#
#
# Elastic Compliance Matrix: (Units=1/GPa)
#
#
# Indices 1 2 3 4 5 6 
#
# 1 0.010575 -0.003225 0.001688 0.000440 -0.004165 -0.000076
# 2 -0.003225 0.008782 -0.000375 -0.000163 0.002376 0.000014
# 3 0.001688 -0.000375 0.012586 0.000868 -0.008753 -0.000119
# 4 0.000440 -0.000163 0.000868 -0.259289 -0.001019 0.046159
# 5 -0.004165 0.002376 -0.008753 -0.001019 0.033562 0.000127
# 6 -0.000076 0.000014 -0.000119 0.046159 0.000127 0.016907
#
#
# Mechanical properties :
#
#
# Convention : Reuss Voigt Hill
#
# Bulk Modulus (GPa) = 35.56257 43.13320 39.34789
# Shear Modulus (GPa) = -30.54751 35.83516 2.64383
#
# Velocity S-wave (km/s) = -3.57243 3.86928 1.05097
# Velocity P-wave (km/s) = 1.46931 6.16297 4.23221
#
# Compressibility (1/GPa) = 0.02811945
#
# Stress axis : x y z
#
# Youngs Moduli (GPa) = 94.55863 113.86942 79.45274
#
# Poissons Ratio (x) = 0.36723 -0.13413
# Poissons Ratio (y) = 0.30495 0.02981
# Poissons Ratio (z) = -0.15963 0.04273
#
# Static dielectric constant tensor:
#      x y z
#    x 1.932010 -0.000090 -0.002750 
#    y -0.000090 1.890820 0.000200 
#    z -0.002750 0.000200 2.065530 
# 
# From -- ./inp_files/265852.got.cif
#   From: 2010.05.17/outbox.cif.g08.bks.cpg/sg12_133_cif.got.tgz:265852.got - 2010.06.03 13:09:07.
