data_PCOD9194613
_publ_section_title
;
Structure prediction by ZEFSAII (Michael W. Deem and Ramdas Pophale) SiO2 
 PCOD9194613
Probable space group: C 2/M
;
_chemical_formula_sum "Si O2"
_cell_formula_units_Z 64
_cell_length_a 25.469511
_cell_length_b 13.889448
_cell_length_c 12.243952
_cell_angle_alpha 90.000000
_cell_angle_beta 37.379759
_cell_angle_gamma 90.000000
_cell_volume 2629.565420
_symmetry_space_group_name_H-M "C 2/M"
_symmetry_group_IT_number 12
_symmetry_cell_setting 'monoclinic'
loop_
_space_group_symop_operation_xyz
x,y,z
-x,y,-z
-x,-y,-z
x,-y,z
1/2+x,1/2+y,z
1/2-x,1/2+y,-z
1/2-x,1/2-y,-z
1/2+x,1/2-y,z
loop_
_atom_site_type_symbol
_atom_site_label
_atom_site_fract_x
_atom_site_fract_y
_atom_site_fract_z
Si Si1 0.287096 0.384398 0.419710
Si Si2 0.122156 0.206654 0.400064
Si Si3 0.123331 0.387383 0.259547
Si Si4 0.179943 0.886001 0.095061
Si Si5 0.469654 0.111008 0.813437
Si Si6 0.140818 0.883714 0.917859
Si Si7 0.042368 0.197801 0.750097
Si Si8 0.288878 0.114747 0.236314
O O1 0.291837 0.500000 0.411251
O O2 0.375428 0.343125 0.324165
O O3 0.214501 0.359674 0.628937
O O4 0.289820 0.354855 0.288782
O O5 0.115926 0.318386 0.376014
O O6 0.119635 0.158079 0.286052
O O7 0.053455 0.171385 0.603154
O O8 0.213605 0.173519 0.300366
O O9 0.119188 0.500000 0.298056
O O10 0.057399 0.372159 0.268518
O O11 0.218485 0.368509 0.051763
O O12 0.163742 0.848640 0.000469
O O13 0.167754 0.000000 0.115702
O O14 0.536672 0.187017 0.750906
O O15 0.496467 0.000000 0.780038
O O16 0.381679 0.126822 0.028324
O O17 0.045124 0.843940 0.054761
O O18 0.137497 0.000000 0.925550
O O19 0.267587 0.000000 0.260309
#
# Coordination Sequence:
#
# PCOD9194613 Si02
#       8
#     8   8   8   8   8   8   8   8
#     4   9  19  39  64  87 115 152 193 240 294 352
#     4  11  21  34  57  86 119 153 193 239 288 344
#     4  10  21  36  56  82 118 158 192 235 290 348
#     4  10  20  34  56  87 118 148 188 241 295 345
#     4  10  21  38  59  85 117 156 199 239 287 344
#     4  10  21  36  58  86 118 154 189 232 293 358
#     4  11  23  35  56  87 118 152 196 238 288 346
#     4   9  18  35  62  89 113 149 196 243 291 344
#
# _framework density 24.338622999999998
#
# number of rings (size 3 to 8) (size 9 to 14) (size 15 to 20)
#    0.000    2.000    1.250    2.250    1.750    5.000 
#    0.000    3.125    2.750    1.500    0.000    0.000 
#    0.000    0.000    0.000    0.000    0.000    0.000 
#
# Total GULP energy -179081.781640 kJ/mol
# GULP energy per Si atom -5596.305676 kJ/mol
# Density = 2.428323 g / cm^3
# Si number density = 24.338623 Si / 1000 Ang^3
#
#
#
# Elastic Constant Matrix: (Units=GPa)
#
#
# Indices 1 2 3 4 5 6 
#
# 1 36.2375 9.1668 22.8896 0.0000 24.4765 0.0000
# 2 9.1668 68.9836 32.6615 0.0000 7.8197 0.0000
# 3 22.8896 32.6615 106.5383 0.0000 36.3262 0.0000
# 4 0.0000 0.0000 0.0000 23.5320 0.0000 -3.4307
# 5 24.4765 7.8197 36.3262 0.0000 36.1321 0.0000
# 6 0.0000 0.0000 0.0000 -3.4307 0.0000 25.6112
#
#
#
# Elastic Compliance Matrix: (Units=1/GPa)
#
#
# Indices 1 2 3 4 5 6 
#
# 1 0.051889 -0.003972 0.002680 0.000000 -0.036986 0.000000
# 2 -0.003972 0.017396 -0.006259 0.000000 0.005218 0.000000
# 3 0.002680 -0.006259 0.016565 0.000000 -0.017115 0.000000
# 4 0.000000 0.000000 0.000000 0.043342 0.000000 0.005806
# 5 -0.036986 0.005218 -0.017115 0.000000 0.068809 0.000000
# 6 0.000000 0.000000 0.000000 0.005806 0.000000 0.039823
#
#
# Mechanical properties :
#
#
# Convention : Reuss Voigt Hill
#
# Bulk Modulus (GPa) = 14.13442 37.91057 26.02249
# Shear Modulus (GPa) = 18.08265 26.85782 22.47024
#
# Velocity S-wave (km/s) = 2.72869 3.32551 3.04177
# Velocity P-wave (km/s) = 3.96833 5.50958 4.80120
#
# Compressibility (1/GPa) = 0.07074929
#
# Stress axis : x y z
#
# Youngs Moduli (GPa) = 19.27173 57.48479 60.36832
#
# Poissons Ratio (x) = 0.22831 -0.16180
# Poissons Ratio (y) = 0.07654 0.37785
# Poissons Ratio (z) = -0.05165 0.35980
#
# Static dielectric constant tensor:
#      x y z
#    x 1.917930 0.000000 0.024020 
#    y 0.000000 1.971810 0.000000 
#    z 0.024020 0.000000 1.945120 
# 
# From -- ./inp_files/189427.got.cif
#   From: 2010.05.17/outbox.cif.g08.bks.cpg/sg12_95_cif.got.tgz:189427.got - 2010.06.03 13:09:07.
