data_PCOD9194810
_publ_section_title
;
Structure prediction by ZEFSAII (Michael W. Deem and Ramdas Pophale) SiO2 
 PCOD9194810
Probable space group: C 2/M
;
_chemical_formula_sum "Si O2"
_cell_formula_units_Z 48
_cell_length_a 18.455002
_cell_length_b 28.671266
_cell_length_c 10.053636
_cell_angle_alpha 90.000000
_cell_angle_beta 155.134790
_cell_angle_gamma 90.000000
_cell_volume 2236.838399
_symmetry_space_group_name_H-M "C 2/M"
_symmetry_group_IT_number 12
_symmetry_cell_setting 'monoclinic'
loop_
_space_group_symop_operation_xyz
x,y,z
-x,y,-z
-x,-y,-z
x,-y,z
1/2+x,1/2+y,z
1/2-x,1/2+y,-z
1/2-x,1/2-y,-z
1/2+x,1/2-y,z
loop_
_atom_site_type_symbol
_atom_site_label
_atom_site_fract_x
_atom_site_fract_y
_atom_site_fract_z
Si Si1 0.203006 0.295542 0.837283
Si Si2 0.292007 0.447908 0.903324
Si Si3 0.211559 0.893869 0.357495
Si Si4 0.706017 0.609982 0.854110
Si Si5 0.786050 0.053267 0.380776
Si Si6 0.202799 0.208522 0.320093
O O1 0.260496 0.288717 0.778233
O O2 0.000000 0.300025 0.500000
O O3 0.250000 0.250000 0.000000
O O4 0.266185 0.340926 0.024876
O O5 0.239301 0.500000 0.782349
O O6 0.234229 0.411758 0.695942
O O7 0.228112 0.430134 0.937800
O O8 0.502622 0.447422 0.262072
O O9 0.267823 0.929971 0.563257
O O10 0.275818 0.841526 0.488257
O O11 0.000000 0.893671 0.000000
O O12 0.500000 0.606565 0.500000
O O13 0.769461 0.593727 0.814935
O O14 0.733587 0.000000 0.261518
O O15 0.250000 0.250000 0.500000
O O16 0.000000 0.205036 0.000000
#
# Coordination Sequence:
#
# PCOD9194810 Si02
#       6
#     8   8   8   8   8   8
#     4  12  26  44  66  93 124 162 205 253 312 372
#     4   9  15  28  50  81 119 157 199 252 300 353
#     4   9  17  30  52  82 119 153 198 251 304 349
#     4  10  20  34  57  88 124 160 202 251 304 359
#     4   9  17  28  50  86 121 158 202 253 302 350
#     4  11  24  42  65  92 122 159 203 255 310 368
#
# _framework density 21.458860000000001
#
# number of rings (size 3 to 8) (size 9 to 14) (size 15 to 20)
#    0.000    2.000    1.667    2.500    4.667    4.000 
#    0.000    0.000    0.000    2.000    0.000    1.167 
#    0.000    0.000    0.000    0.000    0.000    0.000 
#
# Total GULP energy -133796.789479 kJ/mol
# GULP energy per Si atom -5574.866228 kJ/mol
# Density = 2.141002 g / cm^3
# Si number density = 21.458860 Si / 1000 Ang^3
#
#
#
# Elastic Constant Matrix: (Units=GPa)
#
#
# Indices 1 2 3 4 5 6 
#
# 1 107.0167 26.7005 30.5488 0.0000 -29.9094 0.0000
# 2 26.7005 156.6209 30.6570 0.0000 -31.0408 0.0000
# 3 30.5488 30.6570 35.5973 0.0000 -22.4731 0.0000
# 4 0.0000 0.0000 0.0000 33.7355 0.0000 -21.1289
# 5 -29.9094 -31.0408 -22.4731 0.0000 27.3671 0.0000
# 6 0.0000 0.0000 0.0000 -21.1289 0.0000 32.6865
#
#
#
# Elastic Compliance Matrix: (Units=1/GPa)
#
#
# Indices 1 2 3 4 5 6 
#
# 1 0.013975 0.001053 -0.005199 0.000000 0.012198 0.000000
# 2 0.001053 0.008423 -0.002906 0.000000 0.008317 0.000000
# 3 -0.005199 -0.002906 0.061024 0.000000 0.041133 0.000000
# 4 0.000000 0.000000 0.000000 0.049807 0.000000 0.032196
# 5 0.012198 0.008317 0.041133 0.000000 0.093082 0.000000
# 6 0.000000 0.000000 0.000000 0.032196 0.000000 0.051405
#
#
# Mechanical properties :
#
#
# Convention : Reuss Voigt Hill
#
# Bulk Modulus (GPa) = 14.42647 52.78307 33.60477
# Shear Modulus (GPa) = 15.87670 32.84640 24.36155
#
# Velocity S-wave (km/s) = 2.72300 3.91662 3.37303
# Velocity P-wave (km/s) = 4.07722 6.71595 5.55552
#
# Compressibility (1/GPa) = 0.06931701
#
# Stress axis : x y z
#
# Youngs Moduli (GPa) = 71.55701 118.72738 16.38690
#
# Poissons Ratio (x) = -0.12499 0.08519
# Poissons Ratio (y) = -0.07533 0.04763
# Poissons Ratio (z) = 0.37201 0.34507
#
# Static dielectric constant tensor:
#      x y z
#    x 1.748960 0.000000 0.026650 
#    y 0.000000 1.784200 0.000000 
#    z 0.026650 0.000000 1.763850 
# 
# From -- ./inp_files/80798.got.cif
#   From: 2010.05.17/outbox.cif.g08.bks.cpg/sg12_41_cif.got.tgz:80798.got - 2010.06.03 13:09:07.
