data_PCOD9194397
_publ_section_title
;
Structure prediction by ZEFSAII (Michael W. Deem and Ramdas Pophale) SiO2 
 PCOD9194397
Probable space group: C 2/M
;
_chemical_formula_sum "Si O2"
_cell_formula_units_Z 64
_cell_length_a 19.099646
_cell_length_b 18.004566
_cell_length_c 20.267229
_cell_angle_alpha 90.000000
_cell_angle_beta 149.615872
_cell_angle_gamma 90.000000
_cell_volume 3525.142848
_symmetry_space_group_name_H-M "C 2/M"
_symmetry_group_IT_number 12
_symmetry_cell_setting 'monoclinic'
loop_
_space_group_symop_operation_xyz
x,y,z
-x,y,-z
-x,-y,-z
x,-y,z
1/2+x,1/2+y,z
1/2-x,1/2+y,-z
1/2-x,1/2-y,-z
1/2+x,1/2-y,z
loop_
_atom_site_type_symbol
_atom_site_label
_atom_site_fract_x
_atom_site_fract_y
_atom_site_fract_z
Si Si1 0.016279 0.692153 0.940036
Si Si2 0.983120 0.582606 0.798405
Si Si3 0.305811 0.237383 0.191536
Si Si4 0.154400 0.913217 0.537177
Si Si5 0.943536 0.187458 0.655214
Si Si6 0.555548 0.083979 0.706105
Si Si7 0.197755 0.222959 0.664821
Si Si8 0.809445 0.322087 0.462122
O O1 0.041855 0.637449 0.900348
O O2 0.864832 0.723918 0.802394
O O3 0.144498 0.747901 0.048847
O O4 0.000000 0.656253 0.000000
O O5 0.001459 0.500000 0.839774
O O6 0.818399 0.593292 0.653808
O O7 0.047663 0.587750 0.779027
O O8 0.400323 0.280979 0.214512
O O9 0.341998 0.150892 0.227932
O O10 0.347885 0.271235 0.296979
O O11 0.071402 0.882264 0.406558
O O12 0.144804 0.853507 0.588661
O O13 0.124455 0.000000 0.527624
O O14 0.870264 0.256252 0.557672
O O15 0.850691 0.171781 0.644622
O O16 0.404210 0.107120 0.555191
O O17 0.591449 0.000000 0.715618
O O18 0.163995 0.291758 0.589695
#
# Coordination Sequence:
#
# PCOD9194397 Si02
#       8
#     8   8   8   8   8   8   8   8
#     4   9  19  35  53  74 104 145 182 212 255 308
#     4   9  17  31  52  78 103 135 177 214 252 310
#     4  10  21  35  51  76 108 138 179 226 258 304
#     4   9  16  29  52  75 102 139 175 207 256 320
#     4   9  17  28  47  75 102 130 169 213 261 303
#     4  10  20  34  56  79 104 134 172 223 274 315
#     4   9  19  35  53  73 106 142 183 219 259 312
#     4   9  17  31  51  73 102 134 169 214 263 316
#
# _framework density 18.155291999999999
#
# number of rings (size 3 to 8) (size 9 to 14) (size 15 to 20)
#    0.000    2.750    1.250    0.000    5.250    5.250 
#    0.000    5.000    0.000    4.125    0.000    0.000 
#    0.000    0.000    0.000    0.000    0.000    0.000 
#
# Total GULP energy -178154.848423 kJ/mol
# GULP energy per Si atom -5567.339013 kJ/mol
# Density = 1.811397 g / cm^3
# Si number density = 18.155292 Si / 1000 Ang^3
#
#
#
# Elastic Constant Matrix: (Units=GPa)
#
#
# Indices 1 2 3 4 5 6 
#
# 1 30.2687 17.3258 12.1216 -0.0014 16.7798 -0.0015
# 2 17.3258 105.7087 24.5927 -0.0012 3.7343 -0.0017
# 3 12.1216 24.5927 50.7703 -0.0008 10.6479 -0.0015
# 4 -0.0014 -0.0012 -0.0008 15.8224 -0.0007 2.7629
# 5 16.7798 3.7343 10.6479 -0.0007 22.9264 -0.0012
# 6 -0.0015 -0.0017 -0.0015 2.7629 -0.0012 15.8821
#
#
#
# Elastic Compliance Matrix: (Units=1/GPa)
#
#
# Indices 1 2 3 4 5 6 
#
# 1 0.062779 -0.008331 -0.001774 0.000003 -0.043767 0.000001
# 2 -0.008331 0.011778 -0.005088 0.000000 0.006542 0.000000
# 3 -0.001774 -0.005088 0.024528 0.000000 -0.009264 0.000001
# 4 0.000003 0.000000 0.000000 0.065182 0.000000 -0.011339
# 5 -0.043767 0.006542 -0.009264 0.000000 0.078888 0.000002
# 6 0.000001 0.000000 0.000001 -0.011339 0.000002 0.064937
#
#
# Mechanical properties :
#
#
# Convention : Reuss Voigt Hill
#
# Bulk Modulus (GPa) = 14.55640 32.75866 23.65753
# Shear Modulus (GPa) = 13.83599 19.77335 16.80467
#
# Velocity S-wave (km/s) = 2.76359 3.30377 3.04568
# Velocity P-wave (km/s) = 4.26830 5.71279 5.04254
#
# Compressibility (1/GPa) = 0.06869830
#
# Stress axis : x y z
#
# Youngs Moduli (GPa) = 15.92893 84.90401 40.77003
#
# Poissons Ratio (x) = 0.70730 0.07234
# Poissons Ratio (y) = 0.13270 0.20745
# Poissons Ratio (z) = 0.02826 0.43201
#
# Static dielectric constant tensor:
#      x y z
#    x 1.683810 0.000000 0.021630 
#    y 0.000000 1.624780 0.000000 
#    z 0.021630 0.000000 1.645090 
# 
# From -- ./inp_files/322456.got.cif
#   From: 2010.05.17/outbox.cif.g08.bks.cpg/sg12_162_cif.got.tgz:322456.got - 2010.06.03 13:09:07.
