data_PCOD9194192
_publ_section_title
;
Structure prediction by ZEFSAII (Michael W. Deem and Ramdas Pophale) SiO2 
 PCOD9194192
Probable space group: C 2/M
;
_chemical_formula_sum "Si O2"
_cell_formula_units_Z 40
_cell_length_a 10.877707
_cell_length_b 13.253535
_cell_length_c 14.711487
_cell_angle_alpha 90.000000
_cell_angle_beta 105.929257
_cell_angle_gamma 90.000000
_cell_volume 2039.485850
_symmetry_space_group_name_H-M "C 2/M"
_symmetry_group_IT_number 12
_symmetry_cell_setting 'monoclinic'
loop_
_space_group_symop_operation_xyz
x,y,z
-x,y,-z
-x,-y,-z
x,-y,z
1/2+x,1/2+y,z
1/2-x,1/2+y,-z
1/2-x,1/2-y,-z
1/2+x,1/2-y,z
loop_
_atom_site_type_symbol
_atom_site_label
_atom_site_fract_x
_atom_site_fract_y
_atom_site_fract_z
Si Si1 0.909617 0.000000 0.068525
Si Si2 0.860813 0.500000 0.927742
Si Si3 0.658551 0.886445 0.424690
Si Si4 0.696028 0.174511 0.227708
Si Si5 0.469489 0.673780 0.222608
Si Si6 0.081108 0.161879 0.430403
O O1 0.940699 0.904019 0.137280
O O2 0.755983 0.000000 0.023567
O O3 0.000000 0.000000 0.000000
O O4 0.840206 0.594320 0.856550
O O5 0.000000 0.500000 0.000000
O O6 0.708746 0.874803 0.330760
O O7 0.774768 0.871119 0.518865
O O8 0.574822 0.785135 0.421590
O O9 0.604434 0.000000 0.423662
O O10 0.578780 0.250783 0.212148
O O11 0.833301 0.220036 0.226870
O O12 0.526548 0.622663 0.324883
O O13 0.000000 0.128913 0.500000
#
# Coordination Sequence:
#
# PCOD9194192 Si02
#       6
#     4   4   8   8   8   8
#     4  10  24  44  62  86 119 151 194 250 301 347
#     4  10  22  40  65  87 111 149 200 244 300 357
#     4  10  20  34  55  82 121 158 195 233 283 342
#     4  10  20  39  59  88 118 155 193 241 292 349
#     4  10  22  38  61  87 120 156 195 239 291 347
#     4  10  20  34  55  85 120 155 194 237 281 343
#
# _framework density 19.612787000000001
#
# number of rings (size 3 to 8) (size 9 to 14) (size 15 to 20)
#    0.000    2.000    3.000    0.000    1.400    3.200 
#    0.000    4.000    0.000    0.000    0.000    0.000 
#    0.000    0.000    0.000    0.000    0.000    0.000 
#
# Total GULP energy -111525.479939 kJ/mol
# GULP energy per Si atom -5576.273997 kJ/mol
# Density = 1.956815 g / cm^3
# Si number density = 19.612787 Si / 1000 Ang^3
#
#
#
# Elastic Constant Matrix: (Units=GPa)
#
#
# Indices 1 2 3 4 5 6 
#
# 1 143.4955 36.7725 64.4723 0.0000 1.3957 0.0000
# 2 36.7725 81.2953 9.6749 0.0000 0.4896 0.0000
# 3 64.4723 9.6749 95.9080 0.0000 1.1373 0.0000
# 4 0.0000 0.0000 0.0000 18.2558 0.0000 -0.9342
# 5 1.3957 0.4896 1.1373 0.0000 38.9243 0.0000
# 6 0.0000 0.0000 0.0000 -0.9342 0.0000 11.9896
#
#
#
# Elastic Compliance Matrix: (Units=1/GPa)
#
#
# Indices 1 2 3 4 5 6 
#
# 1 0.011269 -0.004246 -0.007145 0.000000 -0.000142 0.000000
# 2 -0.004246 0.014051 0.001438 0.000000 -0.000066 0.000000
# 3 -0.007145 0.001438 0.015087 0.000000 -0.000203 0.000000
# 4 0.000000 0.000000 0.000000 0.054997 0.000000 0.004285
# 5 -0.000142 -0.000066 -0.000203 0.000000 0.025703 0.000000
# 6 0.000000 0.000000 0.000000 0.004285 0.000000 0.083739
#
#
# Mechanical properties :
#
#
# Convention : Reuss Voigt Hill
#
# Bulk Modulus (GPa) = 48.78119 60.28205 54.53162
# Shear Modulus (GPa) = 21.59033 27.81921 24.70477
#
# Velocity S-wave (km/s) = 3.32147 3.77028 3.55297
# Velocity P-wave (km/s) = 6.29569 7.05381 6.68550
#
# Compressibility (1/GPa) = 0.02049970
#
# Stress axis : x y z
#
# Youngs Moduli (GPa) = 88.74219 71.17074 66.28140
#
# Poissons Ratio (x) = 0.30219 0.47359
# Poissons Ratio (y) = 0.37680 -0.09529
# Poissons Ratio (z) = 0.63407 -0.10232
#
# Static dielectric constant tensor:
#      x y z
#    x 1.695530 0.000000 -0.001370 
#    y 0.000000 1.719350 0.000000 
#    z -0.001370 0.000000 1.671250 
# 
# From -- ./inp_files/203291.got.cif
#   From: 2010.05.17/outbox.cif.g08.bks.cpg/sg12_102_cif.got.tgz:203291.got - 2010.06.03 13:09:07.
