data_PCOD9194556
_publ_section_title
;
Structure prediction by ZEFSAII (Michael W. Deem and Ramdas Pophale) SiO2 
 PCOD9194556
Probable space group: C 2/M
;
_chemical_formula_sum "Si O2"
_cell_formula_units_Z 48
_cell_length_a 24.994624
_cell_length_b 9.267991
_cell_length_c 10.760106
_cell_angle_alpha 90.000000
_cell_angle_beta 67.595170
_cell_angle_gamma 90.000000
_cell_volume 2304.423042
_symmetry_space_group_name_H-M "C 2/M"
_symmetry_group_IT_number 12
_symmetry_cell_setting 'monoclinic'
loop_
_space_group_symop_operation_xyz
x,y,z
-x,y,-z
-x,-y,-z
x,-y,z
1/2+x,1/2+y,z
1/2-x,1/2+y,-z
1/2-x,1/2-y,-z
1/2+x,1/2-y,z
loop_
_atom_site_type_symbol
_atom_site_label
_atom_site_fract_x
_atom_site_fract_y
_atom_site_fract_z
Si Si1 0.074492 0.832153 0.255823
Si Si2 0.383068 0.666852 0.152215
Si Si3 0.981357 0.333074 0.196587
Si Si4 0.691051 0.334113 0.527998
Si Si5 0.093095 0.667032 0.482405
Si Si6 0.807970 0.168812 0.985761
O O1 0.064547 0.746942 0.391719
O O2 0.142153 0.820794 0.162227
O O3 0.037543 0.760818 0.178249
O O4 0.058835 0.000000 0.281791
O O5 0.399442 0.500000 0.107771
O O6 0.439216 0.762470 0.131999
O O7 0.345910 0.664330 0.311984
O O8 0.340339 0.721292 0.082213
O O9 0.994513 0.500000 0.158241
O O10 0.945514 0.328613 0.358854
O O11 0.701252 0.500000 0.481498
O O12 0.750000 0.250000 0.500000
O O13 0.652146 0.249676 0.463224
O O14 0.103305 0.500000 0.442040
O O15 0.794267 0.000000 0.017244
O O16 0.750000 0.250000 0.000000
#
# Coordination Sequence:
#
# PCOD9194556 Si02
#       6
#     8   8   8   8   8   8
#     4  11  23  38  59  88 120 157 196 239 292 349
#     4   9  20  40  61  82 114 154 193 238 292 347
#     4  10  21  38  61  90 119 151 193 242 294 347
#     4  10  20  34  56  85 115 151 194 239 293 350
#     4  10  21  37  57  85 120 154 193 241 292 347
#     4  10  24  43  61  85 116 155 199 241 289 344
#
# _framework density 20.829509000000002
#
# number of rings (size 3 to 8) (size 9 to 14) (size 15 to 20)
#    0.000    2.000    0.000    2.500    2.333    7.333 
#    0.000    3.333    0.000    0.000    0.000    0.000 
#    0.000    0.000    0.000    0.000    0.000    0.000 
#
# Total GULP energy -134187.520399 kJ/mol
# GULP energy per Si atom -5591.146683 kJ/mol
# Density = 2.078210 g / cm^3
# Si number density = 20.829509 Si / 1000 Ang^3
#
#
#
# Elastic Constant Matrix: (Units=GPa)
#
#
# Indices 1 2 3 4 5 6 
#
# 1 171.3020 91.7516 31.5596 0.0000 18.2855 0.0000
# 2 91.7516 158.8048 35.4179 0.0000 6.2656 0.0000
# 3 31.5596 35.4179 49.4809 0.0000 28.1523 0.0000
# 4 0.0000 0.0000 0.0000 18.9369 0.0000 2.4278
# 5 18.2855 6.2656 28.1523 0.0000 35.8581 0.0000
# 6 0.0000 0.0000 0.0000 2.4278 0.0000 42.2102
#
#
#
# Elastic Compliance Matrix: (Units=1/GPa)
#
#
# Indices 1 2 3 4 5 6 
#
# 1 0.008909 -0.004996 -0.000032 0.000000 -0.003644 0.000000
# 2 -0.004996 0.010884 -0.008985 0.000000 0.007700 0.000000
# 3 -0.000032 -0.008985 0.046554 0.000000 -0.034963 0.000000
# 4 0.000000 0.000000 0.000000 0.053199 0.000000 -0.003060
# 5 -0.003644 0.007700 -0.034963 0.000000 0.055851 0.000000
# 6 0.000000 0.000000 0.000000 -0.003060 0.000000 0.023867
#
#
# Mechanical properties :
#
#
# Convention : Reuss Voigt Hill
#
# Bulk Modulus (GPa) = 26.09592 77.44954 51.77273
# Shear Modulus (GPa) = 20.82788 34.12494 27.47641
#
# Velocity S-wave (km/s) = 3.16558 4.05198 3.63590
# Velocity P-wave (km/s) = 5.09085 7.69121 6.52194
#
# Compressibility (1/GPa) = 0.03832016
#
# Stress axis : x y z
#
# Youngs Moduli (GPa) = 112.25144 91.88136 21.48035
#
# Poissons Ratio (x) = 0.45904 0.00070
# Poissons Ratio (y) = 0.56081 0.19299
# Poissons Ratio (z) = 0.00363 0.82553
#
# Static dielectric constant tensor:
#      x y z
#    x 1.716060 0.000000 -0.002040 
#    y 0.000000 1.710300 0.000000 
#    z -0.002040 0.000000 1.789210 
# 
# From -- ./inp_files/172145.got.cif
#   From: 2010.05.17/outbox.cif.g08.bks.cpg/sg12_87_cif.got.tgz:172145.got - 2010.06.03 13:09:07.
