data_PCOD9194851
_publ_section_title
;
Structure prediction by ZEFSAII (Michael W. Deem and Ramdas Pophale) SiO2 
 PCOD9194851
Probable space group: C 2/M
;
_chemical_formula_sum "Si O2"
_cell_formula_units_Z 58
_cell_length_a 20.921960
_cell_length_b 7.890604
_cell_length_c 19.698276
_cell_angle_alpha 90.000000
_cell_angle_beta 117.862633
_cell_angle_gamma 90.000000
_cell_volume 2874.933409
_symmetry_space_group_name_H-M "C 2/M"
_symmetry_group_IT_number 12
_symmetry_cell_setting 'monoclinic'
loop_
_space_group_symop_operation_xyz
x,y,z
-x,y,-z
-x,-y,-z
x,-y,z
1/2+x,1/2+y,z
1/2-x,1/2+y,-z
1/2-x,1/2-y,-z
1/2+x,1/2-y,z
loop_
_atom_site_type_symbol
_atom_site_label
_atom_site_fract_x
_atom_site_fract_y
_atom_site_fract_z
Si Si1 0.080300 0.797982 0.205178
Si Si2 0.301185 0.800068 0.374734
Si Si3 0.000000 0.500000 0.500000
Si Si4 0.794790 0.700901 0.956520
Si Si5 0.457862 0.204942 0.046153
Si Si6 0.574343 0.688261 0.469616
Si Si7 0.276000 0.702635 0.797846
Si Si8 0.344763 0.803207 0.623913
O O1 0.143470 0.738934 0.184207
O O2 0.099140 0.713218 0.285848
O O3 0.003638 0.758303 0.134225
O O4 0.087636 0.000000 0.217862
O O5 0.178046 0.500000 0.616900
O O6 0.367149 0.702646 0.440656
O O7 0.278149 0.739022 0.288310
O O8 0.229500 0.779538 0.385475
O O9 0.977963 0.347562 0.543912
O O10 0.800559 0.500000 0.957919
O O11 0.761018 0.752635 0.867717
O O12 0.750000 0.750000 0.000000
O O13 0.876259 0.770846 0.003074
O O14 0.456809 0.000000 0.044292
O O15 0.500000 0.264778 0.000000
O O16 0.541479 0.500000 0.451492
O O17 0.620861 0.716638 0.424415
O O18 0.275991 0.500000 0.792488
O O19 0.330093 0.000000 0.601596
#
# Coordination Sequence:
#
# PCOD9194851 Si02
#       8
#     8   8   2   8   8   8   8   8
#     4  10  20  34  57  92 123 157 199 252 316 379
#     4  10  20  38  63  98 132 160 205 263 323 383
#     4  12  26  48  64  90 128 176 224 252 308 378
#     4  11  23  38  58  82 118 158 204 254 311 375
#     4  10  20  36  58  85 115 154 203 255 311 376
#     4  12  24  43  68  95 127 171 221 262 312 378
#     4   9  19  35  58  87 123 158 196 250 312 371
#     4  11  21  37  62  96 134 163 201 265 329 375
#
# _framework density 20.174382000000001
#
# number of rings (size 3 to 8) (size 9 to 14) (size 15 to 20)
#    0.000    1.517    2.759    3.931    0.000    4.138 
#    0.000    1.379    3.034    1.655    0.000    0.000 
#    0.000    0.000    0.000    0.000    0.000    0.000 
#
# Total GULP energy -161753.348709 kJ/mol
# GULP energy per Si atom -5577.701680 kJ/mol
# Density = 2.012846 g / cm^3
# Si number density = 20.174382 Si / 1000 Ang^3
#
#
#
# Elastic Constant Matrix: (Units=GPa)
#
#
# Indices 1 2 3 4 5 6 
#
# 1 64.2559 8.9978 36.0010 0.0000 -21.8403 0.0000
# 2 8.9978 89.9973 10.5537 0.0000 -5.6911 0.0000
# 3 36.0010 10.5537 95.3972 0.0000 -18.0768 0.0000
# 4 0.0000 0.0000 0.0000 18.0721 0.0000 -5.2510
# 5 -21.8403 -5.6911 -18.0768 0.0000 25.0381 0.0000
# 6 0.0000 0.0000 0.0000 -5.2510 0.0000 23.7617
#
#
#
# Elastic Compliance Matrix: (Units=1/GPa)
#
#
# Indices 1 2 3 4 5 6 
#
# 1 0.024897 -0.000692 -0.006063 0.000000 0.017182 0.000000
# 2 -0.000692 0.011357 -0.000719 0.000000 0.001459 0.000000
# 3 -0.006063 -0.000719 0.013690 0.000000 0.004432 0.000000
# 4 0.000000 0.000000 0.000000 0.059131 0.000000 0.013067
# 5 0.017182 0.001459 0.004432 0.000000 0.058458 0.000000
# 6 0.000000 0.000000 0.000000 0.013067 0.000000 0.044972
#
#
# Mechanical properties :
#
#
# Convention : Reuss Voigt Hill
#
# Bulk Modulus (GPa) = 28.57428 40.08392 34.32910
# Shear Modulus (GPa) = 20.91020 26.31424 23.61222
#
# Velocity S-wave (km/s) = 3.22292 3.61548 3.42483
# Velocity P-wave (km/s) = 5.29566 6.11071 5.71773
#
# Compressibility (1/GPa) = 0.03499651
#
# Stress axis : x y z
#
# Youngs Moduli (GPa) = 40.16568 88.05012 73.04668
#
# Poissons Ratio (x) = 0.06089 0.44290
# Poissons Ratio (y) = 0.02778 0.05252
# Poissons Ratio (z) = 0.24353 0.06330
#
# Static dielectric constant tensor:
#      x y z
#    x 1.713310 0.000000 0.030790 
#    y 0.000000 1.729310 0.000000 
#    z 0.030790 0.000000 1.704060 
# 
# From -- ./inp_files/282235.got.cif
#   From: 2010.05.17/outbox.cif.g08.bks.cpg/sg12_142_cif.got.tgz:282235.got - 2010.06.03 13:09:07.
