data_PCOD9194375
_publ_section_title
;
Structure prediction by ZEFSAII (Michael W. Deem and Ramdas Pophale) SiO2 
 PCOD9194375
Probable space group: C 2/M
;
_chemical_formula_sum "Si O2"
_cell_formula_units_Z 64
_cell_length_a 21.507182
_cell_length_b 16.857321
_cell_length_c 10.064226
_cell_angle_alpha 90.000000
_cell_angle_beta 94.535651
_cell_angle_gamma 90.000000
_cell_volume 3637.393135
_symmetry_space_group_name_H-M "C 2/M"
_symmetry_group_IT_number 12
_symmetry_cell_setting 'monoclinic'
loop_
_space_group_symop_operation_xyz
x,y,z
-x,y,-z
-x,-y,-z
x,-y,z
1/2+x,1/2+y,z
1/2-x,1/2+y,-z
1/2-x,1/2-y,-z
1/2+x,1/2-y,z
loop_
_atom_site_type_symbol
_atom_site_label
_atom_site_fract_x
_atom_site_fract_y
_atom_site_fract_z
Si Si1 0.194391 0.814740 0.964113
Si Si2 0.931404 0.727510 0.979214
Si Si3 0.867771 0.304238 0.690586
Si Si4 0.759146 0.904374 0.287061
Si Si5 0.925966 0.409842 0.470949
Si Si6 0.212406 0.825341 0.441277
Si Si7 0.257103 0.092067 0.191722
Si Si8 0.601786 0.907241 0.837492
O O1 0.205393 0.860488 0.827825
O O2 0.250000 0.750000 0.000000
O O3 0.126419 0.776307 0.967670
O O4 0.204604 0.876326 0.085026
O O5 0.911246 0.706381 0.825921
O O6 0.934071 0.647523 0.066839
O O7 0.000000 0.765564 0.000000
O O8 0.807766 0.358616 0.720052
O O9 0.898562 0.350903 0.574298
O O10 0.847003 0.216968 0.635935
O O11 0.792303 0.883811 0.433864
O O12 0.753378 0.000000 0.268356
O O13 0.900873 0.500000 0.485732
O O14 0.911484 0.385933 0.317673
O O15 0.000000 0.412657 0.500000
O O16 0.250000 0.750000 0.500000
O O17 0.252212 0.864038 0.330494
O O18 0.323928 0.104130 0.133257
O O19 0.250465 0.000000 0.216962
O O20 0.586990 0.000000 0.852017
#
# Coordination Sequence:
#
# PCOD9194375 Si02
#       8
#     8   8   8   8   8   8   8   8
#     4  12  21  40  60  85 119 152 196 251 293 347
#     4  12  25  39  59  86 120 160 202 243 293 354
#     4  11  21  37  58  87 121 158 196 243 296 347
#     4  11  22  36  61  93 120 152 195 249 305 351
#     4  10  21  36  53  79 121 166 199 231 282 355
#     4  10  20  34  55  88 124 150 185 245 296 347
#     4  11  20  35  59  86 115 153 194 240 296 349
#     4  10  21  35  56  85 118 156 196 236 287 351
#
# _framework density 17.595018
#
# number of rings (size 3 to 8) (size 9 to 14) (size 15 to 20)
#    0.000    1.125    3.750    4.125    1.750    3.250 
#    0.000    0.000    0.000    1.500    0.000    0.875 
#    0.000    0.000    0.000    0.000    0.000    0.000 
#
# Total GULP energy -178598.591318 kJ/mol
# GULP energy per Si atom -5581.205979 kJ/mol
# Density = 1.755497 g / cm^3
# Si number density = 17.595018 Si / 1000 Ang^3
#
#
#
# Elastic Constant Matrix: (Units=GPa)
#
#
# Indices 1 2 3 4 5 6 
#
# 1 86.0866 27.8056 24.0688 0.0000 3.4690 0.0000
# 2 27.8056 58.0878 8.6291 0.0000 -3.2344 0.0000
# 3 24.0688 8.6291 59.0179 0.0000 4.1543 0.0000
# 4 0.0000 0.0000 0.000017975.8944 0.0000-3511.1893
# 5 3.4690 -3.2344 4.1543 0.0000 18.4044 0.0000
# 6 0.0000 0.0000 0.0000-3511.1893 0.0000 703.7060
#
#
#
# Elastic Compliance Matrix: (Units=1/GPa)
#
#
# Indices 1 2 3 4 5 6 
#
# 1 0.015329 -0.006750 -0.005058 0.000000 -0.002934 0.000000
# 2 -0.006750 0.020826 -0.000650 0.000000 0.005079 0.000000
# 3 -0.005058 -0.000650 0.019350 0.000000 -0.003529 0.000000
# 4 0.000000 0.000000 0.000000 0.002190 0.000000 0.010928
# 5 -0.002934 0.005079 -0.003529 0.000000 0.056577 0.000000
# 6 0.000000 0.000000 0.000000 0.010928 0.000000 0.055948
#
#
# Mechanical properties :
#
#
# Convention : Reuss Voigt Hill
#
# Bulk Modulus (GPa) = 32.69079 36.02214 34.35646
# Shear Modulus (GPa) = 24.35094 3749.11356 1886.73225
#
# Velocity S-wave (km/s) = 3.72421 46.21046 32.78168
# Velocity P-wave (km/s) = 6.09203 53.55116 38.11063
#
# Compressibility (1/GPa) = 0.03058965
#
# Stress axis : x y z
#
# Youngs Moduli (GPa) = 65.23729 48.01801 51.67912
#
# Poissons Ratio (x) = 0.32410 0.26139
# Poissons Ratio (y) = 0.44032 0.03358
# Poissons Ratio (z) = 0.32997 0.03120
#
# Static dielectric constant tensor:
#      x y z
#    x 1.615010 0.000000 0.015950 
#    y 0.000000 1.559730 0.000000 
#    z 0.015950 0.000000 1.618230 
# 
# From -- ./inp_files/87971.got.cif
#   From: 2010.05.17/outbox.cif.g08.bks.cpg/sg12_44_cif.got.tgz:87971.got - 2010.06.03 13:09:07.
