data_PCOD9194975
_publ_section_title
;
Structure prediction by ZEFSAII (Michael W. Deem and Ramdas Pophale) SiO2 
 PCOD9194975
Probable space group: C 2/M
;
_chemical_formula_sum "Si O2"
_cell_formula_units_Z 48
_cell_length_a 12.291096
_cell_length_b 15.577153
_cell_length_c 12.257175
_cell_angle_alpha 90.000000
_cell_angle_beta 84.359582
_cell_angle_gamma 90.000000
_cell_volume 2335.399909
_symmetry_space_group_name_H-M "C 2/M"
_symmetry_group_IT_number 12
_symmetry_cell_setting 'monoclinic'
loop_
_space_group_symop_operation_xyz
x,y,z
-x,y,-z
-x,-y,-z
x,-y,z
1/2+x,1/2+y,z
1/2-x,1/2+y,-z
1/2-x,1/2-y,-z
1/2+x,1/2-y,z
loop_
_atom_site_type_symbol
_atom_site_label
_atom_site_fract_x
_atom_site_fract_y
_atom_site_fract_z
Si Si1 0.231847 0.282425 0.124831
Si Si2 0.467169 0.095545 0.877472
Si Si3 0.558343 0.397935 0.882642
Si Si4 0.975069 0.822295 0.338502
Si Si5 0.658830 0.156346 0.718723
Si Si6 0.816620 0.835114 0.529243
O O1 0.115770 0.329157 0.147813
O O2 0.323760 0.354474 0.135129
O O3 0.259784 0.206624 0.206557
O O4 0.250000 0.250000 0.000000
O O5 0.577709 0.098680 0.796509
O O6 0.417329 0.000000 0.873069
O O7 0.500000 0.109586 0.000000
O O8 0.564982 0.500000 0.885136
O O9 0.499291 0.367480 0.778288
O O10 0.500000 0.368077 0.000000
O O11 0.920887 0.730180 0.321248
O O12 0.878901 0.871491 0.416690
O O13 0.081841 0.813625 0.401681
O O14 0.729413 0.115796 0.613881
O O15 0.750000 0.750000 0.500000
#
# Coordination Sequence:
#
# PCOD9194975 Si02
#       6
#     8   8   8   8   8   8
#     4  11  22  35  60  85 116 159 206 245 298 367
#     4  11  23  37  52  82 125 160 194 251 312 360
#     4  10  23  39  58  87 125 161 197 247 309 369
#     4   9  19  35  60  86 120 153 210 260 304 355
#     4  10  20  34  59  85 114 157 210 249 294 369
#     4   9  18  35  57  89 117 153 203 265 308 350
#
# _framework density 20.553225999999999
#
# number of rings (size 3 to 8) (size 9 to 14) (size 15 to 20)
#    0.000    2.000    1.667    1.500    7.000    0.000 
#    0.000    3.333    0.000    0.000    0.000   30.333 
#    0.000    0.000    0.000    0.000    0.000    0.000 
#
# Total GULP energy -133879.954555 kJ/mol
# GULP energy per Si atom -5578.331440 kJ/mol
# Density = 2.050645 g / cm^3
# Si number density = 20.553226 Si / 1000 Ang^3
#
#
#
# Elastic Constant Matrix: (Units=GPa)
#
#
# Indices 1 2 3 4 5 6 
#
# 1 91.0314 21.7192 40.1566 0.0000 -11.5554 0.0000
# 2 21.7192 46.7518 11.6267 0.0000 1.9909 0.0000
# 3 40.1566 11.6267 128.3241 0.0000 -19.9542 0.0000
# 4 0.0000 0.0000 0.0000 -5.3508 0.0000 -1.9198
# 5 -11.5554 1.9909 -19.9542 0.0000 40.9984 0.0000
# 6 0.0000 0.0000 0.0000 -1.9198 0.0000 17.7409
#
#
#
# Elastic Compliance Matrix: (Units=1/GPa)
#
#
# Indices 1 2 3 4 5 6 
#
# 1 0.014270 -0.005861 -0.003532 0.000000 0.002588 0.000000
# 2 -0.005861 0.024474 -0.000893 0.000000 -0.003275 0.000000
# 3 -0.003532 -0.000893 0.009554 0.000000 0.003698 0.000000
# 4 0.000000 0.000000 0.000000 -0.179903 0.000000 -0.019468
# 5 0.002588 -0.003275 0.003698 0.000000 0.027079 0.000000
# 6 0.000000 0.000000 0.000000 -0.019468 0.000000 0.054260
#
#
# Mechanical properties :
#
#
# Convention : Reuss Voigt Hill
#
# Bulk Modulus (GPa) = 36.06692 45.90137 40.98414
# Shear Modulus (GPa) = -244.47464 23.51803 -110.47830
#
# Velocity S-wave (km/s) = -10.91812 3.38635 -7.33955
# Velocity P-wave (km/s) = 11.88925 6.13769 7.20011
#
# Compressibility (1/GPa) = 0.02772624
#
# Stress axis : x y z
#
# Youngs Moduli (GPa) = 70.07576 40.85989 104.66865
#
# Poissons Ratio (x) = 0.23949 0.36971
# Poissons Ratio (y) = 0.41073 0.09342
# Poissons Ratio (z) = 0.24752 0.03647
#
# Static dielectric constant tensor:
#      x y z
#    x 1.737970 0.000000 -0.034370 
#    y 0.000000 1.702700 0.000000 
#    z -0.034370 0.000000 1.798420 
# 
# From -- ./inp_files/131022.got.cif
#   From: 2010.05.17/outbox.cif.g08.bks.cpg/sg12_66_cif.got.tgz:131022.got - 2010.06.03 13:09:07.
