data_PCOD9194246
_publ_section_title
;
Structure prediction by ZEFSAII (Michael W. Deem and Ramdas Pophale) SiO2 
 PCOD9194246
Probable space group: C 2/M
;
_chemical_formula_sum "Si O2"
_cell_formula_units_Z 56
_cell_length_a 27.923071
_cell_length_b 8.424326
_cell_length_c 20.456254
_cell_angle_alpha 90.000000
_cell_angle_beta 144.885240
_cell_angle_gamma 90.000000
_cell_volume 2767.931947
_symmetry_space_group_name_H-M "C 2/M"
_symmetry_group_IT_number 12
_symmetry_cell_setting 'monoclinic'
loop_
_space_group_symop_operation_xyz
x,y,z
-x,y,-z
-x,-y,-z
x,-y,z
1/2+x,1/2+y,z
1/2-x,1/2+y,-z
1/2-x,1/2-y,-z
1/2+x,1/2-y,z
loop_
_atom_site_type_symbol
_atom_site_label
_atom_site_fract_x
_atom_site_fract_y
_atom_site_fract_z
Si Si1 0.009618 0.688737 0.285747
Si Si2 0.262936 0.190033 0.827434
Si Si3 0.299548 0.182198 0.719641
Si Si4 0.388727 0.676321 0.488204
Si Si5 0.162040 0.186876 0.372045
Si Si6 0.323879 0.808147 0.034859
Si Si7 0.589474 0.176964 0.612523
O O1 0.009691 0.500000 0.299408
O O2 0.038479 0.786846 0.381043
O O3 0.082833 0.725892 0.315881
O O4 0.916651 0.736186 0.161322
O O5 0.294882 0.240206 0.790429
O O6 0.166293 0.237378 0.731610
O O7 0.266530 0.000000 0.828634
O O8 0.310700 0.247211 0.945113
O O9 0.203996 0.173041 0.587392
O O10 0.342499 0.283006 0.711215
O O11 0.331565 0.000000 0.756078
O O12 0.398653 0.500000 0.468931
O O13 0.382572 0.820653 0.431243
O O14 0.250000 0.250000 0.500000
O O15 0.156719 0.000000 0.380100
O O16 0.320081 0.000000 0.030293
O O17 0.250000 0.750000 0.000000
O O18 0.500000 0.256358 0.500000
O O19 0.577700 0.000000 0.626172
#
# Coordination Sequence:
#
# PCOD9194246 Si02
#       7
#     8   8   8   8   8   8   8
#     4  11  23  39  60  87 123 159 203 252 301 360
#     4   9  20  40  61  83 114 154 203 247 296 362
#     4   9  18  35  59  86 118 154 193 240 297 357
#     4  10  20  34  55  83 117 155 195 240 296 359
#     4  12  23  36  59  91 126 161 199 244 306 368
#     4  10  24  44  65  89 118 161 208 256 304 356
#     4  10  21  34  52  81 116 150 192 246 306 361
#
# _framework density 20.23171
#
# number of rings (size 3 to 8) (size 9 to 14) (size 15 to 20)
#    0.000    1.857    1.429    3.429    2.000    5.143 
#    0.000    0.714    0.000    4.286    0.000    0.000 
#    0.000    0.000    0.000    0.000    0.000    0.000 
#
# Total GULP energy -155890.171489 kJ/mol
# GULP energy per Si atom -5567.506125 kJ/mol
# Density = 2.018566 g / cm^3
# Si number density = 20.231710 Si / 1000 Ang^3
#
#
#
# Elastic Constant Matrix: (Units=GPa)
#
#
# Indices 1 2 3 4 5 6 
#
# 1 51.0443 7.8411 29.4732 0.0000 1.1957 0.0000
# 2 7.8411 41.9541 8.5018 0.0000 1.0474 0.0000
# 3 29.4732 8.5018 119.6531 0.0000 -6.9114 0.0000
# 4 0.0000 0.0000 0.0000 21.3021 0.0000 -0.4060
# 5 1.1957 1.0474 -6.9114 0.0000 31.1872 0.0000
# 6 0.0000 0.0000 0.0000 -0.4060 0.0000 27.1158
#
#
#
# Elastic Compliance Matrix: (Units=1/GPa)
#
#
# Indices 1 2 3 4 5 6 
#
# 1 0.023391 -0.003175 -0.005654 0.000000 -0.002043 0.000000
# 2 -0.003175 0.024660 -0.001024 0.000000 -0.000933 0.000000
# 3 -0.005654 -0.001024 0.009965 0.000000 0.002460 0.000000
# 4 0.000000 0.000000 0.000000 0.046957 0.000000 0.000703
# 5 -0.002043 -0.000933 0.002460 0.000000 0.032719 0.000000
# 6 0.000000 0.000000 0.000000 0.000703 0.000000 0.036889
#
#
# Mechanical properties :
#
#
# Convention : Reuss Voigt Hill
#
# Bulk Modulus (GPa) = 26.10304 33.80929 29.95616
# Shear Modulus (GPa) = 24.14784 27.04338 25.59561
#
# Velocity S-wave (km/s) = 3.45855 3.66003 3.56072
# Velocity P-wave (km/s) = 5.37390 5.88289 5.63415
#
# Compressibility (1/GPa) = 0.03830972
#
# Stress axis : x y z
#
# Youngs Moduli (GPa) = 42.75127 40.55187 100.35050
#
# Poissons Ratio (x) = 0.12875 0.56740
# Poissons Ratio (y) = 0.13573 0.10276
# Poissons Ratio (z) = 0.24172 0.04153
#
# Static dielectric constant tensor:
#      x y z
#    x 1.837820 0.000000 0.002010 
#    y 0.000000 1.725730 0.000000 
#    z 0.002010 0.000000 1.732020 
# 
# From -- ./inp_files/329638.got.cif
#   From: 2010.05.17/outbox.cif.g08.bks.cpg/sg12_165_cif.got.tgz:329638.got - 2010.06.03 13:09:07.
