data_PCOD9194534
_publ_section_title
;
Structure prediction by ZEFSAII (Michael W. Deem and Ramdas Pophale) SiO2 
 PCOD9194534
Probable space group: C 2/M
;
_chemical_formula_sum "Si O2"
_cell_formula_units_Z 64
_cell_length_a 20.762512
_cell_length_b 8.711188
_cell_length_c 17.805531
_cell_angle_alpha 90.000000
_cell_angle_beta 68.543397
_cell_angle_gamma 90.000000
_cell_volume 2997.226373
_symmetry_space_group_name_H-M "C 2/M"
_symmetry_group_IT_number 12
_symmetry_cell_setting 'monoclinic'
loop_
_space_group_symop_operation_xyz
x,y,z
-x,y,-z
-x,-y,-z
x,-y,z
1/2+x,1/2+y,z
1/2-x,1/2+y,-z
1/2-x,1/2-y,-z
1/2+x,1/2-y,z
loop_
_atom_site_type_symbol
_atom_site_label
_atom_site_fract_x
_atom_site_fract_y
_atom_site_fract_z
Si Si1 0.531328 0.317418 0.148841
Si Si2 0.289890 0.316575 0.053916
Si Si3 0.833343 0.316122 0.655446
Si Si4 0.440328 0.176551 0.320517
Si Si5 0.412632 0.683358 0.095548
Si Si6 0.572721 0.324709 0.511839
Si Si7 0.849157 0.682370 0.812652
Si Si8 0.182456 0.322723 0.736382
O O1 0.534810 0.500000 0.140365
O O2 0.486585 0.268678 0.240935
O O3 0.487356 0.259907 0.094591
O O4 0.606714 0.257856 0.139823
O O5 0.295533 0.500000 0.042269
O O6 0.366040 0.258336 0.045500
O O7 0.232649 0.286309 0.143179
O O8 0.250000 0.250000 0.000000
O O9 0.827228 0.500000 0.659529
O O10 0.874844 0.262640 0.565253
O O11 0.869437 0.269441 0.719494
O O12 0.757936 0.241157 0.688721
O O13 0.438839 0.245289 0.403530
O O14 0.363201 0.178418 0.319582
O O15 0.465190 0.000000 0.310777
O O16 0.419830 0.500000 0.082073
O O17 0.360920 0.720092 0.186601
O O18 0.500000 0.326753 0.500000
O O19 0.596360 0.500000 0.512885
O O20 0.858753 0.500000 0.815476
O O21 0.184602 0.500000 0.762663
#
# Coordination Sequence:
#
# PCOD9194534 Si02
#       8
#     8   8   8   8   8   8   8   8
#     4  10  20  34  59  88 114 150 192 238 283 329
#     4  10  21  39  61  87 116 150 188 230 280 337
#     4  11  22  37  58  80 108 150 189 229 285 341
#     4  10  21  37  56  80 112 150 189 230 285 343
#     4   9  18  37  59  82 116 153 189 227 279 341
#     4  11  24  39  54  77 108 143 188 241 287 332
#     4  10  21  38  59  84 116 150 188 233 282 341
#     4  10  20  34  56  85 111 140 186 238 279 327
#
# _framework density 21.353073999999999
#
# number of rings (size 3 to 8) (size 9 to 14) (size 15 to 20)
#    0.000    1.875    1.250    2.625    0.000    7.500 
#    0.000    0.625    0.000    3.750    0.000    0.000 
#    0.000    0.000    0.000    0.000    0.000    0.000 
#
# Total GULP energy -178682.831774 kJ/mol
# GULP energy per Si atom -5583.838493 kJ/mol
# Density = 2.130447 g / cm^3
# Si number density = 21.353074 Si / 1000 Ang^3
#
#
#
# Elastic Constant Matrix: (Units=GPa)
#
#
# Indices 1 2 3 4 5 6 
#
# 1 140.7473 27.9763 28.8325 0.0000 21.0001 0.0000
# 2 27.9763 16.3071 3.9601 0.0000 -4.5978 0.0000
# 3 28.8325 3.9601 83.7449 0.0000 12.6663 0.0000
# 4 0.0000 0.0000 0.0000 22.8568 0.0000 3.7119
# 5 21.0001 -4.5978 12.6663 0.0000 26.1660 0.0000
# 6 0.0000 0.0000 0.0000 3.7119 0.0000 29.1778
#
#
#
# Elastic Compliance Matrix: (Units=1/GPa)
#
#
# Indices 1 2 3 4 5 6 
#
# 1 0.017032 -0.034253 -0.001366 0.000000 -0.019027 0.000000
# 2 -0.034253 0.135526 -0.002563 0.000000 0.052546 0.000000
# 3 -0.001366 -0.002563 0.013417 0.000000 -0.005849 0.000000
# 4 0.000000 0.000000 0.000000 0.044674 0.000000 -0.005683
# 5 -0.019027 0.052546 -0.005849 0.000000 0.065553 0.000000
# 6 0.000000 0.000000 0.000000 -0.005683 0.000000 0.034996
#
#
# Mechanical properties :
#
#
# Convention : Reuss Voigt Hill
#
# Bulk Modulus (GPa) = 11.15956 40.25968 25.70962
# Shear Modulus (GPa) = 11.97797 27.64213 19.81005
#
# Velocity S-wave (km/s) = 2.37100 3.60186 3.04918
# Velocity P-wave (km/s) = 3.56835 6.01607 4.94602
#
# Compressibility (1/GPa) = 0.08960927
#
# Stress axis : x y z
#
# Youngs Moduli (GPa) = 58.71184 7.37868 74.53061
#
# Poissons Ratio (x) = 0.25275 0.10184
# Poissons Ratio (y) = 2.01108 0.19103
# Poissons Ratio (z) = 0.08023 0.01891
#
# Static dielectric constant tensor:
#      x y z
#    x 1.816200 0.000000 0.020350 
#    y 0.000000 1.744640 0.000000 
#    z 0.020350 0.000000 1.787870 
# 
# From -- ./inp_files/281338.got.cif
#   From: 2010.05.17/outbox.cif.g08.bks.cpg/sg12_141_cif.got.tgz:281338.got - 2010.06.03 13:09:07.
