data_PCOD9194218
_publ_section_title
;
Structure prediction by ZEFSAII (Michael W. Deem and Ramdas Pophale) SiO2 
 PCOD9194218
Probable space group: C 2/M
;
_chemical_formula_sum "Si O2"
_cell_formula_units_Z 56
_cell_length_a 16.914212
_cell_length_b 14.536699
_cell_length_c 12.136141
_cell_angle_alpha 90.000000
_cell_angle_beta 116.089863
_cell_angle_gamma 90.000000
_cell_volume 2679.942571
_symmetry_space_group_name_H-M "C 2/M"
_symmetry_group_IT_number 12
_symmetry_cell_setting 'monoclinic'
loop_
_space_group_symop_operation_xyz
x,y,z
-x,y,-z
-x,-y,-z
x,-y,z
1/2+x,1/2+y,z
1/2-x,1/2+y,-z
1/2-x,1/2-y,-z
1/2+x,1/2-y,z
loop_
_atom_site_type_symbol
_atom_site_label
_atom_site_fract_x
_atom_site_fract_y
_atom_site_fract_z
Si Si1 0.323100 0.217762 0.777631
Si Si2 0.239763 0.892488 0.523985
Si Si3 0.020334 0.597184 0.639912
Si Si4 0.029958 0.890594 0.396292
Si Si5 0.720870 0.897004 0.707399
Si Si6 0.405857 0.896134 0.005929
Si Si7 0.506016 0.247463 0.790932
O O1 0.280942 0.173211 0.641826
O O2 0.270179 0.307645 0.781102
O O3 0.333630 0.138365 0.874876
O O4 0.421717 0.255446 0.816653
O O5 0.281939 0.884603 0.427826
O O6 0.134841 0.873090 0.447663
O O7 0.248834 0.000000 0.562990
O O8 0.990080 0.500000 0.670383
O O9 0.125382 0.602703 0.703608
O O10 0.976136 0.679127 0.675323
O O11 0.000000 0.598426 0.500000
O O12 0.977284 0.840392 0.265686
O O13 0.000000 0.859178 0.500000
O O14 0.016432 0.000000 0.382098
O O15 0.759853 0.000000 0.748215
O O16 0.388029 0.000000 0.037136
O O17 0.500000 0.901829 0.000000
O O18 0.420704 0.813283 0.102084
#
# Coordination Sequence:
#
# PCOD9194218 Si02
#       7
#     8   8   8   8   8   8   8
#     4  11  21  34  58  85 111 149 192 234 286 338
#     4  10  20  34  55  83 113 148 183 231 289 342
#     4  10  21  34  53  83 115 148 184 229 287 345
#     4  10  22  37  55  83 118 150 185 233 285 342
#     4  10  21  36  54  82 120 150 185 233 286 346
#     4   9  20  38  57  83 114 147 192 242 282 330
#     4  11  21  35  60  80 110 149 192 234 283 334
#
# _framework density 20.895969999999998
#
# number of rings (size 3 to 8) (size 9 to 14) (size 15 to 20)
#    0.000    1.857    1.429    2.571    4.000    2.857 
#    0.000    1.429    0.000    2.571    0.000    0.000 
#    0.000    0.000    0.000    0.000    0.000    0.000 
#
# Total GULP energy -156216.004933 kJ/mol
# GULP energy per Si atom -5579.143033 kJ/mol
# Density = 2.084841 g / cm^3
# Si number density = 20.895970 Si / 1000 Ang^3
#
#
#
# Elastic Constant Matrix: (Units=GPa)
#
#
# Indices 1 2 3 4 5 6 
#
# 1 39.2012 9.3959 -0.6511 0.0000 -2.6341 0.0000
# 2 9.3959 104.0855 37.1604 0.0000 9.7717 0.0000
# 3 -0.6511 37.1604 64.5491 0.0000 -2.8142 0.0000
# 4 0.0000 0.0000 0.0000 1.8840 0.0000 -39.9758
# 5 -2.6341 9.7717 -2.8142 0.0000 16.4012 0.0000
# 6 0.0000 0.0000 0.0000 -39.9758 0.0000 48.2357
#
#
#
# Elastic Compliance Matrix: (Units=1/GPa)
#
#
# Indices 1 2 3 4 5 6 
#
# 1 0.027065 -0.004214 0.003021 0.000000 0.007376 0.000000
# 2 -0.004214 0.014039 -0.008583 0.000000 -0.010514 0.000000
# 3 0.003021 -0.008583 0.020864 0.000000 0.009179 0.000000
# 4 0.000000 0.000000 0.000000 -0.032004 0.000000 -0.026523
# 5 0.007376 -0.010514 0.009179 0.000000 0.069995 0.000000
# 6 0.000000 0.000000 0.000000 -0.026523 0.000000 -0.001250
#
#
# Mechanical properties :
#
#
# Convention : Reuss Voigt Hill
#
# Bulk Modulus (GPa) = 23.57645 33.29402 28.43523
# Shear Modulus (GPa) = 37.76384 24.09957 30.93170
#
# Velocity S-wave (km/s) = 4.25577 3.39973 3.85160
# Velocity P-wave (km/s) = 5.95449 5.60167 5.78077
#
# Compressibility (1/GPa) = 0.04241521
#
# Stress axis : x y z
#
# Youngs Moduli (GPa) = 36.94776 71.22836 47.92933
#
# Poissons Ratio (x) = 0.30016 -0.14478
# Poissons Ratio (y) = 0.15570 0.41139
# Poissons Ratio (z) = -0.11160 0.61137
#
# Static dielectric constant tensor:
#      x y z
#    x 1.748930 0.000000 -0.008310 
#    y 0.000000 1.775860 0.000000 
#    z -0.008310 0.000000 1.793730 
# 
# From -- ./inp_files/224887.got.cif
#   From: 2010.05.17/outbox.cif.g08.bks.cpg/sg12_113_cif.got.tgz:224887.got - 2010.06.03 13:09:07.
