data_PCOD9194039
_publ_section_title
;
Structure prediction by ZEFSAII (Michael W. Deem and Ramdas Pophale) SiO2 
 PCOD9194039
Probable space group: C 2/M
;
_chemical_formula_sum "Si O2"
_cell_formula_units_Z 64
_cell_length_a 20.346916
_cell_length_b 22.118915
_cell_length_c 18.019976
_cell_angle_alpha 90.000000
_cell_angle_beta 151.908192
_cell_angle_gamma 90.000000
_cell_volume 3818.846219
_symmetry_space_group_name_H-M "C 2/M"
_symmetry_group_IT_number 12
_symmetry_cell_setting 'monoclinic'
loop_
_space_group_symop_operation_xyz
x,y,z
-x,y,-z
-x,-y,-z
x,-y,z
1/2+x,1/2+y,z
1/2-x,1/2+y,-z
1/2-x,1/2-y,-z
1/2+x,1/2-y,z
loop_
_atom_site_type_symbol
_atom_site_label
_atom_site_fract_x
_atom_site_fract_y
_atom_site_fract_z
Si Si1 0.918802 0.697581 0.708966
Si Si2 0.066648 0.932129 0.239393
Si Si3 0.683885 0.929980 0.627281
Si Si4 0.574878 0.714388 0.651023
Si Si5 0.103992 0.826986 0.393393
Si Si6 0.597996 0.770536 0.027134
Si Si7 0.172141 0.870092 0.086779
Si Si8 0.462878 0.849602 0.325245
O O1 0.909887 0.766598 0.670561
O O2 0.765182 0.675691 0.580215
O O3 0.968449 0.659412 0.686883
O O4 0.026185 0.700377 0.883507
O O5 0.209322 0.929591 0.335106
O O6 0.074479 0.884008 0.312656
O O7 0.044526 0.000000 0.244588
O O8 0.945900 0.913817 0.061459
O O9 0.759413 0.893427 0.768596
O O10 0.547324 0.896084 0.460811
O O11 0.659450 0.000000 0.624330
O O12 0.500000 0.699240 0.500000
O O13 0.505692 0.677603 0.649244
O O14 0.741205 0.708626 0.808049
O O15 0.540046 0.784384 0.637057
O O16 0.609333 0.697262 0.031675
O O17 0.500000 0.783852 0.000000
O O18 0.301566 0.867850 0.158797
#
# Coordination Sequence:
#
# PCOD9194039 Si02
#       8
#     8   8   8   8   8   8   8   8
#     4  10  20  34  55  79 106 146 183 227 280 328
#     4  11  22  36  53  77 107 146 189 229 272 320
#     4  11  22  37  53  75 110 155 196 225 262 316
#     4  10  21  34  55  84 111 139 176 225 281 332
#     4  10  20  35  56  76 108 141 184 229 277 326
#     4  11  21  33  55  82 115 143 178 219 280 333
#     4  11  22  32  54  77 111 147 187 227 266 316
#     4  10  21  35  53  77 113 146 187 226 271 321
#
# _framework density 16.758989
#
# number of rings (size 3 to 8) (size 9 to 14) (size 15 to 20)
#    0.000    1.500    2.500    4.125    1.750    4.000 
#    0.000    0.000    0.000    0.375    0.000    0.000 
#    0.000    2.500    0.000    0.000    0.000    0.000 
#
# Total GULP energy -178661.023661 kJ/mol
# GULP energy per Si atom -5583.156989 kJ/mol
# Density = 1.672084 g / cm^3
# Si number density = 16.758989 Si / 1000 Ang^3
#
#
#
# Elastic Constant Matrix: (Units=GPa)
#
#
# Indices 1 2 3 4 5 6 
#
# 1 98.4720 28.7269 43.8868 0.0000 12.6353 0.0000
# 2 28.7269 28.4334 11.1673 0.0000 -5.8834 0.0000
# 3 43.8868 11.1673 104.9665 0.0000 -1.2732 0.0000
# 4 0.0000 0.0000 0.0000 15.0554 0.0000 0.3422
# 5 12.6353 -5.8834 -1.2732 0.0000 26.6036 0.0000
# 6 0.0000 0.0000 0.0000 0.3422 0.0000 13.1790
#
#
#
# Elastic Compliance Matrix: (Units=1/GPa)
#
#
# Indices 1 2 3 4 5 6 
#
# 1 0.021851 -0.022609 -0.006921 0.000000 -0.015709 0.000000
# 2 -0.022609 0.061851 0.003171 0.000000 0.024568 0.000000
# 3 -0.006921 0.003171 0.012139 0.000000 0.004569 0.000000
# 4 0.000000 0.000000 0.000000 0.066460 0.000000 -0.001726
# 5 -0.015709 0.024568 0.004569 0.000000 0.050702 0.000000
# 6 0.000000 0.000000 0.000000 -0.001726 0.000000 0.075923
#
#
# Mechanical properties :
#
#
# Convention : Reuss Voigt Hill
#
# Bulk Modulus (GPa) = 23.19033 44.38154 33.78594
# Shear Modulus (GPa) = 14.04420 20.84034 17.44227
#
# Velocity S-wave (km/s) = 2.89798 3.53020 3.22960
# Velocity P-wave (km/s) = 5.00653 6.56933 5.84044
#
# Compressibility (1/GPa) = 0.04312142
#
# Stress axis : x y z
#
# Youngs Moduli (GPa) = 45.76411 16.16798 82.38087
#
# Poissons Ratio (x) = 0.36554 0.57018
# Poissons Ratio (y) = 1.03468 -0.26120
# Poissons Ratio (z) = 0.31674 -0.05126
#
# Static dielectric constant tensor:
#      x y z
#    x 1.573780 0.000000 0.023150 
#    y 0.000000 1.547230 0.000000 
#    z 0.023150 0.000000 1.557730 
# 
# From -- ./inp_files/89572.got.cif
#   From: 2010.05.17/outbox.cif.g08.bks.cpg/sg12_45_cif.got.tgz:89572.got - 2010.06.03 13:09:07.
