data_PCOD9194693
_publ_section_title
;
Structure prediction by ZEFSAII (Michael W. Deem and Ramdas Pophale) SiO2 
 PCOD9194693
Probable space group: C 2/M
;
_chemical_formula_sum "Si O2"
_cell_formula_units_Z 64
_cell_length_a 14.995964
_cell_length_b 22.201695
_cell_length_c 9.138681
_cell_angle_alpha 90.000000
_cell_angle_beta 96.137923
_cell_angle_gamma 90.000000
_cell_volume 3025.152243
_symmetry_space_group_name_H-M "C 2/M"
_symmetry_group_IT_number 12
_symmetry_cell_setting 'monoclinic'
loop_
_space_group_symop_operation_xyz
x,y,z
-x,y,-z
-x,-y,-z
x,-y,z
1/2+x,1/2+y,z
1/2-x,1/2+y,-z
1/2-x,1/2-y,-z
1/2+x,1/2-y,z
loop_
_atom_site_type_symbol
_atom_site_label
_atom_site_fract_x
_atom_site_fract_y
_atom_site_fract_z
Si Si1 0.467909 0.730403 0.336650
Si Si2 0.393345 0.932233 0.673150
Si Si3 0.261608 0.855414 0.154186
Si Si4 0.242926 0.760443 0.673049
Si Si5 0.975873 0.659702 0.163679
Si Si6 0.734294 0.570890 0.425186
Si Si7 0.759611 0.112849 0.178562
Si Si8 0.578967 0.399616 0.600365
O O1 0.500000 0.753186 0.500000
O O2 0.362322 0.739025 0.314240
O O3 0.505510 0.772767 0.217320
O O4 0.474602 0.658255 0.344093
O O5 0.471944 0.886063 0.721397
O O6 0.328800 0.917315 0.523936
O O7 0.323721 0.929721 0.798041
O O8 0.427650 0.000000 0.660619
O O9 0.221485 0.795448 0.224882
O O10 0.369287 0.848346 0.161326
O O11 0.241215 0.909861 0.259965
O O12 0.227925 0.868161 0.985783
O O13 0.250000 0.750000 0.500000
O O14 0.269855 0.825732 0.739156
O O15 0.000000 0.648589 0.000000
O O16 0.714254 0.500000 0.442597
O O17 0.655871 0.609240 0.489627
O O18 0.851622 0.083720 0.257928
O O19 0.500000 0.434068 0.500000
#
# Coordination Sequence:
#
# PCOD9194693 Si02
#       8
#     8   8   8   8   8   8   8   8
#     4   9  20  33  56  85 119 152 197 249 299 355
#     4  10  22  40  60  84 120 173 217 247 290 356
#     4  11  22  37  58  89 126 161 204 253 309 357
#     4  10  20  34  57  84 114 159 202 248 303 365
#     4  11  23  37  54  88 130 171 206 248 300 360
#     4  10  23  42  65  91 121 160 211 261 303 360
#     4  10  20  37  59  88 123 157 202 255 309 362
#     4   9  19  42  66  91 115 153 204 254 317 379
#
# _framework density 21.15596
#
# number of rings (size 3 to 8) (size 9 to 14) (size 15 to 20)
#    0.000    2.000    1.250    2.625    5.250    1.500 
#    0.000    1.875    0.000    0.750    0.000    0.000 
#    0.000    0.000    0.000    0.000    0.000    0.000 
#
# Total GULP energy -178285.902319 kJ/mol
# GULP energy per Si atom -5571.434447 kJ/mol
# Density = 2.110781 g / cm^3
# Si number density = 21.155960 Si / 1000 Ang^3
#
#
#
# Elastic Constant Matrix: (Units=GPa)
#
#
# Indices 1 2 3 4 5 6 
#
# 1 61.1110 21.9440 4.7948 0.0000 14.4489 0.0000
# 2 21.9440 80.1927 29.6126 0.0000 3.5064 0.0000
# 3 4.7948 29.6126 110.6984 0.0000 -2.0091 0.0000
# 4 0.0000 0.0000 0.0000 12.4908 0.0000 -1.2793
# 5 14.4489 3.5064 -2.0091 0.0000 20.8631 0.0000
# 6 0.0000 0.0000 0.0000 -1.2793 0.0000 13.1177
#
#
#
# Elastic Compliance Matrix: (Units=1/GPa)
#
#
# Indices 1 2 3 4 5 6 
#
# 1 0.021595 -0.005389 0.000252 0.000000 -0.014026 0.000000
# 2 -0.005389 0.015334 -0.003854 0.000000 0.000784 0.000000
# 3 0.000252 -0.003854 0.010080 0.000000 0.001444 0.000000
# 4 0.000000 0.000000 0.000000 0.080866 0.000000 0.007886
# 5 -0.014026 0.000784 0.001444 0.000000 0.057653 0.000000
# 6 0.000000 0.000000 0.000000 0.007886 0.000000 0.077002
#
#
# Mechanical properties :
#
#
# Convention : Reuss Voigt Hill
#
# Bulk Modulus (GPa) = 34.45224 40.52277 37.48750
# Shear Modulus (GPa) = 17.23019 22.33770 19.78394
#
# Velocity S-wave (km/s) = 2.85693 3.25292 3.06134
# Velocity P-wave (km/s) = 5.21565 5.77101 5.50034
#
# Compressibility (1/GPa) = 0.02902569
#
# Stress axis : x y z
#
# Youngs Moduli (GPa) = 46.30632 65.21639 99.20745
#
# Poissons Ratio (x) = 0.35145 -0.02497
# Poissons Ratio (y) = 0.24955 0.38236
# Poissons Ratio (z) = -0.01165 0.25136
#
# Static dielectric constant tensor:
#      x y z
#    x 1.748680 0.000000 0.024970 
#    y 0.000000 1.908040 0.000000 
#    z 0.024970 0.000000 1.773690 
# 
# From -- ./inp_files/65853.got.cif
#   From: 2010.05.17/outbox.cif.g08.bks.cpg/sg12_33_cif.got.tgz:65853.got - 2010.06.03 13:09:07.
