data_PCOD9194649
_publ_section_title
;
Structure prediction by ZEFSAII (Michael W. Deem and Ramdas Pophale) SiO2 
 PCOD9194649
Probable space group: C 2/M
;
_chemical_formula_sum "Si O2"
_cell_formula_units_Z 64
_cell_length_a 19.110857
_cell_length_b 14.633517
_cell_length_c 11.599185
_cell_angle_alpha 90.000000
_cell_angle_beta 81.956431
_cell_angle_gamma 90.000000
_cell_volume 3211.904239
_symmetry_space_group_name_H-M "C 2/M"
_symmetry_group_IT_number 12
_symmetry_cell_setting 'monoclinic'
loop_
_space_group_symop_operation_xyz
x,y,z
-x,y,-z
-x,-y,-z
x,-y,z
1/2+x,1/2+y,z
1/2-x,1/2+y,-z
1/2-x,1/2-y,-z
1/2+x,1/2-y,z
loop_
_atom_site_type_symbol
_atom_site_label
_atom_site_fract_x
_atom_site_fract_y
_atom_site_fract_z
Si Si1 0.976741 0.891552 0.639366
Si Si2 0.557000 0.777832 0.720310
Si Si3 0.420412 0.766793 0.023330
Si Si4 0.577514 0.109696 0.202874
Si Si5 0.208445 0.260813 0.626800
Si Si6 0.312790 0.603900 0.725424
Si Si7 0.682083 0.398593 0.004754
Si Si8 0.230087 0.394615 0.238098
O O1 0.893819 0.868045 0.678393
O O2 0.000000 0.879670 0.500000
O O3 0.022909 0.822437 0.706495
O O4 0.985628 0.000000 0.665739
O O5 0.492437 0.848330 0.722750
O O6 0.626590 0.784201 0.626678
O O7 0.587409 0.795233 0.842197
O O8 0.416409 0.844442 0.925884
O O9 0.368363 0.685249 0.008444
O O10 0.500000 0.729978 0.000000
O O11 0.648233 0.134474 0.257667
O O12 0.574254 0.000000 0.194109
O O13 0.250000 0.250000 0.500000
O O14 0.251972 0.336861 0.684430
O O15 0.218845 0.168636 0.699158
O O16 0.307190 0.500000 0.685213
O O17 0.300414 0.606117 0.865220
O O18 0.650345 0.500000 0.991155
O O19 0.746583 0.390238 0.901179
O O20 0.235537 0.500000 0.273780
#
# Coordination Sequence:
#
# PCOD9194649 Si02
#       8
#     8   8   8   8   8   8   8   8
#     4  10  21  40  64  87 118 161 205 251 304 370
#     4  11  23  37  59  91 121 159 203 250 310 364
#     4  10  20  34  56  90 127 160 193 244 313 375
#     4  10  23  42  63  88 123 169 212 252 301 367
#     4  12  25  40  62  90 125 162 200 258 313 364
#     4  10  22  39  60  88 117 156 206 248 299 366
#     4  10  20  36  61  91 123 159 200 252 315 380
#     4  10  22  41  65  89 119 164 210 254 309 376
#
# _framework density 19.925874
#
# number of rings (size 3 to 8) (size 9 to 14) (size 15 to 20)
#    0.000    1.625    1.250    3.750    1.750    5.500 
#    0.000    0.000    0.000    1.875    0.000    0.000 
#    0.000    0.000    0.000    0.000    0.000    0.000 
#
# Total GULP energy -178629.852300 kJ/mol
# GULP energy per Si atom -5582.182884 kJ/mol
# Density = 1.988052 g / cm^3
# Si number density = 19.925874 Si / 1000 Ang^3
#
#
#
# Elastic Constant Matrix: (Units=GPa)
#
#
# Indices 1 2 3 4 5 6 
#
# 1 80.2120 48.7105 1.5669 0.0000 -13.2907 0.0000
# 2 48.7105 72.0950 8.2142 0.0000 -3.1608 0.0000
# 3 1.5669 8.2142 42.0596 0.0000 -18.6848 0.0000
# 4 0.0000 0.0000 0.0000 45.8055 0.0000 22.4696
# 5 -13.2907 -3.1608 -18.6848 0.0000 26.2167 0.0000
# 6 0.0000 0.0000 0.0000 22.4696 0.0000 35.4179
#
#
#
# Elastic Compliance Matrix: (Units=1/GPa)
#
#
# Indices 1 2 3 4 5 6 
#
# 1 0.026609 -0.018405 0.011136 0.000000 0.019207 0.000000
# 2 -0.018405 0.026919 -0.010645 0.000000 -0.013672 0.000000
# 3 0.011136 -0.010645 0.040062 0.000000 0.032915 0.000000
# 4 0.000000 0.000000 0.000000 0.031695 0.000000 -0.020108
# 5 0.019207 -0.013672 0.032915 0.000000 0.069691 0.000000
# 6 0.000000 0.000000 0.000000 -0.020108 0.000000 0.040991
#
#
# Mechanical properties :
#
#
# Convention : Reuss Voigt Hill
#
# Bulk Modulus (GPa) = 17.31255 34.59442 25.95348
# Shear Modulus (GPa) = 17.17923 30.54634 23.86279
#
# Velocity S-wave (km/s) = 2.93944 3.91960 3.46436
# Velocity P-wave (km/s) = 4.49752 6.15497 5.39033
#
# Compressibility (1/GPa) = 0.05776158
#
# Stress axis : x y z
#
# Youngs Moduli (GPa) = 37.58195 37.14849 24.96116
#
# Poissons Ratio (x) = 0.68370 -0.27796
# Poissons Ratio (y) = 0.69168 0.26572
# Poissons Ratio (z) = -0.41851 0.39546
#
# Static dielectric constant tensor:
#      x y z
#    x 1.693940 0.000000 -0.018530 
#    y 0.000000 1.705300 0.000000 
#    z -0.018530 0.000000 1.646520 
# 
# From -- ./inp_files/156628.got.cif
#   From: 2010.05.17/outbox.cif.g08.bks.cpg/sg12_79_cif.got.tgz:156628.got - 2010.06.03 13:09:07.
