data_PCOD9194477
_publ_section_title
;
Structure prediction by ZEFSAII (Michael W. Deem and Ramdas Pophale) SiO2 
 PCOD9194477
Probable space group: C 2/M
;
_chemical_formula_sum "Si O2"
_cell_formula_units_Z 48
_cell_length_a 14.844163
_cell_length_b 8.308259
_cell_length_c 24.999186
_cell_angle_alpha 90.000000
_cell_angle_beta 40.534152
_cell_angle_gamma 90.000000
_cell_volume 2003.728786
_symmetry_space_group_name_H-M "C 2/M"
_symmetry_group_IT_number 12
_symmetry_cell_setting 'monoclinic'
loop_
_space_group_symop_operation_xyz
x,y,z
-x,y,-z
-x,-y,-z
x,-y,z
1/2+x,1/2+y,z
1/2-x,1/2+y,-z
1/2-x,1/2-y,-z
1/2+x,1/2-y,z
loop_
_atom_site_type_symbol
_atom_site_label
_atom_site_fract_x
_atom_site_fract_y
_atom_site_fract_z
Si Si1 0.294154 0.686506 0.119774
Si Si2 0.056952 0.311167 0.052675
Si Si3 0.461041 0.307177 0.822919
Si Si4 0.972771 0.187679 0.374596
Si Si5 0.196010 0.304529 0.447222
Si Si6 0.224710 0.307903 0.316790
O O1 0.300638 0.500000 0.131960
O O2 0.392572 0.784736 0.115495
O O3 0.137452 0.740836 0.179186
O O4 0.367188 0.715894 0.029009
O O5 0.089913 0.500000 0.033242
O O6 0.094052 0.243758 0.093864
O O7 0.460829 0.500000 0.818649
O O8 0.618910 0.244905 0.752963
O O9 0.891091 0.221668 0.467080
O O10 0.858161 0.239092 0.383104
O O11 0.122398 0.265054 0.315025
O O12 0.995039 0.000000 0.356648
O O13 0.182169 0.500000 0.459871
O O14 0.158539 0.260548 0.403786
O O15 0.235704 0.500000 0.312635
#
# Coordination Sequence:
#
# PCOD9194477 Si02
#       6
#     8   8   8   8   8   8
#     4  11  22  39  62  88 115 147 189 237 284 333
#     4  11  22  39  62  87 114 149 190 234 284 337
#     4  11  23  39  57  83 117 153 192 234 284 339
#     4  10  20  34  56  84 110 139 182 233 277 323
#     4   9  19  37  57  78 107 145 184 223 274 332
#     4  10  22  38  56  78 110 150 185 222 274 334
#
# _framework density 23.955335999999999
#
# number of rings (size 3 to 8) (size 9 to 14) (size 15 to 20)
#    0.000    1.667    0.000    6.000    0.000    6.000 
#    0.000    1.667    0.000    0.000    0.000    0.000 
#    0.000    0.000    0.000    0.000    0.000    0.000 
#
# Total GULP energy -134290.057541 kJ/mol
# GULP energy per Si atom -5595.419064 kJ/mol
# Density = 2.390081 g / cm^3
# Si number density = 23.955336 Si / 1000 Ang^3
#
#
#
# Elastic Constant Matrix: (Units=GPa)
#
#
# Indices 1 2 3 4 5 6 
#
# 1 143.4415 -1.7685 7.5705 0.0000 -16.4627 0.0000
# 2 -1.7685 38.9982 -10.3360 0.0000 -3.2940 0.0001
# 3 7.5705 -10.3360 50.9164 0.0000 -16.1811 0.0000
# 4 0.0000 0.0000 0.0000 18.7882 0.0000 -14.1474
# 5 -16.4627 -3.2940 -16.1811 0.0000 46.2061 0.0000
# 6 0.0000 0.0001 0.0000 -14.1474 0.0000 31.5777
#
#
#
# Elastic Compliance Matrix: (Units=1/GPa)
#
#
# Indices 1 2 3 4 5 6 
#
# 1 0.007282 0.000505 -0.000162 0.000000 0.002573 0.000000
# 2 0.000505 0.027932 0.007072 0.000000 0.004648 0.000000
# 3 -0.000162 0.007072 0.023902 0.000000 0.008817 0.000000
# 4 0.000000 0.000000 0.000000 0.080322 0.000000 0.035986
# 5 0.002573 0.004648 0.008817 0.000000 0.025978 0.000000
# 6 0.000000 0.000000 0.000000 0.035986 0.000000 0.047790
#
#
# Mechanical properties :
#
#
# Convention : Reuss Voigt Hill
#
# Bulk Modulus (GPa) = 13.52374 24.92090 19.22232
# Shear Modulus (GPa) = 22.41894 35.17372 28.79633
#
# Velocity S-wave (km/s) = 3.06251 3.83600 3.47087
# Velocity P-wave (km/s) = 4.26180 5.48138 4.90961
#
# Compressibility (1/GPa) = 0.07394406
#
# Stress axis : x y z
#
# Youngs Moduli (GPa) = 137.33186 35.80113 41.83799
#
# Poissons Ratio (x) = -0.01806 0.00680
# Poissons Ratio (y) = -0.06929 -0.29589
# Poissons Ratio (z) = 0.02231 -0.25319
#
# Static dielectric constant tensor:
#      x y z
#    x 1.912130 0.000000 -0.048730 
#    y 0.000000 1.807250 0.000000 
#    z -0.048730 0.000000 2.014710 
# 
# From -- ./inp_files/360222.got.cif
#   From: 2010.05.17/outbox.cif.g08.bks.cpg/sg12_181_cif.got.tgz:360222.got - 2010.06.03 13:09:07.
