data_PCOD9194239
_publ_section_title
;
Structure prediction by ZEFSAII (Michael W. Deem and Ramdas Pophale) SiO2 
 PCOD9194239
Probable space group: C 2/M
;
_chemical_formula_sum "Si O2"
_cell_formula_units_Z 48
_cell_length_a 20.425549
_cell_length_b 19.146545
_cell_length_c 14.354939
_cell_angle_alpha 90.000000
_cell_angle_beta 24.534614
_cell_angle_gamma 90.000000
_cell_volume 2331.136596
_symmetry_space_group_name_H-M "C 2/M"
_symmetry_group_IT_number 12
_symmetry_cell_setting 'monoclinic'
loop_
_space_group_symop_operation_xyz
x,y,z
-x,y,-z
-x,-y,-z
x,-y,z
1/2+x,1/2+y,z
1/2-x,1/2+y,-z
1/2-x,1/2-y,-z
1/2+x,1/2-y,z
loop_
_atom_site_type_symbol
_atom_site_label
_atom_site_fract_x
_atom_site_fract_y
_atom_site_fract_z
Si Si1 0.475533 0.195567 0.933700
Si Si2 0.771731 0.580168 0.896569
Si Si3 0.475213 0.581366 0.424030
Si Si4 0.898677 0.299820 0.833696
Si Si5 0.439052 0.645833 0.981222
Si Si6 0.836907 0.812674 0.472264
O O1 0.393230 0.169647 0.946523
O O2 0.396546 0.272034 0.052590
O O3 0.660853 0.207166 0.673580
O O4 0.500000 0.156653 0.000000
O O5 0.821738 0.500000 0.830285
O O6 0.900823 0.636416 0.759956
O O7 0.633421 0.588060 0.155134
O O8 0.696083 0.603683 0.896615
O O9 0.500000 0.599838 0.500000
O O10 0.428944 0.500000 0.479952
O O11 0.347818 0.631533 0.541928
O O12 0.050469 0.249989 0.638941
O O13 0.750000 0.250000 0.000000
O O14 0.579098 0.650534 0.724407
O O15 0.500000 0.617047 0.000000
#
# Coordination Sequence:
#
# PCOD9194239 Si02
#       6
#     8   8   8   8   8   8
#     4  10  21  34  57  84 115 146 192 238 288 342
#     4  10  20  34  55  83 116 154 189 234 287 340
#     4   9  18  32  52  81 119 153 191 228 278 350
#     4  11  18  35  56  81 116 147 187 239 280 335
#     4   9  17  33  54  79 112 146 193 228 279 333
#     4  10  20  34  56  84 116 151 191 238 285 332
#
# _framework density 20.590814000000002
#
# number of rings (size 3 to 8) (size 9 to 14) (size 15 to 20)
#    0.000    2.167    5.000    2.000    2.333    0.333 
#    0.000    0.833    3.667    4.000    0.000   10.500 
#    0.000    0.000    0.000    0.000    0.000    0.000 
#
# Total GULP energy -133727.243223 kJ/mol
# GULP energy per Si atom -5571.968468 kJ/mol
# Density = 2.054395 g / cm^3
# Si number density = 20.590814 Si / 1000 Ang^3
#
#
#
# Elastic Constant Matrix: (Units=GPa)
#
#
# Indices 1 2 3 4 5 6 
#
# 1 199.9109 61.8464 18.1163 -0.0004 -14.7589 0.0003
# 2 61.8464 89.3780 12.7268 0.0011 -19.0310 -0.0005
# 3 18.1163 12.7268 38.3098 0.0009 -19.1205 -0.0001
# 4 -0.0004 0.0011 0.0009 2.3763 -0.0006 -3.1984
# 5 -14.7589 -19.0310 -19.1205 -0.0006 29.3139 0.0002
# 6 0.0003 -0.0005 -0.0001 -3.1984 0.0002 28.0944
#
#
#
# Elastic Compliance Matrix: (Units=1/GPa)
#
#
# Indices 1 2 3 4 5 6 
#
# 1 0.006478 -0.004387 -0.002075 0.000004 -0.000940 0.000000
# 2 -0.004387 0.015955 0.001248 -0.000008 0.008963 -0.000001
# 3 -0.002075 0.001248 0.039369 -0.000012 0.025445 -0.000001
# 4 0.000004 -0.000008 -0.000012 0.496966 -0.000001 0.056577
# 5 -0.000940 0.008963 0.025445 -0.000001 0.056056 0.000000
# 6 0.000000 -0.000001 -0.000001 0.056577 0.000000 0.042035
#
#
# Mechanical properties :
#
#
# Convention : Reuss Voigt Hill
#
# Bulk Modulus (GPa) = 19.46538 56.99750 38.23144
# Shear Modulus (GPa) = 7.30552 27.61753 17.46152
#
# Velocity S-wave (km/s) = 1.88564 3.66629 2.91525
# Velocity P-wave (km/s) = 3.77026 6.75747 5.47166
#
# Compressibility (1/GPa) = 0.05137325
#
# Stress axis : x y z
#
# Youngs Moduli (GPa) = 154.36371 62.67532 25.40055
#
# Poissons Ratio (x) = 0.27498 0.05271
# Poissons Ratio (y) = 0.67726 -0.03170
# Poissons Ratio (z) = 0.32035 -0.07822
#
# Static dielectric constant tensor:
#      x y z
#    x 1.782430 0.000000 0.073110 
#    y 0.000000 1.723150 0.000000 
#    z 0.073110 0.000000 1.822840 
# 
# From -- ./inp_files/227211.got.cif
#   From: 2010.05.17/outbox.cif.g08.bks.cpg/sg12_114_cif.got.tgz:227211.got - 2010.06.03 13:09:07.
