data_PCOD9194266
_publ_section_title
;
Structure prediction by ZEFSAII (Michael W. Deem and Ramdas Pophale) SiO2 
 PCOD9194266
Probable space group: C 2/M
;
_chemical_formula_sum "Si O2"
_cell_formula_units_Z 56
_cell_length_a 20.900798
_cell_length_b 7.365734
_cell_length_c 15.078600
_cell_angle_alpha 90.000000
_cell_angle_beta 90.221048
_cell_angle_gamma 90.000000
_cell_volume 2321.328949
_symmetry_space_group_name_H-M "C 2/M"
_symmetry_group_IT_number 12
_symmetry_cell_setting 'monoclinic'
loop_
_space_group_symop_operation_xyz
x,y,z
-x,y,-z
-x,-y,-z
x,-y,z
1/2+x,1/2+y,z
1/2-x,1/2+y,-z
1/2-x,1/2-y,-z
1/2+x,1/2-y,z
loop_
_atom_site_type_symbol
_atom_site_label
_atom_site_fract_x
_atom_site_fract_y
_atom_site_fract_z
Si Si1 0.875776 0.297205 0.292575
Si Si2 0.671442 0.719575 0.160149
Si Si3 0.311960 0.778049 0.113108
Si Si4 0.680014 0.713605 0.532238
Si Si5 0.497743 0.219786 0.396901
Si Si6 0.426716 0.212435 0.986479
Si Si7 0.366292 0.289999 0.650599
O O1 0.895662 0.500000 0.264119
O O2 0.840294 0.219057 0.208215
O O3 0.827592 0.306118 0.373983
O O4 0.936366 0.212870 0.342312
O O5 0.672844 0.500000 0.162540
O O6 0.737056 0.780478 0.110856
O O7 0.605502 0.771959 0.110712
O O8 0.668612 0.784056 0.262638
O O9 0.309283 0.000000 0.107895
O O10 0.367029 0.714354 0.045329
O O11 0.667373 0.500000 0.544593
O O12 0.750000 0.750000 0.500000
O O13 0.640516 0.789419 0.448525
O O14 0.500000 0.283554 0.500000
O O15 0.558004 0.278153 0.339108
O O16 0.494642 0.000000 0.400750
O O17 0.431624 0.000000 0.009958
O O18 0.500000 0.284243 0.000000
O O19 0.345777 0.500000 0.642455
#
# Coordination Sequence:
#
# PCOD9194266 Si02
#       7
#     8   8   8   8   8   8   8
#     4  10  20  36  58  82 114 153 193 236 288 344
#     4  10  21  39  61  84 113 153 196 237 288 345
#     4   9  19  38  62  85 115 155 193 234 291 354
#     4  11  22  36  55  80 113 152 194 239 286 338
#     4  10  20  34  55  84 114 150 195 241 287 337
#     4  10  22  39  62  91 118 147 187 236 292 352
#     4  10  22  37  55  80 113 154 194 234 288 348
#
# _framework density 24.124113999999999
#
# number of rings (size 3 to 8) (size 9 to 14) (size 15 to 20)
#    0.000    2.000    1.429    1.714    2.000    4.571 
#    0.000    2.857    0.000    0.000    0.000    0.000 
#    0.000    0.000    0.000    0.000    0.000    0.000 
#
# Total GULP energy -156167.615535 kJ/mol
# GULP energy per Si atom -5577.414841 kJ/mol
# Density = 2.406921 g / cm^3
# Si number density = 24.124114 Si / 1000 Ang^3
#
#
#
# Elastic Constant Matrix: (Units=GPa)
#
#
# Indices 1 2 3 4 5 6 
#
# 1 120.2086 1.9343 19.0832 0.0000 2.1576 0.0000
# 2 1.9343 95.4407 -1.0776 0.0000 0.5069 0.0000
# 3 19.0832 -1.0776 99.2613 0.0000 -1.1391 0.0000
# 4 0.0000 0.0000 0.0000 11.1666 0.0000 4.0007
# 5 2.1576 0.5069 -1.1391 0.0000 44.2105 0.0000
# 6 0.0000 0.0000 0.0000 4.0007 0.0000 18.3856
#
#
#
# Elastic Compliance Matrix: (Units=1/GPa)
#
#
# Indices 1 2 3 4 5 6 
#
# 1 0.008594 -0.000190 -0.001659 0.000000 -0.000460 0.000000
# 2 -0.000190 0.010484 0.000149 0.000000 -0.000107 0.000000
# 3 -0.001659 0.000149 0.010399 0.000000 0.000347 0.000000
# 4 0.000000 0.000000 0.000000 0.097125 0.000000 -0.021134
# 5 -0.000460 -0.000107 0.000347 0.000000 0.022652 0.000000
# 6 0.000000 0.000000 0.000000 -0.021134 0.000000 0.058989
#
#
# Mechanical properties :
#
#
# Convention : Reuss Voigt Hill
#
# Bulk Modulus (GPa) = 38.35088 39.42117 38.88602
# Shear Modulus (GPa) = 22.69264 34.41725 28.55494
#
# Velocity S-wave (km/s) = 3.07035 3.78123 3.44418
# Velocity P-wave (km/s) = 5.33865 5.95316 5.65426
#
# Compressibility (1/GPa) = 0.02607502
#
# Stress axis : x y z
#
# Youngs Moduli (GPa) = 116.36518 95.38501 96.16251
#
# Poissons Ratio (x) = 0.01817 0.15958
# Poissons Ratio (y) = 0.02216 -0.01435
# Poissons Ratio (z) = 0.19311 -0.01423
#
# Static dielectric constant tensor:
#      x y z
#    x 2.078560 0.000000 0.032180 
#    y 0.000000 1.871930 0.000000 
#    z 0.032180 0.000000 1.924880 
# 
# From -- ./inp_files/230918.got.cif
#   From: 2010.05.17/outbox.cif.g08.bks.cpg/sg12_116_cif.got.tgz:230918.got - 2010.06.03 13:09:07.
