data_PCOD9194168
_publ_section_title
;
Structure prediction by ZEFSAII (Michael W. Deem and Ramdas Pophale) SiO2 
 PCOD9194168
Probable space group: C 2/M
;
_chemical_formula_sum "Si O2"
_cell_formula_units_Z 44
_cell_length_a 30.473584
_cell_length_b 16.745162
_cell_length_c 12.004800
_cell_angle_alpha 90.000000
_cell_angle_beta 17.337844
_cell_angle_gamma 90.000000
_cell_volume 1825.542702
_symmetry_space_group_name_H-M "C 2/M"
_symmetry_group_IT_number 12
_symmetry_cell_setting 'monoclinic'
loop_
_space_group_symop_operation_xyz
x,y,z
-x,y,-z
-x,-y,-z
x,-y,z
1/2+x,1/2+y,z
1/2-x,1/2+y,-z
1/2-x,1/2-y,-z
1/2+x,1/2-y,z
loop_
_atom_site_type_symbol
_atom_site_label
_atom_site_fract_x
_atom_site_fract_y
_atom_site_fract_z
Si Si1 0.872643 0.336513 0.592810
Si Si2 0.674845 0.349918 0.597428
Si Si3 0.421835 0.500000 0.530462
Si Si4 0.325345 0.171667 0.452566
Si Si5 0.139004 0.000000 0.578144
Si Si6 0.930694 0.821243 0.554414
Si Si7 0.421782 0.000000 0.570085
O O1 0.813043 0.347991 0.612041
O O2 0.946941 0.248163 0.422477
O O3 0.956115 0.417330 0.423396
O O4 0.741527 0.331600 0.000756
O O5 0.727250 0.262990 0.435771
O O6 0.728750 0.371229 0.591328
O O7 0.725317 0.420009 0.395054
O O8 0.500000 0.343481 0.000000
O O9 0.413568 0.500000 0.418578
O O10 0.488360 0.412366 0.397879
O O11 0.256509 0.500000 0.981062
O O12 0.500000 0.163672 0.000000
O O13 0.000000 0.000000 0.000000
O O14 0.000000 0.788243 0.500000
O O15 0.500000 0.000000 0.500000
#
# Coordination Sequence:
#
# PCOD9194168 Si02
#       7
#     8   8   4   8   4   8   4
#     4  10  22  38  57  84 112 148 194 232 282 343
#     4   9  20  37  55  82 115 150 189 228 281 340
#     4  10  21  36  55  85 113 139 186 233 281 337
#     4  10  21  37  58  84 116 151 188 235 286 337
#     4  10  20  34  55  82 112 145 183 229 284 343
#     4  10  21  37  59  83 111 148 188 235 285 335
#     4  10  22  40  58  79 112 152 190 236 281 328
#
# _framework density 24.102421
#
# number of rings (size 3 to 8) (size 9 to 14) (size 15 to 20)
#    0.000    2.182    0.000    1.909    0.000    9.455 
#    0.000    0.909    0.000    0.000    0.000    0.000 
#    0.000    0.000    0.000    0.000    0.000    0.000 
#
# Total GULP energy -122751.838548 kJ/mol
# GULP energy per Si atom -5579.629025 kJ/mol
# Density = 2.404756 g / cm^3
# Si number density = 24.102421 Si / 1000 Ang^3
#
#
#
# Elastic Constant Matrix: (Units=GPa)
#
#
# Indices 1 2 3 4 5 6 
#
# 1 182.1659 53.3809 2.7181 -0.0061 -11.0116 0.0040
# 2 53.3809 121.4069 15.5831 -0.0248 -7.2239 0.0166
# 3 2.7181 15.5831 109.0107 -0.0409 -5.8051 0.0272
# 4 -0.0061 -0.0248 -0.0409 2113.6341 0.0083-1418.9724
# 5 -11.0116 -7.2239 -5.8051 0.0083 29.1676 -0.0055
# 6 0.0040 0.0166 0.0272-1418.9724 -0.0055 971.3067
#
#
#
# Elastic Compliance Matrix: (Units=1/GPa)
#
#
# Indices 1 2 3 4 5 6 
#
# 1 0.006399 -0.002749 0.000329 0.000000 0.001801 0.000000
# 2 -0.002749 0.009672 -0.001255 0.000000 0.001108 0.000000
# 3 0.000329 -0.001255 0.009435 0.000000 0.001691 0.000000
# 4 0.000000 0.000000 0.000000 0.024587 0.000000 0.035919
# 5 0.001801 0.001108 0.001691 0.000000 0.035575 0.000000
# 6 0.000000 0.000000 0.000000 0.035919 0.000000 0.053504
#
#
# Mechanical properties :
#
#
# Convention : Reuss Voigt Hill
#
# Bulk Modulus (GPa) = 55.07549 61.77196 58.42373
# Shear Modulus (GPa) = 32.77100 645.54843 339.15971
#
# Velocity S-wave (km/s) = 3.69135 16.38344 11.87525
# Velocity P-wave (km/s) = 6.40846 19.58504 14.57124
#
# Compressibility (1/GPa) = 0.01815690
#
# Stress axis : x y z
#
# Youngs Moduli (GPa) = 156.27759 103.38776 105.99190
#
# Poissons Ratio (x) = 0.28417 -0.03490
# Poissons Ratio (y) = 0.42955 0.13303
# Poissons Ratio (z) = -0.05145 0.12976
#
# Static dielectric constant tensor:
#      x y z
#    x 1.537650 0.000000 0.091960 
#    y 0.000000 2.004840 0.000000 
#    z 0.091960 0.000000 1.949280 
# 
# From -- ./inp_files/189990.got.cif
#   From: 2010.05.17/outbox.cif.g08.bks.cpg/sg12_95_cif.got.tgz:189990.got - 2010.06.03 13:09:07.
