data_PCOD9194524
_publ_section_title
;
Structure prediction by ZEFSAII (Michael W. Deem and Ramdas Pophale) SiO2 
 PCOD9194524
Probable space group: C 2/M
;
_chemical_formula_sum "Si O2"
_cell_formula_units_Z 64
_cell_length_a 28.765843
_cell_length_b 14.504511
_cell_length_c 9.302374
_cell_angle_alpha 90.000000
_cell_angle_beta 118.491473
_cell_angle_gamma 90.000000
_cell_volume 3411.203164
_symmetry_space_group_name_H-M "C 2/M"
_symmetry_group_IT_number 12
_symmetry_cell_setting 'monoclinic'
loop_
_space_group_symop_operation_xyz
x,y,z
-x,y,-z
-x,-y,-z
x,-y,z
1/2+x,1/2+y,z
1/2-x,1/2+y,-z
1/2-x,1/2-y,-z
1/2+x,1/2-y,z
loop_
_atom_site_type_symbol
_atom_site_label
_atom_site_fract_x
_atom_site_fract_y
_atom_site_fract_z
Si Si1 0.366234 0.726005 0.761708
Si Si2 0.693458 0.240101 0.618143
Si Si3 0.602602 0.897703 0.526087
Si Si4 0.043713 0.605744 0.725568
Si Si5 0.732712 0.393593 0.893626
Si Si6 0.788995 0.891693 0.803049
Si Si7 0.035081 0.323934 0.184882
Si Si8 0.346961 0.896635 0.939887
O O1 0.332514 0.722814 0.566045
O O2 0.345735 0.641921 0.828400
O O3 0.428605 0.739353 0.816739
O O4 0.350054 0.818199 0.824968
O O5 0.648142 0.175353 0.616950
O O6 0.707485 0.322027 0.746342
O O7 0.744297 0.174707 0.668501
O O8 0.557197 0.883537 0.578143
O O9 0.578645 0.886497 0.330818
O O10 0.623876 0.000000 0.578281
O O11 0.022835 0.500000 0.717848
O O12 0.008165 0.682093 0.752001
O O13 0.100262 0.608348 0.888218
O O14 0.719036 0.500000 0.839546
O O15 0.795731 0.383948 0.964049
O O16 0.716522 0.375937 0.033886
O O17 0.779885 0.000000 0.761075
O O18 0.000000 0.360619 0.000000
O O19 0.343617 0.000000 0.871734
#
# Coordination Sequence:
#
# PCOD9194524 Si02
#       8
#     8   8   8   8   8   8   8   8
#     4  11  24  38  53  86 116 153 193 230 281 336
#     4  11  22  37  58  85 120 152 189 230 282 337
#     4  10  22  36  54  85 120 153 191 231 279 338
#     4  10  20  35  55  80 112 153 191 229 279 334
#     4  10  22  38  60  87 113 149 191 234 281 335
#     4  11  23  39  60  84 113 152 195 235 281 334
#     4  11  22  36  54  78 112 153 193 232 278 339
#     4  10  20  34  56  84 117 151 188 228 277 335
#
# _framework density 18.761710000000001
#
# number of rings (size 3 to 8) (size 9 to 14) (size 15 to 20)
#    0.000    1.500    2.500    2.625    1.750    7.500 
#    0.000    0.000    0.000    0.375    0.000    0.875 
#    0.000    8.000    0.000    0.000    0.000    0.000 
#
# Total GULP energy -178542.850931 kJ/mol
# GULP energy per Si atom -5579.464092 kJ/mol
# Density = 1.871901 g / cm^3
# Si number density = 18.761710 Si / 1000 Ang^3
#
#
#
# Elastic Constant Matrix: (Units=GPa)
#
#
# Indices 1 2 3 4 5 6 
#
# 1 116.3025 43.6504 27.2568 0.0000 -2.5130 0.0000
# 2 43.6504 64.1704 29.2549 0.0000 2.9356 0.0000
# 3 27.2568 29.2549 67.6895 0.0000 3.9465 0.0000
# 4 0.0000 0.0000 0.0000 14.1269 0.0000 -2.5130
# 5 -2.5130 2.9356 3.9465 0.0000 22.8727 0.0000
# 6 0.0000 0.0000 0.0000 -2.5130 0.0000 29.5164
#
#
#
# Elastic Compliance Matrix: (Units=1/GPa)
#
#
# Indices 1 2 3 4 5 6 
#
# 1 0.011825 -0.007374 -0.001723 0.000000 0.002543 0.000000
# 2 -0.007374 0.024032 -0.007263 0.000000 -0.002641 0.000000
# 3 -0.001723 -0.007263 0.018751 0.000000 -0.002492 0.000000
# 4 0.000000 0.000000 0.000000 0.071875 0.000000 0.006119
# 5 0.002543 -0.002641 -0.002492 0.000000 0.044769 0.000000
# 6 0.000000 0.000000 0.000000 0.006119 0.000000 0.034400
#
#
# Mechanical properties :
#
#
# Convention : Reuss Voigt Hill
#
# Bulk Modulus (GPa) = 45.68728 49.83184 47.75956
# Shear Modulus (GPa) = 20.35269 23.16990 21.76130
#
# Velocity S-wave (km/s) = 3.29720 3.51801 3.40939
# Velocity P-wave (km/s) = 6.23695 6.56657 6.40388
#
# Compressibility (1/GPa) = 0.02188793
#
# Stress axis : x y z
#
# Youngs Moduli (GPa) = 84.56888 41.61161 53.32987
#
# Poissons Ratio (x) = 0.30686 0.09186
# Poissons Ratio (y) = 0.62365 0.38733
# Poissons Ratio (z) = 0.14567 0.30222
#
# Static dielectric constant tensor:
#      x y z
#    x 1.705090 0.000000 0.003290 
#    y 0.000000 1.635540 0.000000 
#    z 0.003290 0.000000 1.685720 
# 
# From -- ./inp_files/104691.got.cif
#   From: 2010.05.17/outbox.cif.g08.bks.cpg/sg12_53_cif.got.tgz:104691.got - 2010.06.03 13:09:07.
