data_PCOD9194231
_publ_section_title
;
Structure prediction by ZEFSAII (Michael W. Deem and Ramdas Pophale) SiO2 
 PCOD9194231
Probable space group: C 2/M
;
_chemical_formula_sum "Si O2"
_cell_formula_units_Z 40
_cell_length_a 14.174016
_cell_length_b 21.408227
_cell_length_c 14.032132
_cell_angle_alpha 90.000000
_cell_angle_beta 150.749595
_cell_angle_gamma 90.000000
_cell_volume 2080.535381
_symmetry_space_group_name_H-M "C 2/M"
_symmetry_group_IT_number 12
_symmetry_cell_setting 'monoclinic'
loop_
_space_group_symop_operation_xyz
x,y,z
-x,y,-z
-x,-y,-z
x,-y,z
1/2+x,1/2+y,z
1/2-x,1/2+y,-z
1/2-x,1/2-y,-z
1/2+x,1/2-y,z
loop_
_atom_site_type_symbol
_atom_site_label
_atom_site_fract_x
_atom_site_fract_y
_atom_site_fract_z
Si Si1 0.035143 0.573782 0.886190
Si Si2 0.299717 0.624424 0.268420
Si Si3 0.411793 0.290033 0.768628
Si Si4 0.615102 0.829970 0.382975
Si Si5 0.715488 0.771714 0.792376
O O1 0.011975 0.500000 0.858483
O O2 0.867630 0.602584 0.806348
O O3 0.994371 0.609871 0.752249
O O4 0.238221 0.589282 0.116868
O O5 0.500000 0.611920 0.500000
O O6 0.290584 0.697608 0.232769
O O7 0.371047 0.221300 0.688899
O O8 0.327417 0.337085 0.615469
O O9 0.302338 0.299269 0.771913
O O10 0.636198 0.288858 0.992288
O O11 0.488319 0.797474 0.353727
#
# Coordination Sequence:
#
# PCOD9194231 Si02
#       5
#     8   8   8   8   8
#     4  11  24  40  54  80 122 157 195 231 268 347
#     4  11  21  36  59  83 115 156 189 230 289 340
#     4  10  20  34  55  83 115 145 182 235 291 336
#     4  11  21  34  57  86 112 151 187 232 293 333
#     4  11  20  35  56  88 119 143 180 243 294 341
#
# _framework density 19.225821
#
# number of rings (size 3 to 8) (size 9 to 14) (size 15 to 20)
#    0.000    1.200    4.000    4.800    2.800    1.600 
#    0.000    0.000    0.000    2.400    0.000    2.800 
#    0.000    0.000    0.000    0.000    0.000    0.000 
#
# Total GULP energy -111594.726572 kJ/mol
# GULP energy per Si atom -5579.736329 kJ/mol
# Density = 1.918206 g / cm^3
# Si number density = 19.225821 Si / 1000 Ang^3
#
#
#
# Elastic Constant Matrix: (Units=GPa)
#
#
# Indices 1 2 3 4 5 6 
#
# 1 30.5963 2.9061 1.1786 0.0000 8.8044 0.0000
# 2 2.9061 89.2535 30.1526 0.0000 -2.3445 0.0000
# 3 1.1786 30.1526 178.3822 0.0000 -12.1279 0.0000
# 4 0.0000 0.0000 0.0000 10.1309 0.0000 0.2181
# 5 8.8044 -2.3445 -12.1279 0.0000 22.1433 0.0000
# 6 0.0000 0.0000 0.0000 0.2181 0.0000 12.2380
#
#
#
# Elastic Compliance Matrix: (Units=1/GPa)
#
#
# Indices 1 2 3 4 5 6 
#
# 1 0.037326 -0.001255 -0.001093 0.000000 -0.015573 0.000000
# 2 -0.001255 0.011925 -0.001961 0.000000 0.000688 0.000000
# 3 -0.001093 -0.001961 0.006191 0.000000 0.003618 0.000000
# 4 0.000000 0.000000 0.000000 0.098746 0.000000 -0.001760
# 5 -0.015573 0.000688 0.003618 0.000000 0.053407 0.000000
# 6 0.000000 0.000000 0.000000 -0.001760 0.000000 0.081744
#
#
# Mechanical properties :
#
#
# Convention : Reuss Voigt Hill
#
# Bulk Modulus (GPa) = 21.35654 40.74518 31.05086
# Shear Modulus (GPa) = 15.94568 26.50210 21.22389
#
# Velocity S-wave (km/s) = 2.88304 3.71679 3.32614
# Velocity P-wave (km/s) = 4.71327 6.29749 5.56207
#
# Compressibility (1/GPa) = 0.04682406
#
# Stress axis : x y z
#
# Youngs Moduli (GPa) = 26.79079 83.85484 161.53651
#
# Poissons Ratio (x) = 0.10525 0.17660
# Poissons Ratio (y) = 0.03362 0.31673
# Poissons Ratio (z) = 0.02929 0.16442
#
# Static dielectric constant tensor:
#      x y z
#    x 1.720310 0.000000 -0.019110 
#    y 0.000000 1.629060 0.000000 
#    z -0.019110 0.000000 1.749790 
# 
# From -- ./inp_files/216931.got.cif
#   From: 2010.05.17/outbox.cif.g08.bks.cpg/sg12_109_cif.got.tgz:216931.got - 2010.06.03 13:09:07.
