data_PCOD9194366
_publ_section_title
;
Structure prediction by ZEFSAII (Michael W. Deem and Ramdas Pophale) SiO2 
 PCOD9194366
Probable space group: C 2/M
;
_chemical_formula_sum "Si O2"
_cell_formula_units_Z 48
_cell_length_a 10.137384
_cell_length_b 14.421469
_cell_length_c 16.379786
_cell_angle_alpha 90.000000
_cell_angle_beta 74.029608
_cell_angle_gamma 90.000000
_cell_volume 2302.234453
_symmetry_space_group_name_H-M "C 2/M"
_symmetry_group_IT_number 12
_symmetry_cell_setting 'monoclinic'
loop_
_space_group_symop_operation_xyz
x,y,z
-x,y,-z
-x,-y,-z
x,-y,z
1/2+x,1/2+y,z
1/2-x,1/2+y,-z
1/2-x,1/2-y,-z
1/2+x,1/2-y,z
loop_
_atom_site_type_symbol
_atom_site_label
_atom_site_fract_x
_atom_site_fract_y
_atom_site_fract_z
Si Si1 0.697672 0.394730 0.992598
Si Si2 0.998922 0.602784 0.123741
Si Si3 0.953934 0.393617 0.689051
Si Si4 0.598703 0.736511 0.560302
Si Si5 0.965543 0.805249 0.122909
Si Si6 0.135742 0.891090 0.699761
O O1 0.660546 0.500000 0.022425
O O2 0.859881 0.392640 0.951400
O O3 0.629627 0.370087 0.916858
O O4 0.620778 0.324673 0.066398
O O5 0.936650 0.500000 0.120401
O O6 0.032616 0.610001 0.214883
O O7 0.923267 0.698458 0.117035
O O8 0.984618 0.500000 0.659581
O O9 0.796806 0.373557 0.690655
O O10 0.051013 0.321922 0.625811
O O11 0.500000 0.729712 0.500000
O O12 0.750000 0.750000 0.500000
O O13 0.597667 0.646501 0.617761
O O14 0.948342 0.834851 0.218449
O O15 0.110886 0.000000 0.713035
#
# Coordination Sequence:
#
# PCOD9194366 Si02
#       6
#     8   8   8   8   8   8
#     4  10  20  34  55  87 120 158 208 250 290 354
#     4  10  20  35  57  85 119 157 202 248 299 362
#     4  10  21  40  64  90 118 162 210 249 301 384
#     4  12  25  42  66  94 125 158 205 264 320 375
#     4  11  19  33  59  87 119 157 203 251 298 350
#     4  11  22  39  64  90 123 163 205 253 312 374
#
# _framework density 20.849309000000002
#
# number of rings (size 3 to 8) (size 9 to 14) (size 15 to 20)
#    0.000    1.333    5.000    2.500    0.000    1.333 
#    0.000    1.667    0.000    8.000    0.000    0.000 
#    0.000    0.000    0.000    0.000    0.000    0.000 
#
# Total GULP energy -134180.313143 kJ/mol
# GULP energy per Si atom -5590.846381 kJ/mol
# Density = 2.080186 g / cm^3
# Si number density = 20.849309 Si / 1000 Ang^3
#
#
#
# Elastic Constant Matrix: (Units=GPa)
#
#
# Indices 1 2 3 4 5 6 
#
# 1 48.6802 9.6986 29.3370 0.0000 4.9120 0.0000
# 2 9.6986 122.4693 39.8471 0.0000 -7.5956 0.0000
# 3 29.3370 39.8471 118.9223 0.0000 -4.9418 0.0000
# 4 0.0000 0.0000 0.0000 32.6549 0.0000 1.1108
# 5 4.9120 -7.5956 -4.9418 0.0000 25.0061 0.0000
# 6 0.0000 0.0000 0.0000 1.1108 0.0000 20.1851
#
#
#
# Elastic Compliance Matrix: (Units=1/GPa)
#
#
# Indices 1 2 3 4 5 6 
#
# 1 0.025056 -0.000311 -0.006337 0.000000 -0.006269 0.000000
# 2 -0.000311 0.009289 -0.002940 0.000000 0.002302 0.000000
# 3 -0.006337 -0.002940 0.011063 0.000000 0.002538 0.000000
# 4 0.000000 0.000000 0.000000 0.030681 0.000000 -0.001688
# 5 -0.006269 0.002302 0.002538 0.000000 0.042422 0.000000
# 6 0.000000 0.000000 0.000000 -0.001688 0.000000 0.049634
#
#
# Mechanical properties :
#
#
# Convention : Reuss Voigt Hill
#
# Bulk Modulus (GPa) = 38.12290 49.75967 43.94128
# Shear Modulus (GPa) = 25.50157 29.64849 27.57503
#
# Velocity S-wave (km/s) = 3.50113 3.77508 3.64068
# Velocity P-wave (km/s) = 5.88800 6.55132 6.22850
#
# Compressibility (1/GPa) = 0.02623096
#
# Stress axis : x y z
#
# Youngs Moduli (GPa) = 39.91068 107.65047 90.39272
#
# Poissons Ratio (x) = 0.03349 0.57285
# Poissons Ratio (y) = 0.01242 0.26577
# Poissons Ratio (z) = 0.25293 0.31651
#
# Static dielectric constant tensor:
#      x y z
#    x 1.748010 0.000000 0.010320 
#    y 0.000000 1.750430 0.000000 
#    z 0.010320 0.000000 1.727010 
# 
# From -- ./inp_files/204312.got.cif
#   From: 2010.05.17/outbox.cif.g08.bks.cpg/sg12_103_cif.got.tgz:204312.got - 2010.06.03 13:09:07.
