data_PCOD9194237
_publ_section_title
;
Structure prediction by ZEFSAII (Michael W. Deem and Ramdas Pophale) SiO2 
 PCOD9194237
Probable space group: C 2/M
;
_chemical_formula_sum "Si O2"
_cell_formula_units_Z 48
_cell_length_a 20.047980
_cell_length_b 9.942487
_cell_length_c 25.928526
_cell_angle_alpha 90.000000
_cell_angle_beta 25.227627
_cell_angle_gamma 90.000000
_cell_volume 2202.788265
_symmetry_space_group_name_H-M "C 2/M"
_symmetry_group_IT_number 12
_symmetry_cell_setting 'monoclinic'
loop_
_space_group_symop_operation_xyz
x,y,z
-x,y,-z
-x,-y,-z
x,-y,z
1/2+x,1/2+y,z
1/2-x,1/2+y,-z
1/2-x,1/2-y,-z
1/2+x,1/2-y,z
loop_
_atom_site_type_symbol
_atom_site_label
_atom_site_fract_x
_atom_site_fract_y
_atom_site_fract_z
Si Si1 0.942393 0.854143 0.327456
Si Si2 0.715961 0.156168 0.253851
Si Si3 0.380342 0.155436 0.933539
Si Si4 0.881721 0.230518 0.481022
Si Si5 0.267376 0.151378 0.313331
Si Si6 0.780427 0.337958 0.113067
O O1 0.917841 0.861029 0.406488
O O2 0.787088 0.791226 0.413772
O O3 0.114047 0.792097 0.204277
O O4 0.957620 0.000000 0.292655
O O5 0.526859 0.166925 0.379432
O O6 0.744094 0.233184 0.287711
O O7 0.795299 0.245694 0.152955
O O8 0.763734 0.000000 0.219819
O O9 0.555399 0.167960 0.789083
O O10 0.330440 0.000000 0.962674
O O11 0.250000 0.250000 0.000000
O O12 0.396870 0.180033 0.983821
O O13 0.857731 0.163425 0.553127
O O14 0.258666 0.000000 0.296888
O O15 0.775095 0.500000 0.129221
#
# Coordination Sequence:
#
# PCOD9194237 Si02
#       6
#     8   8   8   8   8   8
#     4   9  17  31  54  82 110 145 185 228 282 338
#     4  11  24  39  58  85 116 153 197 246 295 339
#     4  10  22  40  63  91 119 151 191 238 291 345
#     4  10  20  34  55  83 116 151 189 235 285 342
#     4  11  24  40  59  84 117 157 197 235 284 351
#     4   9  19  38  61  84 115 153 193 236 287 349
#
# _framework density 21.790565999999998
#
# number of rings (size 3 to 8) (size 9 to 14) (size 15 to 20)
#    0.000    2.000    0.000    3.000    0.000    6.667 
#    0.000    7.500    0.000    0.000    0.000    0.000 
#    0.000    0.000    0.000    0.000    0.000    0.000 
#
# Total GULP energy -133838.338167 kJ/mol
# GULP energy per Si atom -5576.597424 kJ/mol
# Density = 2.174097 g / cm^3
# Si number density = 21.790566 Si / 1000 Ang^3
#
#
#
# Elastic Constant Matrix: (Units=GPa)
#
#
# Indices 1 2 3 4 5 6 
#
# 1 72.2557 48.4148 11.2649 0.0002 12.1696 0.0000
# 2 48.4148 113.4255 14.4392 0.0009 11.6745 -0.0009
# 3 11.2649 14.4392 82.3235 0.0008 19.5575 0.0001
# 4 0.0002 0.0009 0.0008 20.4156 -0.0006 1.0190
# 5 12.1696 11.6745 19.5575 -0.0006 33.5445 -0.0004
# 6 0.0000 -0.0009 0.0001 1.0190 -0.0004 -5.8150
#
#
#
# Elastic Compliance Matrix: (Units=1/GPa)
#
#
# Indices 1 2 3 4 5 6 
#
# 1 0.020009 -0.008062 -0.000309 0.000000 -0.004273 0.000002
# 2 -0.008062 0.012461 -0.000867 0.000000 -0.000907 -0.000002
# 3 -0.000309 -0.000867 0.014212 -0.000001 -0.007872 0.000001
# 4 0.000000 0.000000 -0.000001 0.048557 0.000002 0.008509
# 5 -0.004273 -0.000907 -0.007872 0.000002 0.036267 -0.000002
# 6 0.000002 -0.000002 0.000001 0.008509 -0.000002 -0.170478
#
#
# Mechanical properties :
#
#
# Convention : Reuss Voigt Hill
#
# Bulk Modulus (GPa) = 35.45222 46.24916 40.85069
# Shear Modulus (GPa) = -450.70031 22.55473 -214.07279
#
# Velocity S-wave (km/s) = -14.39728 3.22074 -9.92241
# Velocity P-wave (km/s) = 16.12671 5.92464 10.60588
#
# Compressibility (1/GPa) = 0.02820698
#
# Stress axis : x y z
#
# Youngs Moduli (GPa) = 49.97672 80.24959 70.36458
#
# Poissons Ratio (x) = 0.64695 0.02173
# Poissons Ratio (y) = 0.40290 0.06101
# Poissons Ratio (z) = 0.01543 0.06959
#
# Static dielectric constant tensor:
#      x y z
#    x 1.839570 0.000000 -0.011210 
#    y 0.000000 1.780400 0.000000 
#    z -0.011210 0.000000 1.819820 
# 
# From -- ./inp_files/365375.got.cif
#   From: 2010.05.17/outbox.cif.g08.bks.cpg/sg12_183_cif.got.tgz:365375.got - 2010.06.03 13:09:07.
