data_PCOD9194776
_publ_section_title
;
Structure prediction by ZEFSAII (Michael W. Deem and Ramdas Pophale) SiO2 
 PCOD9194776
Probable space group: C 2/M
;
_chemical_formula_sum "Si O2"
_cell_formula_units_Z 50
_cell_length_a 27.433918
_cell_length_b 7.645914
_cell_length_c 11.443011
_cell_angle_alpha 90.000000
_cell_angle_beta 64.274043
_cell_angle_gamma 90.000000
_cell_volume 2162.343726
_symmetry_space_group_name_H-M "C 2/M"
_symmetry_group_IT_number 12
_symmetry_cell_setting 'monoclinic'
loop_
_space_group_symop_operation_xyz
x,y,z
-x,y,-z
-x,-y,-z
x,-y,z
1/2+x,1/2+y,z
1/2-x,1/2+y,-z
1/2-x,1/2-y,-z
1/2+x,1/2-y,z
loop_
_atom_site_type_symbol
_atom_site_label
_atom_site_fract_x
_atom_site_fract_y
_atom_site_fract_z
Si Si1 0.229470 0.785736 0.808417
Si Si2 0.348421 0.708809 0.322115
Si Si3 0.000000 0.000000 0.500000
Si Si4 0.938529 0.295091 0.063071
Si Si5 0.361305 0.699559 0.935591
Si Si6 0.434969 0.200717 0.650877
Si Si7 0.840930 0.292285 0.596990
O O1 0.195508 0.732206 0.728392
O O2 0.290474 0.724672 0.725101
O O3 0.229209 0.000000 0.811620
O O4 0.195438 0.726832 0.956512
O O5 0.350090 0.500000 0.316527
O O6 0.406671 0.776751 0.218325
O O7 0.333126 0.762381 0.468312
O O8 0.018473 0.843135 0.387901
O O9 0.940033 0.500000 0.029362
O O10 0.900860 0.202197 0.007046
O O11 0.000000 0.230229 0.000000
O O12 0.353151 0.500000 0.906182
O O13 0.392907 0.796496 0.801527
O O14 0.398652 0.274170 0.580787
O O15 0.452124 0.000000 0.618189
O O16 0.843132 0.500000 0.614575
#
# Coordination Sequence:
#
# PCOD9194776 Si02
#       7
#     8   8   2   8   8   8   8
#     4   8  17  35  60  91 126 167 206 255 322 380
#     4  10  20  34  57  87 125 165 207 257 317 382
#     4  12  26  48  68  86 126 172 206 280 318 366
#     4  10  21  37  58  84 117 158 209 263 313 373
#     4  10  20  39  64  91 126 163 206 261 318 380
#     4  11  25  44  68  95 124 169 219 261 323 383
#     4  10  21  38  60  89 127 164 212 265 310 385
#
# _framework density 23.123059999999999
#
# number of rings (size 3 to 8) (size 9 to 14) (size 15 to 20)
#    0.000    2.080    0.800    3.120    1.120    3.200 
#    0.000    5.600    0.000    0.000    0.000    0.000 
#    0.000    0.000    0.000    0.000    0.000    0.000 
#
# Total GULP energy -139434.367795 kJ/mol
# GULP energy per Si atom -5577.374712 kJ/mol
# Density = 2.307043 g / cm^3
# Si number density = 23.123060 Si / 1000 Ang^3
#
#
#
# Elastic Constant Matrix: (Units=GPa)
#
#
# Indices 1 2 3 4 5 6 
#
# 1 55.9934 11.4990 26.5453 0.0000 -30.0002 0.0000
# 2 11.4990 95.1668 20.3019 0.0000 -7.7901 0.0000
# 3 26.5453 20.3019 127.8842 0.0000 -26.3565 0.0000
# 4 0.0000 0.0000 0.0000 1.8319 0.0000 25.4419
# 5 -30.0002 -7.7901 -26.3565 0.0000 36.5440 0.0000
# 6 0.0000 0.0000 0.0000 25.4419 0.0000 -11.1857
#
#
#
# Elastic Compliance Matrix: (Units=1/GPa)
#
#
# Indices 1 2 3 4 5 6 
#
# 1 0.032333 -0.001569 -0.001246 0.000000 0.025310 0.000000
# 2 -0.001569 0.011002 -0.001413 0.000000 0.000038 0.000000
# 3 -0.001246 -0.001413 0.009432 0.000000 0.005478 0.000000
# 4 0.000000 0.000000 0.000000 0.016751 0.000000 0.038099
# 5 0.025310 0.000038 0.005478 0.000000 0.052101 0.000000
# 6 0.000000 0.000000 0.000000 0.038099 0.000000 -0.002743
#
#
# Mechanical properties :
#
#
# Convention : Reuss Voigt Hill
#
# Bulk Modulus (GPa) = 22.56837 43.97075 33.26956
# Shear Modulus (GPa) = 35.18627 20.15126 27.66876
#
# Velocity S-wave (km/s) = 3.90512 2.95528 3.46293
# Velocity P-wave (km/s) = 5.48768 5.54096 5.51438
#
# Compressibility (1/GPa) = 0.04430980
#
# Stress axis : x y z
#
# Youngs Moduli (GPa) = 30.92850 90.89233 106.02684
#
# Poissons Ratio (x) = 0.14262 0.13211
# Poissons Ratio (y) = 0.04853 0.14982
# Poissons Ratio (z) = 0.03854 0.12844
#
# Static dielectric constant tensor:
#      x y z
#    x 1.939210 0.000000 -0.031570 
#    y 0.000000 1.811300 0.000000 
#    z -0.031570 0.000000 1.884130 
# 
# From -- ./inp_files/186297.got.cif
#   From: 2010.05.17/outbox.cif.g08.bks.cpg/sg12_94_cif.got.tgz:186297.got - 2010.06.03 13:09:07.
