data_PCOD9194495
_publ_section_title
;
Structure prediction by ZEFSAII (Michael W. Deem and Ramdas Pophale) SiO2 
 PCOD9194495
Probable space group: C 2/M
;
_chemical_formula_sum "Si O2"
_cell_formula_units_Z 48
_cell_length_a 29.388911
_cell_length_b 7.554653
_cell_length_c 10.298499
_cell_angle_alpha 90.000000
_cell_angle_beta 92.040712
_cell_angle_gamma 90.000000
_cell_volume 2285.053743
_symmetry_space_group_name_H-M "C 2/M"
_symmetry_group_IT_number 12
_symmetry_cell_setting 'monoclinic'
loop_
_space_group_symop_operation_xyz
x,y,z
-x,y,-z
-x,-y,-z
x,-y,z
1/2+x,1/2+y,z
1/2-x,1/2+y,-z
1/2-x,1/2-y,-z
1/2+x,1/2-y,z
loop_
_atom_site_type_symbol
_atom_site_label
_atom_site_fract_x
_atom_site_fract_y
_atom_site_fract_z
Si Si1 0.625166 0.288080 0.284245
Si Si2 0.468991 0.705151 0.611355
Si Si3 0.974547 0.714134 0.130210
Si Si4 0.378048 0.786395 0.023969
Si Si5 0.273773 0.287452 0.638708
Si Si6 0.716998 0.212122 0.877112
O O1 0.624942 0.500000 0.301363
O O2 0.580606 0.217859 0.355795
O O3 0.620734 0.257196 0.129022
O O4 0.674336 0.220762 0.338439
O O5 0.500000 0.785574 0.500000
O O6 0.460769 0.500000 0.573682
O O7 0.499072 0.711639 0.744398
O O8 0.975516 0.500000 0.142166
O O9 0.922832 0.773796 0.104510
O O10 0.000000 0.761134 0.000000
O O11 0.377900 0.000000 0.029313
O O12 0.332458 0.718633 0.087986
O O13 0.276548 0.500000 0.653828
O O14 0.250000 0.250000 0.500000
O O15 0.241287 0.218703 0.750441
O O16 0.712650 0.000000 0.862179
O O17 0.750000 0.250000 0.000000
#
# Coordination Sequence:
#
# PCOD9194495 Si02
#       6
#     8   8   8   8   8   8
#     4  10  20  36  57  79 108 145 184 227 275 326
#     4  10  22  38  56  81 113 147 185 228 274 327
#     4  10  20  35  55  82 112 142 182 227 270 323
#     4  10  20  34  56  84 112 142 181 228 274 323
#     4  10  22  38  55  80 112 145 181 223 272 327
#     4  10  20  35  56  82 110 140 180 226 270 320
#
# _framework density 21.006072
#
# number of rings (size 3 to 8) (size 9 to 14) (size 15 to 20)
#    0.000    2.000    3.333    0.000    0.000    4.000 
#    0.000    0.000    0.000    0.000    0.000    0.000 
#    0.000    0.000    0.000    0.000    0.000    0.000 
#
# Total GULP energy -134015.557704 kJ/mol
# GULP energy per Si atom -5583.981571 kJ/mol
# Density = 2.095826 g / cm^3
# Si number density = 21.006072 Si / 1000 Ang^3
#
#
#
# Elastic Constant Matrix: (Units=GPa)
#
#
# Indices 1 2 3 4 5 6 
#
# 1 213.1371 10.3176 73.0424 0.0000 -31.6579 0.0000
# 2 10.3176 50.7778 -3.9925 0.0000 -8.2503 0.0000
# 3 73.0424 -3.9925 131.2370 0.0000 -28.3349 0.0000
# 4 0.0000 0.0000 0.0000 24.3722 0.0000 8.8142
# 5 -31.6579 -8.2503 -28.3349 0.0000 38.5282 0.0000
# 6 0.0000 0.0000 0.0000 8.8142 0.0000 14.5317
#
#
#
# Elastic Compliance Matrix: (Units=1/GPa)
#
#
# Indices 1 2 3 4 5 6 
#
# 1 0.006122 -0.001028 -0.002853 0.000000 0.002712 0.000000
# 2 -0.001028 0.020965 0.002374 0.000000 0.005391 0.000000
# 3 -0.002853 0.002374 0.010560 0.000000 0.005930 0.000000
# 4 0.000000 0.000000 0.000000 0.052560 0.000000 -0.031880
# 5 0.002712 0.005391 0.005930 0.000000 0.033699 0.000000
# 6 0.000000 0.000000 0.000000 -0.031880 0.000000 0.088152
#
#
# Mechanical properties :
#
#
# Convention : Reuss Voigt Hill
#
# Bulk Modulus (GPa) = 28.87405 61.54299 45.20852
# Shear Modulus (GPa) = 22.06366 36.53872 29.30119
#
# Velocity S-wave (km/s) = 3.24442 4.17518 3.73888
# Velocity P-wave (km/s) = 5.27356 7.25287 6.34092
#
# Compressibility (1/GPa) = 0.03463318
#
# Stress axis : x y z
#
# Youngs Moduli (GPa) = 163.34083 47.69872 94.69378
#
# Poissons Ratio (x) = 0.04902 0.27017
# Poissons Ratio (y) = 0.16786 -0.22477
# Poissons Ratio (z) = 0.46603 -0.11322
#
# Static dielectric constant tensor:
#      x y z
#    x 1.818720 0.000000 -0.055870 
#    y 0.000000 1.806070 0.000000 
#    z -0.055870 0.000000 1.702340 
# 
# From -- ./inp_files/94526.got.cif
#   From: 2010.05.17/outbox.cif.g08.bks.cpg/sg12_48_cif.got.tgz:94526.got - 2010.06.03 13:09:07.
