data_PCOD9194461
_publ_section_title
;
Structure prediction by ZEFSAII (Michael W. Deem and Ramdas Pophale) SiO2 
 PCOD9194461
Probable space group: C 2/M
;
_chemical_formula_sum "Si O2"
_cell_formula_units_Z 64
_cell_length_a 15.058995
_cell_length_b 8.449776
_cell_length_c 26.296294
_cell_angle_alpha 90.000000
_cell_angle_beta 89.736165
_cell_angle_gamma 90.000000
_cell_volume 3346.039993
_symmetry_space_group_name_H-M "C 2/M"
_symmetry_group_IT_number 12
_symmetry_cell_setting 'monoclinic'
loop_
_space_group_symop_operation_xyz
x,y,z
-x,y,-z
-x,-y,-z
x,-y,z
1/2+x,1/2+y,z
1/2-x,1/2+y,-z
1/2-x,1/2-y,-z
1/2+x,1/2-y,z
loop_
_atom_site_type_symbol
_atom_site_label
_atom_site_fract_x
_atom_site_fract_y
_atom_site_fract_z
Si Si1 0.465114 0.809014 0.309119
Si Si2 0.498577 0.809153 0.576417
Si Si3 0.055237 0.190460 0.113434
Si Si4 0.357759 0.691238 0.134925
Si Si5 0.392942 0.308426 0.772587
Si Si6 0.285577 0.811423 0.946500
Si Si7 0.648074 0.689250 0.499015
Si Si8 0.805261 0.309399 0.244944
O O1 0.491753 0.755878 0.365302
O O2 0.533425 0.753435 0.266053
O O3 0.367823 0.754821 0.290700
O O4 0.464887 0.000000 0.309946
O O5 0.585750 0.753802 0.544968
O O6 0.409506 0.743278 0.550012
O O7 0.495116 0.000000 0.574013
O O8 0.089960 0.242270 0.169202
O O9 0.116334 0.257571 0.069022
O O10 0.952439 0.236734 0.111249
O O11 0.060624 0.000000 0.111707
O O12 0.355303 0.500000 0.138318
O O13 0.278758 0.746874 0.098760
O O14 0.347543 0.757579 0.191406
O O15 0.395791 0.500000 0.772345
O O16 0.296019 0.253267 0.754840
O O17 0.281508 0.000000 0.947042
O O18 0.250000 0.750000 0.000000
O O19 0.649612 0.500000 0.501012
O O20 0.750000 0.750000 0.500000
O O21 0.803033 0.500000 0.245982
#
# Coordination Sequence:
#
# PCOD9194461 Si02
#       8
#     8   8   8   8   8   8   8   8
#     4  10  22  37  56  85 122 155 190 237 287 337
#     4  10  21  39  59  87 125 162 202 250 297 349
#     4  10  20  37  59  83 111 144 185 230 278 336
#     4  10  21  37  58  82 109 144 184 227 280 338
#     4  10  20  34  56  83 113 152 193 232 279 337
#     4  11  24  40  59  83 111 144 184 234 289 343
#     4  11  22  39  64  91 118 157 205 251 305 361
#     4  10  20  35  55  82 113 149 188 230 278 332
#
# _framework density 19.127087
#
# number of rings (size 3 to 8) (size 9 to 14) (size 15 to 20)
#    0.000    1.750    2.500    2.625    0.000    4.500 
#    0.000    3.750    0.000    0.000    0.000    0.000 
#    0.000    0.000    0.000    0.000    0.000    0.000 
#
# Total GULP energy -178686.854261 kJ/mol
# GULP energy per Si atom -5583.964196 kJ/mol
# Density = 1.908355 g / cm^3
# Si number density = 19.127087 Si / 1000 Ang^3
#
#
#
# Elastic Constant Matrix: (Units=GPa)
#
#
# Indices 1 2 3 4 5 6 
#
# 1 85.3285 9.5699 -19.4861 0.0000 -0.8640 0.0000
# 2 9.5699 29.7264 0.0942 0.0000 2.3732 0.0000
# 3 -19.4861 0.0942 40.3268 0.0000 -1.5323 0.0000
# 4 0.0000 0.0000 0.0000 27.4256 0.0000 -5.9546
# 5 -0.8640 2.3732 -1.5323 0.0000 18.0263 0.0000
# 6 0.0000 0.0000 0.0000 -5.9546 0.0000 29.3312
#
#
#
# Elastic Compliance Matrix: (Units=1/GPa)
#
#
# Indices 1 2 3 4 5 6 
#
# 1 0.013796 -0.004610 0.006747 0.000000 0.001842 0.000000
# 2 -0.004610 0.035540 -0.002505 0.000000 -0.005113 0.000000
# 3 0.006747 -0.002505 0.028179 0.000000 0.003048 0.000000
# 4 0.000000 0.000000 0.000000 0.038144 0.000000 0.007744
# 5 0.001842 -0.005113 0.003048 0.000000 0.056495 0.000000
# 6 0.000000 0.000000 0.000000 0.007744 0.000000 0.035665
#
#
# Mechanical properties :
#
#
# Convention : Reuss Voigt Hill
#
# Bulk Modulus (GPa) = 13.02416 15.08196 14.05306
# Shear Modulus (GPa) = 21.35404 25.97019 23.66211
#
# Velocity S-wave (km/s) = 3.34493 3.68879 3.52106
# Velocity P-wave (km/s) = 4.66284 5.10345 4.88811
#
# Compressibility (1/GPa) = 0.07678039
#
# Stress axis : x y z
#
# Youngs Moduli (GPa) = 72.48557 28.13712 35.48709
#
# Poissons Ratio (x) = 0.12970 -0.23943
# Poissons Ratio (y) = 0.33414 0.08888
# Poissons Ratio (z) = -0.48906 0.07048
#
# Static dielectric constant tensor:
#      x y z
#    x 1.666550 0.000000 0.026920 
#    y 0.000000 1.659400 0.000000 
#    z 0.026920 0.000000 1.646130 
# 
# From -- ./inp_files/338922.got.cif
#   From: 2010.05.17/outbox.cif.g08.bks.cpg/sg12_170_cif.got.tgz:338922.got - 2010.06.03 13:09:07.
