data_PCOD9194032
_publ_section_title
;
Structure prediction by ZEFSAII (Michael W. Deem and Ramdas Pophale) SiO2 
 PCOD9194032
Probable space group: C 2/M
;
_chemical_formula_sum "Si O2"
_cell_formula_units_Z 64
_cell_length_a 12.481675
_cell_length_b 18.588301
_cell_length_c 23.038403
_cell_angle_alpha 90.000000
_cell_angle_beta 47.017301
_cell_angle_gamma 90.000000
_cell_volume 3910.341199
_symmetry_space_group_name_H-M "C 2/M"
_symmetry_group_IT_number 12
_symmetry_cell_setting 'monoclinic'
loop_
_space_group_symop_operation_xyz
x,y,z
-x,y,-z
-x,-y,-z
x,-y,z
1/2+x,1/2+y,z
1/2-x,1/2+y,-z
1/2-x,1/2-y,-z
1/2+x,1/2-y,z
loop_
_atom_site_type_symbol
_atom_site_label
_atom_site_fract_x
_atom_site_fract_y
_atom_site_fract_z
Si Si1 0.807579 0.680278 0.942613
Si Si2 0.041508 0.083769 0.073772
Si Si3 0.349100 0.412713 0.335262
Si Si4 0.256186 0.325577 0.163611
Si Si5 0.413228 0.815548 0.090522
Si Si6 0.879494 0.584197 0.492838
Si Si7 0.137458 0.914781 0.170728
Si Si8 0.382498 0.912515 0.682859
O O1 0.819921 0.692824 0.869492
O O2 0.959503 0.656151 0.914805
O O3 0.750000 0.750000 0.000000
O O4 0.683995 0.620567 0.995197
O O5 0.062423 0.093646 0.135409
O O6 0.894920 0.121371 0.106182
O O7 0.035423 0.000000 0.063512
O O8 0.354056 0.500000 0.337400
O O9 0.266622 0.384784 0.423430
O O10 0.514159 0.388645 0.261764
O O11 0.245364 0.398916 0.317727
O O12 0.333146 0.250497 0.151859
O O13 0.153402 0.365175 0.247806
O O14 0.288789 0.872039 0.118801
O O15 0.500000 0.790514 0.000000
O O16 0.850661 0.500000 0.492192
O O17 0.000000 0.586808 0.500000
O O18 0.964851 0.609983 0.404358
O O19 0.164098 0.000000 0.169010
O O20 0.382581 0.000000 0.693543
#
# Coordination Sequence:
#
# PCOD9194032 Si02
#       8
#     8   8   8   8   8   8   8   8
#     4  12  23  39  51  70  97 138 181 216 258 316
#     4  11  21  34  54  78 102 130 170 218 266 306
#     4   8  13  26  49  77 107 135 166 208 255 308
#     4  12  22  33  53  73 104 136 170 215 261 318
#     4  12  23  38  55  69  97 137 182 218 255 311
#     4   7  11  21  42  73 108 138 161 197 254 313
#     4  10  20  34  55  79 102 133 175 219 258 299
#     4   9  16  27  46  78 112 136 165 209 263 309
#
# _framework density 16.366859000000002
#
# number of rings (size 3 to 8) (size 9 to 14) (size 15 to 20)
#    0.000    1.875    5.000    2.250    0.000    2.250 
#    0.000    0.000    0.000    0.750    0.000    0.875 
#    0.000    4.000    0.000    0.000    0.000    0.000 
#
# Total GULP energy -178223.661600 kJ/mol
# GULP energy per Si atom -5569.489425 kJ/mol
# Density = 1.632961 g / cm^3
# Si number density = 16.366859 Si / 1000 Ang^3
#
#
#
# Elastic Constant Matrix: (Units=GPa)
#
#
# Indices 1 2 3 4 5 6 
#
# 1 61.5121 19.0960 30.2272 0.0000 3.7609 0.0000
# 2 19.0960 46.0616 27.3859 0.0001 2.5393 0.0000
# 3 30.2272 27.3859 117.9391 0.0003 0.9795 -0.0001
# 4 0.0000 0.0001 0.0003 19.5012 -0.0001 2.8481
# 5 3.7609 2.5393 0.9795 -0.0001 15.9625 0.0000
# 6 0.0000 0.0000 -0.0001 2.8481 0.0000 18.1563
#
#
#
# Elastic Compliance Matrix: (Units=1/GPa)
#
#
# Indices 1 2 3 4 5 6 
#
# 1 0.020164 -0.005925 -0.003762 0.000000 -0.003577 0.000000
# 2 -0.005925 0.027143 -0.004762 0.000000 -0.002630 0.000000
# 3 -0.003762 -0.004762 0.010541 0.000000 0.000997 0.000000
# 4 0.000000 0.000000 0.000000 0.052481 0.000000 -0.008232
# 5 -0.003577 -0.002630 0.000997 0.000000 0.063847 0.000000
# 6 0.000000 0.000000 0.000000 -0.008232 0.000000 0.056369
#
#
# Mechanical properties :
#
#
# Convention : Reuss Voigt Hill
#
# Bulk Modulus (GPa) = 34.54494 42.10345 38.32420
# Shear Modulus (GPa) = 18.58090 20.64424 19.61257
#
# Velocity S-wave (km/s) = 3.37304 3.55539 3.46542
# Velocity P-wave (km/s) = 6.02680 6.52956 6.28321
#
# Compressibility (1/GPa) = 0.02894780
#
# Stress axis : x y z
#
# Youngs Moduli (GPa) = 49.59333 36.84205 94.87005
#
# Poissons Ratio (x) = 0.21830 0.35693
# Poissons Ratio (y) = 0.29386 0.45179
# Poissons Ratio (z) = 0.18659 0.17545
#
# Static dielectric constant tensor:
#      x y z
#    x 1.543130 0.000000 0.008200 
#    y 0.000000 1.550410 0.000000 
#    z 0.008200 0.000000 1.612870 
# 
# From -- ./inp_files/306623.got.cif
#   From: 2010.05.17/outbox.cif.g08.bks.cpg/sg12_154_cif.got.tgz:306623.got - 2010.06.03 13:09:07.
