data_PCOD9194757
_publ_section_title
;
Structure prediction by ZEFSAII (Michael W. Deem and Ramdas Pophale) SiO2 
 PCOD9194757
Probable space group: C 2/M
;
_chemical_formula_sum "Si O2"
_cell_formula_units_Z 58
_cell_length_a 14.430993
_cell_length_b 9.792083
_cell_length_c 21.982078
_cell_angle_alpha 90.000000
_cell_angle_beta 118.936422
_cell_angle_gamma 90.000000
_cell_volume 2718.479639
_symmetry_space_group_name_H-M "C 2/M"
_symmetry_group_IT_number 12
_symmetry_cell_setting 'monoclinic'
loop_
_space_group_symop_operation_xyz
x,y,z
-x,y,-z
-x,-y,-z
x,-y,z
1/2+x,1/2+y,z
1/2-x,1/2+y,-z
1/2-x,1/2-y,-z
1/2+x,1/2-y,z
loop_
_atom_site_type_symbol
_atom_site_label
_atom_site_fract_x
_atom_site_fract_y
_atom_site_fract_z
Si Si1 0.074213 0.162046 0.772011
Si Si2 0.537564 0.839984 0.172968
Si Si3 0.000000 0.000000 0.000000
Si Si4 0.199467 0.656457 0.130297
Si Si5 0.373233 0.758291 0.018231
Si Si6 0.261203 0.159985 0.407765
Si Si7 0.399046 0.343582 0.540689
Si Si8 0.136979 0.842667 0.652795
O O1 0.985151 0.252498 0.774601
O O2 0.182018 0.206719 0.840905
O O3 0.104489 0.186144 0.711745
O O4 0.052170 0.000000 0.773026
O O5 0.637048 0.780214 0.166758
O O6 0.443004 0.825360 0.093358
O O7 0.550465 0.000000 0.191495
O O8 0.068619 0.881258 0.984109
O O9 0.213988 0.500000 0.152935
O O10 0.134133 0.662248 0.047995
O O11 0.250000 0.750000 0.000000
O O12 0.341222 0.232430 0.481027
O O13 0.148073 0.170607 0.405800
O O14 0.279705 0.242428 0.351785
O O15 0.284547 0.000000 0.407342
O O16 0.371597 0.500000 0.512653
O O17 0.524939 0.331186 0.581762
O O18 0.173104 0.000000 0.660831
#
# Coordination Sequence:
#
# PCOD9194757 Si02
#       8
#     8   8   2   8   8   8   8   8
#     4  10  23  40  60  82 111 156 204 243 292 359
#     4  11  23  39  59  85 116 152 196 246 310 367
#     4  12  28  40  62 106 128 160 222 256 332 414
#     4  10  21  40  60  82 115 152 193 245 307 365
#     4  12  24  38  64  92 124 159 199 266 321 378
#     4  10  20  34  57  87 116 147 189 238 290 345
#     4   9  19  36  57  83 117 151 186 231 291 351
#     4  10  21  38  57  81 114 155 195 236 291 353
#
# _framework density 21.335455
#
# number of rings (size 3 to 8) (size 9 to 14) (size 15 to 20)
#    0.000    1.655    2.759    1.241    2.897    5.517 
#    0.000    0.000    0.000    0.000    0.000    0.000 
#    0.000    0.000    0.000    0.000    0.000    0.000 
#
# Total GULP energy -161592.357979 kJ/mol
# GULP energy per Si atom -5572.150275 kJ/mol
# Density = 2.128689 g / cm^3
# Si number density = 21.335455 Si / 1000 Ang^3
#
#
#
# Elastic Constant Matrix: (Units=GPa)
#
#
# Indices 1 2 3 4 5 6 
#
# 1 102.5762 54.0430 13.4004 0.0000 -35.6166 0.0000
# 2 54.0430 98.8521 27.8633 0.0000 -29.9050 0.0000
# 3 13.4004 27.8633 64.2109 0.0000 -25.2519 0.0000
# 4 0.0000 0.0000 0.0000 15.7672 0.0000 -13.8061
# 5 -35.6166 -29.9050 -25.2519 0.0000 42.9666 0.0000
# 6 0.0000 0.0000 0.0000 -13.8061 0.0000 28.6126
#
#
#
# Elastic Compliance Matrix: (Units=1/GPa)
#
#
# Indices 1 2 3 4 5 6 
#
# 1 0.016839 -0.006839 0.003994 0.000000 0.011546 0.000000
# 2 -0.006839 0.015954 -0.004368 0.000000 0.002868 0.000000
# 3 0.003994 -0.004368 0.021775 0.000000 0.013068 0.000000
# 4 0.000000 0.000000 0.000000 0.109823 0.000000 0.052992
# 5 0.011546 0.002868 0.013068 0.000000 0.042521 0.000000
# 6 0.000000 0.000000 0.000000 0.052992 0.000000 0.060519
#
#
# Mechanical properties :
#
#
# Convention : Reuss Voigt Hill
#
# Bulk Modulus (GPa) = 24.91138 50.69472 37.80305
# Shear Modulus (GPa) = 16.93553 28.82478 22.88016
#
# Velocity S-wave (km/s) = 2.82046 3.67962 3.27831
# Velocity P-wave (km/s) = 4.72314 6.47033 5.66450
#
# Compressibility (1/GPa) = 0.04014230
#
# Stress axis : x y z
#
# Youngs Moduli (GPa) = 59.38499 62.68112 45.92488
#
# Poissons Ratio (x) = 0.42867 -0.18343
# Poissons Ratio (y) = 0.40613 0.20059
# Poissons Ratio (z) = -0.23719 0.27378
#
# Static dielectric constant tensor:
#      x y z
#    x 1.833220 0.000000 0.014930 
#    y 0.000000 1.730200 0.000000 
#    z 0.014930 0.000000 1.827630 
# 
# From -- ./inp_files/338127.got.cif
#   From: 2010.05.17/outbox.cif.g08.bks.cpg/sg12_170_cif.got.tgz:338127.got - 2010.06.03 13:09:07.
