data_PCOD9194672
_publ_section_title
;
Structure prediction by ZEFSAII (Michael W. Deem and Ramdas Pophale) SiO2 
 PCOD9194672
Probable space group: C 2/M
;
_chemical_formula_sum "Si O2"
_cell_formula_units_Z 40
_cell_length_a 13.961895
_cell_length_b 15.985724
_cell_length_c 7.332003
_cell_angle_alpha 90.000000
_cell_angle_beta 76.397504
_cell_angle_gamma 90.000000
_cell_volume 1590.536259
_symmetry_space_group_name_H-M "C 2/M"
_symmetry_group_IT_number 12
_symmetry_cell_setting 'monoclinic'
loop_
_space_group_symop_operation_xyz
x,y,z
-x,y,-z
-x,-y,-z
x,-y,z
1/2+x,1/2+y,z
1/2-x,1/2+y,-z
1/2-x,1/2-y,-z
1/2+x,1/2-y,z
loop_
_atom_site_type_symbol
_atom_site_label
_atom_site_fract_x
_atom_site_fract_y
_atom_site_fract_z
Si Si1 0.689450 0.596664 0.617376
Si Si2 0.497975 0.694201 0.276938
Si Si3 0.407219 0.863926 0.143873
Si Si4 0.305625 0.400138 0.823969
Si Si5 0.392155 0.092079 0.545415
O O1 0.702299 0.500000 0.655745
O O2 0.586334 0.627663 0.733626
O O3 0.684154 0.604394 0.401271
O O4 0.791333 0.638556 0.644475
O O5 0.500000 0.699363 0.500000
O O6 0.453181 0.777166 0.201884
O O7 0.603266 0.659717 0.159620
O O8 0.303903 0.864665 0.081268
O O9 0.379557 0.915506 0.334887
O O10 0.500000 0.902453 0.000000
O O11 0.313484 0.500000 0.870287
O O12 0.500000 0.130673 0.500000
O O13 0.400605 0.000000 0.629001
#
# Coordination Sequence:
#
# PCOD9194672 Si02
#       5
#     8   8   8   8   8
#     4   8  15  30  54  81 105 133 177 230 276 318
#     4  10  20  34  57  82 106 138 179 226 274 318
#     4  11  23  35  51  78 114 148 179 217 266 321
#     4   9  19  36  57  80 106 140 183 225 267 321
#     4   9  18  33  54  80 107 137 180 229 270 315
#
# _framework density 25.148752999999999
#
# number of rings (size 3 to 8) (size 9 to 14) (size 15 to 20)
#    0.000    2.600    0.000    3.000    0.000   13.600 
#    0.000    0.000    0.000    4.800    0.000    0.000 
#    0.000    0.000    0.000    0.000    0.000    0.000 
#
# Total GULP energy -111352.656091 kJ/mol
# GULP energy per Si atom -5567.632805 kJ/mol
# Density = 2.509151 g / cm^3
# Si number density = 25.148753 Si / 1000 Ang^3
#
#
#
# Elastic Constant Matrix: (Units=GPa)
#
#
# Indices 1 2 3 4 5 6 
#
# 1 191.7126 72.6803 40.8136 0.0000 -69.6454 0.0000
# 2 72.6803 95.5777 3.1919 0.0000 -25.0460 0.0000
# 3 40.8136 3.1919 63.4236 0.0000 -5.1756 0.0000
# 4 0.0000 0.0000 0.0000 -19.0873 0.0000 -52.4036
# 5 -69.6454 -25.0460 -5.1756 0.0000 52.8870 0.0000
# 6 0.0000 0.0000 0.0000 -52.4036 0.0000 -118.2976
#
#
#
# Elastic Compliance Matrix: (Units=1/GPa)
#
#
# Indices 1 2 3 4 5 6 
#
# 1 0.015828 -0.007431 -0.008465 0.000000 0.016496 0.000000
# 2 -0.007431 0.015435 0.003834 0.000000 -0.002101 0.000000
# 3 -0.008465 0.003834 0.020423 0.000000 -0.007334 0.000000
# 4 0.000000 0.000000 0.000000 0.242336 0.000000 -0.107350
# 5 0.016496 -0.002101 -0.007334 0.000000 0.038919 0.000000
# 6 0.000000 0.000000 0.000000 -0.107350 0.000000 0.039101
#
#
# Mechanical properties :
#
#
# Convention : Reuss Voigt Hill
#
# Bulk Modulus (GPa) = 36.28332 64.89840 50.59086
# Shear Modulus (GPa) = 12.33487 -1.29770 5.51859
#
# Velocity S-wave (km/s) = 2.21707 -0.71912 1.48295
# Velocity P-wave (km/s) = 4.58396 5.01720 4.80547
#
# Compressibility (1/GPa) = 0.02756087
#
# Stress axis : x y z
#
# Youngs Moduli (GPa) = 63.17852 64.78885 48.96387
#
# Poissons Ratio (x) = 0.48143 0.41450
# Poissons Ratio (y) = 0.46946 -0.18771
# Poissons Ratio (z) = 0.53484 -0.24837
#
# Static dielectric constant tensor:
#      x y z
#    x 2.190440 0.000000 -0.001240 
#    y 0.000000 2.013760 0.000000 
#    z -0.001240 0.000000 2.055360 
# 
# From -- ./inp_files/144185.got.cif
#   From: 2010.05.17/outbox.cif.g08.bks.cpg/sg12_73_cif.got.tgz:144185.got - 2010.06.03 13:09:07.
