data_PCOD9194538
_publ_section_title
;
Structure prediction by ZEFSAII (Michael W. Deem and Ramdas Pophale) SiO2 
 PCOD9194538
Probable space group: C 2/M
;
_chemical_formula_sum "Si O2"
_cell_formula_units_Z 64
_cell_length_a 21.966486
_cell_length_b 9.171011
_cell_length_c 17.343486
_cell_angle_alpha 90.000000
_cell_angle_beta 82.781453
_cell_angle_gamma 90.000000
_cell_volume 3466.237357
_symmetry_space_group_name_H-M "C 2/M"
_symmetry_group_IT_number 12
_symmetry_cell_setting 'monoclinic'
loop_
_space_group_symop_operation_xyz
x,y,z
-x,y,-z
-x,-y,-z
x,-y,z
1/2+x,1/2+y,z
1/2-x,1/2+y,-z
1/2-x,1/2-y,-z
1/2+x,1/2-y,z
loop_
_atom_site_type_symbol
_atom_site_label
_atom_site_fract_x
_atom_site_fract_y
_atom_site_fract_z
Si Si1 0.888054 0.673538 0.757432
Si Si2 0.783090 0.831950 0.380437
Si Si3 0.838390 0.825763 0.617310
Si Si4 0.907777 0.171242 0.459394
Si Si5 0.871360 0.827625 0.228960
Si Si6 0.308536 0.326214 0.083415
Si Si7 0.972811 0.327258 0.315425
Si Si8 0.677888 0.326809 0.096080
O O1 0.878135 0.500000 0.761322
O O2 0.847811 0.746088 0.696564
O O3 0.869270 0.745504 0.840944
O O4 0.958420 0.702972 0.723295
O O5 0.727326 0.724615 0.404894
O O6 0.842528 0.814336 0.425059
O O7 0.810217 0.807643 0.290416
O O8 0.762121 0.000000 0.390576
O O9 0.891978 0.782247 0.548634
O O10 0.839957 0.000000 0.625064
O O11 0.956491 0.257636 0.400850
O O12 0.924033 0.000000 0.456633
O O13 0.855425 0.787938 0.144049
O O14 0.925240 0.739491 0.261344
O O15 0.886433 0.000000 0.231042
O O16 0.295113 0.500000 0.092745
O O17 0.245584 0.237374 0.101834
O O18 0.333324 0.301129 0.993198
O O19 0.964075 0.500000 0.321577
O O20 0.676774 0.500000 0.110207
#
# Coordination Sequence:
#
# PCOD9194538 Si02
#       8
#     8   8   8   8   8   8   8   8
#     4  11  24  40  54  72 104 143 179 219 268 312
#     4   9  17  31  52  79 111 142 167 201 259 320
#     4  11  22  34  53  81 106 134 176 220 262 315
#     4   9  20  37  55  77 106 138 171 213 268 319
#     4   9  18  34  56  79 106 140 173 210 262 315
#     4   9  18  34  57  86 116 141 168 208 261 315
#     4  10  22  38  56  76  99 135 183 226 261 305
#     4  10  20  34  56  85 112 141 176 212 254 308
#
# _framework density 18.463826000000001
#
# number of rings (size 3 to 8) (size 9 to 14) (size 15 to 20)
#    0.000    2.250    0.000    3.375    0.000    7.500 
#    0.000    3.125    0.000    3.750    0.000    0.000 
#    0.000    0.000    0.000    0.000    0.000    0.000 
#
# Total GULP energy -178668.343902 kJ/mol
# GULP energy per Si atom -5583.385747 kJ/mol
# Density = 1.842180 g / cm^3
# Si number density = 18.463826 Si / 1000 Ang^3
#
#
#
# Elastic Constant Matrix: (Units=GPa)
#
#
# Indices 1 2 3 4 5 6 
#
# 1 46.3757 35.7927 14.3805 0.0000 -19.8459 0.0000
# 2 35.7927 50.8492 28.6943 0.0000 -22.9255 0.0000
# 3 14.3805 28.6943 66.4982 0.0000 -18.7877 0.0000
# 4 0.0000 0.0000 0.0000 24.2238 0.0000 -7.8812
# 5 -19.8459 -22.9255 -18.7877 0.0000 24.6780 0.0000
# 6 0.0000 0.0000 0.0000 -7.8812 0.0000 26.9576
#
#
#
# Elastic Compliance Matrix: (Units=1/GPa)
#
#
# Indices 1 2 3 4 5 6 
#
# 1 0.052353 -0.033794 0.008009 0.000000 0.016805 0.000000
# 2 -0.033794 0.058673 -0.013108 0.000000 0.017350 0.000000
# 3 0.008009 -0.013108 0.022094 0.000000 0.011084 0.000000
# 4 0.000000 0.000000 0.000000 0.045621 0.000000 0.013338
# 5 0.016805 0.017350 0.011084 0.000000 0.078593 0.000000
# 6 0.000000 0.000000 0.000000 0.013338 0.000000 0.040995
#
#
# Mechanical properties :
#
#
# Convention : Reuss Voigt Hill
#
# Bulk Modulus (GPa) = 18.07226 35.71756 26.89491
# Shear Modulus (GPa) = 12.67237 20.82893 16.75065
#
# Velocity S-wave (km/s) = 2.62264 3.36236 3.01527
# Velocity P-wave (km/s) = 4.35662 5.87031 5.16917
#
# Compressibility (1/GPa) = 0.05533342
#
# Stress axis : x y z
#
# Youngs Moduli (GPa) = 19.10092 17.04367 45.26191
#
# Poissons Ratio (x) = 0.57598 -0.36249
# Poissons Ratio (y) = 0.64550 0.59327
# Poissons Ratio (z) = -0.15297 0.22340
#
# Static dielectric constant tensor:
#      x y z
#    x 1.623900 0.000000 0.003280 
#    y 0.000000 1.611700 0.000000 
#    z 0.003280 0.000000 1.652390 
# 
# From -- ./inp_files/281378.got.cif
#   From: 2010.05.17/outbox.cif.g08.bks.cpg/sg12_141_cif.got.tgz:281378.got - 2010.06.03 13:09:07.
