data_PCOD9194606
_publ_section_title
;
Structure prediction by ZEFSAII (Michael W. Deem and Ramdas Pophale) SiO2 
 PCOD9194606
Probable space group: C 2/M
;
_chemical_formula_sum "Si O2"
_cell_formula_units_Z 44
_cell_length_a 10.889614
_cell_length_b 26.420879
_cell_length_c 9.440903
_cell_angle_alpha 90.000000
_cell_angle_beta 115.763866
_cell_angle_gamma 90.000000
_cell_volume 2446.255900
_symmetry_space_group_name_H-M "C 2/M"
_symmetry_group_IT_number 12
_symmetry_cell_setting 'monoclinic'
loop_
_space_group_symop_operation_xyz
x,y,z
-x,y,-z
-x,-y,-z
x,-y,z
1/2+x,1/2+y,z
1/2-x,1/2+y,-z
1/2-x,1/2-y,-z
1/2+x,1/2-y,z
loop_
_atom_site_type_symbol
_atom_site_label
_atom_site_fract_x
_atom_site_fract_y
_atom_site_fract_z
Si Si1 0.277692 0.060127 0.220258
Si Si2 0.500000 0.126342 0.500000
Si Si3 0.940337 0.860431 0.819506
Si Si4 0.654692 0.939969 0.073584
Si Si5 0.244537 0.690263 0.515453
Si Si6 0.624376 0.618074 0.649539
O O1 0.401391 0.090101 0.357982
O O2 0.137566 0.085696 0.203345
O O3 0.284132 0.000000 0.251344
O O4 0.288007 0.068178 0.056136
O O5 0.597909 0.163191 0.457795
O O6 0.826156 0.823412 0.699739
O O7 0.057761 0.862968 0.761537
O O8 0.000000 0.845568 0.000000
O O9 0.749973 0.916260 0.240981
O O10 0.649634 0.000000 0.094991
O O11 0.500000 0.920103 0.000000
O O12 0.250000 0.750000 0.500000
O O13 0.322362 0.662462 0.425655
O O14 0.500000 0.592367 0.500000
#
# Coordination Sequence:
#
# PCOD9194606 Si02
#       6
#     8   4   8   8   8   8
#     4  10  20  35  58  88 123 163 201 242 295 367
#     4  10  21  38  60  86 118 160 207 246 304 368
#     4  10  20  38  60  88 119 153 200 248 295 356
#     4  10  20  34  56  86 124 162 199 245 301 357
#     4  10  23  40  63  86 115 158 201 255 316 359
#     4  10  21  38  60  85 123 158 197 256 297 360
#
# _framework density 17.98667
#
# number of rings (size 3 to 8) (size 9 to 14) (size 15 to 20)
#    0.000    2.000    1.818    1.364    3.818    1.455 
#    0.000   12.727    0.000    0.000    0.000    0.000 
#    0.000    0.000    0.000    0.000    0.000    0.000 
#
# Total GULP energy -122687.728034 kJ/mol
# GULP energy per Si atom -5576.714911 kJ/mol
# Density = 1.794573 g / cm^3
# Si number density = 17.986670 Si / 1000 Ang^3
#
#
#
# Elastic Constant Matrix: (Units=GPa)
#
#
# Indices 1 2 3 4 5 6 
#
# 1 107.5404 41.3847 41.5336 0.0000 -2.2803 0.0000
# 2 41.3847 114.2475 55.5496 0.0000 4.1405 0.0000
# 3 41.5336 55.5496 132.0802 0.0000 6.5770 0.0000
# 4 0.0000 0.0000 0.0000 18.1602 0.0000 -6.3390
# 5 -2.2803 4.1405 6.5770 0.0000 28.5284 0.0000
# 6 0.0000 0.0000 0.0000 -6.3390 0.0000 16.3822
#
#
#
# Elastic Compliance Matrix: (Units=1/GPa)
#
#
# Indices 1 2 3 4 5 6 
#
# 1 0.011442 -0.003040 -0.002415 0.000000 0.001912 0.000000
# 2 -0.003040 0.011819 -0.003963 0.000000 -0.001045 0.000000
# 3 -0.002415 -0.003963 0.010094 0.000000 -0.001945 0.000000
# 4 0.000000 0.000000 0.000000 0.063664 0.000000 0.024635
# 5 0.001912 -0.001045 -0.001945 0.000000 0.035806 0.000000
# 6 0.000000 0.000000 0.000000 0.024635 0.000000 0.070574
#
#
# Mechanical properties :
#
#
# Convention : Reuss Voigt Hill
#
# Bulk Modulus (GPa) = 68.87110 70.08932 69.48021
# Shear Modulus (GPa) = 22.01934 26.97419 24.49676
#
# Velocity S-wave (km/s) = 3.50266 3.87677 3.69445
# Velocity P-wave (km/s) = 7.39806 7.68707 7.54395
#
# Compressibility (1/GPa) = 0.01451988
#
# Stress axis : x y z
#
# Youngs Moduli (GPa) = 87.39887 84.61168 99.06937
#
# Poissons Ratio (x) = 0.25721 0.23922
# Poissons Ratio (y) = 0.26568 0.39258
# Poissons Ratio (z) = 0.21104 0.33529
#
# Static dielectric constant tensor:
#      x y z
#    x 1.652640 0.000000 0.012700 
#    y 0.000000 1.579430 0.000000 
#    z 0.012700 0.000000 1.613760 
# 
# From -- ./inp_files/51540.got.cif
#   From: 2010.05.17/outbox.cif.g08.bks.cpg/sg12_26_cif.got.tgz:51540.got - 2010.06.03 13:09:07.
