data_PCOD9194698
_publ_section_title
;
Structure prediction by ZEFSAII (Michael W. Deem and Ramdas Pophale) SiO2 
 PCOD9194698
Probable space group: C 2/M
;
_chemical_formula_sum "Si O2"
_cell_formula_units_Z 48
_cell_length_a 9.624849
_cell_length_b 12.999591
_cell_length_c 15.763246
_cell_angle_alpha 90.000000
_cell_angle_beta 100.889516
_cell_angle_gamma 90.000000
_cell_volume 1936.768842
_symmetry_space_group_name_H-M "C 2/M"
_symmetry_group_IT_number 12
_symmetry_cell_setting 'monoclinic'
loop_
_space_group_symop_operation_xyz
x,y,z
-x,y,-z
-x,-y,-z
x,-y,z
1/2+x,1/2+y,z
1/2-x,1/2+y,-z
1/2-x,1/2-y,-z
1/2+x,1/2-y,z
loop_
_atom_site_type_symbol
_atom_site_label
_atom_site_fract_x
_atom_site_fract_y
_atom_site_fract_z
Si Si1 0.343634 0.112071 0.555586
Si Si2 0.860497 0.803630 0.947162
Si Si3 0.170117 0.161885 0.703153
Si Si4 0.418886 0.341568 0.574377
Si Si5 0.181706 0.386053 0.770125
Si Si6 0.408057 0.109532 0.847031
O O1 0.248274 0.120761 0.628922
O O2 0.428888 0.217449 0.570114
O O3 0.240326 0.123732 0.462043
O O4 0.412769 0.000000 0.564522
O O5 0.773476 0.867170 0.866544
O O6 0.930653 0.707729 0.906110
O O7 0.750000 0.750000 0.000000
O O8 0.000000 0.859780 0.000000
O O9 0.197398 0.284574 0.714787
O O10 0.248884 0.116233 0.792984
O O11 0.006685 0.133407 0.668739
O O12 0.500000 0.381471 0.500000
O O13 0.212108 0.500000 0.738907
O O14 0.018170 0.384935 0.782213
O O15 0.430217 0.000000 0.892842
#
# Coordination Sequence:
#
# PCOD9194698 Si02
#       6
#     8   8   8   8   8   8
#     4  10  20  36  58  82 113 155 199 246 305 364
#     4  11  22  40  66  92 124 159 199 255 301 360
#     4  10  20  34  57  84 117 150 195 249 299 352
#     4   9  20  36  55  83 114 149 197 254 300 353
#     4  10  22  40  62  88 120 159 201 245 303 363
#     4  10  21  37  61  89 117 159 204 243 299 368
#
# _framework density 24.783546000000001
#
# number of rings (size 3 to 8) (size 9 to 14) (size 15 to 20)
#    0.000    2.000    1.667    1.500    0.000    7.333 
#    0.000    6.667    0.000    7.000    0.000    0.000 
#    0.000    0.000    0.000    0.000    0.000    0.000 
#
# Total GULP energy -134045.424506 kJ/mol
# GULP energy per Si atom -5585.226021 kJ/mol
# Density = 2.472714 g / cm^3
# Si number density = 24.783546 Si / 1000 Ang^3
#
#
#
# Elastic Constant Matrix: (Units=GPa)
#
#
# Indices 1 2 3 4 5 6 
#
# 1 56.3608 0.5864 18.1132 0.0000 21.7395 0.0000
# 2 0.5864 161.0865 4.7777 0.0000 -11.8148 0.0000
# 3 18.1132 4.7777 83.2332 0.0000 38.9451 0.0000
# 4 0.0000 0.0000 0.0000 2.2186 0.0000 -8.5620
# 5 21.7395 -11.8148 38.9451 0.0000 53.1982 0.0000
# 6 0.0000 0.0000 0.0000 -8.5620 0.0000 10.4994
#
#
#
# Elastic Compliance Matrix: (Units=1/GPa)
#
#
# Indices 1 2 3 4 5 6 
#
# 1 0.021171 -0.000665 -0.000687 0.000000 -0.008296 0.000000
# 2 -0.000665 0.006466 -0.001560 0.000000 0.002850 0.000000
# 3 -0.000687 -0.001560 0.018684 0.000000 -0.013744 0.000000
# 4 0.000000 0.000000 0.000000 -0.209934 0.000000 -0.171195
# 5 -0.008296 0.002850 -0.013744 0.000000 0.032882 0.000000
# 6 0.000000 0.000000 0.000000 -0.171195 0.000000 -0.044361
#
#
# Mechanical properties :
#
#
# Convention : Reuss Voigt Hill
#
# Bulk Modulus (GPa) = 24.69366 38.62611 31.65989
# Shear Modulus (GPa) = -32.09873 31.66346 -0.21763
#
# Velocity S-wave (km/s) = -3.60274 3.57823 -0.29666
# Velocity P-wave (km/s) = 2.70573 5.71759 3.56159
#
# Compressibility (1/GPa) = 0.04049623
#
# Stress axis : x y z
#
# Youngs Moduli (GPa) = 47.23545 154.66640 53.52082
#
# Poissons Ratio (x) = 0.10288 0.03678
# Poissons Ratio (y) = 0.03142 0.08348
# Poissons Ratio (z) = 0.03246 0.24123
#
# Static dielectric constant tensor:
#      x y z
#    x 2.019980 0.000000 0.024450 
#    y 0.000000 1.952490 0.000000 
#    z 0.024450 0.000000 1.985120 
# 
# From -- ./inp_files/262088.got.cif
#   From: 2010.05.17/outbox.cif.g08.bks.cpg/sg12_132_cif.got.tgz:262088.got - 2010.06.03 13:09:07.
