data_PCOD9194304
_publ_section_title
;
Structure prediction by ZEFSAII (Michael W. Deem and Ramdas Pophale) SiO2 
 PCOD9194304
Probable space group: C 2/M
;
_chemical_formula_sum "Si O2"
_cell_formula_units_Z 56
_cell_length_a 19.829422
_cell_length_b 8.510844
_cell_length_c 24.955637
_cell_angle_alpha 90.000000
_cell_angle_beta 43.169056
_cell_angle_gamma 90.000000
_cell_volume 2881.408128
_symmetry_space_group_name_H-M "C 2/M"
_symmetry_group_IT_number 12
_symmetry_cell_setting 'monoclinic'
loop_
_space_group_symop_operation_xyz
x,y,z
-x,y,-z
-x,-y,-z
x,-y,z
1/2+x,1/2+y,z
1/2-x,1/2+y,-z
1/2-x,1/2-y,-z
1/2+x,1/2-y,z
loop_
_atom_site_type_symbol
_atom_site_label
_atom_site_fract_x
_atom_site_fract_y
_atom_site_fract_z
Si Si1 0.451835 0.690172 0.811133
Si Si2 0.654062 0.689034 0.024376
Si Si3 0.259280 0.188308 0.860830
Si Si4 0.016481 0.189525 0.429055
Si Si5 0.313083 0.188253 0.512831
Si Si6 0.329144 0.689470 0.310430
Si Si7 0.769268 0.812094 0.736237
O O1 0.445111 0.500000 0.810828
O O2 0.433128 0.735053 0.884618
O O3 0.364027 0.759360 0.826026
O O4 0.562459 0.739400 0.732537
O O5 0.654502 0.500000 0.023070
O O6 0.750000 0.750000 0.000000
O O7 0.673052 0.741298 0.952399
O O8 0.247734 0.256096 0.808539
O O9 0.258140 0.000000 0.858760
O O10 0.923759 0.248309 0.449017
O O11 0.000000 0.243188 0.500000
O O12 0.121107 0.243110 0.345141
O O13 0.016224 0.000000 0.429139
O O14 0.250000 0.250000 0.500000
O O15 0.256568 0.242770 0.599543
O O16 0.314575 0.000000 0.511557
O O17 0.328981 0.500000 0.309793
O O18 0.305478 0.748908 0.264951
O O19 0.768924 0.000000 0.735030
#
# Coordination Sequence:
#
# PCOD9194304 Si02
#       7
#     8   8   8   8   8   8   8
#     4   9  18  35  58  82 110 146 183 222 272 324
#     4   8  15  30  53  79 108 142 179 220 267 319
#     4  10  20  34  55  85 114 141 181 228 270 322
#     4  10  21  40  61  80 105 143 187 228 271 323
#     4  11  24  39  58  84 114 146 181 225 273 323
#     4  10  22  39  57  80 111 144 181 225 272 324
#     4  11  23  38  58  80 108 146 185 226 275 327
#
# _framework density 19.434940999999998
#
# number of rings (size 3 to 8) (size 9 to 14) (size 15 to 20)
#    0.000    2.143    1.429    1.286    2.000    3.143 
#    0.000    0.714    0.000    4.286    0.000    0.000 
#    0.000    0.000    0.000    0.000    0.000    0.000 
#
# Total GULP energy -156207.409178 kJ/mol
# GULP energy per Si atom -5578.836042 kJ/mol
# Density = 1.939071 g / cm^3
# Si number density = 19.434941 Si / 1000 Ang^3
#
#
#
# Elastic Constant Matrix: (Units=GPa)
#
#
# Indices 1 2 3 4 5 6 
#
# 1 66.1755 1.4000 -8.0869 0.0001 15.0466 -0.0001
# 2 1.4000 6.5413 3.0682 0.0001 1.4196 -0.0003
# 3 -8.0869 3.0682 32.7596 0.0000 16.8019 -0.0001
# 4 0.0001 0.0001 0.0000 22.2979 0.0000 4.8112
# 5 15.0466 1.4196 16.8019 0.0000 37.9178 0.0001
# 6 -0.0001 -0.0003 -0.0001 4.8112 0.0001 30.3690
#
#
#
# Elastic Compliance Matrix: (Units=1/GPa)
#
#
# Indices 1 2 3 4 5 6 
#
# 1 0.019689 -0.007111 0.012161 0.000000 -0.012935 0.000000
# 2 -0.007111 0.162489 -0.019801 -0.000001 0.005512 0.000001
# 3 0.012161 -0.019801 0.048499 0.000000 -0.025575 0.000000
# 4 0.000000 -0.000001 0.000000 0.046435 0.000000 -0.007356
# 5 -0.012935 0.005512 -0.025575 0.000000 0.042632 0.000000
# 6 0.000000 0.000001 0.000000 -0.007356 0.000000 0.034094
#
#
# Mechanical properties :
#
#
# Convention : Reuss Voigt Hill
#
# Bulk Modulus (GPa) = 4.97078 10.91542 7.94310
# Shear Modulus (GPa) = 11.10134 25.38993 18.24563
#
# Velocity S-wave (km/s) = 2.39258 3.61835 3.06732
# Velocity P-wave (km/s) = 3.19309 4.80470 4.07927
#
# Compressibility (1/GPa) = 0.20117571
#
# Stress axis : x y z
#
# Youngs Moduli (GPa) = 50.78970 6.15428 20.61908
#
# Poissons Ratio (x) = 0.04376 -0.25074
# Poissons Ratio (y) = 0.36114 0.40827
# Poissons Ratio (z) = -0.61764 0.12186
#
# Static dielectric constant tensor:
#      x y z
#    x 1.635610 0.000000 0.012400 
#    y 0.000000 1.663050 0.000000 
#    z 0.012400 0.000000 1.722620 
# 
# From -- ./inp_files/342247.got.cif
#   From: 2010.05.17/outbox.cif.g08.bks.cpg/sg12_172_cif.got.tgz:342247.got - 2010.06.03 13:09:07.
