data_PCOD9194324
_publ_section_title
;
Structure prediction by ZEFSAII (Michael W. Deem and Ramdas Pophale) SiO2 
 PCOD9194324
Probable space group: C 2/M
;
_chemical_formula_sum "Si O2"
_cell_formula_units_Z 52
_cell_length_a 18.845136
_cell_length_b 20.306885
_cell_length_c 11.922334
_cell_angle_alpha 90.000000
_cell_angle_beta 143.183945
_cell_angle_gamma 90.000000
_cell_volume 2734.075018
_symmetry_space_group_name_H-M "C 2/M"
_symmetry_group_IT_number 12
_symmetry_cell_setting 'monoclinic'
loop_
_space_group_symop_operation_xyz
x,y,z
-x,y,-z
-x,-y,-z
x,-y,z
1/2+x,1/2+y,z
1/2-x,1/2+y,-z
1/2-x,1/2-y,-z
1/2+x,1/2-y,z
loop_
_atom_site_type_symbol
_atom_site_label
_atom_site_fract_x
_atom_site_fract_y
_atom_site_fract_z
Si Si1 0.120592 0.075913 0.583686
Si Si2 0.179064 0.925648 0.411995
Si Si3 0.388820 0.711504 0.776399
Si Si4 0.500000 0.771779 0.500000
Si Si5 0.955958 0.428201 0.817462
Si Si6 0.749467 0.204271 0.218119
Si Si7 0.967751 0.701967 0.208091
O O1 0.099567 0.082476 0.423298
O O2 0.225806 0.126340 0.744543
O O3 0.000000 0.089043 0.500000
O O4 0.154852 0.000000 0.647946
O O5 0.162489 0.860825 0.315138
O O6 0.314098 0.926072 0.626450
O O7 0.156605 0.000000 0.336291
O O8 0.304355 0.762344 0.737376
O O9 0.438079 0.746416 0.726120
O O10 0.500000 0.702981 0.000000
O O11 0.380184 0.731423 0.365334
O O12 0.520993 0.806344 0.645368
O O13 0.995202 0.500000 0.825784
O O14 0.005327 0.367724 0.812385
O O15 0.000000 0.421219 0.000000
O O16 0.660329 0.221598 0.004121
#
# Coordination Sequence:
#
# PCOD9194324 Si02
#       7
#     8   8   8   4   8   8   8
#     4  10  20  34  55  85 119 153 189 233 291 348
#     4  10  20  35  57  86 117 150 190 240 295 348
#     4  10  22  39  61  86 115 151 202 247 288 344
#     4  12  24  38  56  82 120 158 190 242 296 354
#     4  10  20  36  61  89 113 145 194 247 294 341
#     4  11  22  39  60  86 116 156 198 243 295 348
#     4  11  23  38  59  87 117 153 196 242 297 352
#
# _framework density 19.01923
#
# number of rings (size 3 to 8) (size 9 to 14) (size 15 to 20)
#    0.000    1.538    0.769    5.538    0.000    4.000 
#    0.000    0.385    0.000    1.385    0.000    0.000 
#    0.000    0.000    0.000    0.000    0.000    0.000 
#
# Total GULP energy -145088.172453 kJ/mol
# GULP energy per Si atom -5580.314325 kJ/mol
# Density = 1.897594 g / cm^3
# Si number density = 19.019230 Si / 1000 Ang^3
#
#
#
# Elastic Constant Matrix: (Units=GPa)
#
#
# Indices 1 2 3 4 5 6 
#
# 1 62.2696 38.8644 33.4674 0.0000 10.0677 0.0000
# 2 38.8644 134.4738 49.6516 0.0000 1.7779 0.0000
# 3 33.4674 49.6516 87.4138 0.0000 5.3359 0.0000
# 4 0.0000 0.0000 0.0000 -26.5754 0.0000 -34.3456
# 5 10.0677 1.7779 5.3359 0.0000 28.0595 0.0000
# 6 0.0000 0.0000 0.0000 -34.3456 0.0000 -34.2977
#
#
#
# Elastic Compliance Matrix: (Units=1/GPa)
#
#
# Indices 1 2 3 4 5 6 
#
# 1 0.023102 -0.004397 -0.005927 0.000000 -0.006883 0.000000
# 2 -0.004397 0.010252 -0.004246 0.000000 0.001736 0.000000
# 3 -0.005927 -0.004246 0.016162 0.000000 -0.000678 0.000000
# 4 0.000000 0.000000 0.000000 0.127907 0.000000 -0.128086
# 5 -0.006883 0.001736 -0.000678 0.000000 0.038127 0.000000
# 6 0.000000 0.000000 0.000000 -0.128086 0.000000 0.099108
#
#
# Mechanical properties :
#
#
# Convention : Reuss Voigt Hill
#
# Bulk Modulus (GPa) = 49.07690 58.68045 53.87867
# Shear Modulus (GPa) = 14.26167 4.24887 9.25527
#
# Velocity S-wave (km/s) = 2.74132 1.49627 2.20836
# Velocity P-wave (km/s) = 5.98996 5.82283 5.90698
#
# Compressibility (1/GPa) = 0.02037619
#
# Stress axis : x y z
#
# Youngs Moduli (GPa) = 43.28607 97.54309 61.87383
#
# Poissons Ratio (x) = 0.42893 0.36673
# Poissons Ratio (y) = 0.19034 0.26269
# Poissons Ratio (z) = 0.25656 0.41412
#
# Static dielectric constant tensor:
#      x y z
#    x 1.686360 0.000000 0.009230 
#    y 0.000000 1.689180 0.000000 
#    z 0.009230 0.000000 1.684660 
# 
# From -- ./inp_files/159622.got.cif
#   From: 2010.05.17/outbox.cif.g08.bks.cpg/sg12_80_cif.got.tgz:159622.got - 2010.06.03 13:09:07.
