data_PCOD9194500
_publ_section_title
;
Structure prediction by ZEFSAII (Michael W. Deem and Ramdas Pophale) SiO2 
 PCOD9194500
Probable space group: C 2/M
;
_chemical_formula_sum "Si O2"
_cell_formula_units_Z 48
_cell_length_a 9.302106
_cell_length_b 14.765422
_cell_length_c 22.617516
_cell_angle_alpha 90.000000
_cell_angle_beta 138.011994
_cell_angle_gamma 90.000000
_cell_volume 2078.174248
_symmetry_space_group_name_H-M "C 2/M"
_symmetry_group_IT_number 12
_symmetry_cell_setting 'monoclinic'
loop_
_space_group_symop_operation_xyz
x,y,z
-x,y,-z
-x,-y,-z
x,-y,z
1/2+x,1/2+y,z
1/2-x,1/2+y,-z
1/2-x,1/2-y,-z
1/2+x,1/2-y,z
loop_
_atom_site_type_symbol
_atom_site_label
_atom_site_fract_x
_atom_site_fract_y
_atom_site_fract_z
Si Si1 0.660426 0.389578 0.413988
Si Si2 0.385648 0.660607 0.027489
Si Si3 0.312370 0.110010 0.218149
Si Si4 0.812764 0.611308 0.756337
Si Si5 0.944401 0.610560 0.389011
Si Si6 0.544359 0.901127 0.077981
O O1 0.659675 0.500000 0.414258
O O2 0.413301 0.361253 0.341353
O O3 0.821385 0.361196 0.515398
O O4 0.770738 0.362386 0.385628
O O5 0.571525 0.641732 0.131190
O O6 0.500000 0.660800 0.000000
O O7 0.250000 0.750000 0.000000
O O8 0.193234 0.589731 0.968214
O O9 0.483488 0.140139 0.220438
O O10 0.388676 0.140212 0.306171
O O11 0.311169 0.000000 0.216493
O O12 0.818026 0.500000 0.760717
O O13 0.824401 0.643180 0.828434
O O14 0.943442 0.500000 0.387985
O O15 0.643856 0.000000 0.096364
O O16 0.500000 0.859687 0.000000
#
# Coordination Sequence:
#
# PCOD9194500 Si02
#       6
#     8   8   8   8   8   8
#     4   8  14  26  44  73 117 153 177 217 270 326
#     4  12  25  42  58  77 111 147 192 236 288 344
#     4  10  20  34  56  84 112 146 186 231 283 334
#     4   9  17  29  48  77 111 145 179 221 272 324
#     4   8  15  27  46  76 114 151 181 216 270 329
#     4  10  21  36  57  85 113 144 185 232 283 337
#
# _framework density 23.097197999999999
#
# number of rings (size 3 to 8) (size 9 to 14) (size 15 to 20)
#    0.000    2.500    1.667    2.000    2.333    1.333 
#    0.000    3.333    0.000    0.000    0.000    1.167 
#    0.000    0.000    0.000    0.000    0.000    0.000 
#
# Total GULP energy -133983.819600 kJ/mol
# GULP energy per Si atom -5582.659150 kJ/mol
# Density = 2.304463 g / cm^3
# Si number density = 23.097198 Si / 1000 Ang^3
#
#
#
# Elastic Constant Matrix: (Units=GPa)
#
#
# Indices 1 2 3 4 5 6 
#
# 1 65.6865 -5.4746 48.2002 0.0000 -4.4842 0.0000
# 2 -5.4746 45.5713 -10.9977 0.0000 1.3341 0.0000
# 3 48.2002 -10.9977 188.2706 0.0000 -4.6137 0.0001
# 4 0.0000 0.0000 0.0000 30.5964 0.0000 54.5256
# 5 -4.4842 1.3341 -4.6137 0.0000 49.2560 0.0000
# 6 0.0000 0.0000 0.0001 54.5256 0.0000 72.6137
#
#
#
# Elastic Compliance Matrix: (Units=1/GPa)
#
#
# Indices 1 2 3 4 5 6 
#
# 1 0.018877 0.001088 -0.004739 0.000000 0.001245 0.000000
# 2 0.001088 0.022332 0.001016 0.000000 -0.000411 0.000000
# 3 -0.004739 0.001016 0.006588 0.000000 0.000158 0.000000
# 4 0.000000 0.000000 0.000000 -0.096647 0.000000 0.072572
# 5 0.001245 -0.000411 0.000158 0.000000 0.020441 0.000000
# 6 0.000000 0.000000 0.000000 0.072572 0.000000 -0.040723
#
#
# Mechanical properties :
#
#
# Convention : Reuss Voigt Hill
#
# Bulk Modulus (GPa) = 23.51504 40.33160 31.92332
# Shear Modulus (GPa) = -100.62963 48.34657 -26.14153
#
# Velocity S-wave (km/s) = -6.60776 4.58009 -3.36788
# Velocity P-wave (km/s) = 6.92919 6.74309 1.12792
#
# Compressibility (1/GPa) = 0.04252597
#
# Stress axis : x y z
#
# Youngs Moduli (GPa) = 52.97543 44.77975 151.79343
#
# Poissons Ratio (x) = -0.04870 0.71930
# Poissons Ratio (y) = -0.05762 -0.15422
# Poissons Ratio (z) = 0.25103 -0.04549
#
# Static dielectric constant tensor:
#      x y z
#    x 1.835230 0.000000 -0.020630 
#    y 0.000000 2.001690 0.000000 
#    z -0.020630 0.000000 1.854430 
# 
# From -- ./inp_files/301835.got.cif
#   From: 2010.05.17/outbox.cif.g08.bks.cpg/sg12_151_cif.got.tgz:301835.got - 2010.06.03 13:09:07.
