data_PCOD9194030
_publ_section_title
;
Structure prediction by ZEFSAII (Michael W. Deem and Ramdas Pophale) SiO2 
 PCOD9194030
Probable space group: C 2/M
;
_chemical_formula_sum "Si O2"
_cell_formula_units_Z 36
_cell_length_a 23.582942
_cell_length_b 15.637193
_cell_length_c 23.017564
_cell_angle_alpha 90.000000
_cell_angle_beta 167.804532
_cell_angle_gamma 90.000000
_cell_volume 1793.113100
_symmetry_space_group_name_H-M "C 2/M"
_symmetry_group_IT_number 12
_symmetry_cell_setting 'monoclinic'
loop_
_space_group_symop_operation_xyz
x,y,z
-x,y,-z
-x,-y,-z
x,-y,z
1/2+x,1/2+y,z
1/2-x,1/2+y,-z
1/2-x,1/2-y,-z
1/2+x,1/2-y,z
loop_
_atom_site_type_symbol
_atom_site_label
_atom_site_fract_x
_atom_site_fract_y
_atom_site_fract_z
Si Si1 0.745431 0.500000 0.201370
Si Si2 0.149498 0.905953 0.528085
Si Si3 0.339910 0.330809 0.960964
Si Si4 0.164550 0.652024 0.105467
Si Si5 0.137346 0.732423 0.450882
O O1 0.719935 0.416906 0.134309
O O2 0.000000 0.500000 0.500000
O O3 0.500000 0.500000 0.000000
O O4 0.079189 0.827380 0.416640
O O5 0.951091 0.892781 0.384400
O O6 0.108337 0.000000 0.462501
O O7 0.458959 0.892019 0.854593
O O8 0.296878 0.251131 0.873625
O O9 0.135083 0.319323 0.809855
O O10 0.637084 0.315286 0.284148
O O11 0.000000 0.646539 0.000000
O O12 0.250000 0.750000 0.500000
#
# Coordination Sequence:
#
# PCOD9194030 Si02
#       5
#     4   8   8   8   8
#     4  12  24  40  64  94 134 164 200 264 314 372
#     4  10  21  35  52  82 112 141 190 238 281 348
#     4  10  22  39  59  89 118 155 206 244 298 374
#     4  10  20  34  55  78 113 153 184 226 286 347
#     4  10  21  41  63  80 117 157 200 254 306 353
#
# _framework density 20.076815
#
# number of rings (size 3 to 8) (size 9 to 14) (size 15 to 20)
#    0.000    1.778    0.000    4.000    0.000    6.222 
#    4.000    0.000    0.000    0.000    0.000    0.000 
#    0.000    0.000    0.000    0.000    0.000    0.000 
#
# Total GULP energy -100386.649014 kJ/mol
# GULP energy per Si atom -5577.036056 kJ/mol
# Density = 2.003112 g / cm^3
# Si number density = 20.076815 Si / 1000 Ang^3
#
#
#
# Elastic Constant Matrix: (Units=GPa)
#
#
# Indices 1 2 3 4 5 6 
#
# 1 89.6028 35.6601 0.3978 0.0810 28.1918 0.0414
# 2 35.6601 136.6886 34.5218 0.4337 4.1069 0.1689
# 3 0.3978 34.5218 94.2042 0.3887 21.2151 0.1383
# 4 0.0810 0.4337 0.3887 6.5994 0.0657 0.9111
# 5 28.1918 4.1069 21.2151 0.0657 33.1825 -0.0359
# 6 0.0414 0.1689 0.1383 0.9111 -0.0359 13.3199
#
#
#
# Elastic Compliance Matrix: (Units=1/GPa)
#
#
# Indices 1 2 3 4 5 6 
#
# 1 0.020244 -0.006413 0.006962 -0.000014 -0.020856 -0.000109
# 2 -0.006413 0.010125 -0.005405 -0.000343 0.007651 -0.000008
# 3 0.006962 -0.005405 0.016063 -0.000504 -0.015514 -0.000127
# 4 -0.000014 -0.000343 -0.000504 0.153023 0.000063 -0.010457
# 5 -0.020856 0.007651 -0.015514 0.000063 0.056828 0.000278
# 6 -0.000109 -0.000008 -0.000127 -0.010457 0.000278 0.075793
#
#
# Mechanical properties :
#
#
# Convention : Reuss Voigt Hill
#
# Bulk Modulus (GPa) = 27.23364 51.29500 39.26432
# Shear Modulus (GPa) = 14.12316 27.28143 20.70229
#
# Velocity S-wave (km/s) = 2.65515 3.69026 3.21464
# Velocity P-wave (km/s) = 4.79520 6.61530 5.77738
#
# Compressibility (1/GPa) = 0.03671929
#
# Stress axis : x y z
#
# Youngs Moduli (GPa) = 49.39823 98.76377 62.25595
#
# Poissons Ratio (x) = 0.63334 -0.43340
# Poissons Ratio (y) = 0.31677 0.33650
# Poissons Ratio (z) = -0.34389 0.53382
#
# Static dielectric constant tensor:
#      x y z
#    x 1.680450 -0.002080 0.148130 
#    y -0.002080 1.669180 0.004710 
#    z 0.148130 0.004710 1.386640 
# 
# From -- ./inp_files/23990.got.cif
#   From: 2010.05.17/outbox.cif.g08.bks.cpg/sg12_12_cif.got.tgz:23990.got - 2010.06.03 13:09:07.
