data_PCOD9194767
_publ_section_title
;
Structure prediction by ZEFSAII (Michael W. Deem and Ramdas Pophale) SiO2 
 PCOD9194767
Probable space group: C 2/M
;
_chemical_formula_sum "Si O2"
_cell_formula_units_Z 48
_cell_length_a 7.783700
_cell_length_b 20.994671
_cell_length_c 19.003108
_cell_angle_alpha 90.000000
_cell_angle_beta 42.642205
_cell_angle_gamma 90.000000
_cell_volume 2103.664779
_symmetry_space_group_name_H-M "C 2/M"
_symmetry_group_IT_number 12
_symmetry_cell_setting 'monoclinic'
loop_
_space_group_symop_operation_xyz
x,y,z
-x,y,-z
-x,-y,-z
x,-y,z
1/2+x,1/2+y,z
1/2-x,1/2+y,-z
1/2-x,1/2-y,-z
1/2+x,1/2-y,z
loop_
_atom_site_type_symbol
_atom_site_label
_atom_site_fract_x
_atom_site_fract_y
_atom_site_fract_z
Si Si1 0.338586 0.572175 0.222784
Si Si2 0.675967 0.778727 0.692237
Si Si3 0.883032 0.575894 0.113793
Si Si4 0.688958 0.305243 0.575802
Si Si5 0.761677 0.655866 0.885256
Si Si6 0.782351 0.604317 0.432636
O O1 0.400472 0.500000 0.182343
O O2 0.580818 0.591986 0.197634
O O3 0.310969 0.614231 0.161291
O O4 0.055072 0.571851 0.341635
O O5 0.779854 0.714709 0.624686
O O6 0.412572 0.783251 0.810214
O O7 0.696179 0.834480 0.626840
O O8 0.891907 0.799155 0.680076
O O9 0.902444 0.500000 0.125597
O O10 0.049964 0.615876 0.119824
O O11 0.000000 0.584838 0.000000
O O12 0.750000 0.250000 0.500000
O O13 0.756156 0.370610 0.519932
O O14 0.500000 0.673233 0.000000
O O15 0.500000 0.576014 0.500000
#
# Coordination Sequence:
#
# PCOD9194767 Si02
#       6
#     8   8   8   8   8   8
#     4  10  20  34  57  87 118 158 197 237 289 343
#     4   9  19  34  54  83 109 139 195 238 292 351
#     4  10  20  35  56  84 115 153 202 242 286 348
#     4   9  16  35  57  79 108 141 188 244 285 350
#     4  11  21  37  56  82 119 155 192 244 295 346
#     4   8  16  32  57  82 118 151 191 236 292 348
#
# _framework density 22.817322999999998
#
# number of rings (size 3 to 8) (size 9 to 14) (size 15 to 20)
#    0.000    2.500    1.667    2.000    0.000    1.000 
#   12.000    0.833    0.000    0.000    0.000   22.167 
#    0.000    0.000    0.000    0.000    0.000    0.000 
#
# Total GULP energy -133669.037194 kJ/mol
# GULP energy per Si atom -5569.543216 kJ/mol
# Density = 2.276539 g / cm^3
# Si number density = 22.817323 Si / 1000 Ang^3
#
#
#
# Elastic Constant Matrix: (Units=GPa)
#
#
# Indices 1 2 3 4 5 6 
#
# 1 139.4464 17.4217 52.2810 0.0000 -26.2014 0.0000
# 2 17.4217 25.1470 19.9314 0.0000 4.2253 0.0000
# 3 52.2810 19.9314 149.5876 -0.0001 -32.5938 0.0000
# 4 0.0000 0.0000 -0.0001 23.3256 0.0000 -4.9045
# 5 -26.2014 4.2253 -32.5938 0.0000 39.8673 0.0000
# 6 0.0000 0.0000 0.0000 -4.9045 0.0000 16.3406
#
#
#
# Elastic Compliance Matrix: (Units=1/GPa)
#
#
# Indices 1 2 3 4 5 6 
#
# 1 0.009584 -0.006781 -0.001116 0.000000 0.006105 0.000000
# 2 -0.006781 0.054179 -0.008604 0.000000 -0.017233 0.000000
# 3 -0.001116 -0.008604 0.010051 0.000000 0.008396 0.000000
# 4 0.000000 0.000000 0.000000 0.045759 0.000000 0.013734
# 5 0.006105 -0.017233 0.008396 0.000000 0.037786 0.000000
# 6 0.000000 0.000000 0.000000 0.013734 0.000000 0.065319
#
#
# Mechanical properties :
#
#
# Convention : Reuss Voigt Hill
#
# Bulk Modulus (GPa) = 24.50251 54.82770 39.66510
# Shear Modulus (GPa) = 18.56778 30.87648 24.72213
#
# Velocity S-wave (km/s) = 2.85574 3.68258 3.29520
# Velocity P-wave (km/s) = 4.65140 6.49331 5.64794
#
# Compressibility (1/GPa) = 0.04081214
#
# Stress axis : x y z
#
# Youngs Moduli (GPa) = 104.34188 18.45735 99.49519
#
# Poissons Ratio (x) = 0.12516 0.11101
# Poissons Ratio (y) = 0.70756 0.85604
# Poissons Ratio (z) = 0.11642 0.15880
#
# Static dielectric constant tensor:
#      x y z
#    x 2.067510 0.000000 -0.062370 
#    y 0.000000 1.829110 0.000000 
#    z -0.062370 0.000000 1.851640 
# 
# From -- ./inp_files/302053.got.cif
#   From: 2010.05.17/outbox.cif.g08.bks.cpg/sg12_152_cif.got.tgz:302053.got - 2010.06.03 13:09:07.
