data_PCOD9194007
_publ_section_title
;
Structure prediction by ZEFSAII (Michael W. Deem and Ramdas Pophale) SiO2 
 PCOD9194007
Probable space group: C 2/M
;
_chemical_formula_sum "Si O2"
_cell_formula_units_Z 50
_cell_length_a 21.916099
_cell_length_b 7.716652
_cell_length_c 16.939526
_cell_angle_alpha 90.000000
_cell_angle_beta 65.212932
_cell_angle_gamma 90.000000
_cell_volume 2600.866770
_symmetry_space_group_name_H-M "C 2/M"
_symmetry_group_IT_number 12
_symmetry_cell_setting 'monoclinic'
loop_
_space_group_symop_operation_xyz
x,y,z
-x,y,-z
-x,-y,-z
x,-y,z
1/2+x,1/2+y,z
1/2-x,1/2+y,-z
1/2-x,1/2-y,-z
1/2+x,1/2-y,z
loop_
_atom_site_type_symbol
_atom_site_label
_atom_site_fract_x
_atom_site_fract_y
_atom_site_fract_z
Si Si1 0.395999 0.696294 0.278703
Si Si2 0.006745 0.300312 0.907733
Si Si3 0.753702 0.204661 0.691003
Si Si4 0.342873 0.000000 0.567125
Si Si5 0.574156 0.000000 0.621979
Si Si6 0.249362 0.709238 0.877765
Si Si7 0.500000 0.000000 0.500000
Si Si8 0.138327 0.202760 0.060388
O O1 0.393560 0.500000 0.310238
O O2 0.440565 0.703735 0.175587
O O3 0.321494 0.761367 0.298721
O O4 0.427897 0.830386 0.322958
O O5 0.030021 0.500000 0.901097
O O6 0.932818 0.293892 0.909872
O O7 0.000000 0.229674 0.000000
O O8 0.803396 0.330076 0.616796
O O9 0.755241 0.253972 0.783024
O O10 0.769837 0.000000 0.675048
O O11 0.356036 0.000000 0.465823
O O12 0.418176 0.000000 0.560767
O O13 0.517574 0.000000 0.585778
O O14 0.246464 0.500000 0.884830
O O15 0.313074 0.767595 0.895745
O O16 0.182568 0.777171 0.956970
O O17 0.124835 0.000000 0.081256
#
# Coordination Sequence:
#
# PCOD9194007 Si02
#       8
#     8   8   8   4   4   8   2   8
#     4  12  24  42  68 102 136 174 222 274 333 393
#     4  11  23  39  59  88 132 182 221 271 330 382
#     4  11  22  41  66 101 132 169 215 270 330 396
#     4  10  24  46  72  97 126 166 214 268 333 397
#     4  10  24  50  69  98 135 167 212 288 328 407
#     4   9  20  36  55  84 129 166 216 273 318 378
#     4   8  24  52  70  98 132 168 220 266 338 410
#     4  10  20  34  54  87 120 172 223 265 323 381
#
# _framework density 19.224360000000001
#
# number of rings (size 3 to 8) (size 9 to 14) (size 15 to 20)
#    0.480    1.120    2.400    1.920    1.120    8.320 
#    0.000    3.200    0.000    0.000    0.000    0.000 
#    0.000    0.000    0.000    0.000    0.000    0.000 
#
# Total GULP energy -139341.510760 kJ/mol
# GULP energy per Si atom -5573.660430 kJ/mol
# Density = 1.918060 g / cm^3
# Si number density = 19.224360 Si / 1000 Ang^3
#
#
#
# Elastic Constant Matrix: (Units=GPa)
#
#
# Indices 1 2 3 4 5 6 
#
# 1 91.7520 15.0797 27.5789 0.0000 -9.8871 0.0000
# 2 15.0797 95.7966 37.6450 -0.0001 4.7212 0.0000
# 3 27.5789 37.6450 86.0683 0.0000 5.9096 0.0000
# 4 0.0000 -0.0001 0.0000 1.7455 0.0000 -9.9198
# 5 -9.8871 4.7212 5.9096 0.0000 33.5562 0.0000
# 6 0.0000 0.0000 0.0000 -9.9198 0.0000 15.5651
#
#
#
# Elastic Compliance Matrix: (Units=1/GPa)
#
#
# Indices 1 2 3 4 5 6 
#
# 1 0.012731 -0.000607 -0.004127 0.000000 0.004563 0.000000
# 2 -0.000607 0.012656 -0.005270 0.000000 -0.001031 0.000000
# 3 -0.004127 -0.005270 0.015466 0.000000 -0.003198 0.000000
# 4 0.000000 0.000000 0.000000 -0.218510 0.000000 -0.139258
# 5 0.004563 -0.001031 -0.003198 0.000000 0.031854 0.000000
# 6 0.000000 0.000000 0.000000 -0.139258 0.000000 -0.024504
#
#
# Mechanical properties :
#
#
# Convention : Reuss Voigt Hill
#
# Bulk Modulus (GPa) = 47.97546 48.24713 48.11130
# Shear Modulus (GPa) = -34.87984 23.06091 -5.90947
#
# Velocity S-wave (km/s) = -4.26415 3.46723 -1.75517
# Velocity P-wave (km/s) = 0.87510 6.41719 4.57963
#
# Compressibility (1/GPa) = 0.02084399
#
# Stress axis : x y z
#
# Youngs Moduli (GPa) = 78.54825 79.01243 64.65830
#
# Poissons Ratio (x) = 0.04797 0.26686
# Poissons Ratio (y) = 0.04768 0.34077
# Poissons Ratio (z) = 0.32419 0.41642
#
# Static dielectric constant tensor:
#      x y z
#    x 1.648350 0.000000 0.011540 
#    y 0.000000 1.707310 0.000000 
#    z 0.011540 0.000000 1.659080 
# 
# From -- ./inp_files/237294.got.cif
#   From: 2010.05.17/outbox.cif.g08.bks.cpg/sg12_119_cif.got.tgz:237294.got - 2010.06.03 13:09:07.
