data_PCOD9194701
_publ_section_title
;
Structure prediction by ZEFSAII (Michael W. Deem and Ramdas Pophale) SiO2 
 PCOD9194701
Probable space group: C 2/M
;
_chemical_formula_sum "Si O2"
_cell_formula_units_Z 58
_cell_length_a 25.222745
_cell_length_b 7.637873
_cell_length_c 22.525703
_cell_angle_alpha 90.000000
_cell_angle_beta 37.488574
_cell_angle_gamma 90.000000
_cell_volume 2641.054547
_symmetry_space_group_name_H-M "C 2/M"
_symmetry_group_IT_number 12
_symmetry_cell_setting 'monoclinic'
loop_
_space_group_symop_operation_xyz
x,y,z
-x,y,-z
-x,-y,-z
x,-y,z
1/2+x,1/2+y,z
1/2-x,1/2+y,-z
1/2-x,1/2-y,-z
1/2+x,1/2-y,z
loop_
_atom_site_type_symbol
_atom_site_label
_atom_site_fract_x
_atom_site_fract_y
_atom_site_fract_z
Si Si1 0.751352 0.793431 0.596441
Si Si2 0.891396 0.215641 0.043125
Si Si3 0.935065 0.712909 0.610007
Si Si4 0.246704 0.795248 0.737505
Si Si5 0.240865 0.802598 0.940018
Si Si6 0.500000 0.000000 0.000000
Si Si7 0.931850 0.200354 0.743062
Si Si8 0.888175 0.212043 0.377504
O O1 0.742956 0.722276 0.670126
O O2 0.831480 0.724054 0.484674
O O3 0.665893 0.760237 0.632713
O O4 0.764155 0.000000 0.591172
O O5 0.834977 0.269757 0.152083
O O6 0.829758 0.273665 0.042668
O O7 0.906729 0.000000 0.029530
O O8 0.973713 0.341713 0.975159
O O9 0.935489 0.500000 0.614422
O O10 0.838348 0.777018 0.679605
O O11 0.963407 0.790100 0.647334
O O12 0.000000 0.761276 0.500000
O O13 0.249577 0.000000 0.749606
O O14 0.338420 0.790603 0.827749
O O15 0.211702 0.000000 0.968007
O O16 0.250000 0.750000 0.000000
O O17 0.012218 0.274513 0.709341
O O18 0.915910 0.000000 0.775384
O O19 0.891214 0.000000 0.378354
#
# Coordination Sequence:
#
# PCOD9194701 Si02
#       8
#     8   8   8   8   8   2   8   8
#     4  10  20  34  57  84 118 164 217 261 306 369
#     4  10  24  46  69 100 136 171 218 279 347 410
#     4  10  20  34  57  90 126 166 210 250 302 373
#     4  10  20  37  59  85 124 167 200 251 322 379
#     4  11  24  45  71  96 130 168 216 278 343 412
#     4  12  26  44  80  98 130 172 218 278 334 426
#     4  11  22  37  61  90 125 163 208 259 320 384
#     4   9  20  38  54  81 123 167 209 259 314 371
#
# _framework density 21.960925
#
# number of rings (size 3 to 8) (size 9 to 14) (size 15 to 20)
#    0.000    1.793    1.379    2.276    2.897    2.483 
#    2.483    0.000    0.000    0.000    0.000    0.000 
#    0.000    0.000    0.000    0.000    0.000    0.000 
#
# Total GULP energy -161577.360183 kJ/mol
# GULP energy per Si atom -5571.633110 kJ/mol
# Density = 2.191094 g / cm^3
# Si number density = 21.960925 Si / 1000 Ang^3
#
#
#
# Elastic Constant Matrix: (Units=GPa)
#
#
# Indices 1 2 3 4 5 6 
#
# 1 117.3995 2.1592 17.1743 -0.0095 -11.4318 0.0034
# 2 2.1592 61.3483 4.0329 -0.0033 -3.6164 -0.0060
# 3 17.1743 4.0329 26.5354 -0.0063 3.9046 0.0056
# 4 -0.0095 -0.0033 -0.0063 11.7265 0.0128 8.4922
# 5 -11.4318 -3.6164 3.9046 0.0128 24.2458 -0.0022
# 6 0.0034 -0.0060 0.0056 8.4922 -0.0022 23.7131
#
#
#
# Elastic Compliance Matrix: (Units=1/GPa)
#
#
# Indices 1 2 3 4 5 6 
#
# 1 0.010214 0.000499 -0.007586 -0.000004 0.006112 0.000003
# 2 0.000499 0.016695 -0.003341 -0.000005 0.003264 0.000007
# 3 -0.007586 -0.003341 0.044763 0.000051 -0.011284 -0.000030
# 4 -0.000004 -0.000005 0.000051 0.115137 -0.000076 -0.041233
# 5 0.006112 0.003264 -0.011284 -0.000076 0.046430 0.000034
# 6 0.000003 0.000007 -0.000030 -0.041233 0.000034 0.056937
#
#
# Mechanical properties :
#
#
# Convention : Reuss Voigt Hill
#
# Bulk Modulus (GPa) = 19.67821 28.00178 23.83999
# Shear Modulus (GPa) = 15.24531 24.06486 19.65509
#
# Velocity S-wave (km/s) = 2.63763 3.31388 2.99491
# Velocity P-wave (km/s) = 4.27272 5.23649 4.77896
#
# Compressibility (1/GPa) = 0.05081764
#
# Stress axis : x y z
#
# Youngs Moduli (GPa) = 97.90885 59.89887 22.33968
#
# Poissons Ratio (x) = -0.02992 0.16946
# Poissons Ratio (y) = -0.04890 0.07463
# Poissons Ratio (z) = 0.74271 0.20011
#
# Static dielectric constant tensor:
#      x y z
#    x 2.092370 0.000010 -0.025090 
#    y 0.000010 1.818850 0.000010 
#    z -0.025090 0.000010 1.861790 
# 
# From -- ./inp_files/324528.got.cif
#   From: 2010.05.17/outbox.cif.g08.bks.cpg/sg12_163_cif.got.tgz:324528.got - 2010.06.03 13:09:07.
