data_PCOD9194786
_publ_section_title
;
Structure prediction by ZEFSAII (Michael W. Deem and Ramdas Pophale) SiO2 
 PCOD9194786
Probable space group: C 2/M
;
_chemical_formula_sum "Si O2"
_cell_formula_units_Z 58
_cell_length_a 18.469634
_cell_length_b 12.522215
_cell_length_c 21.294381
_cell_angle_alpha 90.000000
_cell_angle_beta 37.464134
_cell_angle_gamma 90.000000
_cell_volume 2995.691379
_symmetry_space_group_name_H-M "C 2/M"
_symmetry_group_IT_number 12
_symmetry_cell_setting 'monoclinic'
loop_
_space_group_symop_operation_xyz
x,y,z
-x,y,-z
-x,-y,-z
x,-y,z
1/2+x,1/2+y,z
1/2-x,1/2+y,-z
1/2-x,1/2-y,-z
1/2+x,1/2-y,z
loop_
_atom_site_type_symbol
_atom_site_label
_atom_site_fract_x
_atom_site_fract_y
_atom_site_fract_z
Si Si1 0.764859 0.119643 0.626429
Si Si2 0.035731 0.376039 0.700860
Si Si3 0.000000 0.500000 0.500000
Si Si4 0.066131 0.304577 0.541968
Si Si5 0.870914 0.120523 0.955400
Si Si6 0.907414 0.122594 0.121114
Si Si7 0.315287 0.285401 0.864067
Si Si8 0.697848 0.706611 0.265826
O O1 0.633063 0.132710 0.688662
O O2 0.846369 0.212157 0.541420
O O3 0.770357 0.131949 0.697786
O O4 0.806033 0.000000 0.580566
O O5 0.996871 0.500000 0.723464
O O6 0.091602 0.342175 0.595537
O O7 0.924970 0.297972 0.787712
O O8 0.934639 0.406038 0.502818
O O9 0.932197 0.256914 0.633804
O O10 0.838145 0.134771 0.905409
O O11 0.010306 0.135279 0.874022
O O12 0.840761 0.000000 0.997852
O O13 0.798413 0.211824 0.041564
O O14 0.796218 0.199868 0.197378
O O15 0.866330 0.000000 0.145207
O O16 0.000000 0.140810 0.000000
O O17 0.302974 0.338293 0.804392
#
# Coordination Sequence:
#
# PCOD9194786 Si02
#       8
#     8   8   2   8   8   8   8   8
#     4  11  24  42  61  86 122 165 202 243 297 360
#     4  10  21  38  62  87 117 156 200 245 296 356
#     4  12  20  40  62  96 122 148 194 256 320 342
#     4  11  23  39  62  91 120 154 199 254 299 358
#     4  10  20  37  55  81 116 153 193 242 298 349
#     4  10  20  34  57  88 117 147 186 242 301 351
#     4  10  21  35  58  83 114 153 197 243 291 351
#     4  11  22  36  59  86 116 154 198 242 290 353
#
# _framework density 19.361139999999999
#
# number of rings (size 3 to 8) (size 9 to 14) (size 15 to 20)
#    0.000    1.517    3.448    1.655    0.966    2.207 
#    0.000    2.069    0.000    0.414    0.000    0.000 
#    0.000    0.000    0.000    0.000    0.000    0.000 
#
# Total GULP energy -161649.697112 kJ/mol
# GULP energy per Si atom -5574.127487 kJ/mol
# Density = 1.931707 g / cm^3
# Si number density = 19.361140 Si / 1000 Ang^3
#
#
#
# Elastic Constant Matrix: (Units=GPa)
#
#
# Indices 1 2 3 4 5 6 
#
# 1 107.1441 11.6696 2.9532 0.0000 12.9828 0.0000
# 2 11.6696 55.1039 3.1688 0.0000 -1.4888 0.0000
# 3 2.9532 3.1688 27.5074 0.0000 -0.4682 0.0000
# 4 0.0000 0.0000 0.0000 15.2180 0.0000 -4.3584
# 5 12.9828 -1.4888 -0.4682 0.0000 26.3956 0.0000
# 6 0.0000 0.0000 0.0000 -4.3584 0.0000 26.2217
#
#
#
# Elastic Compliance Matrix: (Units=1/GPa)
#
#
# Indices 1 2 3 4 5 6 
#
# 1 0.010231 -0.002253 -0.000927 0.000000 -0.005176 0.000000
# 2 -0.002253 0.018791 -0.001886 0.000000 0.002135 0.000000
# 3 -0.000927 -0.001886 0.036688 0.000000 0.001000 0.000000
# 4 0.000000 0.000000 0.000000 0.068996 0.000000 0.011468
# 5 -0.005176 0.002135 0.001000 0.000000 0.040569 0.000000
# 6 0.000000 0.000000 0.000000 0.011468 0.000000 0.040042
#
#
# Mechanical properties :
#
#
# Convention : Reuss Voigt Hill
#
# Bulk Modulus (GPa) = 17.99317 25.03761 21.51539
# Shear Modulus (GPa) = 20.49376 25.03131 22.76254
#
# Velocity S-wave (km/s) = 3.25699 3.59954 3.43254
# Velocity P-wave (km/s) = 4.84330 5.49869 5.18137
#
# Compressibility (1/GPa) = 0.05557665
#
# Stress axis : x y z
#
# Youngs Moduli (GPa) = 97.73880 53.21736 27.25705
#
# Poissons Ratio (x) = 0.11991 0.02527
# Poissons Ratio (y) = 0.22023 0.05142
# Poissons Ratio (z) = 0.09060 0.10039
#
# Static dielectric constant tensor:
#      x y z
#    x 1.706490 0.000000 0.037070 
#    y 0.000000 1.628760 0.000000 
#    z 0.037070 0.000000 1.674920 
# 
# From -- ./inp_files/315940.got.cif
#   From: 2010.05.17/outbox.cif.g08.bks.cpg/sg12_158_cif.got.tgz:315940.got - 2010.06.03 13:09:07.
