data_PCOD9194843
_publ_section_title
;
Structure prediction by ZEFSAII (Michael W. Deem and Ramdas Pophale) SiO2 
 PCOD9194843
Probable space group: C 2/M
;
_chemical_formula_sum "Si O2"
_cell_formula_units_Z 60
_cell_length_a 17.098643
_cell_length_b 17.726017
_cell_length_c 12.652386
_cell_angle_alpha 90.000000
_cell_angle_beta 58.457914
_cell_angle_gamma 90.000000
_cell_volume 3268.250809
_symmetry_space_group_name_H-M "C 2/M"
_symmetry_group_IT_number 12
_symmetry_cell_setting 'monoclinic'
loop_
_space_group_symop_operation_xyz
x,y,z
-x,y,-z
-x,-y,-z
x,-y,z
1/2+x,1/2+y,z
1/2-x,1/2+y,-z
1/2-x,1/2-y,-z
1/2+x,1/2-y,z
loop_
_atom_site_type_symbol
_atom_site_label
_atom_site_fract_x
_atom_site_fract_y
_atom_site_fract_z
Si Si1 0.784455 0.334077 0.443190
Si Si2 0.500000 0.697673 0.500000
Si Si3 0.603224 0.085368 0.470558
Si Si4 0.092424 0.087740 0.607626
Si Si5 0.149655 0.304384 0.280591
Si Si6 0.644165 0.771175 0.056314
Si Si7 0.011344 0.844736 0.873986
Si Si8 0.661006 0.783022 0.816637
O O1 0.750000 0.250000 0.500000
O O2 0.870575 0.359142 0.452978
O O3 0.699408 0.388641 0.529240
O O4 0.813422 0.335109 0.300175
O O5 0.543506 0.643992 0.559032
O O6 0.576762 0.751272 0.393103
O O7 0.500000 0.089438 0.500000
O O8 0.660336 0.116343 0.331383
O O9 0.623781 0.000000 0.486051
O O10 0.049428 0.103462 0.753713
O O11 0.081186 0.000000 0.587561
O O12 0.117519 0.312889 0.182840
O O13 0.246722 0.263439 0.224074
O O14 0.584240 0.695007 0.090144
O O15 0.750000 0.750000 0.000000
O O16 0.632806 0.813660 0.952329
O O17 0.082781 0.775137 0.835417
O O18 0.000000 0.878433 0.000000
#
# Coordination Sequence:
#
# PCOD9194843 Si02
#       8
#     8   4   8   8   8   8   8   8
#     4  12  21  38  62  88 118 156 205 246 296 360
#     4  12  21  36  57  88 116 158 196 250 295 360
#     4  11  24  37  55  88 122 151 191 248 307 355
#     4  12  24  37  57  88 126 161 194 245 309 368
#     4  11  19  36  61  82 116 152 201 243 292 355
#     4   9  20  34  56  87 114 148 196 252 291 346
#     4  10  20  36  56  82 119 149 196 245 296 355
#     4  10  20  34  57  91 111 148 202 250 290 341
#
# _framework density 18.358445
#
# number of rings (size 3 to 8) (size 9 to 14) (size 15 to 20)
#    0.000    1.200    6.000    0.600    1.867    0.267 
#    0.000    0.000    0.000    6.400    0.000    1.867 
#    0.000    0.000    0.000    0.000    0.000    0.000 
#
# Total GULP energy -167306.158826 kJ/mol
# GULP energy per Si atom -5576.871961 kJ/mol
# Density = 1.831666 g / cm^3
# Si number density = 18.358445 Si / 1000 Ang^3
#
#
#
# Elastic Constant Matrix: (Units=GPa)
#
#
# Indices 1 2 3 4 5 6 
#
# 1 88.3319 26.8707 24.7908 0.0000 1.8986 0.0000
# 2 26.8707 61.5378 28.5557 0.0000 3.1723 0.0000
# 3 24.7908 28.5557 123.2254 0.0000 21.0896 0.0000
# 4 0.0000 0.0000 0.0000 11.5623 0.0000 1.6531
# 5 1.8986 3.1723 21.0896 0.0000 37.6880 0.0000
# 6 0.0000 0.0000 0.0000 1.6531 0.0000 20.1491
#
#
#
# Elastic Compliance Matrix: (Units=1/GPa)
#
#
# Indices 1 2 3 4 5 6 
#
# 1 0.013309 -0.005099 -0.001609 0.000000 0.000659 0.000000
# 2 -0.005099 0.020190 -0.003767 0.000000 0.000665 0.000000
# 3 -0.001609 -0.003767 0.010223 0.000000 -0.005322 0.000000
# 4 0.000000 0.000000 0.000000 0.087514 0.000000 -0.007180
# 5 0.000659 0.000665 -0.005322 0.000000 0.029423 0.000000
# 6 0.000000 0.000000 0.000000 -0.007180 0.000000 0.050219
#
#
# Mechanical properties :
#
#
# Convention : Reuss Voigt Hill
#
# Bulk Modulus (GPa) = 43.91141 48.16994 46.04067
# Shear Modulus (GPa) = 20.88388 26.73841 23.81114
#
# Velocity S-wave (km/s) = 3.37644 3.82050 3.60531
# Velocity P-wave (km/s) = 6.25870 6.76441 6.51646
#
# Compressibility (1/GPa) = 0.02277313
#
# Stress axis : x y z
#
# Youngs Moduli (GPa) = 75.13469 49.52864 97.82171
#
# Poissons Ratio (x) = 0.25255 0.15737
# Poissons Ratio (y) = 0.38312 0.36848
# Poissons Ratio (z) = 0.12087 0.18657
#
# Static dielectric constant tensor:
#      x y z
#    x 1.669100 0.000000 0.000970 
#    y 0.000000 1.606170 0.000000 
#    z 0.000970 0.000000 1.721610 
# 
# From -- ./inp_files/158273.got.cif
#   From: 2010.05.17/outbox.cif.g08.bks.cpg/sg12_80_cif.got.tgz:158273.got - 2010.06.03 13:09:07.
