data_PCOD9194442
_publ_section_title
;
Structure prediction by ZEFSAII (Michael W. Deem and Ramdas Pophale) SiO2 
 PCOD9194442
Probable space group: C 2/M
;
_chemical_formula_sum "Si O2"
_cell_formula_units_Z 56
_cell_length_a 14.589461
_cell_length_b 7.991253
_cell_length_c 23.826564
_cell_angle_alpha 90.000000
_cell_angle_beta 119.094296
_cell_angle_gamma 90.000000
_cell_volume 2427.380406
_symmetry_space_group_name_H-M "C 2/M"
_symmetry_group_IT_number 12
_symmetry_cell_setting 'monoclinic'
loop_
_space_group_symop_operation_xyz
x,y,z
-x,y,-z
-x,-y,-z
x,-y,z
1/2+x,1/2+y,z
1/2-x,1/2+y,-z
1/2-x,1/2-y,-z
1/2+x,1/2-y,z
loop_
_atom_site_type_symbol
_atom_site_label
_atom_site_fract_x
_atom_site_fract_y
_atom_site_fract_z
Si Si1 0.884138 0.200155 0.078134
Si Si2 0.062980 0.703266 0.218784
Si Si3 0.419062 0.194227 0.400572
Si Si4 0.447093 0.192676 0.286554
Si Si5 0.263024 0.194046 0.809752
Si Si6 0.353142 0.694419 0.496991
Si Si7 0.341127 0.692328 0.945981
O O1 0.778971 0.292046 0.067263
O O2 0.976435 0.236201 0.148691
O O3 0.863095 0.000000 0.071592
O O4 0.906381 0.249498 0.019951
O O5 0.059224 0.500000 0.218400
O O6 0.173728 0.752166 0.225902
O O7 0.036620 0.766067 0.273265
O O8 0.417225 0.269589 0.337408
O O9 0.542404 0.206909 0.453463
O O10 0.351204 0.281002 0.428985
O O11 0.386997 0.000000 0.390031
O O12 0.342721 0.201173 0.217685
O O13 0.475514 0.000000 0.306956
O O14 0.336470 0.212685 0.885957
O O15 0.233325 0.000000 0.796203
O O16 0.372089 0.500000 0.514351
O O17 0.250000 0.750000 0.500000
O O18 0.367766 0.500000 0.941724
#
# Coordination Sequence:
#
# PCOD9194442 Si02
#       7
#     8   8   8   8   8   8   8
#     4  10  20  34  56  83 106 141 191 241 297 362
#     4  10  22  39  57  81 115 152 189 239 297 350
#     4  10  21  39  63  93 126 162 202 245 296 354
#     4  10  22  41  62  84 118 160 196 239 293 343
#     4  11  23  37  57  85 114 151 199 242 289 352
#     4  11  22  39  64  95 129 164 202 246 293 343
#     4  10  20  35  55  79 111 145 184 241 305 357
#
# _framework density 23.070138
#
# number of rings (size 3 to 8) (size 9 to 14) (size 15 to 20)
#    0.000    1.714    1.429    3.857    0.000    5.714 
#    0.000    4.286    0.000    0.000    0.000    0.000 
#    0.000    0.000    0.000    0.000    0.000    0.000 
#
# Total GULP energy -156420.471687 kJ/mol
# GULP energy per Si atom -5586.445417 kJ/mol
# Density = 2.301763 g / cm^3
# Si number density = 23.070138 Si / 1000 Ang^3
#
#
#
# Elastic Constant Matrix: (Units=GPa)
#
#
# Indices 1 2 3 4 5 6 
#
# 1 114.2695 4.3144 23.6764 0.0000 -37.7918 0.0000
# 2 4.3144 44.9123 -4.4529 0.0000 -6.8122 0.0000
# 3 23.6764 -4.4529 72.9295 0.0000 -36.4351 0.0000
# 4 0.0000 0.0000 0.0000 22.0271 0.0000 -4.5387
# 5 -37.7918 -6.8122 -36.4351 0.0000 38.0495 0.0000
# 6 0.0000 0.0000 0.0000 -4.5387 0.0000 15.2606
#
#
#
# Elastic Compliance Matrix: (Units=1/GPa)
#
#
# Indices 1 2 3 4 5 6 
#
# 1 0.013945 0.002086 0.005188 0.000000 0.019192 0.000000
# 2 0.002086 0.024988 0.007896 0.000000 0.014106 0.000000
# 3 0.005188 0.007896 0.030273 0.000000 0.035555 0.000000
# 4 0.000000 0.000000 0.000000 0.048362 0.000000 0.014384
# 5 0.019192 0.014106 0.035555 0.000000 0.081916 0.000000
# 6 0.000000 0.000000 0.000000 0.014384 0.000000 0.069806
#
#
# Mechanical properties :
#
#
# Convention : Reuss Voigt Hill
#
# Bulk Modulus (GPa) = 10.04564 31.02078 20.53321
# Shear Modulus (GPa) = 18.37352 28.97235 23.67293
#
# Velocity S-wave (km/s) = 2.82515 3.54762 3.20680
# Velocity P-wave (km/s) = 3.87374 5.50058 4.75721
#
# Compressibility (1/GPa) = 0.09954571
#
# Stress axis : x y z
#
# Youngs Moduli (GPa) = 71.71168 40.01967 33.03305
#
# Poissons Ratio (x) = -0.08348 -0.17139
# Poissons Ratio (y) = -0.14958 -0.26083
# Poissons Ratio (z) = -0.37207 -0.31599
#
# Static dielectric constant tensor:
#      x y z
#    x 1.884590 0.000000 -0.046340 
#    y 0.000000 1.838780 0.000000 
#    z -0.046340 0.000000 1.920360 
# 
# From -- ./inp_files/339022.got.cif
#   From: 2010.05.17/outbox.cif.g08.bks.cpg/sg12_170_cif.got.tgz:339022.got - 2010.06.03 13:09:07.
