data_PCOD9194888
_publ_section_title
;
Structure prediction by ZEFSAII (Michael W. Deem and Ramdas Pophale) SiO2 
 PCOD9194888
Probable space group: C 2/M
;
_chemical_formula_sum "Si O2"
_cell_formula_units_Z 36
_cell_length_a 19.304024
_cell_length_b 8.608193
_cell_length_c 14.656660
_cell_angle_alpha 90.000000
_cell_angle_beta 139.315706
_cell_angle_gamma 90.000000
_cell_volume 1587.704036
_symmetry_space_group_name_H-M "C 2/M"
_symmetry_group_IT_number 12
_symmetry_cell_setting 'monoclinic'
loop_
_space_group_symop_operation_xyz
x,y,z
-x,y,-z
-x,-y,-z
x,-y,z
1/2+x,1/2+y,z
1/2-x,1/2+y,-z
1/2-x,1/2-y,-z
1/2+x,1/2-y,z
loop_
_atom_site_type_symbol
_atom_site_label
_atom_site_fract_x
_atom_site_fract_y
_atom_site_fract_z
Si Si1 0.000000 0.745601 0.000000
Si Si2 0.104439 0.181273 0.761664
Si Si3 0.661567 0.818829 0.289832
Si Si4 0.336832 0.175223 0.990519
Si Si5 0.381427 0.179241 0.536584
O O1 0.908395 0.801963 0.838965
O O2 0.922787 0.669789 0.997506
O O3 0.220575 0.223644 0.838193
O O4 0.999957 0.272375 0.627422
O O5 0.085152 0.000000 0.726774
O O6 0.123944 0.215901 0.888813
O O7 0.628763 0.805157 0.363124
O O8 0.785875 0.783595 0.403877
O O9 0.640705 0.000000 0.242746
O O10 0.325097 0.000000 0.016922
O O11 0.362032 0.000000 0.494695
#
# Coordination Sequence:
#
# PCOD9194888 Si02
#       5
#     4   8   8   8   8
#     4  12  21  38  63  90 117 146 189 244 293 338
#     4  10  20  35  57  85 116 152 194 234 278 343
#     4  10  20  34  58  86 114 147 189 239 288 336
#     4  10  20  35  58  86 116 151 190 236 288 337
#     4  10  20  37  59  82 113 154 196 235 279 339
#
# _framework density 22.674251000000002
#
# number of rings (size 3 to 8) (size 9 to 14) (size 15 to 20)
#    0.000    1.778    2.222    3.333    0.000    1.778 
#    0.000    3.333    0.000    5.333    0.000    0.000 
#    0.000    0.000    0.000    0.000    0.000    0.000 
#
# Total GULP energy -100330.611350 kJ/mol
# GULP energy per Si atom -5573.922853 kJ/mol
# Density = 2.262264 g / cm^3
# Si number density = 22.674251 Si / 1000 Ang^3
#
#
#
# Elastic Constant Matrix: (Units=GPa)
#
#
# Indices 1 2 3 4 5 6 
#
# 1 98.4806 22.0020 37.2150 0.0000 39.4345 0.0000
# 2 22.0020 36.9614 15.8715 0.0000 10.8362 0.0000
# 3 37.2150 15.8715 106.6907 0.0000 37.4590 0.0000
# 4 0.0000 0.0000 0.0000 12.6380 0.0000 5.3992
# 5 39.4345 10.8362 37.4590 0.0000 51.1589 0.0000
# 6 0.0000 0.0000 0.0000 5.3992 0.0000 0.1786
#
#
#
# Elastic Compliance Matrix: (Units=1/GPa)
#
#
# Indices 1 2 3 4 5 6 
#
# 1 0.016036 -0.006067 -0.001080 0.000000 -0.010285 0.000000
# 2 -0.006067 0.031819 -0.002548 0.000000 -0.000198 0.000000
# 3 -0.001080 -0.002548 0.012985 0.000000 -0.008136 0.000000
# 4 0.000000 0.000000 0.000000 -0.006641 0.000000 0.200760
# 5 -0.010285 -0.000198 -0.008136 0.000000 0.033474 0.000000
# 6 0.000000 0.000000 0.000000 0.200760 0.000000 -0.469928
#
#
# Mechanical properties :
#
#
# Convention : Reuss Voigt Hill
#
# Bulk Modulus (GPa) = 24.12493 43.58996 33.85745
# Shear Modulus (GPa) = -14.32465 23.93138 4.80337
#
# Velocity S-wave (km/s) = -2.51621 3.25228 1.45706
# Velocity P-wave (km/s) = 1.49035 5.77662 4.21844
#
# Compressibility (1/GPa) = 0.04145089
#
# Stress axis : x y z
#
# Youngs Moduli (GPa) = 62.35816 31.42812 77.01172
#
# Poissons Ratio (x) = 0.19067 0.08317
# Poissons Ratio (y) = 0.37831 0.19621
# Poissons Ratio (z) = 0.06735 0.08007
#
# Static dielectric constant tensor:
#      x y z
#    x 1.828030 0.000000 -0.002680 
#    y 0.000000 1.791780 0.000000 
#    z -0.002680 0.000000 1.871810 
# 
# From -- ./inp_files/231141.got.cif
#   From: 2010.05.17/outbox.cif.g08.bks.cpg/sg12_116_cif.got.tgz:231141.got - 2010.06.03 13:09:07.
