data_PCOD9194741
_publ_section_title
;
Structure prediction by ZEFSAII (Michael W. Deem and Ramdas Pophale) SiO2 
 PCOD9194741
Probable space group: C 2/M
;
_chemical_formula_sum "Si O2"
_cell_formula_units_Z 64
_cell_length_a 21.047097
_cell_length_b 20.554951
_cell_length_c 7.190550
_cell_angle_alpha 90.000000
_cell_angle_beta 66.341285
_cell_angle_gamma 90.000000
_cell_volume 2849.334693
_symmetry_space_group_name_H-M "C 2/M"
_symmetry_group_IT_number 12
_symmetry_cell_setting 'monoclinic'
loop_
_space_group_symop_operation_xyz
x,y,z
-x,y,-z
-x,-y,-z
x,-y,z
1/2+x,1/2+y,z
1/2-x,1/2+y,-z
1/2-x,1/2-y,-z
1/2+x,1/2-y,z
loop_
_atom_site_type_symbol
_atom_site_label
_atom_site_fract_x
_atom_site_fract_y
_atom_site_fract_z
Si Si1 0.769196 0.646995 0.265642
Si Si2 0.408582 0.796098 0.990404
Si Si3 0.652941 0.075532 0.485321
Si Si4 0.954953 0.323966 0.336070
Si Si5 0.973233 0.926936 0.316340
Si Si6 0.379948 0.689504 0.528783
Si Si7 0.270506 0.426220 0.048523
Si Si8 0.599684 0.347561 0.061822
O O1 0.804085 0.612255 0.401646
O O2 0.702840 0.690012 0.402221
O O3 0.827353 0.686993 0.080470
O O4 0.740629 0.594344 0.151823
O O5 0.461927 0.815088 0.763773
O O6 0.416762 0.719460 0.019048
O O7 0.434534 0.831745 0.143738
O O8 0.581581 0.113691 0.533527
O O9 0.699890 0.078099 0.246089
O O10 0.642363 0.000000 0.548198
O O11 0.917786 0.256853 0.438768
O O12 0.039353 0.900419 0.126557
O O13 0.000000 0.929298 0.500000
O O14 0.914194 0.871698 0.381285
O O15 0.951547 0.000000 0.290657
O O16 0.393458 0.675115 0.730529
O O17 0.296617 0.500000 0.025613
O O18 0.327221 0.379063 0.072055
#
# Coordination Sequence:
#
# PCOD9194741 Si02
#       8
#     8   8   8   8   8   8   8   8
#     4  10  23  39  62  88 118 157 197 249 301 354
#     4  10  22  38  59  86 117 155 194 243 310 345
#     4  10  23  42  64  87 117 159 202 247 305 355
#     4  10  22  40  59  85 121 152 199 252 292 356
#     4   9  17  32  53  82 118 157 194 234 288 351
#     4  10  21  34  58  90 114 156 197 243 293 347
#     4  10  22  39  60  90 122 156 197 248 297 355
#     4  10  20  34  57  86 118 155 197 237 293 357
#
# _framework density 22.461383000000001
#
# number of rings (size 3 to 8) (size 9 to 14) (size 15 to 20)
#    0.000    2.125    1.250    0.750    5.250    5.500 
#    0.000    5.625    0.000    2.250    0.000    0.000 
#    0.000    0.000    0.000    0.000    0.000    0.000 
#
# Total GULP energy -178812.133931 kJ/mol
# GULP energy per Si atom -5587.879185 kJ/mol
# Density = 2.241026 g / cm^3
# Si number density = 22.461383 Si / 1000 Ang^3
#
#
#
# Elastic Constant Matrix: (Units=GPa)
#
#
# Indices 1 2 3 4 5 6 
#
# 1 60.5590 8.9838 25.4496 0.0000 -15.0290 0.0000
# 2 8.9838 70.1965 40.4945 0.0000 -23.2031 0.0000
# 3 25.4496 40.4945 69.7763 0.0000 -32.3319 0.0000
# 4 0.0000 0.0000 0.0000 33.4747 0.0000 -2.7899
# 5 -15.0290 -23.2031 -32.3319 0.0000 50.5711 0.0000
# 6 0.0000 0.0000 0.0000 -2.7899 0.0000 28.1901
#
#
#
# Elastic Compliance Matrix: (Units=1/GPa)
#
#
# Indices 1 2 3 4 5 6 
#
# 1 0.019939 0.002675 -0.007830 0.000000 0.002147 0.000000
# 2 0.002675 0.022031 -0.012375 0.000000 0.002991 0.000000
# 3 -0.007830 -0.012375 0.029357 0.000000 0.010764 0.000000
# 4 0.000000 0.000000 0.000000 0.030122 0.000000 0.002981
# 5 0.002147 0.002991 0.010764 0.000000 0.028666 0.000000
# 6 0.000000 0.000000 0.000000 0.002981 0.000000 0.035768
#
#
# Mechanical properties :
#
#
# Convention : Reuss Voigt Hill
#
# Bulk Modulus (GPa) = 27.57368 38.93197 33.25282
# Shear Modulus (GPa) = 23.47048 30.82078 27.14563
#
# Velocity S-wave (km/s) = 3.23604 3.70830 3.48019
# Velocity P-wave (km/s) = 5.12497 5.97543 5.56646
#
# Compressibility (1/GPa) = 0.03626647
#
# Stress axis : x y z
#
# Youngs Moduli (GPa) = 50.15209 45.39043 34.06358
#
# Poissons Ratio (x) = -0.12141 0.26672
# Poissons Ratio (y) = -0.13414 0.42154
# Poissons Ratio (z) = 0.39269 0.56171
#
# Static dielectric constant tensor:
#      x y z
#    x 1.867610 0.000000 0.016960 
#    y 0.000000 1.777910 0.000000 
#    z 0.016960 0.000000 1.887660 
# 
# From -- ./inp_files/99096.got.cif
#   From: 2010.05.17/outbox.cif.g08.bks.cpg/sg12_50_cif.got.tgz:99096.got - 2010.06.03 13:09:07.
