data_PCOD9194960
_publ_section_title
;
Structure prediction by ZEFSAII (Michael W. Deem and Ramdas Pophale) SiO2 
 PCOD9194960
Probable space group: C 2/M
;
_chemical_formula_sum "Si O2"
_cell_formula_units_Z 52
_cell_length_a 20.224726
_cell_length_b 24.661645
_cell_length_c 14.296920
_cell_angle_alpha 90.000000
_cell_angle_beta 160.404864
_cell_angle_gamma 90.000000
_cell_volume 2391.516884
_symmetry_space_group_name_H-M "C 2/M"
_symmetry_group_IT_number 12
_symmetry_cell_setting 'monoclinic'
loop_
_space_group_symop_operation_xyz
x,y,z
-x,y,-z
-x,-y,-z
x,-y,z
1/2+x,1/2+y,z
1/2-x,1/2+y,-z
1/2-x,1/2-y,-z
1/2+x,1/2-y,z
loop_
_atom_site_type_symbol
_atom_site_label
_atom_site_fract_x
_atom_site_fract_y
_atom_site_fract_z
Si Si1 0.830069 0.000000 0.197263
Si Si2 0.798550 0.380771 0.612061
Si Si3 0.694067 0.296718 0.312154
Si Si4 0.000000 0.689023 0.000000
Si Si5 0.598021 0.599491 0.845088
Si Si6 0.185396 0.937435 0.175990
Si Si7 0.009381 0.345854 0.621551
Si Si8 0.446371 0.000000 0.815666
O O1 0.856326 0.948678 0.164678
O O2 0.000000 0.000000 0.500000
O O3 0.632014 0.000000 0.994111
O O4 0.720716 0.339874 0.429784
O O5 0.625226 0.379665 0.458992
O O6 0.829596 0.444587 0.636106
O O7 0.004646 0.355151 0.922349
O O8 0.897370 0.300031 0.528000
O O9 0.500000 0.318046 0.000000
O O10 0.641543 0.232860 0.241632
O O11 0.625926 0.579780 0.990717
O O12 0.767167 0.643588 0.053681
O O13 0.369967 0.899220 0.449783
O O14 0.250349 0.000000 0.260848
O O15 0.000000 0.934372 0.000000
O O16 0.000000 0.333431 0.500000
O O17 0.500000 0.000000 0.000000
#
# Coordination Sequence:
#
# PCOD9194960 Si02
#       8
#     4   8   8   4   8   8   8   4
#     4  12  26  42  60  95 137 186 225 284 351 392
#     4  12  23  47  72 106 134 185 241 283 351 414
#     4  10  22  43  70 103 131 184 234 289 342 416
#     4  10  26  43  80  91 138 182 252 288 332 414
#     4  11  23  38  63  94 139 177 222 287 343 415
#     4  10  20  34  58  96 135 179 226 269 339 433
#     4  10  20  36  61  92 137 174 213 286 348 414
#     4  12  26  46  77  99 140 186 241 291 335 434
#
# _framework density 21.743521999999999
#
# number of rings (size 3 to 8) (size 9 to 14) (size 15 to 20)
#    0.462    0.769    1.538    6.000    1.077    0.923 
#    1.385    1.154    3.385    0.000    0.000    0.000 
#    0.000    0.000    0.000    0.000    0.000    0.000 
#
# Total GULP energy -144802.375754 kJ/mol
# GULP energy per Si atom -5569.322144 kJ/mol
# Density = 2.169403 g / cm^3
# Si number density = 21.743522 Si / 1000 Ang^3
#
#
#
# Elastic Constant Matrix: (Units=GPa)
#
#
# Indices 1 2 3 4 5 6 
#
# 1 99.6124 25.4604 34.9632 0.0000 12.8035 -0.0001
# 2 25.4604 119.3006 30.1831 0.0000 -5.9421 0.0000
# 3 34.9632 30.1831 99.4649 -0.0002 5.1283 0.0002
# 4 0.0000 0.0000 -0.0002 9.4484 0.0000 -22.8492
# 5 12.8035 -5.9421 5.1283 0.0000 41.4292 -0.0001
# 6 -0.0001 0.0000 0.0002 -22.8492 -0.0001 3.5877
#
#
#
# Elastic Compliance Matrix: (Units=1/GPa)
#
#
# Indices 1 2 3 4 5 6 
#
# 1 0.012229 -0.001895 -0.003537 0.000000 -0.003613 0.000000
# 2 -0.001895 0.009487 -0.002328 0.000000 0.002234 0.000000
# 3 -0.003537 -0.002328 0.012041 0.000000 -0.000731 0.000000
# 4 0.000000 0.000000 0.000000 -0.007349 0.000000 -0.046804
# 5 -0.003613 0.002234 -0.000731 0.000000 0.025665 0.000000
# 6 0.000000 0.000000 0.000000 -0.046804 0.000000 -0.019354
#
#
# Mechanical properties :
#
#
# Convention : Reuss Voigt Hill
#
# Bulk Modulus (GPa) = 54.83380 55.51017 55.17199
# Shear Modulus (GPa) = 92.04856 26.07782 59.06319
#
# Velocity S-wave (km/s) = 6.51350 3.46690 5.21752
# Velocity P-wave (km/s) = 9.04659 6.45065 7.85658
#
# Compressibility (1/GPa) = 0.01823693
#
# Stress axis : x y z
#
# Youngs Moduli (GPa) = 81.77104 105.40906 83.04697
#
# Poissons Ratio (x) = 0.19974 0.29377
# Poissons Ratio (y) = 0.15495 0.19333
# Poissons Ratio (z) = 0.28926 0.24539
#
# Static dielectric constant tensor:
#      x y z
#    x 1.833000 0.000000 -0.017340 
#    y 0.000000 1.816570 0.000000 
#    z -0.017340 0.000000 1.869520 
# 
# From -- ./inp_files/235796.got.cif
#   From: 2010.05.17/outbox.cif.g08.bks.cpg/sg12_118_cif.got.tgz:235796.got - 2010.06.03 13:09:07.
