data_PCOD9194669
_publ_section_title
;
Structure prediction by ZEFSAII (Michael W. Deem and Ramdas Pophale) SiO2 
 PCOD9194669
Probable space group: C 2/M
;
_chemical_formula_sum "Si O2"
_cell_formula_units_Z 40
_cell_length_a 13.591040
_cell_length_b 26.467503
_cell_length_c 5.235868
_cell_angle_alpha 90.000000
_cell_angle_beta 66.519847
_cell_angle_gamma 90.000000
_cell_volume 1727.497860
_symmetry_space_group_name_H-M "C 2/M"
_symmetry_group_IT_number 12
_symmetry_cell_setting 'monoclinic'
loop_
_space_group_symop_operation_xyz
x,y,z
-x,y,-z
-x,-y,-z
x,-y,z
1/2+x,1/2+y,z
1/2-x,1/2+y,-z
1/2-x,1/2-y,-z
1/2+x,1/2-y,z
loop_
_atom_site_type_symbol
_atom_site_label
_atom_site_fract_x
_atom_site_fract_y
_atom_site_fract_z
Si Si1 0.500000 0.701015 0.500000
Si Si2 0.380843 0.835869 0.327208
Si Si3 0.823412 0.943915 0.097798
Si Si4 0.500000 0.637717 0.000000
Si Si5 0.818610 0.555748 0.253620
Si Si6 0.878642 0.706542 0.827004
O O1 0.534008 0.670079 0.716359
O O2 0.594951 0.737459 0.295603
O O3 0.384455 0.894290 0.249978
O O4 0.501699 0.816415 0.248841
O O5 0.324649 0.824748 0.655555
O O6 0.328707 0.803189 0.154248
O O7 0.907041 0.899092 0.995765
O O8 0.772184 0.943693 0.432602
O O9 0.872004 0.000000 0.005511
O O10 0.733255 0.938736 0.972149
O O11 0.870745 0.500000 0.215694
#
# Coordination Sequence:
#
# PCOD9194669 Si02
#       6
#     4   8   8   4   8   8
#     4  10  20  34  57  82 101 132 176 222 262 296
#     4   9  16  31  54  76 102 145 174 202 254 307
#     4  10  22  37  54  78 106 137 169 212 268 316
#     4  12  21  36  60  78 100 130 179 224 256 316
#     4  10  20  35  54  78 109 140 172 210 259 312
#     4   9  18  33  54  76 105 140 177 209 250 302
#
# _framework density 23.154878
#
# number of rings (size 3 to 8) (size 9 to 14) (size 15 to 20)
#    0.000    2.400    0.000    5.100    0.000    0.000 
#    0.000    8.000    0.000   55.200    0.000    0.000 
#    0.000    0.000    0.000    0.000    0.000    0.000 
#
# Total GULP energy -111633.312523 kJ/mol
# GULP energy per Si atom -5581.665626 kJ/mol
# Density = 2.310218 g / cm^3
# Si number density = 23.154878 Si / 1000 Ang^3
#
#
#
# Elastic Constant Matrix: (Units=GPa)
#
#
# Indices 1 2 3 4 5 6 
#
# 1 44.1827 44.8743 18.5697 0.0000 9.9255 0.0000
# 2 44.8743 157.0614 36.0205 0.0000 14.1403 0.0000
# 3 18.5697 36.0205 121.6080 0.0000 49.4431 0.0000
# 4 0.0000 0.0000 0.0000 -0.8125 0.0000 -4.6884
# 5 9.9255 14.1403 49.4431 0.0000 31.4716 0.0000
# 6 0.0000 0.0000 0.0000 -4.6884 0.0000 -1.1627
#
#
#
# Elastic Compliance Matrix: (Units=1/GPa)
#
#
# Indices 1 2 3 4 5 6 
#
# 1 0.033110 -0.008931 0.000563 0.000000 -0.007315 0.000000
# 2 -0.008931 0.009241 -0.002299 0.000000 0.002276 0.000000
# 3 0.000563 -0.002299 0.023447 0.000000 -0.035981 0.000000
# 4 0.000000 0.000000 0.000000 0.055272 0.000000 -0.222872
# 5 -0.007315 0.002276 -0.035981 0.000000 0.089587 0.000000
# 6 0.000000 0.000000 0.000000 -0.222872 0.000000 0.038624
#
#
# Mechanical properties :
#
#
# Convention : Reuss Voigt Hill
#
# Bulk Modulus (GPa) = 22.48921 57.97568 40.23245
# Shear Modulus (GPa) = 17.51709 20.79177 19.15443
#
# Velocity S-wave (km/s) = 2.75347 2.99982 2.87928
# Velocity P-wave (km/s) = 4.45448 6.09025 5.33543
#
# Compressibility (1/GPa) = 0.04446576
#
# Stress axis : x y z
#
# Youngs Moduli (GPa) = 30.20217 108.21558 42.64892
#
# Poissons Ratio (x) = 0.96643 -0.02402
# Poissons Ratio (y) = 0.26972 0.09805
# Poissons Ratio (z) = -0.01701 0.24878
#
# Static dielectric constant tensor:
#      x y z
#    x 1.883570 0.000000 -0.083400 
#    y 0.000000 1.899920 0.000000 
#    z -0.083400 0.000000 2.064810 
# 
# From -- ./inp_files/11537.got.cif
#   From: 2010.05.17/outbox.cif.g08.bks.cpg/sg12_6_cif.got.tgz:11537.got - 2010.06.03 13:09:07.
