data_PCOD9194715
_publ_section_title
;
Structure prediction by ZEFSAII (Michael W. Deem and Ramdas Pophale) SiO2 
 PCOD9194715
Probable space group: C 2/M
;
_chemical_formula_sum "Si O2"
_cell_formula_units_Z 64
_cell_length_a 14.612744
_cell_length_b 25.635977
_cell_length_c 13.228992
_cell_angle_alpha 90.000000
_cell_angle_beta 138.109068
_cell_angle_gamma 90.000000
_cell_volume 3309.019843
_symmetry_space_group_name_H-M "C 2/M"
_symmetry_group_IT_number 12
_symmetry_cell_setting 'monoclinic'
loop_
_space_group_symop_operation_xyz
x,y,z
-x,y,-z
-x,-y,-z
x,-y,z
1/2+x,1/2+y,z
1/2-x,1/2+y,-z
1/2-x,1/2-y,-z
1/2+x,1/2-y,z
loop_
_atom_site_type_symbol
_atom_site_label
_atom_site_fract_x
_atom_site_fract_y
_atom_site_fract_z
Si Si1 0.428541 0.560647 0.837617
Si Si2 0.855897 0.366880 0.122714
Si Si3 0.626020 0.060628 0.670499
Si Si4 0.093443 0.768493 0.226928
Si Si5 0.662484 0.850406 0.304026
Si Si6 0.201530 0.151197 0.796897
Si Si7 0.286554 0.729673 0.886600
Si Si8 0.419101 0.366023 0.641253
O O1 0.470448 0.500000 0.859568
O O2 0.266063 0.562791 0.722711
O O3 0.457043 0.594391 0.762341
O O4 0.500000 0.580407 0.000000
O O5 0.848545 0.408841 0.205351
O O6 0.804951 0.312430 0.130903
O O7 0.010189 0.366232 0.208552
O O8 0.761468 0.374689 0.947377
O O9 0.500000 0.081941 0.500000
O O10 0.595864 0.000000 0.668302
O O11 0.156954 0.712761 0.307526
O O12 0.177481 0.788298 0.197842
O O13 0.094774 0.809960 0.316494
O O14 0.935015 0.762569 0.061421
O O15 0.709182 0.862095 0.227880
O O16 0.774791 0.875851 0.469227
O O17 0.216769 0.213780 0.823715
O O18 0.042269 0.136792 0.662399
#
# Coordination Sequence:
#
# PCOD9194715 Si02
#       8
#     8   8   8   8   8   8   8   8
#     4  10  22  40  62  91 118 142 183 239 295 352
#     4  12  20  36  62  83 107 154 201 227 278 349
#     4  10  22  40  61  89 121 145 176 236 306 355
#     4  10  20  35  55  84 118 147 188 236 283 341
#     4  11  24  37  52  83 119 152 194 239 276 325
#     4  11  22  38  56  78 115 158 196 233 272 328
#     4  10  20  34  57  85 113 149 191 235 282 337
#     4  12  22  36  60  83 113 153 191 233 291 341
#
# _framework density 19.341073999999999
#
# number of rings (size 3 to 8) (size 9 to 14) (size 15 to 20)
#    0.000    1.250    2.500    4.500    1.750    0.000 
#    0.000    2.500    0.000    4.500    0.000    0.000 
#    0.000    0.000    0.000    0.000    0.000    0.000 
#
# Total GULP energy -178824.469437 kJ/mol
# GULP energy per Si atom -5588.264670 kJ/mol
# Density = 1.929705 g / cm^3
# Si number density = 19.341074 Si / 1000 Ang^3
#
#
#
# Elastic Constant Matrix: (Units=GPa)
#
#
# Indices 1 2 3 4 5 6 
#
# 1 120.1466 24.9102 24.6116 0.0000 3.0662 0.0000
# 2 24.9102 37.5658 17.1977 0.0000 -11.4532 0.0000
# 3 24.6116 17.1977 74.9072 0.0000 13.2377 0.0000
# 4 0.0000 0.0000 0.0000 -3.2537 0.0000 12.7983
# 5 3.0662 -11.4532 13.2377 0.0000 30.9619 0.0000
# 6 0.0000 0.0000 0.0000 12.7983 0.0000 2.7467
#
#
#
# Elastic Compliance Matrix: (Units=1/GPa)
#
#
# Indices 1 2 3 4 5 6 
#
# 1 0.010119 -0.007166 -0.001119 0.000000 -0.003175 0.000000
# 2 -0.007166 0.043127 -0.011349 0.000000 0.021515 0.000000
# 3 -0.001119 -0.011349 0.018438 0.000000 -0.011971 0.000000
# 4 0.000000 0.000000 0.000000 -0.015901 0.000000 0.074093
# 5 -0.003175 0.021515 -0.011971 0.000000 0.045689 0.000000
# 6 0.000000 0.000000 0.000000 0.074093 0.000000 0.018836
#
#
# Mechanical properties :
#
#
# Convention : Reuss Voigt Hill
#
# Bulk Modulus (GPa) = 30.84758 40.67316 35.76037
# Shear Modulus (GPa) = 29.34602 17.15100 23.24851
#
# Velocity S-wave (km/s) = 3.89947 2.98109 3.47079
# Velocity P-wave (km/s) = 6.02149 5.73797 5.88144
#
# Compressibility (1/GPa) = 0.03241745
#
# Stress axis : x y z
#
# Youngs Moduli (GPa) = 98.82392 23.18735 54.23444
#
# Poissons Ratio (x) = 0.16616 0.06066
# Poissons Ratio (y) = 0.70815 0.61551
# Poissons Ratio (z) = 0.11054 0.26316
#
# Static dielectric constant tensor:
#      x y z
#    x 1.674470 0.000000 0.005790 
#    y 0.000000 1.664870 0.000000 
#    z 0.005790 0.000000 1.691100 
# 
# From -- ./inp_files/149794.got.cif
#   From: 2010.05.17/outbox.cif.g08.bks.cpg/sg12_75_cif.got.tgz:149794.got - 2010.06.03 13:09:07.
