data_PCOD9194314
_publ_section_title
;
Structure prediction by ZEFSAII (Michael W. Deem and Ramdas Pophale) SiO2 
 PCOD9194314
Probable space group: C 2/M
;
_chemical_formula_sum "Si O2"
_cell_formula_units_Z 64
_cell_length_a 18.623244
_cell_length_b 14.496444
_cell_length_c 14.657387
_cell_angle_alpha 90.000000
_cell_angle_beta 60.923098
_cell_angle_gamma 90.000000
_cell_volume 3458.350502
_symmetry_space_group_name_H-M "C 2/M"
_symmetry_group_IT_number 12
_symmetry_cell_setting 'monoclinic'
loop_
_space_group_symop_operation_xyz
x,y,z
-x,y,-z
-x,-y,-z
x,-y,z
1/2+x,1/2+y,z
1/2-x,1/2+y,-z
1/2-x,1/2-y,-z
1/2+x,1/2-y,z
loop_
_atom_site_type_symbol
_atom_site_label
_atom_site_fract_x
_atom_site_fract_y
_atom_site_fract_z
Si Si1 0.793393 0.607200 0.136380
Si Si2 0.004640 0.605107 0.194624
Si Si3 0.077450 0.747545 0.005508
Si Si4 0.349442 0.893765 0.754585
Si Si5 0.709730 0.608767 0.990172
Si Si6 0.313804 0.393333 0.615474
Si Si7 0.655442 0.891379 0.594546
Si Si8 0.903741 0.287313 0.547899
O O1 0.823133 0.500000 0.119828
O O2 0.731383 0.617763 0.258856
O O3 0.865582 0.682237 0.093092
O O4 0.747641 0.621552 0.067530
O O5 0.010763 0.500000 0.155140
O O6 0.039504 0.677676 0.102500
O O7 0.063868 0.610143 0.246161
O O8 0.912540 0.622857 0.284668
O O9 0.133886 0.824617 0.017220
O O10 0.000000 0.788816 0.000000
O O11 0.279845 0.869551 0.871651
O O12 0.354651 0.830391 0.663478
O O13 0.335669 0.000000 0.735187
O O14 0.689216 0.500000 0.994113
O O15 0.338558 0.500000 0.591946
O O16 0.244461 0.373092 0.582020
O O17 0.386602 0.321372 0.559860
O O18 0.630976 0.831272 0.523128
O O19 0.650766 0.000000 0.572901
O O20 0.000000 0.308565 0.500000
#
# Coordination Sequence:
#
# PCOD9194314 Si02
#       8
#     8   8   8   8   8   8   8   8
#     4  10  20  37  60  84 109 146 190 230 279 334
#     4  10  20  34  55  85 117 142 177 232 287 329
#     4  12  23  33  55  87 119 150 183 226 279 336
#     4  10  20  36  57  85 113 141 183 236 282 326
#     4  10  22  39  59  80 112 155 193 228 266 324
#     4  10  23  40  57  80 115 154 188 227 277 332
#     4  10  21  39  59  83 116 146 181 234 289 339
#     4  12  23  35  60  87 110 147 190 235 279 333
#
# _framework density 18.505932000000001
#
# number of rings (size 3 to 8) (size 9 to 14) (size 15 to 20)
#    0.000    1.500    2.500    3.000    1.750    3.000 
#    0.000    0.000    0.000    0.750    0.000    0.000 
#    0.000    0.000    0.000    0.000    0.000    0.000 
#
# Total GULP energy -178813.255213 kJ/mol
# GULP energy per Si atom -5587.914225 kJ/mol
# Density = 1.846381 g / cm^3
# Si number density = 18.505932 Si / 1000 Ang^3
#
#
#
# Elastic Constant Matrix: (Units=GPa)
#
#
# Indices 1 2 3 4 5 6 
#
# 1 56.7393 30.9588 19.0397 0.0000 6.3942 0.0000
# 2 30.9588 59.7035 29.7406 0.0000 9.8291 0.0000
# 3 19.0397 29.7406 56.5083 0.0000 20.7435 0.0000
# 4 0.0000 0.0000 0.0000 5.7830 0.0000 3.5146
# 5 6.3942 9.8291 20.7435 0.0000 15.1701 0.0000
# 6 0.0000 0.0000 0.0000 3.5146 0.0000 24.6531
#
#
#
# Elastic Compliance Matrix: (Units=1/GPa)
#
#
# Indices 1 2 3 4 5 6 
#
# 1 0.024770 -0.011767 -0.002247 0.000000 0.000256 0.000000
# 2 -0.011767 0.028372 -0.012128 0.000000 0.003160 0.000000
# 3 -0.002247 -0.012128 0.043378 0.000000 -0.050509 0.000000
# 4 0.000000 0.000000 0.000000 0.189324 0.000000 -0.026990
# 5 0.000256 0.003160 -0.050509 0.000000 0.132830 0.000000
# 6 0.000000 0.000000 0.000000 -0.026990 0.000000 0.044411
#
#
# Mechanical properties :
#
#
# Convention : Reuss Voigt Hill
#
# Bulk Modulus (GPa) = 22.60559 36.93658 29.77108
# Shear Modulus (GPa) = 9.43194 15.33538 12.38366
#
# Velocity S-wave (km/s) = 2.26004 2.88179 2.58964
# Velocity P-wave (km/s) = 4.36488 5.57455 5.00639
#
# Compressibility (1/GPa) = 0.04423686
#
# Stress axis : x y z
#
# Youngs Moduli (GPa) = 40.37110 35.24563 23.05333
#
# Poissons Ratio (x) = 0.41475 0.05179
# Poissons Ratio (y) = 0.47506 0.27958
# Poissons Ratio (z) = 0.09070 0.42745
#
# Static dielectric constant tensor:
#      x y z
#    x 1.631400 0.000000 0.008060 
#    y 0.000000 1.636010 0.000000 
#    z 0.008060 0.000000 1.621090 
# 
# From -- ./inp_files/225236.got.cif
#   From: 2010.05.17/outbox.cif.g08.bks.cpg/sg12_113_cif.got.tgz:225236.got - 2010.06.03 13:09:07.
