data_PCOD9194430
_publ_section_title
;
Structure prediction by ZEFSAII (Michael W. Deem and Ramdas Pophale) SiO2 
 PCOD9194430
Probable space group: C 2/M
;
_chemical_formula_sum "Si O2"
_cell_formula_units_Z 56
_cell_length_a 9.771448
_cell_length_b 19.250661
_cell_length_c 18.934314
_cell_angle_alpha 90.000000
_cell_angle_beta 123.392566
_cell_angle_gamma 90.000000
_cell_volume 2973.710158
_symmetry_space_group_name_H-M "C 2/M"
_symmetry_group_IT_number 12
_symmetry_cell_setting 'monoclinic'
loop_
_space_group_symop_operation_xyz
x,y,z
-x,y,-z
-x,-y,-z
x,-y,z
1/2+x,1/2+y,z
1/2-x,1/2+y,-z
1/2-x,1/2-y,-z
1/2+x,1/2-y,z
loop_
_atom_site_type_symbol
_atom_site_label
_atom_site_fract_x
_atom_site_fract_y
_atom_site_fract_z
Si Si1 0.051832 0.707542 0.595007
Si Si2 0.735750 0.920976 0.706143
Si Si3 0.389300 0.219789 0.690010
Si Si4 0.931056 0.216630 0.054049
Si Si5 0.958356 0.580342 0.211602
Si Si6 0.427302 0.648198 0.197658
Si Si7 0.556445 0.867147 0.096775
O O1 0.118115 0.630423 0.630201
O O2 0.208620 0.755223 0.657740
O O3 0.000000 0.716424 0.500000
O O4 0.911104 0.721644 0.611842
O O5 0.695674 0.911272 0.778718
O O6 0.921556 0.901105 0.741447
O O7 0.701107 0.000000 0.678973
O O8 0.424614 0.142603 0.728188
O O9 0.522325 0.275602 0.757450
O O10 0.928842 0.160748 0.114224
O O11 0.042529 0.283801 0.102349
O O12 0.750000 0.250000 0.000000
O O13 0.000000 0.189111 0.000000
O O14 0.013230 0.500000 0.235322
O O15 0.944681 0.596270 0.124229
O O16 0.248508 0.618763 0.164715
O O17 0.500000 0.882030 0.000000
#
# Coordination Sequence:
#
# PCOD9194430 Si02
#       7
#     8   8   8   8   8   8   8
#     4  10  20  35  59  86 112 137 167 221 271 320
#     4   9  22  39  57  81 107 145 184 217 268 328
#     4  10  20  34  56  82 109 136 182 215 266 325
#     4  11  21  32  51  82 112 138 182 235 281 318
#     4  10  21  37  55  74 108 148 184 225 267 321
#     4  11  21  34  58  79 108 144 181 233 270 314
#     4  11  22  34  52  82 108 143 185 230 283 313
#
# _framework density 18.831693999999999
#
# number of rings (size 3 to 8) (size 9 to 14) (size 15 to 20)
#    0.000    1.714    4.286    1.286    6.000    1.143 
#    0.000    0.000    0.000    2.571    0.000    0.000 
#    0.000    0.000    0.000    0.000    0.000    0.000 
#
# Total GULP energy -156110.293025 kJ/mol
# GULP energy per Si atom -5575.367608 kJ/mol
# Density = 1.878883 g / cm^3
# Si number density = 18.831694 Si / 1000 Ang^3
#
#
#
# Elastic Constant Matrix: (Units=GPa)
#
#
# Indices 1 2 3 4 5 6 
#
# 1 64.6356 6.0930 13.8689 0.0000 -5.6493 0.0000
# 2 6.0930 71.7460 1.6302 0.0000 1.2683 0.0000
# 3 13.8689 1.6302 48.4897 0.0000 -11.1272 0.0000
# 4 0.0000 0.0000 0.0000 5.2844 0.0000 -7.0393
# 5 -5.6493 1.2683 -11.1272 0.0000 33.3200 0.0000
# 6 0.0000 0.0000 0.0000 -7.0393 0.0000 16.1281
#
#
#
# Elastic Compliance Matrix: (Units=1/GPa)
#
#
# Indices 1 2 3 4 5 6 
#
# 1 0.016664 -0.001340 -0.004398 0.000000 0.001408 0.000000
# 2 -0.001340 0.014074 -0.000287 0.000000 -0.000859 0.000000
# 3 -0.004398 -0.000287 0.023525 0.000000 0.007121 0.000000
# 4 0.000000 0.000000 0.000000 0.452067 0.000000 0.197310
# 5 0.001408 -0.000859 0.007121 0.000000 0.032662 0.000000
# 6 0.000000 0.000000 0.000000 0.197310 0.000000 0.148122
#
#
# Mechanical properties :
#
#
# Convention : Reuss Voigt Hill
#
# Bulk Modulus (GPa) = 23.68990 25.33952 24.51471
# Shear Modulus (GPa) = 7.01032 21.83178 14.42105
#
# Velocity S-wave (km/s) = 1.93150 3.40856 2.77029
# Velocity P-wave (km/s) = 4.19301 5.38294 4.82480
#
# Compressibility (1/GPa) = 0.04221209
#
# Stress axis : x y z
#
# Youngs Moduli (GPa) = 60.00802 71.05515 42.50849
#
# Poissons Ratio (x) = 0.09523 0.18696
# Poissons Ratio (y) = 0.08042 0.01220
# Poissons Ratio (z) = 0.26393 0.02039
#
# Static dielectric constant tensor:
#      x y z
#    x 1.692140 0.000000 -0.020130 
#    y 0.000000 1.644690 0.000000 
#    z -0.020130 0.000000 1.676580 
# 
# From -- ./inp_files/300911.got.cif
#   From: 2010.05.17/outbox.cif.g08.bks.cpg/sg12_151_cif.got.tgz:300911.got - 2010.06.03 13:09:07.
