data_PCOD9194646
_publ_section_title
;
Structure prediction by ZEFSAII (Michael W. Deem and Ramdas Pophale) SiO2 
 PCOD9194646
Probable space group: C 2/M
;
_chemical_formula_sum "Si O2"
_cell_formula_units_Z 48
_cell_length_a 15.511808
_cell_length_b 17.813541
_cell_length_c 10.181871
_cell_angle_alpha 90.000000
_cell_angle_beta 74.389729
_cell_angle_gamma 90.000000
_cell_volume 2709.680710
_symmetry_space_group_name_H-M "C 2/M"
_symmetry_group_IT_number 12
_symmetry_cell_setting 'monoclinic'
loop_
_space_group_symop_operation_xyz
x,y,z
-x,y,-z
-x,-y,-z
x,-y,z
1/2+x,1/2+y,z
1/2-x,1/2+y,-z
1/2-x,1/2-y,-z
1/2+x,1/2-y,z
loop_
_atom_site_type_symbol
_atom_site_label
_atom_site_fract_x
_atom_site_fract_y
_atom_site_fract_z
Si Si1 0.239324 0.162261 0.542740
Si Si2 0.930516 0.410872 0.412736
Si Si3 0.901014 0.910916 0.600008
Si Si4 0.465273 0.810753 0.152276
Si Si5 0.625165 0.302237 0.146562
Si Si6 0.202157 0.209515 0.838381
O O1 0.250000 0.250000 0.500000
O O2 0.334425 0.122675 0.488056
O O3 0.169132 0.124174 0.473748
O O4 0.208565 0.158753 0.706839
O O5 0.924836 0.500000 0.399057
O O6 0.962715 0.371071 0.267271
O O7 0.000000 0.393527 0.500000
O O8 0.889578 0.867756 0.742589
O O9 0.000000 0.898777 0.500000
O O10 0.886542 0.000000 0.620570
O O11 0.533429 0.743637 0.162330
O O12 0.367238 0.775986 0.169173
O O13 0.500000 0.842349 0.000000
O O14 0.701041 0.245356 0.170758
O O15 0.662842 0.326420 0.988013
#
# Coordination Sequence:
#
# PCOD9194646 Si02
#       6
#     8   8   8   8   8   8
#     4  12  21  36  63  87 112 155 194 239 283 333
#     4  11  24  38  55  85 121 152 186 234 288 343
#     4  11  24  39  58  87 120 153 190 238 293 346
#     4  10  20  35  58  84 111 147 191 236 278 335
#     4  10  20  36  58  83 116 145 192 240 276 344
#     4  10  20  34  56  90 109 142 198 235 280 327
#
# _framework density 17.714262999999999
#
# number of rings (size 3 to 8) (size 9 to 14) (size 15 to 20)
#    0.000    1.333    3.333    2.500    0.000    0.333 
#    0.000    1.667    0.000   14.500    0.000    0.000 
#    0.000    0.000    0.000    0.000    0.000    0.000 
#
# Total GULP energy -134066.682817 kJ/mol
# GULP energy per Si atom -5586.111784 kJ/mol
# Density = 1.767394 g / cm^3
# Si number density = 17.714263 Si / 1000 Ang^3
#
#
#
# Elastic Constant Matrix: (Units=GPa)
#
#
# Indices 1 2 3 4 5 6 
#
# 1 82.9814 33.9973 35.4560 0.0000 9.5287 0.0000
# 2 33.9973 64.7317 76.2008 0.0000 3.7426 0.0000
# 3 35.4560 76.2008 191.0496 0.0000 0.3501 0.0000
# 4 0.0000 0.0000 0.0000 21.9344 0.0000 8.9728
# 5 9.5287 3.7426 0.3501 0.0000 24.4124 0.0000
# 6 0.0000 0.0000 0.0000 8.9728 0.0000 24.7136
#
#
#
# Elastic Compliance Matrix: (Units=1/GPa)
#
#
# Indices 1 2 3 4 5 6 
#
# 1 0.015961 -0.008715 0.000523 0.000000 -0.004901 0.000000
# 2 -0.008715 0.034338 -0.012075 0.000000 -0.001690 0.000000
# 3 0.000523 -0.012075 0.009951 0.000000 0.001504 0.000000
# 4 0.000000 0.000000 0.000000 0.053543 0.000000 -0.019440
# 5 -0.004901 -0.001690 0.001504 0.000000 0.043113 0.000000
# 6 0.000000 0.000000 0.000000 -0.019440 0.000000 0.047522
#
#
# Mechanical properties :
#
#
# Convention : Reuss Voigt Hill
#
# Bulk Modulus (GPa) = 50.72308 70.00787 60.36548
# Shear Modulus (GPa) = 19.87811 27.08599 23.48205
#
# Velocity S-wave (km/s) = 3.35349 3.91455 3.64483
# Velocity P-wave (km/s) = 6.60990 7.74842 7.20169
#
# Compressibility (1/GPa) = 0.01971489
#
# Stress axis : x y z
#
# Youngs Moduli (GPa) = 62.65388 29.12237 100.49472
#
# Poissons Ratio (x) = 0.25379 -0.05253
# Poissons Ratio (y) = 0.54600 1.21351
# Poissons Ratio (z) = -0.03275 0.35166
#
# Static dielectric constant tensor:
#      x y z
#    x 1.594590 0.000000 -0.004910 
#    y 0.000000 1.558930 0.000000 
#    z -0.004910 0.000000 1.608140 
# 
# From -- ./inp_files/61755.got.cif
#   From: 2010.05.17/outbox.cif.g08.bks.cpg/sg12_31_cif.got.tgz:61755.got - 2010.06.03 13:09:07.
