data_PCOD9194773
_publ_section_title
;
Structure prediction by ZEFSAII (Michael W. Deem and Ramdas Pophale) SiO2 
 PCOD9194773
Probable space group: C 2/M
;
_chemical_formula_sum "Si O2"
_cell_formula_units_Z 56
_cell_length_a 9.255385
_cell_length_b 15.520084
_cell_length_c 22.695873
_cell_angle_alpha 90.000000
_cell_angle_beta 59.430865
_cell_angle_gamma 90.000000
_cell_volume 2807.027916
_symmetry_space_group_name_H-M "C 2/M"
_symmetry_group_IT_number 12
_symmetry_cell_setting 'monoclinic'
loop_
_space_group_symop_operation_xyz
x,y,z
-x,y,-z
-x,-y,-z
x,-y,z
1/2+x,1/2+y,z
1/2-x,1/2+y,-z
1/2-x,1/2-y,-z
1/2+x,1/2-y,z
loop_
_atom_site_type_symbol
_atom_site_label
_atom_site_fract_x
_atom_site_fract_y
_atom_site_fract_z
Si Si1 0.651740 0.649771 0.433283
Si Si2 0.984243 0.094673 0.842676
Si Si3 0.993157 0.662895 0.436404
Si Si4 0.555952 0.260073 0.052267
Si Si5 0.359179 0.843791 0.280159
Si Si6 0.803323 0.342165 0.714621
Si Si7 0.131257 0.403084 0.853891
O O1 0.500000 0.604110 0.500000
O O2 0.807948 0.664421 0.445806
O O3 0.566012 0.740191 0.430742
O O4 0.736907 0.614857 0.355513
O O5 0.156972 0.100713 0.771509
O O6 0.982841 0.169677 0.890570
O O7 0.824968 0.107285 0.833083
O O8 0.967144 0.000000 0.873596
O O9 0.000000 0.622767 0.500000
O O10 0.116961 0.622829 0.362441
O O11 0.472593 0.170744 0.091098
O O12 0.500000 0.289600 0.000000
O O13 0.750000 0.250000 0.000000
O O14 0.280945 0.750712 0.280359
O O15 0.540294 0.832420 0.273275
O O16 0.379065 0.892127 0.214369
O O17 0.077211 0.500000 0.881503
#
# Coordination Sequence:
#
# PCOD9194773 Si02
#       7
#     8   8   8   8   8   8   8
#     4   9  16  26  44  76 115 155 205 256 304 360
#     4  11  25  44  66  96 129 164 209 256 308 370
#     4   9  16  26  44  76 115 156 204 255 306 359
#     4  12  26  46  71  97 127 160 202 251 308 371
#     4  10  20  34  57  87 122 166 210 257 312 366
#     4  10  20  34  57  87 123 165 210 258 310 368
#     4  11  25  44  67  95 128 167 209 253 309 372
#
# _framework density 19.949928
#
# number of rings (size 3 to 8) (size 9 to 14) (size 15 to 20)
#    0.000    1.714    2.857    2.571    2.000    5.143 
#    0.000    0.000    0.000    0.857    0.000    0.000 
#    0.000    0.000    0.000    0.000    0.000    0.000 
#
# Total GULP energy -156177.777234 kJ/mol
# GULP energy per Si atom -5577.777758 kJ/mol
# Density = 1.990452 g / cm^3
# Si number density = 19.949928 Si / 1000 Ang^3
#
#
#
# Elastic Constant Matrix: (Units=GPa)
#
#
# Indices 1 2 3 4 5 6 
#
# 1 125.2961 33.9694 55.2808 0.0000 -5.1709 0.0000
# 2 33.9694 81.5640 41.0196 0.0000 -1.5472 0.0000
# 3 55.2808 41.0196 122.9167 0.0000 -6.6526 0.0000
# 4 0.0000 0.0000 0.0000 -35.3056 0.0000 15.3107
# 5 -5.1709 -1.5472 -6.6526 0.0000 44.8263 0.0000
# 6 0.0000 0.0000 0.0000 15.3107 0.0000 -0.6993
#
#
#
# Elastic Compliance Matrix: (Units=1/GPa)
#
#
# Indices 1 2 3 4 5 6 
#
# 1 0.010335 -0.002369 -0.003828 0.000000 0.000542 0.000000
# 2 -0.002369 0.015278 -0.004052 0.000000 -0.000347 0.000000
# 3 -0.003828 -0.004052 0.011269 0.000000 0.001091 0.000000
# 4 0.000000 0.000000 0.000000 0.003334 0.000000 0.073002
# 5 0.000542 -0.000347 0.001091 0.000000 0.022521 0.000000
# 6 0.000000 0.000000 0.000000 0.073002 0.000000 0.168338
#
#
# Mechanical properties :
#
#
# Convention : Reuss Voigt Hill
#
# Bulk Modulus (GPa) = 61.03678 65.59070 63.31374
# Shear Modulus (GPa) = 19.45275 15.06477 17.25876
#
# Velocity S-wave (km/s) = 3.12601 2.75094 2.94446
# Velocity P-wave (km/s) = 6.60989 6.56043 6.58521
#
# Compressibility (1/GPa) = 0.01638356
#
# Stress axis : x y z
#
# Youngs Moduli (GPa) = 96.76239 65.45344 88.74259
#
# Poissons Ratio (x) = 0.15503 0.33972
# Poissons Ratio (y) = 0.22919 0.35959
# Poissons Ratio (z) = 0.37042 0.26522
#
# Static dielectric constant tensor:
#      x y z
#    x 1.659530 0.000000 0.006560 
#    y 0.000000 1.715040 0.000000 
#    z 0.006560 0.000000 1.697560 
# 
# From -- ./inp_files/332824.got.cif
#   From: 2010.05.17/outbox.cif.g08.bks.cpg/sg12_167_cif.got.tgz:332824.got - 2010.06.03 13:09:07.
