data_PCOD9194250
_publ_section_title
;
Structure prediction by ZEFSAII (Michael W. Deem and Ramdas Pophale) SiO2 
 PCOD9194250
Probable space group: C 2/M
;
_chemical_formula_sum "Si O2"
_cell_formula_units_Z 38
_cell_length_a 9.474900
_cell_length_b 14.451914
_cell_length_c 15.187393
_cell_angle_alpha 90.000000
_cell_angle_beta 45.945245
_cell_angle_gamma 90.000000
_cell_volume 1494.569606
_symmetry_space_group_name_H-M "C 2/M"
_symmetry_group_IT_number 12
_symmetry_cell_setting 'monoclinic'
loop_
_space_group_symop_operation_xyz
x,y,z
-x,y,-z
-x,-y,-z
x,-y,z
1/2+x,1/2+y,z
1/2-x,1/2+y,-z
1/2-x,1/2-y,-z
1/2+x,1/2-y,z
loop_
_atom_site_type_symbol
_atom_site_label
_atom_site_fract_x
_atom_site_fract_y
_atom_site_fract_z
Si Si1 0.467537 0.705246 0.910597
Si Si2 0.500000 0.000000 0.500000
Si Si3 0.590170 0.144245 0.604133
Si Si4 0.327702 0.685128 0.668838
Si Si5 0.399689 0.000000 0.808647
Si Si6 0.110731 0.000000 0.087397
Si Si7 0.731318 0.500000 0.221861
O O1 0.624741 0.771725 0.796025
O O2 0.488177 0.600975 0.862998
O O3 0.500000 0.699878 0.000000
O O4 0.250000 0.750000 0.000000
O O5 0.384640 0.919228 0.492111
O O6 0.489934 0.238742 0.619032
O O7 0.770126 0.157837 0.593758
O O8 0.431570 0.087225 0.731994
O O9 0.376411 0.592501 0.700863
O O10 0.570903 0.000000 0.806895
O O11 0.207640 0.000000 0.949439
O O12 0.258792 0.000000 0.105786
#
# Coordination Sequence:
#
# PCOD9194250 Si02
#       7
#     8   2   8   8   4   4   4
#     4  12  24  37  56  87 128 170 212 249 293 349
#     4  10  24  46  70  94 114 154 192 250 328 392
#     4  10  22  41  66  88 118 151 202 252 313 372
#     4  11  22  40  62  90 123 164 201 250 301 360
#     4   9  19  36  55  81 118 165 199 243 300 356
#     4  12  21  32  53  84 122 160 210 254 282 335
#     4  10  20  34  55  83 120 162 205 233 284 350
#
# _framework density 25.425379
#
# number of rings (size 3 to 8) (size 9 to 14) (size 15 to 20)
#    0.000    1.263    0.000    8.842    0.000    2.526 
#    0.000    2.105    0.000    1.895    0.000    0.000 
#    0.000    0.000    0.000    0.000    0.000    0.000 
#
# Total GULP energy -106201.867636 kJ/mol
# GULP energy per Si atom -5589.571981 kJ/mol
# Density = 2.536751 g / cm^3
# Si number density = 25.425379 Si / 1000 Ang^3
#
#
#
# Elastic Constant Matrix: (Units=GPa)
#
#
# Indices 1 2 3 4 5 6 
#
# 1 112.7841 28.0295 18.8300 0.0001 41.2168 -0.0002
# 2 28.0295 219.8423 39.2784 0.0000 12.8811 -0.0001
# 3 18.8300 39.2784 81.8835 -0.0002 16.8326 0.0000
# 4 0.0001 0.0000 -0.0002 37.2761 0.0001 24.1515
# 5 41.2168 12.8811 16.8326 0.0001 39.1832 0.0001
# 6 -0.0002 -0.0001 0.0000 24.1515 0.0001 27.6458
#
#
#
# Elastic Compliance Matrix: (Units=1/GPa)
#
#
# Indices 1 2 3 4 5 6 
#
# 1 0.014612 -0.001019 0.000241 0.000000 -0.015139 0.000000
# 2 -0.001019 0.005062 -0.002273 0.000000 0.000384 0.000000
# 3 0.000241 -0.002273 0.014419 0.000000 -0.005700 0.000000
# 4 0.000000 0.000000 0.000000 0.061816 0.000000 -0.054003
# 5 -0.015139 0.000384 -0.005700 0.000000 0.043768 0.000000
# 6 0.000000 0.000000 0.000000 -0.054003 0.000000 0.083349
#
#
# Mechanical properties :
#
#
# Convention : Reuss Voigt Hill
#
# Bulk Modulus (GPa) = 35.72585 65.19842 50.46214
# Shear Modulus (GPa) = 20.96798 42.71247 31.84023
#
# Velocity S-wave (km/s) = 2.87485 4.10312 3.54263
# Velocity P-wave (km/s) = 5.01014 6.93875 6.05176
#
# Compressibility (1/GPa) = 0.02799093
#
# Stress axis : x y z
#
# Youngs Moduli (GPa) = 68.43690 197.54181 69.35194
#
# Poissons Ratio (x) = 0.20129 -0.01669
# Poissons Ratio (y) = 0.06974 0.15763
# Poissons Ratio (z) = -0.01647 0.44900
#
# Static dielectric constant tensor:
#      x y z
#    x 2.040340 0.000000 -0.085400 
#    y 0.000000 1.999620 0.000000 
#    z -0.085400 0.000000 2.038220 
# 
# From -- ./inp_files/194097.got.cif
#   From: 2010.05.17/outbox.cif.g08.bks.cpg/sg12_98_cif.got.tgz:194097.got - 2010.06.03 13:09:07.
