data_PCOD9194367
_publ_section_title
;
Structure prediction by ZEFSAII (Michael W. Deem and Ramdas Pophale) SiO2 
 PCOD9194367
Probable space group: C 2/M
;
_chemical_formula_sum "Si O2"
_cell_formula_units_Z 64
_cell_length_a 9.213073
_cell_length_b 18.927907
_cell_length_c 17.709470
_cell_angle_alpha 90.000000
_cell_angle_beta 91.023957
_cell_angle_gamma 90.000000
_cell_volume 3087.758401
_symmetry_space_group_name_H-M "C 2/M"
_symmetry_group_IT_number 12
_symmetry_cell_setting 'monoclinic'
loop_
_space_group_symop_operation_xyz
x,y,z
-x,y,-z
-x,-y,-z
x,-y,z
1/2+x,1/2+y,z
1/2-x,1/2+y,-z
1/2-x,1/2-y,-z
1/2+x,1/2-y,z
loop_
_atom_site_type_symbol
_atom_site_label
_atom_site_fract_x
_atom_site_fract_y
_atom_site_fract_z
Si Si1 0.468322 0.919369 0.730225
Si Si2 0.849691 0.705431 0.226661
Si Si3 0.671412 0.324438 0.507055
Si Si4 0.193967 0.731110 0.081952
Si Si5 0.669670 0.418898 0.653357
Si Si6 0.043215 0.843069 0.251151
Si Si7 0.112426 0.582943 0.566993
Si Si8 0.457194 0.657392 0.083875
O O1 0.538602 0.858839 0.781167
O O2 0.297365 0.910400 0.716106
O O3 0.538467 0.908436 0.647603
O O4 0.498776 0.000000 0.754184
O O5 0.771291 0.726054 0.148875
O O6 0.707604 0.679736 0.271016
O O7 0.939367 0.773227 0.256714
O O8 0.500000 0.315263 0.500000
O O9 0.750000 0.250000 0.500000
O O10 0.698746 0.365017 0.585986
O O11 0.741365 0.374262 0.444279
O O12 0.281498 0.657133 0.091719
O O13 0.031550 0.762503 0.083989
O O14 0.250000 0.750000 0.000000
O O15 0.675934 0.500000 0.626222
O O16 0.519945 0.400173 0.692386
O O17 0.022939 0.870541 0.163821
O O18 0.139559 0.500000 0.556299
O O19 0.000000 0.605773 0.500000
O O20 0.500000 0.629421 0.000000
#
# Coordination Sequence:
#
# PCOD9194367 Si02
#       8
#     8   8   8   8   8   8   8   8
#     4  10  22  39  62  84 115 160 202 251 308 369
#     4  10  20  34  55  87 121 157 197 246 302 357
#     4  12  28  43  64  91 119 155 199 254 308 360
#     4   8  14  26  46  75 112 149 186 231 284 345
#     4  11  25  44  63  86 118 158 203 252 307 368
#     4  10  21  34  56  85 121 154 192 249 298 354
#     4  10  20  41  66  86 114 156 205 249 300 365
#     4   8  14  27  47  75 111 147 186 228 280 344
#
# _framework density 20.727011000000001
#
# number of rings (size 3 to 8) (size 9 to 14) (size 15 to 20)
#    0.000    2.125    1.250    1.500    3.500    2.500 
#    0.000    0.000    0.000    0.375    0.000    8.750 
#    0.000   77.000    0.000    0.000    0.000    0.000 
#
# Total GULP energy -178225.630195 kJ/mol
# GULP energy per Si atom -5569.550944 kJ/mol
# Density = 2.067983 g / cm^3
# Si number density = 20.727011 Si / 1000 Ang^3
#
#
#
# Elastic Constant Matrix: (Units=GPa)
#
#
# Indices 1 2 3 4 5 6 
#
# 1 105.0601 22.9161 -8.1351 0.0000 -4.6399 0.0000
# 2 22.9161 56.6104 11.7885 0.0000 7.2600 0.0000
# 3 -8.1351 11.7885 44.6777 0.0000 -4.7328 0.0000
# 4 0.0000 0.0000 0.0000 8.0141 0.0000 1.2852
# 5 -4.6399 7.2600 -4.7328 0.0000 32.6086 0.0000
# 6 0.0000 0.0000 0.0000 1.2852 0.0000 18.6810
#
#
#
# Elastic Compliance Matrix: (Units=1/GPa)
#
#
# Indices 1 2 3 4 5 6 
#
# 1 0.011247 -0.005821 0.003951 0.000000 0.003470 0.000000
# 2 -0.005821 0.022526 -0.007742 0.000000 -0.006967 0.000000
# 3 0.003951 -0.007742 0.025783 0.000000 0.006028 0.000000
# 4 0.000000 0.000000 0.000000 0.126171 0.000000 -0.008680
# 5 0.003470 -0.006967 0.006028 0.000000 0.033586 0.000000
# 6 0.000000 0.000000 0.000000 -0.008680 0.000000 0.054127
#
#
# Mechanical properties :
#
#
# Convention : Reuss Voigt Hill
#
# Bulk Modulus (GPa) = 24.79245 28.83190 26.81218
# Shear Modulus (GPa) = 16.33404 23.84602 20.09003
#
# Velocity S-wave (km/s) = 2.81028 3.39555 3.11668
# Velocity P-wave (km/s) = 4.74527 5.41420 5.09073
#
# Compressibility (1/GPa) = 0.04033486
#
# Stress axis : x y z
#
# Youngs Moduli (GPa) = 88.91106 44.39225 38.78485
#
# Poissons Ratio (x) = 0.25839 -0.15325
# Poissons Ratio (y) = 0.51753 0.30026
# Poissons Ratio (z) = -0.35132 0.34367
#
# Static dielectric constant tensor:
#      x y z
#    x 1.841680 0.000000 -0.006990 
#    y 0.000000 1.729640 0.000000 
#    z -0.006990 0.000000 1.790280 
# 
# From -- ./inp_files/300809.got.cif
#   From: 2010.05.17/outbox.cif.g08.bks.cpg/sg12_151_cif.got.tgz:300809.got - 2010.06.03 13:09:07.
