data_PCOD9194240
_publ_section_title
;
Structure prediction by ZEFSAII (Michael W. Deem and Ramdas Pophale) SiO2 
 PCOD9194240
Probable space group: C 2/M
;
_chemical_formula_sum "Si O2"
_cell_formula_units_Z 64
_cell_length_a 30.994550
_cell_length_b 8.926405
_cell_length_c 16.447256
_cell_angle_alpha 90.000000
_cell_angle_beta 134.435808
_cell_angle_gamma 90.000000
_cell_volume 3249.189502
_symmetry_space_group_name_H-M "C 2/M"
_symmetry_group_IT_number 12
_symmetry_cell_setting 'monoclinic'
loop_
_space_group_symop_operation_xyz
x,y,z
-x,y,-z
-x,-y,-z
x,-y,z
1/2+x,1/2+y,z
1/2-x,1/2+y,-z
1/2-x,1/2-y,-z
1/2+x,1/2-y,z
loop_
_atom_site_type_symbol
_atom_site_label
_atom_site_fract_x
_atom_site_fract_y
_atom_site_fract_z
Si Si1 0.637603 0.324992 0.083970
Si Si2 0.064946 0.824762 0.828211
Si Si3 0.567772 0.163729 0.561345
Si Si4 0.158542 0.670021 0.832320
Si Si5 0.061902 0.321170 0.311957
Si Si6 0.643677 0.673073 0.545066
Si Si7 0.435411 0.179756 0.873500
Si Si8 0.739368 0.320841 0.808504
O O1 0.653664 0.500000 0.110785
O O2 0.615158 0.260812 0.139743
O O3 0.693899 0.233862 0.122932
O O4 0.583756 0.310598 0.947377
O O5 0.121381 0.755931 0.852747
O O6 0.000556 0.743441 0.732487
O O7 0.059043 0.000000 0.799686
O O8 0.500000 0.175791 0.500000
O O9 0.609655 0.161766 0.695252
O O10 0.587532 0.299730 0.531635
O O11 0.576047 0.000000 0.530416
O O12 0.174386 0.500000 0.878605
O O13 0.213986 0.750400 0.859024
O O14 0.058591 0.500000 0.310757
O O15 0.121440 0.263013 0.437228
O O16 0.064523 0.275457 0.220722
O O17 0.652957 0.500000 0.537315
O O18 0.698669 0.726006 0.675786
O O19 0.426471 0.000000 0.866321
O O20 0.500000 0.213066 0.000000
O O21 0.734895 0.500000 0.808534
#
# Coordination Sequence:
#
# PCOD9194240 Si02
#       8
#     8   8   8   8   8   8   8   8
#     4  11  24  40  62  89 117 153 196 244 295 347
#     4  11  23  37  56  87 123 155 193 242 296 349
#     4   9  17  30  49  75 108 147 192 237 284 339
#     4  10  20  34  55  83 116 155 199 244 288 340
#     4  11  22  37  61  90 120 154 191 237 293 351
#     4  10  21  36  56  83 114 151 192 238 290 342
#     4  10  21  40  64  90 119 151 190 235 291 355
#     4  10  22  41  62  83 116 160 202 243 289 343
#
# _framework density 19.697222
#
# number of rings (size 3 to 8) (size 9 to 14) (size 15 to 20)
#    0.000    1.750    1.250    3.000    0.000    6.500 
#    0.000    0.625    0.000    0.000    0.000    0.000 
#    0.000    0.000    0.000    0.000    0.000    0.000 
#
# Total GULP energy -178613.607789 kJ/mol
# GULP energy per Si atom -5581.675243 kJ/mol
# Density = 1.965239 g / cm^3
# Si number density = 19.697222 Si / 1000 Ang^3
#
#
#
# Elastic Constant Matrix: (Units=GPa)
#
#
# Indices 1 2 3 4 5 6 
#
# 1 78.3523 25.8350 7.1670 0.0000 -10.3554 0.0000
# 2 25.8350 59.6940 19.3267 0.0000 -3.5110 0.0000
# 3 7.1670 19.3267 68.7950 0.0000 -12.3572 0.0000
# 4 0.0000 0.0000 0.0000 24.6737 0.0000 -0.9592
# 5 -10.3554 -3.5110 -12.3572 0.0000 30.4425 0.0000
# 6 0.0000 0.0000 0.0000 -0.9592 0.0000 30.9586
#
#
#
# Elastic Compliance Matrix: (Units=1/GPa)
#
#
# Indices 1 2 3 4 5 6 
#
# 1 0.015565 -0.006829 0.001194 0.000000 0.004992 0.000000
# 2 -0.006829 0.021425 -0.005696 0.000000 -0.002164 0.000000
# 3 0.001194 -0.005696 0.017222 0.000000 0.006740 0.000000
# 4 0.000000 0.000000 0.000000 0.040578 0.000000 0.001257
# 5 0.004992 -0.002164 0.006740 0.000000 0.037033 0.000000
# 6 0.000000 0.000000 0.000000 0.001257 0.000000 0.032340
#
#
# Mechanical properties :
#
#
# Convention : Reuss Voigt Hill
#
# Bulk Modulus (GPa) = 31.69710 34.61096 33.15403
# Shear Modulus (GPa) = 25.33655 27.51580 26.42617
#
# Velocity S-wave (km/s) = 3.59039 3.74162 3.66679
# Velocity P-wave (km/s) = 5.77192 6.02295 5.89877
#
# Compressibility (1/GPa) = 0.03154863
#
# Stress axis : x y z
#
# Youngs Moduli (GPa) = 64.24581 46.67520 58.06364
#
# Poissons Ratio (x) = 0.31876 -0.06931
# Poissons Ratio (y) = 0.43876 0.33074
# Poissons Ratio (z) = -0.07668 0.26587
#
# Static dielectric constant tensor:
#      x y z
#    x 1.678840 0.000000 -0.013990 
#    y 0.000000 1.702680 0.000000 
#    z -0.013990 0.000000 1.729660 
# 
# From -- ./inp_files/249154.got.cif
#   From: 2010.05.17/outbox.cif.g08.bks.cpg/sg12_125_cif.got.tgz:249154.got - 2010.06.03 13:09:07.
