data_PCOD9194138
_publ_section_title
;
Structure prediction by ZEFSAII (Michael W. Deem and Ramdas Pophale) SiO2 
 PCOD9194138
Probable space group: C 2/M
;
_chemical_formula_sum "Si O2"
_cell_formula_units_Z 48
_cell_length_a 16.999571
_cell_length_b 7.589838
_cell_length_c 15.074570
_cell_angle_alpha 90.000000
_cell_angle_beta 91.830341
_cell_angle_gamma 90.000000
_cell_volume 1943.988813
_symmetry_space_group_name_H-M "C 2/M"
_symmetry_group_IT_number 12
_symmetry_cell_setting 'monoclinic'
loop_
_space_group_symop_operation_xyz
x,y,z
-x,y,-z
-x,-y,-z
x,-y,z
1/2+x,1/2+y,z
1/2-x,1/2+y,-z
1/2-x,1/2-y,-z
1/2+x,1/2-y,z
loop_
_atom_site_type_symbol
_atom_site_label
_atom_site_fract_x
_atom_site_fract_y
_atom_site_fract_z
Si Si1 0.170094 0.716496 0.292913
Si Si2 0.838732 0.786008 0.373084
Si Si3 0.925162 0.705373 0.546751
Si Si4 0.086945 0.294348 0.119292
Si Si5 0.333466 0.209455 0.048277
Si Si6 0.570552 0.298709 0.789480
O O1 0.168999 0.500000 0.292151
O O2 0.254816 0.769886 0.331729
O O3 0.104641 0.777693 0.361255
O O4 0.146822 0.779812 0.194683
O O5 0.856056 0.718559 0.471689
O O6 0.905094 0.724167 0.305135
O O7 0.840220 0.000000 0.374775
O O8 0.943213 0.500000 0.563461
O O9 0.000000 0.788113 0.500000
O O10 0.106520 0.500000 0.110531
O O11 0.000799 0.285316 0.158834
O O12 0.102221 0.223545 0.021693
O O13 0.353120 0.292539 0.143753
O O14 0.339990 0.000000 0.062634
O O15 0.250000 0.250000 0.000000
O O16 0.547396 0.500000 0.775180
#
# Coordination Sequence:
#
# PCOD9194138 Si02
#       6
#     8   8   8   8   8   8
#     4   9  18  35  57  79 108 145 183 227 280 338
#     4  10  21  37  56  79 110 148 186 227 279 334
#     4  10  20  34  55  82 109 141 183 230 279 332
#     4  10  21  39  61  83 111 149 189 229 281 341
#     4  11  23  39  61  87 115 150 189 230 280 336
#     4  11  23  38  57  83 115 150 190 236 283 332
#
# _framework density 24.691499
#
# number of rings (size 3 to 8) (size 9 to 14) (size 15 to 20)
#    0.000    1.833    0.000    4.000    0.000    9.000 
#    0.000    1.667    0.000    0.000    0.000    0.000 
#    0.000    0.000    0.000    0.000    0.000    0.000 
#
# Total GULP energy -134264.368546 kJ/mol
# GULP energy per Si atom -5594.348689 kJ/mol
# Density = 2.463530 g / cm^3
# Si number density = 24.691499 Si / 1000 Ang^3
#
#
#
# Elastic Constant Matrix: (Units=GPa)
#
#
# Indices 1 2 3 4 5 6 
#
# 1 59.8717 -5.2643 -20.2466 0.0000 0.8014 0.0000
# 2 -5.2643 65.5790 0.0526 0.0000 -6.8047 0.0000
# 3 -20.2466 0.0526 88.7198 0.0000 -4.4936 0.0000
# 4 0.0000 0.0000 0.0000 10.4548 0.0000 12.2071
# 5 0.8014 -6.8047 -4.4936 0.0000 46.1510 0.0000
# 6 0.0000 0.0000 0.0000 12.2071 0.0000 18.0237
#
#
#
# Elastic Compliance Matrix: (Units=1/GPa)
#
#
# Indices 1 2 3 4 5 6 
#
# 1 0.018242 0.001493 0.004178 0.000000 0.000310 0.000000
# 2 0.001493 0.015609 0.000449 0.000000 0.002319 0.000000
# 3 0.004178 0.000449 0.012285 0.000000 0.001190 0.000000
# 4 0.000000 0.000000 0.000000 0.457229 0.000000 -0.309672
# 5 0.000310 0.002319 0.001190 0.000000 0.022120 0.000000
# 6 0.000000 0.000000 0.000000 -0.309672 0.000000 0.265218
#
#
# Mechanical properties :
#
#
# Convention : Reuss Voigt Hill
#
# Bulk Modulus (GPa) = 17.13024 18.13933 17.63478
# Shear Modulus (GPa) = 6.26628 30.90116 18.58372
#
# Velocity S-wave (km/s) = 1.59479 3.54148 2.74640
# Velocity P-wave (km/s) = 3.21619 4.90766 4.14903
#
# Compressibility (1/GPa) = 0.05837629
#
# Stress axis : x y z
#
# Youngs Moduli (GPa) = 54.81757 64.06588 81.40099
#
# Poissons Ratio (x) = -0.09566 -0.34008
# Poissons Ratio (y) = -0.08185 -0.03655
# Poissons Ratio (z) = -0.22902 -0.02876
#
# Static dielectric constant tensor:
#      x y z
#    x 1.992660 0.000000 -0.015040 
#    y 0.000000 1.961660 0.000000 
#    z -0.015040 0.000000 1.919650 
# 
# From -- ./inp_files/221673.got.cif
#   From: 2010.05.17/outbox.cif.g08.bks.cpg/sg12_111_cif.got.tgz:221673.got - 2010.06.03 13:09:07.
