data_PCOD9194608
_publ_section_title
;
Structure prediction by ZEFSAII (Michael W. Deem and Ramdas Pophale) SiO2 
 PCOD9194608
Probable space group: C 2/M
;
_chemical_formula_sum "Si O2"
_cell_formula_units_Z 40
_cell_length_a 9.476464
_cell_length_b 22.875715
_cell_length_c 8.721305
_cell_angle_alpha 90.000000
_cell_angle_beta 93.248171
_cell_angle_gamma 90.000000
_cell_volume 1887.574950
_symmetry_space_group_name_H-M "C 2/M"
_symmetry_group_IT_number 12
_symmetry_cell_setting 'monoclinic'
loop_
_space_group_symop_operation_xyz
x,y,z
-x,y,-z
-x,-y,-z
x,-y,z
1/2+x,1/2+y,z
1/2-x,1/2+y,-z
1/2-x,1/2-y,-z
1/2+x,1/2-y,z
loop_
_atom_site_type_symbol
_atom_site_label
_atom_site_fract_x
_atom_site_fract_y
_atom_site_fract_z
Si Si1 0.063752 0.805076 0.176156
Si Si2 0.737395 0.912264 0.337482
Si Si3 0.031545 0.935414 0.183868
Si Si4 0.523493 0.000000 0.178003
Si Si5 0.778459 0.777866 0.335387
Si Si6 0.335819 0.000000 0.424540
O O1 0.194001 0.762029 0.209825
O O2 0.107136 0.872775 0.210882
O O3 0.940007 0.785800 0.287816
O O4 0.000000 0.802460 0.000000
O O5 0.884624 0.927297 0.265289
O O6 0.718666 0.843498 0.339151
O O7 0.733532 0.943216 0.503124
O O8 0.614743 0.944103 0.234806
O O9 0.086386 0.000000 0.233376
O O10 0.000000 0.938009 0.000000
O O11 0.372906 0.000000 0.250511
O O12 0.500000 0.000000 0.000000
O O13 0.750000 0.750000 0.500000
O O14 0.500000 0.000000 0.500000
#
# Coordination Sequence:
#
# PCOD9194608 Si02
#       6
#     8   8   8   4   8   4
#     4  10  22  39  61  94 124 164 210 260 312 369
#     4   9  18  36  58  81 115 158 197 250 307 360
#     4   9  16  32  61  86 113 154 195 248 306 364
#     4  10  20  34  56  87 115 149 204 254 311 369
#     4  11  23  39  64  88 126 167 212 255 312 378
#     4   8  16  32  52  75 106 145 193 238 300 351
#
# _framework density 21.191210999999999
#
# number of rings (size 3 to 8) (size 9 to 14) (size 15 to 20)
#    0.000    2.600    2.000    1.200    0.000    5.600 
#    0.000    6.000    4.400    2.400    0.000    0.000 
#    0.000    0.000    0.000    0.000    0.000    0.000 
#
# Total GULP energy -111639.098538 kJ/mol
# GULP energy per Si atom -5581.954927 kJ/mol
# Density = 2.114298 g / cm^3
# Si number density = 21.191211 Si / 1000 Ang^3
#
#
#
# Elastic Constant Matrix: (Units=GPa)
#
#
# Indices 1 2 3 4 5 6 
#
# 1 47.6507 44.7977 11.4661 0.0000 -5.5846 0.0000
# 2 44.7977 207.0045 29.1492 0.0000 6.0589 0.0000
# 3 11.4661 29.1492 119.9388 0.0000 -13.2153 0.0000
# 4 0.0000 0.0000 0.0000 29.8106 0.0000 -7.9090
# 5 -5.5846 6.0589 -13.2153 0.0000 31.9317 0.0000
# 6 0.0000 0.0000 0.0000 -7.9090 0.0000 26.8985
#
#
#
# Elastic Compliance Matrix: (Units=1/GPa)
#
#
# Indices 1 2 3 4 5 6 
#
# 1 0.027459 -0.006036 -0.000527 0.000000 0.005730 0.000000
# 2 -0.006036 0.006400 -0.001287 0.000000 -0.002803 0.000000
# 3 -0.000527 -0.001287 0.009134 0.000000 0.003932 0.000000
# 4 0.000000 0.000000 0.000000 0.036383 0.000000 0.010698
# 5 0.005730 -0.002803 0.003932 0.000000 0.034478 0.000000
# 6 0.000000 0.000000 0.000000 0.010698 0.000000 0.040322
#
#
# Mechanical properties :
#
#
# Convention : Reuss Voigt Hill
#
# Bulk Modulus (GPa) = 36.63906 60.60220 48.62063
# Shear Modulus (GPa) = 27.93689 37.00689 32.47189
#
# Velocity S-wave (km/s) = 3.63481 4.18345 3.91874
# Velocity P-wave (km/s) = 5.91127 7.21075 6.59310
#
# Compressibility (1/GPa) = 0.02729327
#
# Stress axis : x y z
#
# Youngs Moduli (GPa) = 36.41820 156.24185 109.47993
#
# Poissons Ratio (x) = 0.94305 0.05768
# Poissons Ratio (y) = 0.21981 0.14093
# Poissons Ratio (z) = 0.01919 0.20113
#
# Static dielectric constant tensor:
#      x y z
#    x 1.877230 0.000000 0.041000 
#    y 0.000000 1.759790 0.000000 
#    z 0.041000 0.000000 1.823690 
# 
# From -- ./inp_files/48630.got.cif
#   From: 2010.05.17/outbox.cif.g08.bks.cpg/sg12_25_cif.got.tgz:48630.got - 2010.06.03 13:09:07.
