data_PCOD9194103
_publ_section_title
;
Structure prediction by ZEFSAII (Michael W. Deem and Ramdas Pophale) SiO2 
 PCOD9194103
Probable space group: C 2/M
;
_chemical_formula_sum "Si O2"
_cell_formula_units_Z 40
_cell_length_a 20.782729
_cell_length_b 18.987241
_cell_length_c 7.179420
_cell_angle_alpha 90.000000
_cell_angle_beta 40.391366
_cell_angle_gamma 90.000000
_cell_volume 1835.829085
_symmetry_space_group_name_H-M "C 2/M"
_symmetry_group_IT_number 12
_symmetry_cell_setting 'monoclinic'
loop_
_space_group_symop_operation_xyz
x,y,z
-x,y,-z
-x,-y,-z
x,-y,z
1/2+x,1/2+y,z
1/2-x,1/2+y,-z
1/2-x,1/2-y,-z
1/2+x,1/2-y,z
loop_
_atom_site_type_symbol
_atom_site_label
_atom_site_fract_x
_atom_site_fract_y
_atom_site_fract_z
Si Si1 0.134746 0.162470 0.179337
Si Si2 0.701109 0.580424 0.687360
Si Si3 0.071282 0.580899 0.677806
Si Si4 0.136711 0.303685 0.297242
Si Si5 0.093745 0.180683 0.656499
O O1 0.108176 0.245648 0.203229
O O2 0.073868 0.143755 0.499120
O O3 0.139881 0.109487 0.999282
O O4 0.251355 0.170273 0.982932
O O5 0.674293 0.500000 0.700002
O O6 0.816317 0.582000 0.490851
O O7 0.675461 0.634512 0.580979
O O8 0.044938 0.500000 0.692575
O O9 0.071569 0.630022 0.496745
O O10 0.000000 0.606040 0.000000
O O11 0.132020 0.256108 0.497898
O O12 0.000000 0.186216 0.000000
#
# Coordination Sequence:
#
# PCOD9194103 Si02
#       5
#     8   8   8   8   8
#     4   8  18  35  54  77 110 142 186 222 268 319
#     4  10  21  36  56  80 110 150 183 220 279 322
#     4   9  17  31  56  85 109 137 178 226 275 329
#     4   8  16  35  53  78 111 140 180 224 268 319
#     4  10  20  34  55  81 109 143 190 225 263 319
#
# _framework density 21.788519000000001
#
# number of rings (size 3 to 8) (size 9 to 14) (size 15 to 20)
#    1.200    1.800    0.000    0.600    0.000    5.200 
#    0.000    1.000    4.400    3.600    0.000   18.200 
#    0.000    0.000    0.000    0.000    0.000    0.000 
#
# Total GULP energy -111361.983002 kJ/mol
# GULP energy per Si atom -5568.099150 kJ/mol
# Density = 2.173893 g / cm^3
# Si number density = 21.788519 Si / 1000 Ang^3
#
#
#
# Elastic Constant Matrix: (Units=GPa)
#
#
# Indices 1 2 3 4 5 6 
#
# 1 44.1837 13.6879 4.7597 0.0000 3.1640 0.0000
# 2 13.6879 77.0360 22.0000 0.0000 1.3220 0.0000
# 3 4.7597 22.0000 141.7892 0.0000 1.4775 0.0000
# 4 0.0000 0.0000 0.0000 34.2053 0.0000 10.3388
# 5 3.1640 1.3220 1.4775 0.0000 24.0047 0.0000
# 6 0.0000 0.0000 0.0000 10.3388 0.0000 9.3305
#
#
#
# Elastic Compliance Matrix: (Units=1/GPa)
#
#
# Indices 1 2 3 4 5 6 
#
# 1 0.024160 -0.004206 -0.000128 0.000000 -0.002945 0.000000
# 2 -0.004206 0.014324 -0.002080 0.000000 -0.000107 0.000000
# 3 -0.000128 -0.002080 0.007383 0.000000 -0.000323 0.000000
# 4 0.000000 0.000000 0.000000 0.043957 0.000000 -0.048707
# 5 -0.002945 -0.000107 -0.000323 0.000000 0.042072 0.000000
# 6 0.000000 0.000000 0.000000 -0.048707 0.000000 0.161146
#
#
# Mechanical properties :
#
#
# Convention : Reuss Voigt Hill
#
# Bulk Modulus (GPa) = 30.26635 38.21156 34.23896
# Shear Modulus (GPa) = 15.77865 28.34556 22.06210
#
# Velocity S-wave (km/s) = 2.69397 3.61077 3.18552
# Velocity P-wave (km/s) = 4.85775 5.91262 5.41095
#
# Compressibility (1/GPa) = 0.03303999
#
# Stress axis : x y z
#
# Youngs Moduli (GPa) = 41.39009 69.81223 135.44365
#
# Poissons Ratio (x) = 0.29362 0.01731
# Poissons Ratio (y) = 0.17408 0.28175
# Poissons Ratio (z) = 0.00529 0.14523
#
# Static dielectric constant tensor:
#      x y z
#    x 1.933750 0.000000 -0.048270 
#    y 0.000000 1.811970 0.000000 
#    z -0.048270 0.000000 1.812500 
# 
# From -- ./inp_files/106319.got.cif
#   From: 2010.05.17/outbox.cif.g08.bks.cpg/sg12_54_cif.got.tgz:106319.got - 2010.06.03 13:09:07.
