data_PCOD9194825
_publ_section_title
;
Structure prediction by ZEFSAII (Michael W. Deem and Ramdas Pophale) SiO2 
 PCOD9194825
Probable space group: C 2/M
;
_chemical_formula_sum "Si O2"
_cell_formula_units_Z 64
_cell_length_a 27.813450
_cell_length_b 11.032341
_cell_length_c 21.256074
_cell_angle_alpha 90.000000
_cell_angle_beta 30.582482
_cell_angle_gamma 90.000000
_cell_volume 3318.441048
_symmetry_space_group_name_H-M "C 2/M"
_symmetry_group_IT_number 12
_symmetry_cell_setting 'monoclinic'
loop_
_space_group_symop_operation_xyz
x,y,z
-x,y,-z
-x,-y,-z
x,-y,z
1/2+x,1/2+y,z
1/2-x,1/2+y,-z
1/2-x,1/2-y,-z
1/2+x,1/2-y,z
loop_
_atom_site_type_symbol
_atom_site_label
_atom_site_fract_x
_atom_site_fract_y
_atom_site_fract_z
Si Si1 0.097264 0.362029 0.866683
Si Si2 0.870542 0.641195 0.701036
Si Si3 0.806683 0.143759 0.678605
Si Si4 0.627728 0.799920 0.693109
Si Si5 0.268748 0.365040 0.022917
Si Si6 0.202021 0.625877 0.479013
Si Si7 0.011805 0.861576 0.227535
Si Si8 0.951862 0.743739 0.425910
O O1 0.094534 0.500000 0.893401
O O2 0.201209 0.321342 0.772855
O O3 0.094139 0.361370 0.794572
O O4 0.000000 0.300397 0.000000
O O5 0.873813 0.500000 0.673607
O O6 0.836797 0.749995 0.693313
O O7 0.797931 0.641238 0.841444
O O8 0.971983 0.682464 0.614363
O O9 0.886592 0.157864 0.534639
O O10 0.806363 0.000000 0.699315
O O11 0.724701 0.734063 0.602754
O O12 0.653588 0.875035 0.602051
O O13 0.551777 0.705608 0.751930
O O14 0.253080 0.500000 0.010971
O O15 0.250000 0.250000 0.000000
O O16 0.379210 0.358810 0.915097
O O17 0.253643 0.500000 0.409981
O O18 0.121994 0.646475 0.517834
O O19 0.000410 0.799913 0.308961
O O20 0.980018 0.000000 0.269328
#
# Coordination Sequence:
#
# PCOD9194825 Si02
#       8
#     8   8   8   8   8   8   8   8
#     4  10  22  42  63  84 116 158 203 253 303 358
#     4  11  25  42  63  91 127 167 207 255 309 365
#     4  11  25  43  65  92 121 161 213 259 303 365
#     4  10  20  36  58  87 117 151 194 248 300 365
#     4  10  21  41  63  89 122 160 203 251 304 365
#     4  10  20  34  57  89 120 153 189 239 307 368
#     4  10  21  36  61  91 121 154 195 249 308 360
#     4  11  21  39  63  89 123 158 202 252 304 360
#
# _framework density 19.286165
#
# number of rings (size 3 to 8) (size 9 to 14) (size 15 to 20)
#    0.000    1.625    2.500    1.875    1.750    3.500 
#    0.000    0.625    0.000    1.875    0.000    0.000 
#    0.000    0.000    0.000    0.000    0.000    0.000 
#
# Total GULP energy -178287.543001 kJ/mol
# GULP energy per Si atom -5571.485719 kJ/mol
# Density = 1.924227 g / cm^3
# Si number density = 19.286165 Si / 1000 Ang^3
#
#
#
# Elastic Constant Matrix: (Units=GPa)
#
#
# Indices 1 2 3 4 5 6 
#
# 1 111.7890 53.0028 31.3096 0.0000 -17.3675 0.0000
# 2 53.0028 112.9556 22.4473 -0.0002 -9.1287 -0.0003
# 3 31.3096 22.4473 98.8740 0.0000 -11.1075 -0.0004
# 4 0.0000 -0.0002 0.0000 44.0150 0.0000 5.4604
# 5 -17.3675 -9.1287 -11.1075 0.0000 23.2984 0.0000
# 6 0.0000 -0.0003 -0.0004 5.4604 0.0000 225.3185
#
#
#
# Elastic Compliance Matrix: (Units=1/GPa)
#
#
# Indices 1 2 3 4 5 6 
#
# 1 0.013035 -0.005139 -0.002214 0.000000 0.006648 0.000000
# 2 -0.005139 0.011471 -0.000953 0.000000 0.000209 0.000000
# 3 -0.002214 -0.000953 0.011415 0.000000 0.003418 0.000000
# 4 0.000000 0.000000 0.000000 0.022788 0.000000 -0.000552
# 5 0.006648 0.000209 0.003418 0.000000 0.049588 0.000000
# 6 0.000000 0.000000 0.000000 -0.000552 0.000000 0.004452
#
#
# Mechanical properties :
#
#
# Convention : Reuss Voigt Hill
#
# Bulk Modulus (GPa) = 51.79229 59.68201 55.73715
# Shear Modulus (GPa) = 36.81919 72.98363 54.90141
#
# Velocity S-wave (km/s) = 4.37406 6.15830 5.34121
# Velocity P-wave (km/s) = 7.24036 9.03210 8.18540
#
# Compressibility (1/GPa) = 0.01930789
#
# Stress axis : x y z
#
# Youngs Moduli (GPa) = 76.71659 87.17712 87.60045
#
# Poissons Ratio (x) = 0.44802 0.19396
# Poissons Ratio (y) = 0.39427 0.08351
# Poissons Ratio (z) = 0.16986 0.08311
#
# Static dielectric constant tensor:
#      x y z
#    x 1.652450 0.000000 -0.000230 
#    y 0.000000 1.761960 0.000000 
#    z -0.000230 0.000000 1.691310 
# 
# From -- ./inp_files/327817.got.cif
#   From: 2010.05.17/outbox.cif.g08.bks.cpg/sg12_164_cif.got.tgz:327817.got - 2010.06.03 13:09:07.
