data_PCOD9194444
_publ_section_title
;
Structure prediction by ZEFSAII (Michael W. Deem and Ramdas Pophale) SiO2 
 PCOD9194444
Probable space group: C 2/M
;
_chemical_formula_sum "Si O2"
_cell_formula_units_Z 64
_cell_length_a 19.674866
_cell_length_b 9.298602
_cell_length_c 16.007266
_cell_angle_alpha 90.000000
_cell_angle_beta 70.743153
_cell_angle_gamma 90.000000
_cell_volume 2764.658057
_symmetry_space_group_name_H-M "C 2/M"
_symmetry_group_IT_number 12
_symmetry_cell_setting 'monoclinic'
loop_
_space_group_symop_operation_xyz
x,y,z
-x,y,-z
-x,-y,-z
x,-y,z
1/2+x,1/2+y,z
1/2-x,1/2+y,-z
1/2-x,1/2-y,-z
1/2+x,1/2-y,z
loop_
_atom_site_type_symbol
_atom_site_label
_atom_site_fract_x
_atom_site_fract_y
_atom_site_fract_z
Si Si1 0.820838 0.828710 0.435948
Si Si2 0.485943 0.163246 0.191367
Si Si3 0.230312 0.665841 0.692872
Si Si4 0.873776 0.165069 0.852404
Si Si5 0.036146 0.665187 0.599398
Si Si6 0.922385 0.167298 0.074237
Si Si7 0.104040 0.162061 0.358463
Si Si8 0.787181 0.666606 0.099353
O O1 0.750000 0.750000 0.500000
O O2 0.815227 0.778551 0.341537
O O3 0.894487 0.764676 0.444084
O O4 0.817840 0.000000 0.446532
O O5 0.565017 0.227140 0.143790
O O6 0.472480 0.166191 0.295818
O O7 0.431883 0.257999 0.159784
O O8 0.479916 0.000000 0.164363
O O9 0.212801 0.500000 0.674543
O O10 0.315517 0.691373 0.641599
O O11 0.220549 0.673055 0.796241
O O12 0.884909 0.159600 0.746950
O O13 0.791596 0.210530 0.901305
O O14 0.885192 0.000000 0.878052
O O15 0.047976 0.500000 0.569009
O O16 0.960449 0.728560 0.597160
O O17 0.856129 0.238001 0.052298
O O18 0.908317 0.000000 0.089597
O O19 0.000000 0.186863 0.000000
O O20 0.083175 0.000000 0.392211
O O21 0.798792 0.500000 0.071816
#
# Coordination Sequence:
#
# PCOD9194444 Si02
#       8
#     8   8   8   8   8   8   8   8
#     4  12  25  39  55  76 106 144 183 221 264 312
#     4  10  20  34  56  83 108 138 175 216 262 313
#     4   9  18  35  58  84 112 138 171 216 264 316
#     4   8  15  30  53  81 110 136 167 211 261 312
#     4  10  20  35  56  83 112 138 172 218 262 310
#     4  11  24  38  51  72 105 143 182 225 268 311
#     4   8  15  30  54  82 110 139 169 207 259 314
#     4   9  18  34  58  84 108 138 174 215 264 316
#
# _framework density 23.149336000000002
#
# number of rings (size 3 to 8) (size 9 to 14) (size 15 to 20)
#    0.000    2.375    0.000    4.500    0.000    7.000 
#    0.000    3.750    0.000    3.750    0.000    0.000 
#    0.000    0.000    0.000    0.000    0.000    0.000 
#
# Total GULP energy -179046.616146 kJ/mol
# GULP energy per Si atom -5595.206755 kJ/mol
# Density = 2.309665 g / cm^3
# Si number density = 23.149336 Si / 1000 Ang^3
#
#
#
# Elastic Constant Matrix: (Units=GPa)
#
#
# Indices 1 2 3 4 5 6 
#
# 1 145.5149 85.0906 21.2045 0.0000 -26.6711 0.0000
# 2 85.0906 130.8647 46.5193 0.0000 -36.6467 0.0000
# 3 21.2045 46.5193 60.2438 0.0000 -10.9833 0.0000
# 4 0.0000 0.0000 0.0000 20.0660 0.0000 -8.5663
# 5 -26.6711 -36.6467 -10.9833 0.0000 45.2967 0.0000
# 6 0.0000 0.0000 0.0000 -8.5663 0.0000 35.4947
#
#
#
# Elastic Compliance Matrix: (Units=1/GPa)
#
#
# Indices 1 2 3 4 5 6 
#
# 1 0.011344 -0.007978 0.002310 0.000000 0.000786 0.000000
# 2 -0.007978 0.018662 -0.010155 0.000000 0.007938 0.000000
# 3 0.002310 -0.010155 0.023413 0.000000 -0.001178 0.000000
# 4 0.000000 0.000000 0.000000 0.055560 0.000000 0.013409
# 5 0.000786 0.007938 -0.001178 0.000000 0.028676 0.000000
# 6 0.000000 0.000000 0.000000 0.013409 0.000000 0.031409
#
#
# Mechanical properties :
#
#
# Convention : Reuss Voigt Hill
#
# Bulk Modulus (GPa) = 45.92545 71.36133 58.64339
# Shear Modulus (GPa) = 24.04240 32.42541 28.23391
#
# Velocity S-wave (km/s) = 3.22619 3.74666 3.49613
# Velocity P-wave (km/s) = 5.81030 7.04344 6.45638
#
# Compressibility (1/GPa) = 0.02177442
#
# Stress axis : x y z
#
# Youngs Moduli (GPa) = 88.14871 53.58622 42.71202
#
# Poissons Ratio (x) = 0.42749 -0.09869
# Poissons Ratio (y) = 0.70322 0.43374
# Poissons Ratio (z) = -0.20367 0.54416
#
# Static dielectric constant tensor:
#      x y z
#    x 1.865710 0.000000 0.037750 
#    y 0.000000 1.788180 0.000000 
#    z 0.037750 0.000000 1.970590 
# 
# From -- ./inp_files/319788.got.cif
#   From: 2010.05.17/outbox.cif.g08.bks.cpg/sg12_160_cif.got.tgz:319788.got - 2010.06.03 13:09:07.
