data_PCOD9194805
_publ_section_title
;
Structure prediction by ZEFSAII (Michael W. Deem and Ramdas Pophale) SiO2 
 PCOD9194805
Probable space group: C 2/M
;
_chemical_formula_sum "Si O2"
_cell_formula_units_Z 56
_cell_length_a 25.636720
_cell_length_b 7.685351
_cell_length_c 13.941146
_cell_angle_alpha 90.000000
_cell_angle_beta 112.808769
_cell_angle_gamma 90.000000
_cell_volume 2531.996797
_symmetry_space_group_name_H-M "C 2/M"
_symmetry_group_IT_number 12
_symmetry_cell_setting 'monoclinic'
loop_
_space_group_symop_operation_xyz
x,y,z
-x,y,-z
-x,-y,-z
x,-y,z
1/2+x,1/2+y,z
1/2-x,1/2+y,-z
1/2-x,1/2-y,-z
1/2+x,1/2-y,z
loop_
_atom_site_type_symbol
_atom_site_label
_atom_site_fract_x
_atom_site_fract_y
_atom_site_fract_z
Si Si1 0.423236 0.796923 0.706132
Si Si2 0.509869 0.795515 0.612850
Si Si3 0.251682 0.710435 0.778976
Si Si4 0.366565 0.706141 0.230163
Si Si5 0.834996 0.797619 0.998966
Si Si6 0.299301 0.707343 0.609350
Si Si7 0.935158 0.289689 0.929874
O O1 0.468833 0.719739 0.665544
O O2 0.359690 0.783016 0.622263
O O3 0.423033 0.723719 0.813772
O O4 0.438333 0.000000 0.730001
O O5 0.500000 0.719586 0.500000
O O6 0.574795 0.782158 0.690670
O O7 0.494517 0.000000 0.595448
O O8 0.255083 0.500000 0.781609
O O9 0.186378 0.761674 0.738203
O O10 0.284991 0.777424 0.896917
O O11 0.281606 0.771946 0.702819
O O12 0.375962 0.500000 0.227281
O O13 0.348036 0.779099 0.112601
O O14 0.891264 0.785982 0.974593
O O15 0.820509 0.000000 0.004681
O O16 0.305754 0.500000 0.618870
O O17 0.250000 0.750000 0.500000
O O18 0.928233 0.500000 0.929215
O O19 0.000000 0.249463 0.000000
#
# Coordination Sequence:
#
# PCOD9194805 Si02
#       7
#     8   8   8   8   8   8   8
#     4  10  21  39  62  90 122 156 201 250 297 354
#     4  10  23  43  65  87 118 162 205 245 296 362
#     4  10  22  41  63  87 121 163 203 242 296 364
#     4  11  24  39  61  92 124 157 199 253 303 351
#     4  10  21  39  59  87 122 157 199 243 298 361
#     4  11  24  41  64  91 122 160 200 248 303 357
#     4  10  20  34  57  88 121 157 198 245 294 349
#
# _framework density 22.116931999999998
#
# number of rings (size 3 to 8) (size 9 to 14) (size 15 to 20)
#    0.000    1.714    1.429    2.143    2.000    5.143 
#    0.000    0.000    0.000    0.000    0.000    0.000 
#    0.000    0.000    0.000    0.000    0.000    0.000 
#
# Total GULP energy -156535.774244 kJ/mol
# GULP energy per Si atom -5590.563366 kJ/mol
# Density = 2.206659 g / cm^3
# Si number density = 22.116932 Si / 1000 Ang^3
#
#
#
# Elastic Constant Matrix: (Units=GPa)
#
#
# Indices 1 2 3 4 5 6 
#
# 1 125.1627 -17.5604 23.4924 0.0000 4.7474 0.0000
# 2 -17.5604 37.3933 -5.4763 0.0000 -13.5275 0.0000
# 3 23.4924 -5.4763 93.2544 0.0000 7.8411 0.0000
# 4 0.0000 0.0000 0.0000 10.3761 0.0000 3.3556
# 5 4.7474 -13.5275 7.8411 0.0000 32.0404 0.0000
# 6 0.0000 0.0000 0.0000 3.3556 0.0000 18.9356
#
#
#
# Elastic Compliance Matrix: (Units=1/GPa)
#
#
# Indices 1 2 3 4 5 6 
#
# 1 0.008940 0.004247 -0.002085 0.000000 0.000979 0.000000
# 2 0.004247 0.033632 -0.000241 0.000000 0.013629 0.000000
# 3 -0.002085 -0.000241 0.011453 0.000000 -0.002596 0.000000
# 4 0.000000 0.000000 0.000000 0.102234 0.000000 -0.018117
# 5 0.000979 0.013629 -0.002596 0.000000 0.037455 0.000000
# 6 0.000000 0.000000 0.000000 -0.018117 0.000000 0.056021
#
#
# Mechanical properties :
#
#
# Convention : Reuss Voigt Hill
#
# Bulk Modulus (GPa) = 17.28100 28.52464 22.90282
# Shear Modulus (GPa) = 18.85496 29.29406 24.07451
#
# Velocity S-wave (km/s) = 2.92295 3.64333 3.30284
# Velocity P-wave (km/s) = 4.38428 5.53386 4.99227
#
# Compressibility (1/GPa) = 0.05786703
#
# Stress axis : x y z
#
# Youngs Moduli (GPa) = 111.86118 29.73319 87.31574
#
# Poissons Ratio (x) = -0.12627 0.18205
# Poissons Ratio (y) = -0.47506 0.02103
# Poissons Ratio (z) = 0.23322 0.00716
#
# Static dielectric constant tensor:
#      x y z
#    x 1.772660 0.000000 -0.028060 
#    y 0.000000 1.843910 0.000000 
#    z -0.028060 0.000000 1.812380 
# 
# From -- ./inp_files/238888.got.cif
#   From: 2010.05.17/outbox.cif.g08.bks.cpg/sg12_120_cif.got.tgz:238888.got - 2010.06.03 13:09:07.
