data_PCOD9194482
_publ_section_title
;
Structure prediction by ZEFSAII (Michael W. Deem and Ramdas Pophale) SiO2 
 PCOD9194482
Probable space group: C 2/M
;
_chemical_formula_sum "Si O2"
_cell_formula_units_Z 56
_cell_length_a 21.139954
_cell_length_b 9.712680
_cell_length_c 29.528796
_cell_angle_alpha 90.000000
_cell_angle_beta 149.990564
_cell_angle_gamma 90.000000
_cell_volume 3032.373700
_symmetry_space_group_name_H-M "C 2/M"
_symmetry_group_IT_number 12
_symmetry_cell_setting 'monoclinic'
loop_
_space_group_symop_operation_xyz
x,y,z
-x,y,-z
-x,-y,-z
x,-y,z
1/2+x,1/2+y,z
1/2-x,1/2+y,-z
1/2-x,1/2-y,-z
1/2+x,1/2-y,z
loop_
_atom_site_type_symbol
_atom_site_label
_atom_site_fract_x
_atom_site_fract_y
_atom_site_fract_z
Si Si1 0.403401 0.838591 0.399084
Si Si2 0.162783 0.662166 0.224320
Si Si3 0.974258 0.657123 0.768619
Si Si4 0.510470 0.664030 0.059976
Si Si5 0.743095 0.661449 0.041077
Si Si6 0.427049 0.155069 0.584752
Si Si7 0.364893 0.341860 0.626470
O O1 0.500000 0.806653 0.500000
O O2 0.284803 0.737494 0.321289
O O3 0.479451 0.826418 0.399141
O O4 0.364648 0.000000 0.380669
O O5 0.185631 0.500000 0.229616
O O6 0.054962 0.671602 0.196277
O O7 0.114330 0.744920 0.150454
O O8 0.941083 0.500000 0.735650
O O9 0.892373 0.762562 0.689468
O O10 0.122032 0.680451 0.850957
O O11 0.538078 0.500000 0.082480
O O12 0.500000 0.692556 0.000000
O O13 0.376090 0.692727 0.001040
O O14 0.734533 0.500000 0.023395
O O15 0.750000 0.750000 0.000000
O O16 0.437774 0.264732 0.631232
O O17 0.283997 0.164682 0.477206
O O18 0.444048 0.000000 0.613593
O O19 0.402305 0.500000 0.652797
#
# Coordination Sequence:
#
# PCOD9194482 Si02
#       7
#     8   8   8   8   8   8   8
#     4  10  21  38  60  84 114 155 199 238 284 348
#     4  11  23  38  58  86 120 153 191 245 300 350
#     4  10  21  36  55  82 115 150 188 233 292 346
#     4  10  22  40  62  88 118 157 202 246 296 357
#     4  10  20  37  60  83 112 148 189 235 283 342
#     4   9  19  36  55  77 112 151 186 233 287 336
#     4  10  20  34  56  84 110 144 191 237 281 337
#
# _framework density 18.467381
#
# number of rings (size 3 to 8) (size 9 to 14) (size 15 to 20)
#    0.000    2.000    1.429    1.714    0.000    5.714 
#    0.000    2.857    0.000    0.000    0.000    0.000 
#    0.000    0.000    0.000    0.000    0.000    0.000 
#
# Total GULP energy -156278.502383 kJ/mol
# GULP energy per Si atom -5581.375085 kJ/mol
# Density = 1.842535 g / cm^3
# Si number density = 18.467381 Si / 1000 Ang^3
#
#
#
# Elastic Constant Matrix: (Units=GPa)
#
#
# Indices 1 2 3 4 5 6 
#
# 1 75.9372 47.8145 34.3324 0.0000 -7.1903 0.0000
# 2 47.8145 106.6284 66.7044 0.0000 -13.5256 0.0000
# 3 34.3324 66.7044 75.0402 -0.0003 -7.6747 -0.0001
# 4 0.0000 0.0000 -0.0003 18.3705 -0.0001 -8.5713
# 5 -7.1903 -13.5256 -7.6747 -0.0001 31.3756 0.0000
# 6 0.0000 0.0000 -0.0001 -8.5713 0.0000 26.3963
#
#
#
# Elastic Compliance Matrix: (Units=1/GPa)
#
#
# Indices 1 2 3 4 5 6 
#
# 1 0.018567 -0.006675 -0.002482 0.000000 0.000770 0.000000
# 2 -0.006675 0.024203 -0.018000 0.000000 0.004501 0.000000
# 3 -0.002482 -0.018000 0.030370 0.000001 -0.000900 0.000000
# 4 0.000000 0.000000 0.000001 0.064155 0.000000 0.020832
# 5 0.000770 0.004501 -0.000900 0.000000 0.033769 0.000000
# 6 0.000000 0.000000 0.000000 0.020832 0.000000 0.044649
#
#
# Mechanical properties :
#
#
# Convention : Reuss Voigt Hill
#
# Bulk Modulus (GPa) = 53.12000 61.70093 57.41046
# Shear Modulus (GPa) = 18.09606 22.47879 20.28743
#
# Velocity S-wave (km/s) = 3.13372 3.49265 3.31804
# Velocity P-wave (km/s) = 6.47459 7.05323 6.77009
#
# Compressibility (1/GPa) = 0.01882530
#
# Stress axis : x y z
#
# Youngs Moduli (GPa) = 53.85852 41.31691 32.92678
#
# Poissons Ratio (x) = 0.27581 0.08173
# Poissons Ratio (y) = 0.35953 0.59269
# Poissons Ratio (z) = 0.13369 0.74371
#
# Static dielectric constant tensor:
#      x y z
#    x 1.632370 0.000000 0.014020 
#    y 0.000000 1.625060 0.000000 
#    z 0.014020 0.000000 1.636610 
# 
# From -- ./inp_files/380791.got.cif
#   From: 2010.05.17/outbox.cif.g08.bks.cpg/sg12_191_cif.got.tgz:380791.got - 2010.06.03 13:09:07.
