data_PCOD9194411
_publ_section_title
;
Structure prediction by ZEFSAII (Michael W. Deem and Ramdas Pophale) SiO2 
 PCOD9194411
Probable space group: C 2/M
;
_chemical_formula_sum "Si O2"
_cell_formula_units_Z 64
_cell_length_a 18.822567
_cell_length_b 18.241271
_cell_length_c 16.841475
_cell_angle_alpha 90.000000
_cell_angle_beta 40.804991
_cell_angle_gamma 90.000000
_cell_volume 3778.772280
_symmetry_space_group_name_H-M "C 2/M"
_symmetry_group_IT_number 12
_symmetry_cell_setting 'monoclinic'
loop_
_space_group_symop_operation_xyz
x,y,z
-x,y,-z
-x,-y,-z
x,-y,z
1/2+x,1/2+y,z
1/2-x,1/2+y,-z
1/2-x,1/2-y,-z
1/2+x,1/2-y,z
loop_
_atom_site_type_symbol
_atom_site_label
_atom_site_fract_x
_atom_site_fract_y
_atom_site_fract_z
Si Si1 0.249197 0.914483 0.075992
Si Si2 0.428923 0.294918 0.735721
Si Si3 0.307368 0.761657 0.687014
Si Si4 0.373954 0.151607 0.119413
Si Si5 0.320056 0.300540 0.499459
Si Si6 0.644724 0.914030 0.691822
Si Si7 0.420061 0.867275 0.801353
Si Si8 0.107492 0.417034 0.354537
O O1 0.145521 0.861013 0.170286
O O2 0.324349 0.892038 0.087265
O O3 0.220257 0.000000 0.104248
O O4 0.322436 0.898952 0.936676
O O5 0.394703 0.274827 0.673706
O O6 0.556687 0.310969 0.632858
O O7 0.404966 0.219803 0.803087
O O8 0.194020 0.726190 0.810932
O O9 0.325984 0.737565 0.580976
O O10 0.315455 0.849092 0.687959
O O11 0.359002 0.104573 0.211765
O O12 0.500000 0.166281 0.000000
O O13 0.250000 0.250000 0.500000
O O14 0.251080 0.374509 0.567587
O O15 0.535300 0.881870 0.745537
O O16 0.646650 0.000000 0.676690
O O17 0.421730 0.903695 0.712931
O O18 0.149673 0.500000 0.329234
O O19 0.000000 0.409835 0.500000
#
# Coordination Sequence:
#
# PCOD9194411 Si02
#       8
#     8   8   8   8   8   8   8   8
#     4  11  22  35  57  85 115 148 187 234 283 332
#     4  10  21  38  57  79 112 153 191 225 278 347
#     4   9  20  36  55  79 109 148 187 231 280 330
#     4  10  20  35  55  81 114 151 186 224 280 343
#     4  11  21  37  56  81 111 149 190 230 277 337
#     4  11  22  34  55  84 116 144 182 236 286 326
#     4  11  20  36  56  83 112 144 187 233 280 330
#     4  10  20  34  56  81 107 139 183 233 283 327
#
# _framework density 16.936717999999999
#
# number of rings (size 3 to 8) (size 9 to 14) (size 15 to 20)
#    0.000    1.625    2.500    3.750    0.000    1.000 
#    0.000    0.000    0.000    4.875    0.000    0.000 
#    0.000    0.000    0.000    0.000    0.000    0.000 
#
# Total GULP energy -178623.474245 kJ/mol
# GULP energy per Si atom -5581.983570 kJ/mol
# Density = 1.689817 g / cm^3
# Si number density = 16.936718 Si / 1000 Ang^3
#
#
#
# Elastic Constant Matrix: (Units=GPa)
#
#
# Indices 1 2 3 4 5 6 
#
# 1 87.5415 52.6545 45.6879 0.0000 -6.9488 0.0000
# 2 52.6545 159.7121 63.1434 0.0000 -8.5890 0.0000
# 3 45.6879 63.1434 88.9373 0.0000 -9.4387 0.0000
# 4 0.0000 0.0000 0.0000 12.3225 0.0000 -1.9727
# 5 -6.9488 -8.5890 -9.4387 0.0000 36.3193 0.0000
# 6 0.0000 0.0000 0.0000 -1.9727 0.0000 14.0452
#
#
#
# Elastic Compliance Matrix: (Units=1/GPa)
#
#
# Indices 1 2 3 4 5 6 
#
# 1 0.016549 -0.002899 -0.006356 0.000000 0.000829 0.000000
# 2 -0.002899 0.009220 -0.005023 0.000000 0.000320 0.000000
# 3 -0.006356 -0.005023 0.018325 0.000000 0.002359 0.000000
# 4 0.000000 0.000000 0.000000 0.083019 0.000000 0.011660
# 5 0.000829 0.000320 0.002359 0.000000 0.028381 0.000000
# 6 0.000000 0.000000 0.000000 0.011660 0.000000 0.072836
#
#
# Mechanical properties :
#
#
# Convention : Reuss Voigt Hill
#
# Bulk Modulus (GPa) = 64.34882 73.24029 68.79456
# Shear Modulus (GPa) = 19.07920 24.18441 21.63181
#
# Velocity S-wave (km/s) = 3.35998 3.78289 3.57769
# Velocity P-wave (km/s) = 7.28895 7.90049 7.60087
#
# Compressibility (1/GPa) = 0.01554030
#
# Stress axis : x y z
#
# Youngs Moduli (GPa) = 60.42481 108.45983 54.56968
#
# Poissons Ratio (x) = 0.31440 0.34682
# Poissons Ratio (y) = 0.17516 0.27409
# Poissons Ratio (z) = 0.38403 0.54478
#
# Static dielectric constant tensor:
#      x y z
#    x 1.566370 0.000000 0.013890 
#    y 0.000000 1.559950 0.000000 
#    z 0.013890 0.000000 1.561380 
# 
# From -- ./inp_files/226825.got.cif
#   From: 2010.05.17/outbox.cif.g08.bks.cpg/sg12_114_cif.got.tgz:226825.got - 2010.06.03 13:09:07.
