data_PCOD9194583
_publ_section_title
;
Structure prediction by ZEFSAII (Michael W. Deem and Ramdas Pophale) SiO2 
 PCOD9194583
Probable space group: C 2/M
;
_chemical_formula_sum "Si O2"
_cell_formula_units_Z 56
_cell_length_a 16.245899
_cell_length_b 15.237583
_cell_length_c 20.434517
_cell_angle_alpha 90.000000
_cell_angle_beta 30.675827
_cell_angle_gamma 90.000000
_cell_volume 2580.760640
_symmetry_space_group_name_H-M "C 2/M"
_symmetry_group_IT_number 12
_symmetry_cell_setting 'monoclinic'
loop_
_space_group_symop_operation_xyz
x,y,z
-x,y,-z
-x,-y,-z
x,-y,z
1/2+x,1/2+y,z
1/2-x,1/2+y,-z
1/2-x,1/2-y,-z
1/2+x,1/2-y,z
loop_
_atom_site_type_symbol
_atom_site_label
_atom_site_fract_x
_atom_site_fract_y
_atom_site_fract_z
Si Si1 0.102808 0.397067 0.870185
Si Si2 0.461122 0.341278 0.841848
Si Si3 0.365554 0.606545 0.146238
Si Si4 0.675029 0.605732 0.572705
Si Si5 0.896986 0.635554 0.881741
Si Si6 0.040035 0.892321 0.399649
Si Si7 0.469612 0.101387 0.682342
O O1 0.124589 0.500000 0.870959
O O2 0.282386 0.360619 0.741588
O O3 0.009347 0.392125 0.865383
O O4 0.000000 0.357031 0.000000
O O5 0.575773 0.354276 0.825746
O O6 0.556036 0.373434 0.713473
O O7 0.417507 0.239953 0.862434
O O8 0.288829 0.387277 0.974348
O O9 0.362381 0.500000 0.154698
O O10 0.191274 0.638857 0.240764
O O11 0.500000 0.627317 0.000000
O O12 0.687525 0.500000 0.559988
O O13 0.592383 0.635902 0.562104
O O14 0.857062 0.641264 0.454184
O O15 0.947123 0.601076 0.776292
O O16 0.000000 0.863446 0.500000
O O17 0.041417 0.000000 0.399192
O O18 0.474053 0.000000 0.657541
#
# Coordination Sequence:
#
# PCOD9194583 Si02
#       7
#     8   8   8   8   8   8   8
#     4  10  20  34  56  86 115 146 192 246 291 340
#     4  11  24  39  57  86 122 161 198 245 305 358
#     4  10  20  38  64  91 117 154 206 256 302 352
#     4  10  21  38  63  91 120 154 195 252 305 349
#     4  11  23  39  58  86 119 162 202 240 297 365
#     4   9  17  32  54  82 114 146 181 224 284 349
#     4  10  21  39  66  92 115 153 204 254 300 359
#
# _framework density 21.699028999999999
#
# number of rings (size 3 to 8) (size 9 to 14) (size 15 to 20)
#    0.000    1.857    1.429    2.571    0.000    6.857 
#    2.571    2.143    3.143    0.000    0.000    0.000 
#    0.000    0.000    0.000    0.000    0.000    0.000 
#
# Total GULP energy -156505.577361 kJ/mol
# GULP energy per Si atom -5589.484906 kJ/mol
# Density = 2.164964 g / cm^3
# Si number density = 21.699029 Si / 1000 Ang^3
#
#
#
# Elastic Constant Matrix: (Units=GPa)
#
#
# Indices 1 2 3 4 5 6 
#
# 1 117.4070 0.4862 33.7398 -0.0086 -29.0958 -0.0129
# 2 0.4862 30.2567 6.8461 -0.0125 -7.7793 -0.0156
# 3 33.7398 6.8461 125.8106 -0.0425 -37.1702 -0.0665
# 4 -0.0086 -0.0125 -0.0425 -164.9506 0.0117 -281.2371
# 5 -29.0958 -7.7793 -37.1702 0.0117 38.8187 0.0154
# 6 -0.0129 -0.0156 -0.0665 -281.2371 0.0154 -425.0494
#
#
#
# Elastic Compliance Matrix: (Units=1/GPa)
#
#
# Indices 1 2 3 4 5 6 
#
# 1 0.010612 0.001962 -0.000678 0.000000 0.007697 0.000000
# 2 0.001962 0.035214 0.000107 0.000003 0.008630 -0.000003
# 3 -0.000678 0.000107 0.011129 -0.000001 0.010169 0.000000
# 4 0.000000 0.000003 -0.000001 0.047321 -0.000003 -0.031311
# 5 0.007697 0.008630 0.010169 -0.000003 0.042997 0.000001
# 6 0.000000 -0.000003 0.000000 -0.031311 0.000001 0.018364
#
#
# Mechanical properties :
#
#
# Convention : Reuss Voigt Hill
#
# Bulk Modulus (GPa) = 16.74017 39.51317 28.12667
# Shear Modulus (GPa) = 27.35712 -94.74279 -33.69284
#
# Velocity S-wave (km/s) = 3.55456 -6.61491 -3.94475
# Velocity P-wave (km/s) = 4.95762 6.33194 2.78527
#
# Compressibility (1/GPa) = 0.05973654
#
# Stress axis : x y z
#
# Youngs Moduli (GPa) = 94.23470 28.39811 89.85463
#
# Poissons Ratio (x) = -0.05572 0.06096
# Poissons Ratio (y) = -0.18490 -0.00965
# Poissons Ratio (z) = 0.06393 -0.00305
#
# Static dielectric constant tensor:
#      x y z
#    x 1.745860 0.000000 -0.030070 
#    y 0.000000 1.803340 0.000000 
#    z -0.030070 0.000000 1.774520 
# 
# From -- ./inp_files/272354.got.cif
#   From: 2010.05.17/outbox.cif.g08.bks.cpg/sg12_137_cif.got.tgz:272354.got - 2010.06.03 13:09:07.
