data_PCOD9194368
_publ_section_title
;
Structure prediction by ZEFSAII (Michael W. Deem and Ramdas Pophale) SiO2 
 PCOD9194368
Probable space group: C 2/M
;
_chemical_formula_sum "Si O2"
_cell_formula_units_Z 48
_cell_length_a 10.215750
_cell_length_b 14.427893
_cell_length_c 18.152546
_cell_angle_alpha 90.000000
_cell_angle_beta 120.698754
_cell_angle_gamma 90.000000
_cell_volume 2300.594969
_symmetry_space_group_name_H-M "C 2/M"
_symmetry_group_IT_number 12
_symmetry_cell_setting 'monoclinic'
loop_
_space_group_symop_operation_xyz
x,y,z
-x,y,-z
-x,-y,-z
x,-y,z
1/2+x,1/2+y,z
1/2-x,1/2+y,-z
1/2-x,1/2-y,-z
1/2+x,1/2-y,z
loop_
_atom_site_type_symbol
_atom_site_label
_atom_site_fract_x
_atom_site_fract_y
_atom_site_fract_z
Si Si1 0.948018 0.896520 0.382091
Si Si2 0.322724 0.750744 0.940592
Si Si3 0.900624 0.307020 0.373348
Si Si4 0.301994 0.893926 0.495948
Si Si5 0.100359 0.894332 0.806741
Si Si6 0.206972 0.890097 0.191073
O O1 0.868420 0.800745 0.381228
O O2 0.945396 0.891615 0.292189
O O3 0.122555 0.889810 0.459217
O O4 0.889229 0.000000 0.385345
O O5 0.235527 0.825741 0.865741
O O6 0.301817 0.653660 0.892086
O O7 0.500000 0.771484 0.000000
O O8 0.250000 0.750000 0.000000
O O9 0.828304 0.368425 0.417670
O O10 0.833463 0.339406 0.276818
O O11 0.081859 0.326801 0.428364
O O12 0.350934 0.000000 0.522943
O O13 0.953039 0.871350 0.813578
O O14 0.144783 0.000000 0.836477
O O15 0.232787 0.000000 0.197914
#
# Coordination Sequence:
#
# PCOD9194368 Si02
#       6
#     8   8   8   8   8   8
#     4  10  20  35  57  84 119 160 201 243 305 366
#     4  12  25  42  66  94 125 158 205 264 321 377
#     4  11  19  33  59  88 119 156 205 251 295 353
#     4  10  20  34  55  87 121 159 206 250 294 353
#     4  10  21  40  63  89 120 162 204 252 311 378
#     4  11  22  39  65  91 122 162 207 255 309 372
#
# _framework density 20.864167999999999
#
# number of rings (size 3 to 8) (size 9 to 14) (size 15 to 20)
#    0.000    1.333    5.000    2.500    0.000    1.333 
#    0.000    1.667    0.000    8.000    0.000    0.000 
#    0.000    0.000    0.000    0.000    0.000    0.000 
#
# Total GULP energy -134192.837374 kJ/mol
# GULP energy per Si atom -5591.368224 kJ/mol
# Density = 2.081668 g / cm^3
# Si number density = 20.864168 Si / 1000 Ang^3
#
#
#
# Elastic Constant Matrix: (Units=GPa)
#
#
# Indices 1 2 3 4 5 6 
#
# 1 51.6693 16.9150 36.8022 0.0000 -1.7478 0.0000
# 2 16.9150 120.0603 45.6292 0.0000 10.1291 0.0000
# 3 36.8022 45.6292 121.4384 0.0000 6.9909 0.0000
# 4 0.0000 0.0000 0.0000 34.0506 0.0000 -2.7982
# 5 -1.7478 10.1291 6.9909 0.0000 34.8185 0.0000
# 6 0.0000 0.0000 0.0000 -2.7982 0.0000 19.2800
#
#
#
# Elastic Compliance Matrix: (Units=1/GPa)
#
#
# Indices 1 2 3 4 5 6 
#
# 1 0.025044 -0.000972 -0.007399 0.000000 0.003025 0.000000
# 2 -0.000972 0.009911 -0.003299 0.000000 -0.002270 0.000000
# 3 -0.007399 -0.003299 0.011819 0.000000 -0.001785 0.000000
# 4 0.000000 0.000000 0.000000 0.029723 0.000000 0.004314
# 5 0.003025 -0.002270 -0.001785 0.000000 0.029891 0.000000
# 6 0.000000 0.000000 0.000000 0.004314 0.000000 0.052493
#
#
# Mechanical properties :
#
#
# Convention : Reuss Voigt Hill
#
# Bulk Modulus (GPa) = 42.66981 54.65122 48.66051
# Shear Modulus (GPa) = 26.31136 30.55126 28.43131
#
# Velocity S-wave (km/s) = 3.55502 3.83076 3.69546
# Velocity P-wave (km/s) = 6.11118 6.76882 6.44839
#
# Compressibility (1/GPa) = 0.02343577
#
# Stress axis : x y z
#
# Youngs Moduli (GPa) = 39.92954 100.89486 84.60884
#
# Poissons Ratio (x) = 0.09804 0.62600
# Poissons Ratio (y) = 0.03880 0.27912
# Poissons Ratio (z) = 0.29543 0.33284
#
# Static dielectric constant tensor:
#      x y z
#    x 1.756560 0.000000 -0.017260 
#    y 0.000000 1.745180 0.000000 
#    z -0.017260 0.000000 1.731400 
# 
# From -- ./inp_files/305024.got.cif
#   From: 2010.05.17/outbox.cif.g08.bks.cpg/sg12_153_cif.got.tgz:305024.got - 2010.06.03 13:09:07.
