data_PCOD9194829
_publ_section_title
;
Structure prediction by ZEFSAII (Michael W. Deem and Ramdas Pophale) SiO2 
 PCOD9194829
Probable space group: C 2/M
;
_chemical_formula_sum "Si O2"
_cell_formula_units_Z 64
_cell_length_a 9.596909
_cell_length_b 17.261047
_cell_length_c 18.972029
_cell_angle_alpha 90.000000
_cell_angle_beta 92.697388
_cell_angle_gamma 90.000000
_cell_volume 3139.285658
_symmetry_space_group_name_H-M "C 2/M"
_symmetry_group_IT_number 12
_symmetry_cell_setting 'monoclinic'
loop_
_space_group_symop_operation_xyz
x,y,z
-x,y,-z
-x,-y,-z
x,-y,z
1/2+x,1/2+y,z
1/2-x,1/2+y,-z
1/2-x,1/2-y,-z
1/2+x,1/2-y,z
loop_
_atom_site_type_symbol
_atom_site_label
_atom_site_fract_x
_atom_site_fract_y
_atom_site_fract_z
Si Si1 0.607588 0.917546 0.437381
Si Si2 0.809037 0.281981 0.338515
Si Si3 0.610639 0.590512 0.889486
Si Si4 0.351724 0.295614 0.902266
Si Si5 0.849365 0.644303 0.999280
Si Si6 0.416362 0.746607 0.567757
Si Si7 0.956380 0.414182 0.280533
Si Si8 0.702438 0.825559 0.218459
O O1 0.500000 0.920049 0.500000
O O2 0.662891 0.829728 0.445683
O O3 0.528831 0.919022 0.360102
O O4 0.689078 0.000000 0.442743
O O5 0.700959 0.304111 0.397540
O O6 0.754472 0.209031 0.293376
O O7 0.958952 0.260935 0.374055
O O8 0.832083 0.353958 0.287346
O O9 0.575881 0.500000 0.881792
O O10 0.478143 0.644095 0.904148
O O11 0.727888 0.601722 0.952890
O O12 0.681903 0.625806 0.820921
O O13 0.370963 0.226529 0.959520
O O14 0.337890 0.248403 0.829864
O O15 0.210571 0.337935 0.924706
O O16 0.000000 0.604883 0.000000
O O17 0.500000 0.722360 0.500000
O O18 0.913092 0.500000 0.258878
O O19 0.069861 0.379119 0.230452
#
# Coordination Sequence:
#
# PCOD9194829 Si02
#       8
#     8   8   8   8   8   8   8   8
#     4   8  14  27  48  76 107 142 187 236 287 343
#     4  11  20  37  59  88 118 158 204 249 303 362
#     4  11  24  39  62  92 124 158 197 250 300 348
#     4  10  21  38  62  87 121 155 200 244 295 357
#     4  10  20  38  62  92 118 158 199 238 291 354
#     4  10  20  34  57  89 121 154 201 257 305 357
#     4  10  20  35  56  81 114 153 194 244 295 354
#     4  11  21  38  61  86 118 156 208 247 293 359
#
# _framework density 20.386804000000001
#
# number of rings (size 3 to 8) (size 9 to 14) (size 15 to 20)
#    0.000    1.875    2.500    4.125    0.000    2.250 
#    0.000    0.625    0.000    1.125    0.000    0.000 
#    0.000    0.000    0.000    0.000    0.000    0.000 
#
# Total GULP energy -178458.208608 kJ/mol
# GULP energy per Si atom -5576.819019 kJ/mol
# Density = 2.034040 g / cm^3
# Si number density = 20.386804 Si / 1000 Ang^3
#
#
#
# Elastic Constant Matrix: (Units=GPa)
#
#
# Indices 1 2 3 4 5 6 
#
# 1 87.6652 35.2209 12.6665 0.0000 -19.2560 0.0000
# 2 35.2209 93.9930 7.6526 0.0000 -15.1180 0.0000
# 3 12.6665 7.6526 55.0284 0.0000 -12.0680 0.0000
# 4 0.0000 0.0000 0.0000 19.2339 0.0000 1.7476
# 5 -19.2560 -15.1180 -12.0680 0.0000 33.3351 0.0000
# 6 0.0000 0.0000 0.0000 1.7476 0.0000 15.2047
#
#
#
# Elastic Compliance Matrix: (Units=1/GPa)
#
#
# Indices 1 2 3 4 5 6 
#
# 1 0.014708 -0.004434 -0.001463 0.000000 0.005956 0.000000
# 2 -0.004434 0.012826 -0.000053 0.000000 0.003236 0.000000
# 3 -0.001463 -0.000053 0.019906 0.000000 0.006337 0.000000
# 4 0.000000 0.000000 0.000000 0.052540 0.000000 -0.006039
# 5 0.005956 0.003236 0.006337 0.000000 0.037200 0.000000
# 6 0.000000 0.000000 0.000000 -0.006039 0.000000 0.066463
#
#
# Mechanical properties :
#
#
# Convention : Reuss Voigt Hill
#
# Bulk Modulus (GPa) = 28.13799 38.64071 33.38935
# Shear Modulus (GPa) = 21.98855 25.63119 23.80987
#
# Velocity S-wave (km/s) = 3.28772 3.54961 3.42117
# Velocity P-wave (km/s) = 5.31452 5.98286 5.65857
#
# Compressibility (1/GPa) = 0.03553914
#
# Stress axis : x y z
#
# Youngs Moduli (GPa) = 67.98957 77.96948 50.23520
#
# Poissons Ratio (x) = 0.34575 0.07348
# Poissons Ratio (y) = 0.30149 0.00268
# Poissons Ratio (z) = 0.09945 0.00415
#
# Static dielectric constant tensor:
#      x y z
#    x 1.727390 0.000000 0.010820 
#    y 0.000000 1.766450 0.000000 
#    z 0.010820 0.000000 1.772510 
# 
# From -- ./inp_files/300797.got.cif
#   From: 2010.05.17/outbox.cif.g08.bks.cpg/sg12_151_cif.got.tgz:300797.got - 2010.06.03 13:09:07.
