data_PCOD9194396
_publ_section_title
;
Structure prediction by ZEFSAII (Michael W. Deem and Ramdas Pophale) SiO2 
 PCOD9194396
Probable space group: C 2/M
;
_chemical_formula_sum "Si O2"
_cell_formula_units_Z 48
_cell_length_a 13.529593
_cell_length_b 13.942259
_cell_length_c 14.960227
_cell_angle_alpha 90.000000
_cell_angle_beta 118.313272
_cell_angle_gamma 90.000000
_cell_volume 2484.391698
_symmetry_space_group_name_H-M "C 2/M"
_symmetry_group_IT_number 12
_symmetry_cell_setting 'monoclinic'
loop_
_space_group_symop_operation_xyz
x,y,z
-x,y,-z
-x,-y,-z
x,-y,z
1/2+x,1/2+y,z
1/2-x,1/2+y,-z
1/2-x,1/2-y,-z
1/2+x,1/2-y,z
loop_
_atom_site_type_symbol
_atom_site_label
_atom_site_fract_x
_atom_site_fract_y
_atom_site_fract_z
Si Si1 0.926353 0.612624 0.785379
Si Si2 0.165025 0.615099 0.809622
Si Si3 0.625969 0.783142 0.417690
Si Si4 0.398954 0.709090 0.887603
Si Si5 0.366712 0.889984 0.402227
Si Si6 0.905309 0.891923 0.703117
O O1 0.906759 0.500000 0.790960
O O2 0.061032 0.628922 0.831745
O O3 0.873334 0.647568 0.668341
O O4 0.882637 0.683161 0.843179
O O5 0.185435 0.500000 0.812190
O O6 0.282659 0.667276 0.876693
O O7 0.122195 0.650306 0.693470
O O8 0.750000 0.750000 0.500000
O O9 0.588140 0.839533 0.489254
O O10 0.562370 0.687243 0.356874
O O11 0.431829 0.647102 0.813473
O O12 0.500000 0.705592 0.000000
O O13 0.230653 0.892842 0.355946
O O14 0.402133 0.000000 0.412568
O O15 0.946027 0.000000 0.705622
#
# Coordination Sequence:
#
# PCOD9194396 Si02
#       6
#     8   8   8   8   8   8
#     4  10  21  36  54  78 109 143 178 220 270 319
#     4   9  19  35  54  80 110 137 176 227 269 314
#     4   9  16  27  46  74 103 136 172 211 256 310
#     4  10  20  34  56  79 103 138 181 226 275 324
#     4   8  13  24  43  67  96 126 160 204 250 297
#     4   8  15  27  43  68  99 128 164 212 257 300
#
# _framework density 19.320625
#
# number of rings (size 3 to 8) (size 9 to 14) (size 15 to 20)
#    0.000    3.000    0.000    3.000    0.000    3.667 
#    0.000    2.500    0.000    5.000    0.000    5.833 
#    0.000    0.000    0.000    0.000    0.000    0.000 
#
# Total GULP energy -133732.638142 kJ/mol
# GULP energy per Si atom -5572.193256 kJ/mol
# Density = 1.927665 g / cm^3
# Si number density = 19.320625 Si / 1000 Ang^3
#
#
#
# Elastic Constant Matrix: (Units=GPa)
#
#
# Indices 1 2 3 4 5 6 
#
# 1 40.6807 16.8542 5.3567 0.0000 11.1796 0.0000
# 2 16.8542 130.7534 26.5442 0.0000 -1.0745 0.0000
# 3 5.3567 26.5442 97.0863 0.0000 20.6963 0.0000
# 4 0.0000 0.0000 0.0000 7.1832 0.0000 -0.7275
# 5 11.1796 -1.0745 20.6963 0.0000 20.1584 0.0000
# 6 0.0000 0.0000 0.0000 -0.7275 0.0000 24.9377
#
#
#
# Elastic Compliance Matrix: (Units=1/GPa)
#
#
# Indices 1 2 3 4 5 6 
#
# 1 0.032494 -0.005302 0.004556 0.000000 -0.022981 0.000000
# 2 -0.005302 0.009156 -0.003766 0.000000 0.007295 0.000000
# 3 0.004556 -0.003766 0.014927 0.000000 -0.018052 0.000000
# 4 0.000000 0.000000 0.000000 0.139626 0.000000 0.004073
# 5 -0.022981 0.007295 -0.018052 0.000000 0.081275 0.000000
# 6 0.000000 0.000000 0.000000 0.004073 0.000000 0.040219
#
#
# Mechanical properties :
#
#
# Convention : Reuss Voigt Hill
#
# Bulk Modulus (GPa) = 21.02966 40.67005 30.84985
# Shear Modulus (GPa) = 14.59548 25.10686 19.85117
#
# Velocity S-wave (km/s) = 2.75150 3.60875 3.20888
# Velocity P-wave (km/s) = 4.58285 6.20160 5.45263
#
# Compressibility (1/GPa) = 0.04755189
#
# Stress axis : x y z
#
# Youngs Moduli (GPa) = 30.77493 109.21930 66.99431
#
# Poissons Ratio (x) = 0.57910 -0.30521
# Poissons Ratio (y) = 0.16317 0.25229
# Poissons Ratio (z) = -0.14020 0.41130
#
# Static dielectric constant tensor:
#      x y z
#    x 1.736850 0.000000 0.019280 
#    y 0.000000 1.709410 0.000000 
#    z 0.019280 0.000000 1.687990 
# 
# From -- ./inp_files/214400.got.cif
#   From: 2010.05.17/outbox.cif.g08.bks.cpg/sg12_108_cif.got.tgz:214400.got - 2010.06.03 13:09:07.
