data_PCOD9194923
_publ_section_title
;
Structure prediction by ZEFSAII (Michael W. Deem and Ramdas Pophale) SiO2 
 PCOD9194923
Probable space group: C 2/M
;
_chemical_formula_sum "Si O2"
_cell_formula_units_Z 44
_cell_length_a 9.015591
_cell_length_b 25.349140
_cell_length_c 10.456005
_cell_angle_alpha 90.000000
_cell_angle_beta 114.399000
_cell_angle_gamma 90.000000
_cell_volume 2176.176903
_symmetry_space_group_name_H-M "C 2/M"
_symmetry_group_IT_number 12
_symmetry_cell_setting 'monoclinic'
loop_
_space_group_symop_operation_xyz
x,y,z
-x,y,-z
-x,-y,-z
x,-y,z
1/2+x,1/2+y,z
1/2-x,1/2+y,-z
1/2-x,1/2-y,-z
1/2+x,1/2-y,z
loop_
_atom_site_type_symbol
_atom_site_label
_atom_site_fract_x
_atom_site_fract_y
_atom_site_fract_z
Si Si1 0.146172 0.835587 0.796505
Si Si2 0.500000 0.626751 0.000000
Si Si3 0.307898 0.365444 0.587750
Si Si4 0.918979 0.635367 0.737676
Si Si5 0.383972 0.776941 0.336705
Si Si6 0.705698 0.062496 0.768729
O O1 0.321112 0.861828 0.834534
O O2 0.163919 0.777004 0.746728
O O3 0.001887 0.865320 0.666646
O O4 0.083582 0.838859 0.918934
O O5 0.358145 0.589631 0.894130
O O6 0.222041 0.363722 0.421071
O O7 0.256303 0.312864 0.649763
O O8 0.226971 0.414320 0.633419
O O9 0.026386 0.686109 0.735133
O O10 0.038637 0.586183 0.764673
O O11 0.500000 0.765120 0.500000
O O12 0.711522 0.000000 0.775949
#
# Coordination Sequence:
#
# PCOD9194923 Si02
#       6
#     8   4   8   8   8   8
#     4  11  20  35  55  80 117 155 185 222 266 318
#     4  10  25  42  56  78 106 148 195 230 272 326
#     4   9  19  34  56  90 119 142 176 219 278 340
#     4  10  20  34  58  90 114 139 184 229 271 330
#     4   9  17  32  56  85 118 151 178 214 273 334
#     4  10  21  41  63  79 106 144 182 230 283 331
#
# _framework density 20.218945999999999
#
# number of rings (size 3 to 8) (size 9 to 14) (size 15 to 20)
#    0.000    2.182    0.000    4.636    0.000    5.091 
#    0.000   20.000    0.000    5.455    0.000    0.000 
#    0.000    0.000    0.000    0.000    0.000    0.000 
#
# Total GULP energy -122868.046746 kJ/mol
# GULP energy per Si atom -5584.911216 kJ/mol
# Density = 2.017293 g / cm^3
# Si number density = 20.218946 Si / 1000 Ang^3
#
#
#
# Elastic Constant Matrix: (Units=GPa)
#
#
# Indices 1 2 3 4 5 6 
#
# 1 138.6785 39.9512 22.7438 0.0000 -16.8764 0.0000
# 2 39.9512 114.0926 22.1235 0.0000 -12.4775 0.0000
# 3 22.7438 22.1235 31.4490 0.0000 -15.2375 0.0000
# 4 0.0000 0.0000 0.0000 11.6466 0.0000 12.0498
# 5 -16.8764 -12.4775 -15.2375 0.0000 21.2782 0.0000
# 6 0.0000 0.0000 0.0000 12.0498 0.0000 3.0506
#
#
#
# Elastic Compliance Matrix: (Units=1/GPa)
#
#
# Indices 1 2 3 4 5 6 
#
# 1 0.008750 -0.002066 -0.003215 0.000000 0.003427 0.000000
# 2 -0.002066 0.010660 -0.005773 0.000000 0.000478 0.000000
# 3 -0.003215 -0.005773 0.054067 0.000000 0.032783 0.000000
# 4 0.000000 0.000000 0.000000 -0.027816 0.000000 0.109874
# 5 0.003427 0.000478 0.032783 0.000000 0.073471 0.000000
# 6 0.000000 0.000000 0.000000 0.109874 0.000000 -0.106197
#
#
# Mechanical properties :
#
#
# Convention : Reuss Voigt Hill
#
# Bulk Modulus (GPa) = 19.46655 50.42856 34.94756
# Shear Modulus (GPa) = 95.84659 20.48851 58.16755
#
# Velocity S-wave (km/s) = 6.89255 3.18674 5.36948
# Velocity P-wave (km/s) = 8.54352 6.20772 7.46752
#
# Compressibility (1/GPa) = 0.05137016
#
# Stress axis : x y z
#
# Youngs Moduli (GPa) = 114.28174 93.80850 18.49544
#
# Poissons Ratio (x) = 0.19381 0.05945
# Poissons Ratio (y) = 0.23610 0.10678
# Poissons Ratio (z) = 0.36736 0.54158
#
# Static dielectric constant tensor:
#      x y z
#    x 1.744390 0.000000 -0.010600 
#    y 0.000000 1.672710 0.000000 
#    z -0.010600 0.000000 1.768490 
# 
# From -- ./inp_files/121748.got.cif
#   From: 2010.05.17/outbox.cif.g08.bks.cpg/sg12_61_cif.got.tgz:121748.got - 2010.06.03 13:09:07.
