data_PCOD9194364
_publ_section_title
;
Structure prediction by ZEFSAII (Michael W. Deem and Ramdas Pophale) SiO2 
 PCOD9194364
Probable space group: C 2/M
;
_chemical_formula_sum "Si O2"
_cell_formula_units_Z 64
_cell_length_a 25.490885
_cell_length_b 14.211004
_cell_length_c 14.958083
_cell_angle_alpha 90.000000
_cell_angle_beta 140.143400
_cell_angle_gamma 90.000000
_cell_volume 3472.597369
_symmetry_space_group_name_H-M "C 2/M"
_symmetry_group_IT_number 12
_symmetry_cell_setting 'monoclinic'
loop_
_space_group_symop_operation_xyz
x,y,z
-x,y,-z
-x,-y,-z
x,-y,z
1/2+x,1/2+y,z
1/2-x,1/2+y,-z
1/2-x,1/2-y,-z
1/2+x,1/2-y,z
loop_
_atom_site_type_symbol
_atom_site_label
_atom_site_fract_x
_atom_site_fract_y
_atom_site_fract_z
Si Si1 0.573392 0.610848 0.370190
Si Si2 0.409586 0.614103 0.409188
Si Si3 0.115732 0.394152 0.953123
Si Si4 0.406372 0.612402 0.908447
Si Si5 0.402184 0.106462 0.863225
Si Si6 0.207456 0.109699 0.902925
Si Si7 0.095017 0.809662 0.894393
Si Si8 0.165725 0.774637 0.340073
O O1 0.588836 0.500000 0.373719
O O2 0.608998 0.639285 0.513007
O O3 0.476122 0.628726 0.244226
O O4 0.609087 0.674990 0.339265
O O5 0.500000 0.647183 0.500000
O O6 0.411263 0.500000 0.410654
O O7 0.344164 0.643571 0.250489
O O8 0.079393 0.500000 0.896126
O O9 0.069133 0.300054 0.862263
O O10 0.132554 0.382148 0.081469
O O11 0.198823 0.390844 0.004704
O O12 0.400822 0.500000 0.905070
O O13 0.340914 0.654212 0.753059
O O14 0.500000 0.636071 0.000000
O O15 0.395275 0.656087 0.991561
O O16 0.369182 0.179633 0.748957
O O17 0.384357 0.000000 0.811332
O O18 0.500000 0.117474 0.000000
O O19 0.177758 0.170949 0.947574
O O20 0.185869 0.000000 0.893509
O O21 0.250000 0.750000 0.500000
#
# Coordination Sequence:
#
# PCOD9194364 Si02
#       8
#     8   8   8   8   8   8   8   8
#     4  11  22  36  59  88 118 155 197 244 301 358
#     4   9  17  31  52  82 118 149 184 230 285 356
#     4  10  22  37  55  81 114 150 190 245 299 347
#     4  11  22  38  61  89 123 157 197 249 304 364
#     4  10  21  41  63  80 106 155 209 249 283 338
#     4  10  20  34  55  87 120 149 186 240 304 358
#     4  12  20  35  61  88 115 152 201 245 296 363
#     4  12  25  38  55  86 123 157 193 239 300 365
#
# _framework density 18.430008999999998
#
# number of rings (size 3 to 8) (size 9 to 14) (size 15 to 20)
#    0.000    1.375    3.750    3.000    1.750    1.000 
#    0.000    0.000    0.000    0.000    0.000    2.625 
#    0.000    0.000    0.000    0.000    0.000    0.000 
#
# Total GULP energy -178558.847105 kJ/mol
# GULP energy per Si atom -5579.963972 kJ/mol
# Density = 1.838806 g / cm^3
# Si number density = 18.430009 Si / 1000 Ang^3
#
#
#
# Elastic Constant Matrix: (Units=GPa)
#
#
# Indices 1 2 3 4 5 6 
#
# 1 102.9129 35.8791 17.5864 0.0000 -20.5489 0.0000
# 2 35.8791 117.9601 22.1203 0.0000 -12.5457 0.0000
# 3 17.5864 22.1203 43.9168 0.0000 -12.9380 0.0000
# 4 0.0000 0.0000 0.0000 20.5348 0.0000 -2.4025
# 5 -20.5489 -12.5457 -12.9380 0.0000 25.7123 0.0000
# 6 0.0000 0.0000 0.0000 -2.4025 0.0000 22.2192
#
#
#
# Elastic Compliance Matrix: (Units=1/GPa)
#
#
# Indices 1 2 3 4 5 6 
#
# 1 0.012477 -0.002704 -0.001274 0.000000 0.008011 0.000000
# 2 -0.002704 0.010095 -0.003742 0.000000 0.000882 0.000000
# 3 -0.001274 -0.003742 0.028562 0.000000 0.011527 0.000000
# 4 0.000000 0.000000 0.000000 0.049322 0.000000 0.005333
# 5 0.008011 0.000882 0.011527 0.000000 0.051524 0.000000
# 6 0.000000 0.000000 0.000000 0.005333 0.000000 0.045583
#
#
# Mechanical properties :
#
#
# Convention : Reuss Voigt Hill
#
# Bulk Modulus (GPa) = 28.01719 46.21793 37.11756
# Shear Modulus (GPa) = 22.23190 26.30687 24.26939
#
# Velocity S-wave (km/s) = 3.47693 3.78218 3.63277
# Velocity P-wave (km/s) = 5.59944 6.64870 6.14650
#
# Compressibility (1/GPa) = 0.03569238
#
# Stress axis : x y z
#
# Youngs Moduli (GPa) = 80.14747 99.05432 35.01206
#
# Poissons Ratio (x) = 0.26785 0.04462
# Poissons Ratio (y) = 0.21672 0.13103
# Poissons Ratio (z) = 0.10214 0.37070
#
# Static dielectric constant tensor:
#      x y z
#    x 1.661900 0.000000 0.016050 
#    y 0.000000 1.656960 0.000000 
#    z 0.016050 0.000000 1.625710 
# 
# From -- ./inp_files/240704.got.cif
#   From: 2010.05.17/outbox.cif.g08.bks.cpg/sg12_121_cif.got.tgz:240704.got - 2010.06.03 13:09:07.
