data_PCOD9194328
_publ_section_title
;
Structure prediction by ZEFSAII (Michael W. Deem and Ramdas Pophale) SiO2 
 PCOD9194328
Probable space group: C 2/M
;
_chemical_formula_sum "Si O2"
_cell_formula_units_Z 40
_cell_length_a 25.911635
_cell_length_b 8.410392
_cell_length_c 8.136687
_cell_angle_alpha 90.000000
_cell_angle_beta 94.039210
_cell_angle_gamma 90.000000
_cell_volume 1768.799353
_symmetry_space_group_name_H-M "C 2/M"
_symmetry_group_IT_number 12
_symmetry_cell_setting 'monoclinic'
loop_
_space_group_symop_operation_xyz
x,y,z
-x,y,-z
-x,-y,-z
x,-y,z
1/2+x,1/2+y,z
1/2-x,1/2+y,-z
1/2-x,1/2-y,-z
1/2+x,1/2-y,z
loop_
_atom_site_type_symbol
_atom_site_label
_atom_site_fract_x
_atom_site_fract_y
_atom_site_fract_z
Si Si1 0.633153 0.808051 0.194848
Si Si2 0.164623 0.808684 0.541788
Si Si3 0.485576 0.179649 0.810928
Si Si4 0.698657 0.809371 0.897898
Si Si5 0.551451 0.682199 0.591033
O O1 0.669761 0.749969 0.354222
O O2 0.573529 0.757763 0.217409
O O3 0.632998 0.000000 0.196882
O O4 0.653376 0.758836 0.018022
O O5 0.196118 0.753416 0.709610
O O6 0.106831 0.746131 0.574315
O O7 0.167099 0.000000 0.539739
O O8 0.531101 0.299346 0.768175
O O9 0.488406 0.000000 0.738836
O O10 0.500000 0.157030 0.000000
O O11 0.697777 0.000000 0.889293
O O12 0.750000 0.750000 0.000000
O O13 0.500000 0.756426 0.500000
O O14 0.554847 0.500000 0.537611
#
# Coordination Sequence:
#
# PCOD9194328 Si02
#       5
#     8   8   8   8   8
#     4  10  22  40  63  91 124 163 208 258 311 372
#     4  11  23  40  65  94 128 168 210 255 308 369
#     4  10  20  34  55  85 120 160 205 250 299 357
#     4  11  25  46  69  93 123 158 206 264 322 377
#     4  10  20  35  54  84 124 161 198 240 290 351
#
# _framework density 22.61421
#
# number of rings (size 3 to 8) (size 9 to 14) (size 15 to 20)
#    0.000    1.600    2.000    2.400    0.000    6.400 
#    0.000    0.000    0.000    0.000    0.000    0.000 
#    0.000    0.000    0.000    0.000    0.000    0.000 
#
# Total GULP energy -111355.196436 kJ/mol
# GULP energy per Si atom -5567.759822 kJ/mol
# Density = 2.256274 g / cm^3
# Si number density = 22.614210 Si / 1000 Ang^3
#
#
#
# Elastic Constant Matrix: (Units=GPa)
#
#
# Indices 1 2 3 4 5 6 
#
# 1 58.0961 0.9664 -2.7221 0.0000 10.5095 0.0000
# 2 0.9664 36.9377 20.9317 0.0000 -0.4854 0.0000
# 3 -2.7221 20.9317 95.1740 0.0000 23.5472 0.0000
# 4 0.0000 0.0000 0.0000 11.8024 0.0000 -0.0355
# 5 10.5095 -0.4854 23.5472 0.0000 35.6679 0.0000
# 6 0.0000 0.0000 0.0000 -0.0355 0.0000 26.2276
#
#
#
# Elastic Compliance Matrix: (Units=1/GPa)
#
#
# Indices 1 2 3 4 5 6 
#
# 1 0.018729 -0.002210 0.002862 0.000000 -0.007438 0.000000
# 2 -0.002210 0.032251 -0.008876 0.000000 0.006949 0.000000
# 3 0.002862 -0.008876 0.015274 0.000000 -0.011048 0.000000
# 4 0.000000 0.000000 0.000000 0.084729 0.000000 0.000115
# 5 -0.007438 0.006949 -0.011048 0.000000 0.037616 0.000000
# 6 0.000000 0.000000 0.000000 0.000115 0.000000 0.038128
#
#
# Mechanical properties :
#
#
# Convention : Reuss Voigt Hill
#
# Bulk Modulus (GPa) = 20.07698 25.39555 22.73627
# Shear Modulus (GPa) = 19.24726 26.14169 22.69448
#
# Velocity S-wave (km/s) = 2.92055 3.40367 3.17132
# Velocity P-wave (km/s) = 4.50224 5.16729 4.84618
#
# Compressibility (1/GPa) = 0.04980829
#
# Stress axis : x y z
#
# Youngs Moduli (GPa) = 53.39247 31.00650 65.46947
#
# Poissons Ratio (x) = 0.06851 -0.18736
# Poissons Ratio (y) = 0.11797 0.58108
# Poissons Ratio (z) = -0.15280 0.27520
#
# Static dielectric constant tensor:
#      x y z
#    x 1.884000 0.000000 -0.013600 
#    y 0.000000 1.830030 0.000000 
#    z -0.013600 0.000000 1.965440 
# 
# From -- ./inp_files/92935.got.cif
#   From: 2010.05.17/outbox.cif.g08.bks.cpg/sg12_47_cif.got.tgz:92935.got - 2010.06.03 13:09:07.
