data_PCOD9194956
_publ_section_title
;
Structure prediction by ZEFSAII (Michael W. Deem and Ramdas Pophale) SiO2 
 PCOD9194956
Probable space group: C 2/M
;
_chemical_formula_sum "Si O2"
_cell_formula_units_Z 56
_cell_length_a 14.144114
_cell_length_b 22.032618
_cell_length_c 9.578066
_cell_angle_alpha 90.000000
_cell_angle_beta 65.818671
_cell_angle_gamma 90.000000
_cell_volume 2722.922544
_symmetry_space_group_name_H-M "C 2/M"
_symmetry_group_IT_number 12
_symmetry_cell_setting 'monoclinic'
loop_
_space_group_symop_operation_xyz
x,y,z
-x,y,-z
-x,-y,-z
x,-y,z
1/2+x,1/2+y,z
1/2-x,1/2+y,-z
1/2-x,1/2-y,-z
1/2+x,1/2-y,z
loop_
_atom_site_type_symbol
_atom_site_label
_atom_site_fract_x
_atom_site_fract_y
_atom_site_fract_z
Si Si1 0.884656 0.500000 0.635855
Si Si2 0.756492 0.385178 0.601848
Si Si3 0.490799 0.000000 0.173120
Si Si4 0.786811 0.322284 0.842479
Si Si5 0.337624 0.891634 0.250509
Si Si6 0.968063 0.928135 0.181095
Si Si7 0.194539 0.070064 0.085656
Si Si8 0.107811 0.723425 0.969398
O O1 0.819073 0.443585 0.619772
O O2 0.000000 0.500000 0.500000
O O3 0.908650 0.500000 0.788230
O O4 0.804925 0.333319 0.669712
O O5 0.775088 0.376341 0.427703
O O6 0.634761 0.393034 0.711232
O O7 0.426825 0.061235 0.241046
O O8 0.500000 0.000000 0.000000
O O9 0.701049 0.270064 0.901436
O O10 0.739640 0.382853 0.944924
O O11 0.883212 0.303424 0.879885
O O12 0.265300 0.924439 0.179541
O O13 0.379526 0.832433 0.145498
O O14 0.075688 0.912804 0.193425
O O15 0.946008 0.000000 0.213809
O O16 0.000000 0.918950 0.000000
O O17 0.190925 0.000000 0.037893
O O18 0.000000 0.754554 0.000000
#
# Coordination Sequence:
#
# PCOD9194956 Si02
#       8
#     4   8   4   8   8   8   8   8
#     4  12  26  42  60  98 147 170 211 269 332 391
#     4  12  24  39  65  95 138 170 213 267 325 394
#     4  12  26  40  67  94 128 181 216 263 332 386
#     4  10  24  41  68  96 124 171 219 270 326 384
#     4  11  24  42  62  97 132 169 217 264 330 392
#     4  10  20  34  58  94 129 169 209 253 319 383
#     4  10  21  38  64  96 132 162 214 258 316 396
#     4  10  24  46  67  91 126 170 228 277 319 386
#
# _framework density 20.566137999999999
#
# number of rings (size 3 to 8) (size 9 to 14) (size 15 to 20)
#    0.000    1.286    4.286    0.429    9.000    1.143 
#    0.000    1.429    0.000    0.000    0.000    0.000 
#    0.000    0.000    0.000    0.000    0.000    0.000 
#
# Total GULP energy -156433.974297 kJ/mol
# GULP energy per Si atom -5586.927653 kJ/mol
# Density = 2.051933 g / cm^3
# Si number density = 20.566138 Si / 1000 Ang^3
#
#
#
# Elastic Constant Matrix: (Units=GPa)
#
#
# Indices 1 2 3 4 5 6 
#
# 1 101.8046 3.4157 -3.1528 0.0000 0.2131 0.0000
# 2 3.4157 50.2414 -7.2780 0.0000 10.2852 0.0000
# 3 -3.1528 -7.2780 62.9756 0.0000 5.4511 0.0000
# 4 0.0000 0.0000 0.0000 -6.8416 0.0000 -2.6245
# 5 0.2131 10.2852 5.4511 0.0000 26.9598 0.0000
# 6 0.0000 0.0000 0.0000 -2.6245 0.0000 0.8930
#
#
#
# Elastic Compliance Matrix: (Units=1/GPa)
#
#
# Indices 1 2 3 4 5 6 
#
# 1 0.009856 -0.000626 0.000414 0.000000 0.000077 0.000000
# 2 -0.000626 0.022310 0.003342 0.000000 -0.009182 0.000000
# 3 0.000414 0.003342 0.016689 0.000000 -0.004653 0.000000
# 4 0.000000 0.000000 0.000000 -0.068705 0.000000 -0.201927
# 5 0.000077 -0.009182 -0.004653 0.000000 0.041535 0.000000
# 6 0.000000 0.000000 0.000000 -0.201927 0.000000 0.526398
#
#
# Mechanical properties :
#
#
# Convention : Reuss Voigt Hill
#
# Bulk Modulus (GPa) = 18.14339 22.33239 20.23789
# Shear Modulus (GPa) = 8.92546 19.00467 13.96507
#
# Velocity S-wave (km/s) = 2.08550 3.04316 2.60865
# Velocity P-wave (km/s) = 3.82625 4.81977 4.35146
#
# Compressibility (1/GPa) = 0.05511649
#
# Stress axis : x y z
#
# Youngs Moduli (GPa) = 101.45686 44.82233 59.92028
#
# Poissons Ratio (x) = 0.02805 -0.02483
# Poissons Ratio (y) = 0.06350 -0.20024
# Poissons Ratio (z) = -0.04205 -0.14979
#
# Static dielectric constant tensor:
#      x y z
#    x 1.751580 0.000000 0.001600 
#    y 0.000000 1.760520 0.000000 
#    z 0.001600 0.000000 1.745840 
# 
# From -- ./inp_files/65821.got.cif
#   From: 2010.05.17/outbox.cif.g08.bks.cpg/sg12_33_cif.got.tgz:65821.got - 2010.06.03 13:09:07.
