data_PCOD9194241
_publ_section_title
;
Structure prediction by ZEFSAII (Michael W. Deem and Ramdas Pophale) SiO2 
 PCOD9194241
Probable space group: C 2/M
;
_chemical_formula_sum "Si O2"
_cell_formula_units_Z 52
_cell_length_a 8.076605
_cell_length_b 12.406815
_cell_length_c 24.918611
_cell_angle_alpha 90.000000
_cell_angle_beta 82.371153
_cell_angle_gamma 90.000000
_cell_volume 2474.866925
_symmetry_space_group_name_H-M "C 2/M"
_symmetry_group_IT_number 12
_symmetry_cell_setting 'monoclinic'
loop_
_space_group_symop_operation_xyz
x,y,z
-x,y,-z
-x,-y,-z
x,-y,z
1/2+x,1/2+y,z
1/2-x,1/2+y,-z
1/2-x,1/2-y,-z
1/2+x,1/2-y,z
loop_
_atom_site_type_symbol
_atom_site_label
_atom_site_fract_x
_atom_site_fract_y
_atom_site_fract_z
Si Si1 0.136867 0.500000 0.114154
Si Si2 0.615477 0.380028 0.314032
Si Si3 0.847404 0.180347 0.039685
Si Si4 0.283051 0.707934 0.375912
Si Si5 0.620772 0.184780 0.858085
Si Si6 0.020320 0.119735 0.193324
Si Si7 0.046865 0.377532 0.559935
O O1 0.240193 0.593549 0.076183
O O2 0.016840 0.594509 0.146373
O O3 0.683368 0.500000 0.321556
O O4 0.445198 0.361159 0.354750
O O5 0.738538 0.286275 0.328063
O O6 0.567935 0.374223 0.253663
O O7 0.908113 0.264909 0.082117
O O8 0.750000 0.250000 0.000000
O O9 0.000000 0.130386 0.000000
O O10 0.122244 0.638717 0.398346
O O11 0.326282 0.789105 0.422761
O O12 0.806584 0.136562 0.846050
O O13 0.601586 0.284862 0.818335
O O14 0.948792 0.000000 0.184068
O O15 0.109380 0.500000 0.562846
O O16 0.000000 0.359907 0.500000
#
# Coordination Sequence:
#
# PCOD9194241 Si02
#       7
#     4   8   8   8   8   8   8
#     4  12  25  43  68  88 124 154 192 238 290 342
#     4  10  21  38  59  86 113 154 194 241 293 343
#     4  12  25  45  64  92 121 155 193 235 288 348
#     4  10  20  36  57  82 119 151 195 245 288 344
#     4  12  24  43  64  92 119 154 194 239 291 347
#     4  11  24  41  65  88 120 154 196 243 294 350
#     4  10  20  34  55  83 116 156 197 239 290 344
#
# _framework density 21.011230999999999
#
# number of rings (size 3 to 8) (size 9 to 14) (size 15 to 20)
#    0.000    1.077    3.846    2.538    1.077    1.231 
#    2.769    0.000    1.692    7.385    0.000    0.000 
#    0.000    0.000    0.000    0.000    0.000    0.000 
#
# Total GULP energy -144820.392918 kJ/mol
# GULP energy per Si atom -5570.015112 kJ/mol
# Density = 2.096341 g / cm^3
# Si number density = 21.011231 Si / 1000 Ang^3
#
#
#
# Elastic Constant Matrix: (Units=GPa)
#
#
# Indices 1 2 3 4 5 6 
#
# 1 16.1705 2.1727 -21.3962 0.0000 -5.0071 0.0000
# 2 2.1727 116.6374 17.1961 0.0000 9.1401 0.0000
# 3 -21.3962 17.1961 58.8644 0.0000 13.5571 0.0000
# 4 0.0000 0.0000 0.0000 -5.9596 0.0000 -4.8882
# 5 -5.0071 9.1401 13.5571 0.0000 30.2160 0.0000
# 6 0.0000 0.0000 0.0000 -4.8882 0.0000 2.8983
#
#
#
# Elastic Compliance Matrix: (Units=1/GPa)
#
#
# Indices 1 2 3 4 5 6 
#
# 1 0.129042 -0.009843 0.049260 0.000000 0.002260 0.000000
# 2 -0.009843 0.009790 -0.006000 0.000000 -0.001901 0.000000
# 3 0.049260 -0.006000 0.038306 0.000000 -0.007209 0.000000
# 4 0.000000 0.000000 0.000000 -0.070404 0.000000 -0.118741
# 5 0.002260 -0.001901 -0.007209 0.000000 0.037279 0.000000
# 6 0.000000 0.000000 0.000000 -0.118741 0.000000 0.144768
#
#
# Mechanical properties :
#
#
# Convention : Reuss Voigt Hill
#
# Bulk Modulus (GPa) = 4.09885 20.84639 12.47262
# Shear Modulus (GPa) = 16.48677 18.34424 17.41551
#
# Velocity S-wave (km/s) = 2.80423 2.95798 2.88213
# Velocity P-wave (km/s) = 3.52703 4.64858 4.12609
#
# Compressibility (1/GPa) = 0.24397113
#
# Stress axis : x y z
#
# Youngs Moduli (GPa) = 7.74942 102.13986 26.10530
#
# Poissons Ratio (x) = 1.00539 -1.28594
# Poissons Ratio (y) = 0.07628 0.15664
# Poissons Ratio (z) = -0.38173 0.61286
#
# Static dielectric constant tensor:
#      x y z
#    x 1.804300 0.000000 0.119330 
#    y 0.000000 1.737040 0.000000 
#    z 0.119330 0.000000 1.996430 
# 
# From -- ./inp_files/355522.got.cif
#   From: 2010.05.17/outbox.cif.g08.bks.cpg/sg12_178_cif.got.tgz:355522.got - 2010.06.03 13:09:07.
