data_PCOD9194952
_publ_section_title
;
Structure prediction by ZEFSAII (Michael W. Deem and Ramdas Pophale) SiO2 
 PCOD9194952
Probable space group: C 2/M
;
_chemical_formula_sum "Si O2"
_cell_formula_units_Z 56
_cell_length_a 26.124144
_cell_length_b 22.815897
_cell_length_c 9.921078
_cell_angle_alpha 90.000000
_cell_angle_beta 151.958329
_cell_angle_gamma 90.000000
_cell_volume 2779.977613
_symmetry_space_group_name_H-M "C 2/M"
_symmetry_group_IT_number 12
_symmetry_cell_setting 'monoclinic'
loop_
_space_group_symop_operation_xyz
x,y,z
-x,y,-z
-x,-y,-z
x,-y,z
1/2+x,1/2+y,z
1/2-x,1/2+y,-z
1/2-x,1/2-y,-z
1/2+x,1/2-y,z
loop_
_atom_site_type_symbol
_atom_site_label
_atom_site_fract_x
_atom_site_fract_y
_atom_site_fract_z
Si Si1 0.760803 0.436739 0.173083
Si Si2 0.094949 0.327995 0.543341
Si Si3 0.964187 0.110857 0.261955
Si Si4 0.191761 0.934227 0.697883
Si Si5 0.655865 0.173198 0.985693
Si Si6 0.654039 0.288578 0.162833
Si Si7 0.390524 0.788179 0.698150
O O1 0.807214 0.500000 0.317731
O O2 0.842649 0.382980 0.376089
O O3 0.646229 0.426773 0.981674
O O4 0.733024 0.437058 0.948899
O O5 0.099581 0.278790 0.438574
O O6 0.152783 0.311675 0.818241
O O7 0.969619 0.344139 0.277322
O O8 0.000000 0.122423 0.500000
O O9 0.064143 0.081264 0.416036
O O10 0.928078 0.170025 0.105239
O O11 0.260935 0.880339 0.796786
O O12 0.206865 0.000000 0.675214
O O13 0.674600 0.230366 0.120103
O O14 0.773537 0.316909 0.455442
O O15 0.613006 0.267989 0.212494
O O16 0.500000 0.821182 0.000000
#
# Coordination Sequence:
#
# PCOD9194952 Si02
#       7
#     8   8   8   8   8   8   8
#     4   9  17  34  58  85 117 155 200 250 304 353
#     4  10  20  38  56  87 120 153 200 249 299 353
#     4  10  20  34  58  93 123 158 197 250 307 360
#     4   9  19  35  56  89 125 156 197 249 307 362
#     4  10  22  35  59  89 122 159 194 248 303 354
#     4  11  24  37  57  91 119 160 200 246 307 365
#     4  11  23  40  57  78 119 162 198 246 295 359
#
# _framework density 20.144047
#
# number of rings (size 3 to 8) (size 9 to 14) (size 15 to 20)
#    0.000    2.000    2.857    0.429    4.000    2.857 
#    0.000    2.857    0.000    1.286    0.000    4.000 
#    0.000    0.000    0.000    0.000    0.000    0.000 
#
# Total GULP energy -156076.653958 kJ/mol
# GULP energy per Si atom -5574.166213 kJ/mol
# Density = 2.009820 g / cm^3
# Si number density = 20.144047 Si / 1000 Ang^3
#
#
#
# Elastic Constant Matrix: (Units=GPa)
#
#
# Indices 1 2 3 4 5 6 
#
# 1 92.3155 37.4988 24.2311 0.0000 3.9419 0.0000
# 2 37.4988 96.2050 28.3939 0.0000 -2.3649 0.0000
# 3 24.2311 28.3939 86.2743 0.0000 12.3265 0.0000
# 4 0.0000 0.0000 0.0000 16.5528 0.0000 9.9146
# 5 3.9419 -2.3649 12.3265 0.0000 26.3789 0.0000
# 6 0.0000 0.0000 0.0000 9.9146 0.0000 3.5993
#
#
#
# Elastic Compliance Matrix: (Units=1/GPa)
#
#
# Indices 1 2 3 4 5 6 
#
# 1 0.013301 -0.004630 -0.002003 0.000000 -0.001467 0.000000
# 2 -0.004630 0.013350 -0.003604 0.000000 0.003573 0.000000
# 3 -0.002003 -0.003604 0.014297 0.000000 -0.006705 0.000000
# 4 0.000000 0.000000 0.000000 -0.092956 0.000000 0.256054
# 5 -0.001467 0.003573 -0.006705 0.000000 0.041582 0.000000
# 6 0.000000 0.000000 0.000000 0.256054 0.000000 -0.427491
#
#
# Mechanical properties :
#
#
# Convention : Reuss Voigt Hill
#
# Bulk Modulus (GPa) = 48.83552 50.56027 49.69789
# Shear Modulus (GPa) = -12.17675 21.61761 4.72043
#
# Velocity S-wave (km/s) = -2.46129 3.27945 1.53246
# Velocity P-wave (km/s) = 4.02722 6.28439 5.27788
#
# Compressibility (1/GPa) = 0.02047690
#
# Stress axis : x y z
#
# Youngs Moduli (GPa) = 75.18101 74.90363 69.94251
#
# Poissons Ratio (x) = 0.34677 0.14006
# Poissons Ratio (y) = 0.34806 0.25207
# Poissons Ratio (z) = 0.15055 0.26995
#
# Static dielectric constant tensor:
#      x y z
#    x 1.731970 0.000000 0.011270 
#    y 0.000000 1.718580 0.000000 
#    z 0.011270 0.000000 1.755630 
# 
# From -- ./inp_files/190399.got.cif
#   From: 2010.05.17/outbox.cif.g08.bks.cpg/sg12_96_cif.got.tgz:190399.got - 2010.06.03 13:09:07.
