data_PCOD9194936
_publ_section_title
;
Structure prediction by ZEFSAII (Michael W. Deem and Ramdas Pophale) SiO2 
 PCOD9194936
Probable space group: C 2/M
;
_chemical_formula_sum "Si O2"
_cell_formula_units_Z 52
_cell_length_a 22.995971
_cell_length_b 10.932506
_cell_length_c 11.351368
_cell_angle_alpha 90.000000
_cell_angle_beta 55.364458
_cell_angle_gamma 90.000000
_cell_volume 2348.040037
_symmetry_space_group_name_H-M "C 2/M"
_symmetry_group_IT_number 12
_symmetry_cell_setting 'monoclinic'
loop_
_space_group_symop_operation_xyz
x,y,z
-x,y,-z
-x,-y,-z
x,-y,z
1/2+x,1/2+y,z
1/2-x,1/2+y,-z
1/2-x,1/2-y,-z
1/2+x,1/2-y,z
loop_
_atom_site_type_symbol
_atom_site_label
_atom_site_fract_x
_atom_site_fract_y
_atom_site_fract_z
Si Si1 0.928820 0.211297 0.811077
Si Si2 0.679363 0.269520 0.658775
Si Si3 0.300734 0.865913 0.931694
Si Si4 0.889289 0.000000 0.392230
Si Si5 0.532471 0.500000 0.091121
Si Si6 0.574595 0.856766 0.644690
Si Si7 0.706880 0.136118 0.333885
Si Si8 0.417960 0.500000 0.630659
O O1 0.875932 0.322618 0.891856
O O2 0.925589 0.122206 0.927843
O O3 0.006662 0.270765 0.708702
O O4 0.907575 0.121547 0.725057
O O5 0.750000 0.250000 0.500000
O O6 0.642985 0.385666 0.640112
O O7 0.619195 0.167494 0.713710
O O8 0.719500 0.291977 0.734712
O O9 0.310201 0.876053 0.781318
O O10 0.276679 0.000000 0.003964
O O11 0.250000 0.750000 0.000000
O O12 0.971782 0.000000 0.261917
O O13 0.879406 0.000000 0.545981
O O14 0.500000 0.500000 0.000000
O O15 0.634997 0.820841 0.479729
O O16 0.557099 0.000000 0.651403
O O17 0.720409 0.000000 0.370229
O O18 0.500000 0.500000 0.500000
#
# Coordination Sequence:
#
# PCOD9194936 Si02
#       8
#     8   8   8   4   4   8   8   4
#     4  11  24  43  68  97 132 165 219 277 330 397
#     4  10  20  34  58  90 128 165 200 250 313 386
#     4  11  27  47  67  91 128 178 226 274 327 391
#     4  12  21  39  62  97 132 163 213 269 319 386
#     4  11  25  42  68  96 121 176 225 266 322 388
#     4  10  20  37  63  97 128 159 202 263 336 388
#     4   9  20  38  62  93 128 168 213 258 321 395
#     4  11  22  36  66 106 134 161 205 274 349 389
#
# _framework density 22.146128999999998
#
# number of rings (size 3 to 8) (size 9 to 14) (size 15 to 20)
#    0.000    1.538    3.846    0.462    9.692    1.231 
#    0.000    3.077    0.000    0.923    0.000    0.000 
#    0.000    0.000    0.000    0.000    0.000    0.000 
#
# Total GULP energy -144931.397315 kJ/mol
# GULP energy per Si atom -5574.284512 kJ/mol
# Density = 2.209572 g / cm^3
# Si number density = 22.146129 Si / 1000 Ang^3
#
#
#
# Elastic Constant Matrix: (Units=GPa)
#
#
# Indices 1 2 3 4 5 6 
#
# 1 98.6006 36.1496 18.3357 0.0000 -2.3921 0.0000
# 2 36.1496 134.6507 22.9711 0.0000 -8.9500 0.0000
# 3 18.3357 22.9711 31.3833 0.0000 -4.2563 0.0000
# 4 0.0000 0.0000 0.0000 18.6456 0.0000 -9.2585
# 5 -2.3921 -8.9500 -4.2563 0.0000 41.0638 0.0000
# 6 0.0000 0.0000 0.0000 -9.2585 0.0000 39.0819
#
#
#
# Elastic Compliance Matrix: (Units=1/GPa)
#
#
# Indices 1 2 3 4 5 6 
#
# 1 0.011981 -0.002329 -0.005344 0.000000 -0.000364 0.000000
# 2 -0.002329 0.009000 -0.005050 0.000000 0.001302 0.000000
# 3 -0.005344 -0.005050 0.039040 0.000000 0.002635 0.000000
# 4 0.000000 0.000000 0.000000 0.060782 0.000000 0.014399
# 5 -0.000364 0.001302 0.002635 0.000000 0.024888 0.000000
# 6 0.000000 0.000000 0.000000 0.014399 0.000000 0.028998
#
#
# Mechanical properties :
#
#
# Convention : Reuss Voigt Hill
#
# Bulk Modulus (GPa) = 28.92348 46.61637 37.76993
# Shear Modulus (GPa) = 23.62262 32.23681 27.92972
#
# Velocity S-wave (km/s) = 3.26954 3.81943 3.55513
# Velocity P-wave (km/s) = 5.22894 6.36756 5.82613
#
# Compressibility (1/GPa) = 0.03457399
#
# Stress axis : x y z
#
# Youngs Moduli (GPa) = 83.46697 111.11117 25.61446
#
# Poissons Ratio (x) = 0.25877 0.13690
# Poissons Ratio (y) = 0.19439 0.12936
# Poissons Ratio (z) = 0.44609 0.56114
#
# Static dielectric constant tensor:
#      x y z
#    x 1.927640 0.000000 0.008980 
#    y 0.000000 1.952290 0.000000 
#    z 0.008980 0.000000 1.909050 
# 
# From -- ./inp_files/165585.got.cif
#   From: 2010.05.17/outbox.cif.g08.bks.cpg/sg12_83_cif.got.tgz:165585.got - 2010.06.03 13:09:07.
