data_PCOD9194969
_publ_section_title
;
Structure prediction by ZEFSAII (Michael W. Deem and Ramdas Pophale) SiO2 
 PCOD9194969
Probable space group: C 2/M
;
_chemical_formula_sum "Si O2"
_cell_formula_units_Z 56
_cell_length_a 9.637120
_cell_length_b 25.682448
_cell_length_c 17.046684
_cell_angle_alpha 90.000000
_cell_angle_beta 41.590092
_cell_angle_gamma 90.000000
_cell_volume 2800.649799
_symmetry_space_group_name_H-M "C 2/M"
_symmetry_group_IT_number 12
_symmetry_cell_setting 'monoclinic'
loop_
_space_group_symop_operation_xyz
x,y,z
-x,y,-z
-x,-y,-z
x,-y,z
1/2+x,1/2+y,z
1/2-x,1/2+y,-z
1/2-x,1/2-y,-z
1/2+x,1/2-y,z
loop_
_atom_site_type_symbol
_atom_site_label
_atom_site_fract_x
_atom_site_fract_y
_atom_site_fract_z
Si Si1 0.979947 0.439515 0.769137
Si Si2 0.629842 0.613885 0.015981
Si Si3 0.776123 0.623674 0.728213
Si Si4 0.735088 0.652616 0.301267
Si Si5 0.325253 0.321496 0.389532
Si Si6 0.571898 0.792593 0.645532
Si Si7 0.913339 0.295271 0.950865
O O1 0.027602 0.500000 0.748252
O O2 0.937659 0.417499 0.698546
O O3 0.155342 0.403236 0.734477
O O4 0.771176 0.428027 0.910029
O O5 0.446729 0.599841 0.153267
O O6 0.500000 0.640789 0.000000
O O7 0.779380 0.652152 0.999023
O O8 0.755689 0.643242 0.647602
O O9 0.853799 0.676054 0.742208
O O10 0.509638 0.649528 0.358080
O O11 0.749453 0.678650 0.380379
O O12 0.889054 0.691671 0.188165
O O13 0.433323 0.266198 0.321996
O O14 0.144596 0.301055 0.524831
O O15 0.750000 0.250000 0.000000
O O16 0.000000 0.286705 0.000000
#
# Coordination Sequence:
#
# PCOD9194969 Si02
#       7
#     8   8   8   8   8   8   8
#     4   9  20  41  63  84 114 154 202 246 300 363
#     4   9  19  35  53  82 114 145 195 232 285 354
#     4  10  20  34  59  84 115 148 198 244 292 342
#     4  10  22  36  58  83 114 157 198 240 293 349
#     4  11  21  36  57  85 120 157 200 241 287 351
#     4  10  22  36  56  84 119 164 196 232 289 354
#     4  11  23  33  50  79 116 157 185 228 284 351
#
# _framework density 19.995359000000001
#
# number of rings (size 3 to 8) (size 9 to 14) (size 15 to 20)
#    0.000    2.000    0.000    3.857    6.000    4.857 
#    0.000    0.714    0.000   28.286    0.000    0.000 
#    0.000    0.000    0.000    0.000    0.000    0.000 
#
# Total GULP energy -155935.004262 kJ/mol
# GULP energy per Si atom -5569.107295 kJ/mol
# Density = 1.994985 g / cm^3
# Si number density = 19.995359 Si / 1000 Ang^3
#
#
#
# Elastic Constant Matrix: (Units=GPa)
#
#
# Indices 1 2 3 4 5 6 
#
# 1 126.0237 43.1492 19.9173 0.0000 8.0259 0.0000
# 2 43.1492 112.4578 21.6418 0.0000 10.7590 0.0000
# 3 19.9173 21.6418 41.5326 0.0000 4.4224 0.0000
# 4 0.0000 0.0000 0.0000 15.8537 0.0000 7.8782
# 5 8.0259 10.7590 4.4224 0.0000 31.3115 0.0000
# 6 0.0000 0.0000 0.0000 7.8782 0.0000 10.6723
#
#
#
# Elastic Compliance Matrix: (Units=1/GPa)
#
#
# Indices 1 2 3 4 5 6 
#
# 1 0.009476 -0.002986 -0.002882 0.000000 -0.000996 0.000000
# 2 -0.002986 0.011056 -0.004067 0.000000 -0.002459 0.000000
# 3 -0.002882 -0.004067 0.027769 0.000000 -0.001786 0.000000
# 4 0.000000 0.000000 0.000000 0.099621 0.000000 -0.073540
# 5 -0.000996 -0.002459 -0.001786 0.000000 0.033290 0.000000
# 6 0.000000 0.000000 0.000000 -0.073540 0.000000 0.147988
#
#
# Mechanical properties :
#
#
# Convention : Reuss Voigt Hill
#
# Bulk Modulus (GPa) = 35.17393 49.93675 42.55534
# Shear Modulus (GPa) = 13.94515 24.58788 19.26651
#
# Velocity S-wave (km/s) = 2.64373 3.51048 3.10748
# Velocity P-wave (km/s) = 5.19118 6.43892 5.84842
#
# Compressibility (1/GPa) = 0.02843014
#
# Stress axis : x y z
#
# Youngs Moduli (GPa) = 105.52551 90.44932 36.01102
#
# Poissons Ratio (x) = 0.27008 0.10380
# Poissons Ratio (y) = 0.31510 0.14646
# Poissons Ratio (z) = 0.30418 0.36788
#
# Static dielectric constant tensor:
#      x y z
#    x 1.715390 0.000000 0.011310 
#    y 0.000000 1.687060 0.000000 
#    z 0.011310 0.000000 1.834740 
# 
# From -- ./inp_files/259140.got.cif
#   From: 2010.05.17/outbox.cif.g08.bks.cpg/sg12_130_cif.got.tgz:259140.got - 2010.06.03 13:09:07.
