data_PCOD9194603
_publ_section_title
;
Structure prediction by ZEFSAII (Michael W. Deem and Ramdas Pophale) SiO2 
 PCOD9194603
Probable space group: C 2/M
;
_chemical_formula_sum "Si O2"
_cell_formula_units_Z 56
_cell_length_a 25.618116
_cell_length_b 8.926819
_cell_length_c 17.134650
_cell_angle_alpha 90.000000
_cell_angle_beta 48.085311
_cell_angle_gamma 90.000000
_cell_volume 2915.909124
_symmetry_space_group_name_H-M "C 2/M"
_symmetry_group_IT_number 12
_symmetry_cell_setting 'monoclinic'
loop_
_space_group_symop_operation_xyz
x,y,z
-x,y,-z
-x,-y,-z
x,-y,z
1/2+x,1/2+y,z
1/2-x,1/2+y,-z
1/2-x,1/2-y,-z
1/2+x,1/2-y,z
loop_
_atom_site_type_symbol
_atom_site_label
_atom_site_fract_x
_atom_site_fract_y
_atom_site_fract_z
Si Si1 0.082501 0.823710 0.909464
Si Si2 0.338420 0.821564 0.312396
Si Si3 0.335324 0.678232 0.010879
Si Si4 0.202435 0.679261 0.383080
Si Si5 0.923548 0.819877 0.770784
Si Si6 0.298244 0.321131 0.786271
Si Si7 0.923192 0.680092 0.382918
O O1 0.117172 0.724527 0.808027
O O2 0.120255 0.799154 0.954366
O O3 0.091731 0.000000 0.879693
O O4 0.000000 0.794467 0.000000
O O5 0.263868 0.741109 0.377083
O O6 0.381965 0.775151 0.345286
O O7 0.327885 0.000000 0.325717
O O8 0.321207 0.500000 0.017173
O O9 0.262780 0.764650 0.095094
O O10 0.381736 0.726363 0.890820
O O11 0.207790 0.500000 0.374113
O O12 0.211917 0.746228 0.287627
O O13 0.127334 0.720911 0.494616
O O14 0.873293 0.780961 0.748526
O O15 0.000182 0.750164 0.689939
O O16 0.930235 0.000000 0.766894
O O17 0.293848 0.500000 0.783212
O O18 0.929763 0.500000 0.375128
#
# Coordination Sequence:
#
# PCOD9194603 Si02
#       7
#     8   8   8   8   8   8   8
#     4  10  20  34  56  86 121 160 197 234 286 354
#     4  11  22  38  60  89 121 152 196 249 301 352
#     4  10  20  37  60  87 120 159 200 238 291 359
#     4  11  23  41  63  87 118 159 204 245 297 362
#     4  10  23  41  62  89 121 159 200 244 298 357
#     4  11  23  39  61  91 122 155 200 251 300 347
#     4  10  24  42  61  88 120 157 200 248 301 356
#
# _framework density 19.204989000000001
#
# number of rings (size 3 to 8) (size 9 to 14) (size 15 to 20)
#    0.000    1.571    1.429    3.000    0.000    6.000 
#    0.000    2.857    0.000    0.000    0.000    0.000 
#    0.000    0.000    0.000    0.000    0.000    0.000 
#
# Total GULP energy -156532.806722 kJ/mol
# GULP energy per Si atom -5590.457383 kJ/mol
# Density = 1.916128 g / cm^3
# Si number density = 19.204989 Si / 1000 Ang^3
#
#
#
# Elastic Constant Matrix: (Units=GPa)
#
#
# Indices 1 2 3 4 5 6 
#
# 1 96.3381 35.9261 46.6639 -0.0012 -32.4193 0.0005
# 2 35.9261 36.8350 27.1068 -0.0037 -13.5041 0.0026
# 3 46.6639 27.1068 83.4702 -0.0027 -30.9285 0.0018
# 4 -0.0012 -0.0037 -0.0027 31.6245 0.0008 -8.0898
# 5 -32.4193 -13.5041 -30.9285 0.0008 31.0897 -0.0002
# 6 0.0005 0.0026 0.0018 -8.0898 -0.0002 27.7803
#
#
#
# Elastic Compliance Matrix: (Units=1/GPa)
#
#
# Indices 1 2 3 4 5 6 
#
# 1 0.021442 -0.014157 -0.002191 -0.000001 0.014030 0.000001
# 2 -0.014157 0.045814 -0.008014 0.000004 -0.002835 -0.000002
# 3 -0.002191 -0.008014 0.021653 0.000000 0.015775 0.000000
# 4 -0.000001 0.000004 0.000000 0.034166 0.000000 0.009949
# 5 0.014030 -0.002835 0.015775 0.000000 0.061257 -0.000001
# 6 0.000001 -0.000002 0.000000 0.009949 -0.000001 0.038894
#
#
# Mechanical properties :
#
#
# Convention : Reuss Voigt Hill
#
# Bulk Modulus (GPa) = 24.88519 48.44855 36.66687
# Shear Modulus (GPa) = 17.52261 25.22868 21.37564
#
# Velocity S-wave (km/s) = 3.02387 3.62837 3.33982
# Velocity P-wave (km/s) = 5.01772 6.54486 5.83150
#
# Compressibility (1/GPa) = 0.04018455
#
# Stress axis : x y z
#
# Youngs Moduli (GPa) = 46.63679 21.82737 46.18318
#
# Poissons Ratio (x) = 0.30901 0.10119
# Poissons Ratio (y) = 0.66024 0.37012
# Poissons Ratio (z) = 0.10218 0.17493
#
# Static dielectric constant tensor:
#      x y z
#    x 1.653950 0.000000 0.003370 
#    y 0.000000 1.646660 0.000000 
#    z 0.003370 0.000000 1.648560 
# 
# From -- ./inp_files/292413.got.cif
#   From: 2010.05.17/outbox.cif.g08.bks.cpg/sg12_147_cif.got.tgz:292413.got - 2010.06.03 13:09:07.
