data_PCOD9194189
_publ_section_title
;
Structure prediction by ZEFSAII (Michael W. Deem and Ramdas Pophale) SiO2 
 PCOD9194189
Probable space group: C 2/M
;
_chemical_formula_sum "Si O2"
_cell_formula_units_Z 64
_cell_length_a 20.700189
_cell_length_b 20.367831
_cell_length_c 8.553127
_cell_angle_alpha 90.000000
_cell_angle_beta 60.016360
_cell_angle_gamma 90.000000
_cell_volume 3123.533855
_symmetry_space_group_name_H-M "C 2/M"
_symmetry_group_IT_number 12
_symmetry_cell_setting 'monoclinic'
loop_
_space_group_symop_operation_xyz
x,y,z
-x,y,-z
-x,-y,-z
x,-y,z
1/2+x,1/2+y,z
1/2-x,1/2+y,-z
1/2-x,1/2-y,-z
1/2+x,1/2-y,z
loop_
_atom_site_type_symbol
_atom_site_label
_atom_site_fract_x
_atom_site_fract_y
_atom_site_fract_z
Si Si1 0.817336 0.313481 0.251394
Si Si2 0.219099 0.715555 0.197748
Si Si3 0.049718 0.871894 0.577502
Si Si4 0.437801 0.381450 0.942722
Si Si5 0.051078 0.270952 0.095071
Si Si6 0.293411 0.572516 0.698939
Si Si7 0.722538 0.572895 0.906399
Si Si8 0.910194 0.731829 0.429678
O O1 0.769163 0.248899 0.271799
O O2 0.761054 0.373681 0.308230
O O3 0.859821 0.305587 0.363104
O O4 0.878761 0.315360 0.036902
O O5 0.230066 0.637618 0.186900
O O6 0.134141 0.731070 0.352803
O O7 0.250000 0.750000 0.000000
O O8 0.120984 0.912274 0.443074
O O9 0.081971 0.808641 0.629980
O O10 0.000000 0.841098 0.500000
O O11 0.985889 0.911756 0.743752
O O12 0.422060 0.304763 0.919029
O O13 0.500000 0.382644 0.000000
O O14 0.359913 0.415991 0.066103
O O15 0.995081 0.292209 0.300686
O O16 0.000000 0.270959 0.000000
O O17 0.273141 0.500000 0.668831
O O18 0.286938 0.575192 0.894348
O O19 0.750414 0.500000 0.829753
#
# Coordination Sequence:
#
# PCOD9194189 Si02
#       8
#     8   8   8   8   8   8   8   8
#     4  11  20  39  65  88 121 157 205 260 310 351
#     4  12  22  36  59  88 117 162 201 245 299 364
#     4  11  21  36  58  89 121 163 200 238 296 367
#     4  10  20  34  55  82 119 159 201 240 288 354
#     4   8  17  33  57  87 115 147 191 250 308 352
#     4  11  24  40  59  88 123 165 207 248 304 370
#     4  11  23  38  55  82 123 163 198 246 301 361
#     4  10  22  36  62  93 123 149 201 264 308 355
#
# _framework density 20.489612000000001
#
# number of rings (size 3 to 8) (size 9 to 14) (size 15 to 20)
#    0.000    1.500    5.000    1.125    0.000    1.000 
#    0.000    1.875    0.000    4.125    0.000    1.750 
#    0.000    0.000    0.000    0.000    0.000    0.000 
#
# Total GULP energy -178497.523067 kJ/mol
# GULP energy per Si atom -5578.047596 kJ/mol
# Density = 2.044298 g / cm^3
# Si number density = 20.489612 Si / 1000 Ang^3
#
#
#
# Elastic Constant Matrix: (Units=GPa)
#
#
# Indices 1 2 3 4 5 6 
#
# 1 71.8630 15.3784 10.9812 0.0000 -3.9169 0.0000
# 2 15.3784 98.3758 12.0897 0.0000 -8.6475 0.0000
# 3 10.9812 12.0897 92.0038 0.0000 -29.4696 0.0000
# 4 0.0000 0.0000 0.0000 12.0530 0.0000 -7.8309
# 5 -3.9169 -8.6475 -29.4696 0.0000 32.4319 0.0000
# 6 0.0000 0.0000 0.0000 -7.8309 0.0000 11.9847
#
#
#
# Elastic Compliance Matrix: (Units=1/GPa)
#
#
# Indices 1 2 3 4 5 6 
#
# 1 0.014590 -0.002110 -0.001523 0.000000 -0.000185 0.000000
# 2 -0.002110 0.010744 -0.000457 0.000000 0.002195 0.000000
# 3 -0.001523 -0.000457 0.015534 0.000000 0.013810 0.000000
# 4 0.000000 0.000000 0.000000 0.144171 0.000000 0.094203
# 5 -0.000185 0.002195 0.013810 0.000000 0.043945 0.000000
# 6 0.000000 0.000000 0.000000 0.094203 0.000000 0.144993
#
#
# Mechanical properties :
#
#
# Convention : Reuss Voigt Hill
#
# Bulk Modulus (GPa) = 30.59241 37.68234 34.13737
# Shear Modulus (GPa) = 12.72095 26.21348 19.46721
#
# Velocity S-wave (km/s) = 2.49439 3.58069 3.08572
# Velocity P-wave (km/s) = 4.82276 5.96037 5.42149
#
# Compressibility (1/GPa) = 0.03268785
#
# Stress axis : x y z
#
# Youngs Moduli (GPa) = 68.54226 93.07540 64.37355
#
# Poissons Ratio (x) = 0.19636 0.09806
# Poissons Ratio (y) = 0.14460 0.02942
# Poissons Ratio (z) = 0.10441 0.04254
#
# Static dielectric constant tensor:
#      x y z
#    x 1.786270 0.000000 0.031300 
#    y 0.000000 1.711880 0.000000 
#    z 0.031300 0.000000 1.865280 
# 
# From -- ./inp_files/89574.got.cif
#   From: 2010.05.17/outbox.cif.g08.bks.cpg/sg12_45_cif.got.tgz:89574.got - 2010.06.03 13:09:07.
