data_PCOD9194509
_publ_section_title
;
Structure prediction by ZEFSAII (Michael W. Deem and Ramdas Pophale) SiO2 
 PCOD9194509
Probable space group: C 2/M
;
_chemical_formula_sum "Si O2"
_cell_formula_units_Z 56
_cell_length_a 19.242173
_cell_length_b 9.254897
_cell_length_c 17.848303
_cell_angle_alpha 90.000000
_cell_angle_beta 118.199080
_cell_angle_gamma 90.000000
_cell_volume 2801.249842
_symmetry_space_group_name_H-M "C 2/M"
_symmetry_group_IT_number 12
_symmetry_cell_setting 'monoclinic'
loop_
_space_group_symop_operation_xyz
x,y,z
-x,y,-z
-x,-y,-z
x,-y,z
1/2+x,1/2+y,z
1/2-x,1/2+y,-z
1/2-x,1/2-y,-z
1/2+x,1/2-y,z
loop_
_atom_site_type_symbol
_atom_site_label
_atom_site_fract_x
_atom_site_fract_y
_atom_site_fract_z
Si Si1 0.324863 0.832255 0.004912
Si Si2 0.627176 0.173503 0.242251
Si Si3 0.904605 0.836356 0.457629
Si Si4 0.082814 0.672234 0.385550
Si Si5 0.601363 0.171271 0.697948
Si Si6 0.013336 0.828587 0.917478
Si Si7 0.255636 0.334218 0.191784
O O1 0.307721 0.828864 0.907061
O O2 0.328093 0.000000 0.030177
O O3 0.250000 0.750000 0.000000
O O4 0.405528 0.750193 0.062497
O O5 0.625736 0.205748 0.329684
O O6 0.557421 0.257559 0.165005
O O7 0.708527 0.209530 0.242218
O O8 0.614752 0.000000 0.227426
O O9 0.886992 0.759916 0.527402
O O10 0.881563 0.742619 0.374125
O O11 0.000000 0.843227 0.500000
O O12 0.873597 0.000000 0.438379
O O13 0.088216 0.500000 0.403193
O O14 0.989187 0.705852 0.327373
O O15 0.668469 0.236721 0.784990
O O16 0.608077 0.000000 0.697643
O O17 0.018017 0.000000 0.905676
O O18 0.000000 0.808044 0.000000
O O19 0.282694 0.500000 0.212487
#
# Coordination Sequence:
#
# PCOD9194509 Si02
#       7
#     8   8   8   8   8   8   8
#     4  11  24  41  61  85 116 152 193 240 290 341
#     4  10  21  39  60  82 112 152 192 232 284 341
#     4   9  17  32  55  82 112 146 182 224 276 333
#     4   9  19  35  57  85 111 141 184 232 279 333
#     4  10  20  34  56  84 114 146 183 231 282 333
#     4  11  23  39  60  86 115 151 194 238 284 340
#     4  10  22  39  57  80 113 150 188 231 282 340
#
# _framework density 19.991076
#
# number of rings (size 3 to 8) (size 9 to 14) (size 15 to 20)
#    0.000    2.000    1.429    1.714    2.000    5.143 
#    0.000    0.714    0.000    0.000    0.000    0.000 
#    0.000    0.000    0.000    0.000    0.000    0.000 
#
# Total GULP energy -156406.093546 kJ/mol
# GULP energy per Si atom -5585.931912 kJ/mol
# Density = 1.994558 g / cm^3
# Si number density = 19.991076 Si / 1000 Ang^3
#
#
#
# Elastic Constant Matrix: (Units=GPa)
#
#
# Indices 1 2 3 4 5 6 
#
# 1 68.4349 29.4768 -5.6348 0.0000 -11.2901 0.0000
# 2 29.4768 52.8183 0.5491 0.0000 -2.3760 0.0000
# 3 -5.6348 0.5491 22.3326 0.0000 -9.3459 0.0000
# 4 0.0000 0.0000 0.0000 31.7569 0.0000 2.0272
# 5 -11.2901 -2.3760 -9.3459 0.0000 36.1807 0.0000
# 6 0.0000 0.0000 0.0000 2.0272 0.0000 24.9290
#
#
#
# Elastic Compliance Matrix: (Units=1/GPa)
#
#
# Indices 1 2 3 4 5 6 
#
# 1 0.021934 -0.011957 0.009378 0.000000 0.008482 0.000000
# 2 -0.011957 0.025507 -0.005050 0.000000 -0.003361 0.000000
# 3 0.009378 -0.005050 0.054214 0.000000 0.016599 0.000000
# 4 0.000000 0.000000 0.000000 0.031654 0.000000 -0.002574
# 5 0.008482 -0.003361 0.016599 0.000000 0.034353 0.000000
# 6 0.000000 0.000000 0.000000 -0.002574 0.000000 0.040323
#
#
# Mechanical properties :
#
#
# Convention : Reuss Voigt Hill
#
# Bulk Modulus (GPa) = 11.57465 21.37423 16.47444
# Shear Modulus (GPa) = 19.83794 26.51964 23.17879
#
# Velocity S-wave (km/s) = 3.15356 3.64617 3.40877
# Velocity P-wave (km/s) = 4.36605 5.33302 4.87358
#
# Compressibility (1/GPa) = 0.08639572
#
# Stress axis : x y z
#
# Youngs Moduli (GPa) = 45.59140 39.20492 18.44540
#
# Poissons Ratio (x) = 0.46877 -0.17297
# Poissons Ratio (y) = 0.54513 0.09316
# Poissons Ratio (z) = -0.42754 0.19800
#
# Static dielectric constant tensor:
#      x y z
#    x 1.690930 0.000000 -0.014550 
#    y 0.000000 1.673990 0.000000 
#    z -0.014550 0.000000 1.721250 
# 
# From -- ./inp_files/275484.got.cif
#   From: 2010.05.17/outbox.cif.g08.bks.cpg/sg12_138_cif.got.tgz:275484.got - 2010.06.03 13:09:07.
