data_PCOD9194720
_publ_section_title
;
Structure prediction by ZEFSAII (Michael W. Deem and Ramdas Pophale) SiO2 
 PCOD9194720
Probable space group: C 2/M
;
_chemical_formula_sum "Si O2"
_cell_formula_units_Z 56
_cell_length_a 28.793213
_cell_length_b 24.176732
_cell_length_c 12.420815
_cell_angle_alpha 90.000000
_cell_angle_beta 158.932585
_cell_angle_gamma 90.000000
_cell_volume 3108.106114
_symmetry_space_group_name_H-M "C 2/M"
_symmetry_group_IT_number 12
_symmetry_cell_setting 'monoclinic'
loop_
_space_group_symop_operation_xyz
x,y,z
-x,y,-z
-x,-y,-z
x,-y,z
1/2+x,1/2+y,z
1/2-x,1/2+y,-z
1/2-x,1/2-y,-z
1/2+x,1/2-y,z
loop_
_atom_site_type_symbol
_atom_site_label
_atom_site_fract_x
_atom_site_fract_y
_atom_site_fract_z
Si Si1 0.835304 0.433715 0.897101
Si Si2 0.348317 0.562814 0.691463
Si Si3 0.893151 0.756923 0.861279
Si Si4 0.126299 0.065964 0.848906
Si Si5 0.517591 0.858509 0.165013
Si Si6 0.148505 0.432998 0.828000
Si Si7 0.316641 0.640591 0.825654
O O1 0.851650 0.500000 0.933116
O O2 0.722637 0.419014 0.570394
O O3 0.803887 0.416428 0.950401
O O4 0.961689 0.405214 0.121952
O O5 0.306145 0.500000 0.624026
O O6 0.316667 0.601399 0.721500
O O7 0.500000 0.562955 0.000000
O O8 0.750000 0.750000 0.500000
O O9 0.887555 0.803825 0.940296
O O10 0.000000 0.770767 0.000000
O O11 0.935843 0.697602 0.998966
O O12 0.000000 0.071504 0.500000
O O13 0.135095 0.000000 0.897481
O O14 0.252317 0.082253 0.051091
O O15 0.124358 0.105733 0.948250
O O16 0.665269 0.846746 0.514326
O O17 0.500000 0.874613 0.000000
O O18 0.145746 0.500000 0.818604
O O19 0.000000 0.413887 0.500000
#
# Coordination Sequence:
#
# PCOD9194720 Si02
#       7
#     8   8   8   8   8   8   8
#     4  10  20  34  57  85 120 156 194 248 304 366
#     4  10  21  33  50  85 121 151 187 238 308 371
#     4  11  21  40  62  89 124 162 202 251 310 373
#     4  10  23  41  62  91 125 162 207 257 306 366
#     4  11  21  37  56  90 126 155 200 250 307 380
#     4   9  18  35  56  79 112 159 203 234 283 354
#     4  12  22  38  63  86 119 160 205 252 314 373
#
# _framework density 18.017403000000002
#
# number of rings (size 3 to 8) (size 9 to 14) (size 15 to 20)
#    0.000    1.571    4.286    1.714    2.000    2.571 
#    0.000    0.000    0.000    4.286    0.000    0.000 
#    0.000    0.000    0.000    0.000    0.000    0.000 
#
# Total GULP energy -156233.597952 kJ/mol
# GULP energy per Si atom -5579.771355 kJ/mol
# Density = 1.797639 g / cm^3
# Si number density = 18.017403 Si / 1000 Ang^3
#
#
#
# Elastic Constant Matrix: (Units=GPa)
#
#
# Indices 1 2 3 4 5 6 
#
# 1 95.9911 46.3326 30.7678 0.0000 -11.2413 0.0000
# 2 46.3326 48.0909 26.3066 0.0000 -9.9156 0.0000
# 3 30.7678 26.3066 83.2388 0.0000 2.3768 0.0000
# 4 0.0000 0.0000 0.0000 16.2837 0.0000 11.4227
# 5 -11.2413 -9.9156 2.3768 0.0000 28.9761 0.0000
# 6 0.0000 0.0000 0.0000 11.4227 0.0000 29.8057
#
#
#
# Elastic Compliance Matrix: (Units=1/GPa)
#
#
# Indices 1 2 3 4 5 6 
#
# 1 0.019715 -0.017678 -0.001750 0.000000 0.001743 0.000000
# 2 -0.017678 0.043752 -0.007542 0.000000 0.008732 0.000000
# 3 -0.001750 -0.007542 0.015173 0.000000 -0.004505 0.000000
# 4 0.000000 0.000000 0.000000 0.083990 0.000000 -0.032188
# 5 0.001743 0.008732 -0.004505 0.000000 0.038545 0.000000
# 6 0.000000 0.000000 0.000000 -0.032188 0.000000 0.045886
#
#
# Mechanical properties :
#
#
# Convention : Reuss Voigt Hill
#
# Bulk Modulus (GPa) = 40.48718 48.23719 44.36218
# Shear Modulus (GPa) = 16.16891 23.27403 19.72147
#
# Velocity S-wave (km/s) = 2.99892 3.59800 3.31203
# Velocity P-wave (km/s) = 5.87463 6.64014 6.26908
#
# Compressibility (1/GPa) = 0.02469918
#
# Stress axis : x y z
#
# Youngs Moduli (GPa) = 50.72168 22.85629 65.90715
#
# Poissons Ratio (x) = 0.40405 0.11536
# Poissons Ratio (y) = 0.89665 0.49709
# Poissons Ratio (z) = 0.08878 0.17239
#
# Static dielectric constant tensor:
#      x y z
#    x 1.608160 0.000000 0.006250 
#    y 0.000000 1.613270 0.000000 
#    z 0.006250 0.000000 1.641640 
# 
# From -- ./inp_files/185170.got.cif
#   From: 2010.05.17/outbox.cif.g08.bks.cpg/sg12_93_cif.got.tgz:185170.got - 2010.06.03 13:09:07.
