data_PCOD9194723
_publ_section_title
;
Structure prediction by ZEFSAII (Michael W. Deem and Ramdas Pophale) SiO2 
 PCOD9194723
Probable space group: C 2/M
;
_chemical_formula_sum "Si O2"
_cell_formula_units_Z 44
_cell_length_a 13.947156
_cell_length_b 29.470698
_cell_length_c 12.031990
_cell_angle_alpha 90.000000
_cell_angle_beta 151.749140
_cell_angle_gamma 90.000000
_cell_volume 2340.885788
_symmetry_space_group_name_H-M "C 2/M"
_symmetry_group_IT_number 12
_symmetry_cell_setting 'monoclinic'
loop_
_space_group_symop_operation_xyz
x,y,z
-x,y,-z
-x,-y,-z
x,-y,z
1/2+x,1/2+y,z
1/2-x,1/2+y,-z
1/2-x,1/2-y,-z
1/2+x,1/2-y,z
loop_
_atom_site_type_symbol
_atom_site_label
_atom_site_fract_x
_atom_site_fract_y
_atom_site_fract_z
Si Si1 0.500000 0.745255 0.000000
Si Si2 0.696758 0.883480 0.008033
Si Si3 0.868808 0.553192 0.258887
Si Si4 0.000000 0.095114 0.000000
Si Si5 0.500000 0.387490 0.500000
Si Si6 0.477055 0.329921 0.805688
Si Si7 0.310698 0.825036 0.682974
O O1 0.436516 0.711493 0.033766
O O2 0.661146 0.779488 0.217744
O O3 0.599261 0.918380 0.820595
O O4 0.521885 0.852271 0.883407
O O5 0.843172 0.908253 0.248668
O O6 0.845026 0.851170 0.087463
O O7 0.901353 0.500000 0.272659
O O8 0.000000 0.567406 0.500000
O O9 0.644160 0.564135 0.073284
O O10 0.900921 0.130319 0.811178
O O11 0.652604 0.357141 0.584024
O O12 0.290940 0.314946 0.539294
#
# Coordination Sequence:
#
# PCOD9194723 Si02
#       7
#     4   8   8   4   4   8   8
#     4  11  20  36  49  78 108 138 179 222 260 297
#     4  10  20  37  57  77 105 142 174 213 267 310
#     4  10  20  34  57  86 110 134 170 212 259 319
#     4   9  17  36  55  78 112 142 165 206 265 313
#     4  10  20  38  57  76 100 142 184 216 257 320
#     4   9  21  34  52  78 108 138 178 216 253 315
#     4  11  20  37  54  74 103 145 178 219 264 303
#
# _framework density 18.796303999999999
#
# number of rings (size 3 to 8) (size 9 to 14) (size 15 to 20)
#    0.000    2.000    1.818    1.909    0.000    0.727 
#    3.273    0.455    0.000    2.182    0.000    0.000 
#    0.000    0.000    0.000    0.000    0.000    0.000 
#
# Total GULP energy -122499.580593 kJ/mol
# GULP energy per Si atom -5568.162754 kJ/mol
# Density = 1.875352 g / cm^3
# Si number density = 18.796304 Si / 1000 Ang^3
#
#
#
# Elastic Constant Matrix: (Units=GPa)
#
#
# Indices 1 2 3 4 5 6 
#
# 1 58.0219 14.5382 20.4714 0.0000 -8.6370 0.0000
# 2 14.5382 43.2759 38.0259 0.0000 -12.6459 0.0000
# 3 20.4714 38.0259 116.9784 0.0000 -35.3532 0.0000
# 4 0.0000 0.0000 0.0000 18.4406 0.0000 -9.5062
# 5 -8.6370 -12.6459 -35.3532 0.0000 36.0235 0.0000
# 6 0.0000 0.0000 0.0000 -9.5062 0.0000 -14.3184
#
#
#
# Elastic Compliance Matrix: (Units=1/GPa)
#
#
# Indices 1 2 3 4 5 6 
#
# 1 0.019141 -0.004820 -0.001290 0.000000 0.001631 0.000000
# 2 -0.004820 0.033616 -0.009762 0.000000 0.001065 0.000000
# 3 -0.001290 -0.009762 0.015380 0.000000 0.011358 0.000000
# 4 0.000000 0.000000 0.000000 0.040401 0.000000 -0.026823
# 5 0.001631 0.001065 0.011358 0.000000 0.039671 0.000000
# 6 0.000000 0.000000 0.000000 -0.026823 0.000000 -0.052032
#
#
# Mechanical properties :
#
#
# Convention : Reuss Voigt Hill
#
# Bulk Modulus (GPa) = 27.47826 40.48304 33.98065
# Shear Modulus (GPa) = 35.70126 17.71185 26.70655
#
# Velocity S-wave (km/s) = 4.36291 3.07303 3.77349
# Velocity P-wave (km/s) = 6.32698 5.84601 6.09125
#
# Compressibility (1/GPa) = 0.03639241
#
# Stress axis : x y z
#
# Youngs Moduli (GPa) = 52.24522 29.74797 65.01860
#
# Poissons Ratio (x) = 0.14339 0.08386
# Poissons Ratio (y) = 0.25183 0.63472
# Poissons Ratio (z) = 0.06738 0.29040
#
# Static dielectric constant tensor:
#      x y z
#    x 1.647010 0.000000 -0.038980 
#    y 0.000000 1.624970 0.000000 
#    z -0.038980 0.000000 1.725890 
# 
# From -- ./inp_files/149579.got.cif
#   From: 2010.05.17/outbox.cif.g08.bks.cpg/sg12_75_cif.got.tgz:149579.got - 2010.06.03 13:09:07.
