data_PCOD9194073
_publ_section_title
;
Structure prediction by ZEFSAII (Michael W. Deem and Ramdas Pophale) SiO2 
 PCOD9194073
Probable space group: C 2/M
;
_chemical_formula_sum "Si O2"
_cell_formula_units_Z 50
_cell_length_a 27.829460
_cell_length_b 13.248609
_cell_length_c 11.179346
_cell_angle_alpha 90.000000
_cell_angle_beta 139.433509
_cell_angle_gamma 90.000000
_cell_volume 2680.558463
_symmetry_space_group_name_H-M "C 2/M"
_symmetry_group_IT_number 12
_symmetry_cell_setting 'monoclinic'
loop_
_space_group_symop_operation_xyz
x,y,z
-x,y,-z
-x,-y,-z
x,-y,z
1/2+x,1/2+y,z
1/2-x,1/2+y,-z
1/2-x,1/2-y,-z
1/2+x,1/2-y,z
loop_
_atom_site_type_symbol
_atom_site_label
_atom_site_fract_x
_atom_site_fract_y
_atom_site_fract_z
Si Si1 0.794223 0.116144 0.969742
Si Si2 0.338088 0.748979 0.271026
Si Si3 0.387586 0.384426 0.716099
Si Si4 0.500000 0.500000 0.500000
Si Si5 0.521235 0.319888 0.345225
Si Si6 0.248371 0.618058 0.295348
Si Si7 0.879307 0.772083 0.939228
O O1 0.834321 0.192063 0.137481
O O2 0.808343 0.000000 0.027342
O O3 0.708334 0.147849 0.817643
O O4 0.826090 0.143415 0.900028
O O5 0.420186 0.751835 0.476698
O O6 0.290777 0.675156 0.268453
O O7 0.399067 0.500000 0.775527
O O8 0.436670 0.363356 0.692059
O O9 0.302633 0.371498 0.511832
O O10 0.403258 0.310892 0.855017
O O11 0.503199 0.411220 0.401066
O O12 0.449340 0.264940 0.158372
O O13 0.241709 0.500000 0.255317
O O14 0.170470 0.672636 0.164370
#
# Coordination Sequence:
#
# PCOD9194073 Si02
#       7
#     8   8   8   2   8   8   8
#     4  10  20  34  55  80 108 145 186 238 272 326
#     4   9  20  36  53  78 110 145 190 225 282 329
#     4  10  20  36  56  79 110 149 182 223 283 338
#     4  12  24  36  54  84 110 148 180 220 288 352
#     4  11  23  35  54  80 115 145 176 229 281 338
#     4   9  19  37  58  78 106 154 193 229 272 327
#     4  11  22  33  54  86 115 141 188 235 279 329
#
# _framework density 18.652828
#
# number of rings (size 3 to 8) (size 9 to 14) (size 15 to 20)
#    0.000    1.920    0.800    2.880    6.720    0.640 
#    0.000    0.800    0.000    1.920    0.000    7.840 
#    0.000    0.000    0.000    0.000    0.000    0.000 
#
# Total GULP energy -139294.612053 kJ/mol
# GULP energy per Si atom -5571.784482 kJ/mol
# Density = 1.861037 g / cm^3
# Si number density = 18.652828 Si / 1000 Ang^3
#
#
#
# Elastic Constant Matrix: (Units=GPa)
#
#
# Indices 1 2 3 4 5 6 
#
# 1 67.9926 14.3048 30.0012 0.0000 -11.5425 0.0000
# 2 14.3048 27.3317 14.5665 0.0000 7.8449 0.0000
# 3 30.0012 14.5665 99.4543 0.0000 15.8228 0.0000
# 4 0.0000 0.0000 0.0000 9.2848 0.0000 -8.1825
# 5 -11.5425 7.8449 15.8228 0.0000 35.4668 0.0000
# 6 0.0000 0.0000 0.0000 -8.1825 0.0000 12.4517
#
#
#
# Elastic Compliance Matrix: (Units=1/GPa)
#
#
# Indices 1 2 3 4 5 6 
#
# 1 0.022587 -0.011770 -0.007183 0.000000 0.013159 0.000000
# 2 -0.011770 0.047335 -0.001192 0.000000 -0.013769 0.000000
# 3 -0.007183 -0.001192 0.013699 0.000000 -0.008186 0.000000
# 4 0.000000 0.000000 0.000000 0.255902 0.000000 0.168163
# 5 0.013159 -0.013769 -0.008186 0.000000 0.039175 0.000000
# 6 0.000000 0.000000 0.000000 0.168163 0.000000 0.190816
#
#
# Mechanical properties :
#
#
# Convention : Reuss Voigt Hill
#
# Bulk Modulus (GPa) = 23.07851 34.72483 28.90167
# Shear Modulus (GPa) = 8.00963 20.50106 14.25534
#
# Velocity S-wave (km/s) = 2.07446 3.31884 2.76750
# Velocity P-wave (km/s) = 4.25880 5.77435 5.07348
#
# Compressibility (1/GPa) = 0.04333035
#
# Stress axis : x y z
#
# Youngs Moduli (GPa) = 44.27273 21.12603 73.00022
#
# Poissons Ratio (x) = 0.24866 0.52438
# Poissons Ratio (y) = 0.52110 0.08699
# Poissons Ratio (z) = 0.31802 0.02518
#
# Static dielectric constant tensor:
#      x y z
#    x 1.672370 0.000000 0.022620 
#    y 0.000000 1.593640 0.000000 
#    z 0.022620 0.000000 1.695280 
# 
# From -- ./inp_files/188797.got.cif
#   From: 2010.05.17/outbox.cif.g08.bks.cpg/sg12_95_cif.got.tgz:188797.got - 2010.06.03 13:09:07.
