data_PCOD9194641
_publ_section_title
;
Structure prediction by ZEFSAII (Michael W. Deem and Ramdas Pophale) SiO2 
 PCOD9194641
Probable space group: C 2/M
;
_chemical_formula_sum "Si O2"
_cell_formula_units_Z 58
_cell_length_a 27.922223
_cell_length_b 7.633123
_cell_length_c 12.816913
_cell_angle_alpha 90.000000
_cell_angle_beta 89.973192
_cell_angle_gamma 90.000000
_cell_volume 2731.716593
_symmetry_space_group_name_H-M "C 2/M"
_symmetry_group_IT_number 12
_symmetry_cell_setting 'monoclinic'
loop_
_space_group_symop_operation_xyz
x,y,z
-x,y,-z
-x,-y,-z
x,-y,z
1/2+x,1/2+y,z
1/2-x,1/2+y,-z
1/2-x,1/2-y,-z
1/2+x,1/2-y,z
loop_
_atom_site_type_symbol
_atom_site_label
_atom_site_fract_x
_atom_site_fract_y
_atom_site_fract_z
Si Si1 0.000000 0.500000 0.500000
Si Si2 0.866917 0.298723 0.378529
Si Si3 0.762236 0.296840 0.331495
Si Si4 0.774933 0.291334 0.891959
Si Si5 0.971856 0.804627 0.332735
Si Si6 0.518269 0.787083 0.113346
Si Si7 0.159373 0.791927 0.400718
Si Si8 0.376984 0.789170 0.827453
O O1 0.991390 0.654453 0.409760
O O2 0.868515 0.500000 0.340801
O O3 0.814594 0.219943 0.352567
O O4 0.914039 0.205921 0.337741
O O5 0.867736 0.296620 0.504166
O O6 0.765240 0.500000 0.364079
O O7 0.751023 0.288218 0.208706
O O8 0.714336 0.224403 0.387358
O O9 0.774674 0.500000 0.875821
O O10 0.829940 0.229212 0.889563
O O11 0.750000 0.250000 0.000000
O O12 0.988513 0.772357 0.214024
O O13 0.987607 0.000000 0.364411
O O14 0.572694 0.725203 0.130757
O O15 0.517581 0.000000 0.113903
O O16 0.500000 0.729769 0.000000
O O17 0.132644 0.760641 0.292223
O O18 0.161210 0.000000 0.419525
O O19 0.378116 0.000000 0.832388
#
# Coordination Sequence:
#
# PCOD9194641 Si02
#       8
#     2   8   8   8   8   8   8   8
#     4  12  26  52  70  98 140 176 222 282 348 398
#     4  11  22  39  60  88 127 171 210 256 324 393
#     4   9  20  37  57  82 120 163 205 254 310 379
#     4  10  20  35  56  85 117 155 201 252 310 374
#     4  12  27  45  70 103 134 175 227 280 340 402
#     4  10  22  44  69  93 129 176 227 282 339 400
#     4  10  20  34  56  89 122 160 211 262 316 382
#     4   9  20  37  59  85 115 159 210 256 317 388
#
# _framework density 21.232071999999999
#
# number of rings (size 3 to 8) (size 9 to 14) (size 15 to 20)
#    0.000    1.793    1.379    1.862    1.931    4.138 
#    0.000    2.759    0.000    0.000    0.000    0.000 
#    0.000    0.000    0.000    0.000    0.000    0.000 
#
# Total GULP energy -161782.414827 kJ/mol
# GULP energy per Si atom -5578.703960 kJ/mol
# Density = 2.118375 g / cm^3
# Si number density = 21.232072 Si / 1000 Ang^3
#
#
#
# Elastic Constant Matrix: (Units=GPa)
#
#
# Indices 1 2 3 4 5 6 
#
# 1 132.0637 23.8297 94.9825 0.0000 -0.1289 0.0000
# 2 23.8297 93.4655 23.5091 0.0000 5.6054 0.0000
# 3 94.9825 23.5091 131.0851 0.0000 -10.7078 0.0000
# 4 0.0000 0.0000 0.0000 17.4406 0.0000 0.3266
# 5 -0.1289 5.6054 -10.7078 0.0000 27.2574 0.0000
# 6 0.0000 0.0000 0.0000 0.3266 0.0000 5.7767
#
#
#
# Elastic Compliance Matrix: (Units=1/GPa)
#
#
# Indices 1 2 3 4 5 6 
#
# 1 0.016450 -0.000872 -0.012131 0.000000 -0.004509 0.000000
# 2 -0.000872 0.011527 -0.001683 0.000000 -0.003036 0.000000
# 3 -0.012131 -0.001683 0.017300 0.000000 0.007085 0.000000
# 4 0.000000 0.000000 0.000000 0.057398 0.000000 -0.003245
# 5 -0.004509 -0.003036 0.007085 0.000000 0.040073 0.000000
# 6 0.000000 0.000000 0.000000 -0.003245 0.000000 0.173293
#
#
# Mechanical properties :
#
#
# Convention : Reuss Voigt Hill
#
# Bulk Modulus (GPa) = 62.88206 71.25078 67.06642
# Shear Modulus (GPa) = 14.25652 24.38114 19.31883
#
# Velocity S-wave (km/s) = 2.59407 3.39236 3.01971
# Velocity P-wave (km/s) = 6.21716 6.99822 6.61922
#
# Compressibility (1/GPa) = 0.01590279
#
# Stress axis : x y z
#
# Youngs Moduli (GPa) = 60.78930 86.75298 57.80511
#
# Poissons Ratio (x) = 0.07568 0.70126
# Poissons Ratio (y) = 0.05303 0.09730
# Poissons Ratio (z) = 0.73746 0.14602
#
# Static dielectric constant tensor:
#      x y z
#    x 1.796290 0.000000 0.001690 
#    y 0.000000 1.818360 0.000000 
#    z 0.001690 0.000000 1.714270 
# 
# From -- ./inp_files/186686.got.cif
#   From: 2010.05.17/outbox.cif.g08.bks.cpg/sg12_94_cif.got.tgz:186686.got - 2010.06.03 13:09:07.
