data_PCOD9194552
_publ_section_title
;
Structure prediction by ZEFSAII (Michael W. Deem and Ramdas Pophale) SiO2 
 PCOD9194552
Probable space group: C 2/M
;
_chemical_formula_sum "Si O2"
_cell_formula_units_Z 64
_cell_length_a 14.828990
_cell_length_b 7.931936
_cell_length_c 23.251901
_cell_angle_alpha 90.000000
_cell_angle_beta 94.805289
_cell_angle_gamma 90.000000
_cell_volume 2725.336053
_symmetry_space_group_name_H-M "C 2/M"
_symmetry_group_IT_number 12
_symmetry_cell_setting 'monoclinic'
loop_
_space_group_symop_operation_xyz
x,y,z
-x,y,-z
-x,-y,-z
x,-y,z
1/2+x,1/2+y,z
1/2-x,1/2+y,-z
1/2-x,1/2-y,-z
1/2+x,1/2-y,z
loop_
_atom_site_type_symbol
_atom_site_label
_atom_site_fract_x
_atom_site_fract_y
_atom_site_fract_z
Si Si1 0.515666 0.694135 0.094457
Si Si2 0.450006 0.207342 0.439298
Si Si3 0.842833 0.305308 0.143195
Si Si4 0.099811 0.701352 0.217412
Si Si5 0.228199 0.307305 0.622352
Si Si6 0.806673 0.203915 0.947285
Si Si7 0.689042 0.307852 0.740066
Si Si8 0.928799 0.301598 0.658659
O O1 0.493622 0.500000 0.079515
O O2 0.422643 0.788631 0.101175
O O3 0.566401 0.705402 0.158963
O O4 0.589763 0.761434 0.053346
O O5 0.500000 0.259398 0.500000
O O6 0.345938 0.261141 0.426022
O O7 0.507601 0.268213 0.387594
O O8 0.449272 0.000000 0.438428
O O9 0.825961 0.500000 0.154910
O O10 0.753605 0.229834 0.109024
O O11 0.867691 0.225359 0.205537
O O12 0.079512 0.500000 0.209327
O O13 0.207534 0.717424 0.232757
O O14 0.060210 0.766683 0.276108
O O15 0.249089 0.500000 0.609008
O O16 0.179431 0.301851 0.682533
O O17 0.323766 0.216076 0.634570
O O18 0.810010 0.000000 0.943647
O O19 0.750000 0.250000 0.000000
O O20 0.678592 0.500000 0.720926
O O21 0.947699 0.500000 0.664619
#
# Coordination Sequence:
#
# PCOD9194552 Si02
#       8
#     8   8   8   8   8   8   8   8
#     4  11  23  39  59  90 122 155 197 244 293 345
#     4   9  19  36  57  81 112 154 200 240 287 352
#     4  11  23  40  61  90 122 157 198 241 291 350
#     4   9  18  33  56  84 116 153 192 237 294 355
#     4  10  20  34  56  85 114 150 194 243 292 347
#     4  10  24  44  65  87 119 158 200 244 290 342
#     4  10  20  36  59  88 120 155 193 240 298 354
#     4   9  19  36  56  81 114 152 193 239 294 352
#
# _framework density 23.483343999999999
#
# number of rings (size 3 to 8) (size 9 to 14) (size 15 to 20)
#    0.000    2.125    1.250    2.250    1.750    5.000 
#    0.000    3.750    0.000    2.625    0.000    0.000 
#    0.000    0.000    0.000    0.000    0.000    0.000 
#
# Total GULP energy -178816.966589 kJ/mol
# GULP energy per Si atom -5588.030206 kJ/mol
# Density = 2.342989 g / cm^3
# Si number density = 23.483344 Si / 1000 Ang^3
#
#
#
# Elastic Constant Matrix: (Units=GPa)
#
#
# Indices 1 2 3 4 5 6 
#
# 1 71.9201 -6.1716 7.5385 0.0000 -3.4327 0.0000
# 2 -6.1716 26.9813 -7.2827 0.0000 1.3273 0.0000
# 3 7.5385 -7.2827 40.7177 0.0000 -0.8607 0.0000
# 4 0.0000 0.0000 0.0000 16.1845 0.0000 0.3330
# 5 -3.4327 1.3273 -0.8607 0.0000 37.4346 0.0000
# 6 0.0000 0.0000 0.0000 0.3330 0.0000 17.2086
#
#
#
# Elastic Compliance Matrix: (Units=1/GPa)
#
#
# Indices 1 2 3 4 5 6 
#
# 1 0.014416 0.002654 -0.002169 0.000000 0.001178 0.000000
# 2 0.002654 0.039487 0.006550 0.000000 -0.001006 0.000000
# 3 -0.002169 0.006550 0.026136 0.000000 0.000170 0.000000
# 4 0.000000 0.000000 0.000000 0.061812 0.000000 -0.001196
# 5 0.001178 -0.001006 0.000170 0.000000 0.026861 0.000000
# 6 0.000000 0.000000 0.000000 -0.001196 0.000000 0.058134
#
#
# Mechanical properties :
#
#
# Convention : Reuss Voigt Hill
#
# Bulk Modulus (GPa) = 10.62608 14.19861 12.41235
# Shear Modulus (GPa) = 20.47957 23.86788 22.17372
#
# Velocity S-wave (km/s) = 2.95632 3.19152 3.07617
# Velocity P-wave (km/s) = 4.02341 4.43176 4.23251
#
# Compressibility (1/GPa) = 0.09410808
#
# Stress axis : x y z
#
# Youngs Moduli (GPa) = 69.36905 25.32466 38.26128
#
# Poissons Ratio (x) = -0.06721 0.08300
# Poissons Ratio (y) = -0.18410 -0.25061
# Poissons Ratio (z) = 0.15049 -0.16588
#
# Static dielectric constant tensor:
#      x y z
#    x 1.936160 0.000000 -0.019800 
#    y 0.000000 1.823150 0.000000 
#    z -0.019800 0.000000 1.901440 
# 
# From -- ./inp_files/338782.got.cif
#   From: 2010.05.17/outbox.cif.g08.bks.cpg/sg12_170_cif.got.tgz:338782.got - 2010.06.03 13:09:07.
