data_PCOD9194005
_publ_section_title
;
Structure prediction by ZEFSAII (Michael W. Deem and Ramdas Pophale) SiO2 
 PCOD9194005
Probable space group: C 2/M
;
_chemical_formula_sum "Si O2"
_cell_formula_units_Z 48
_cell_length_a 16.943121
_cell_length_b 19.878629
_cell_length_c 15.565879
_cell_angle_alpha 90.000000
_cell_angle_beta 148.988096
_cell_angle_gamma 90.000000
_cell_volume 2701.114293
_symmetry_space_group_name_H-M "C 2/M"
_symmetry_group_IT_number 12
_symmetry_cell_setting 'monoclinic'
loop_
_space_group_symop_operation_xyz
x,y,z
-x,y,-z
-x,-y,-z
x,-y,z
1/2+x,1/2+y,z
1/2-x,1/2+y,-z
1/2-x,1/2-y,-z
1/2+x,1/2-y,z
loop_
_atom_site_type_symbol
_atom_site_label
_atom_site_fract_x
_atom_site_fract_y
_atom_site_fract_z
Si Si1 0.166728 0.701429 0.489010
Si Si2 0.345818 0.898274 0.808397
Si Si3 0.114219 0.077224 0.743697
Si Si4 0.665035 0.729192 0.834399
Si Si5 0.761241 0.926756 0.471594
Si Si6 0.335719 0.740087 0.818554
O O1 0.250000 0.750000 0.500000
O O2 0.198820 0.628329 0.478930
O O3 0.242370 0.705814 0.654271
O O4 0.997304 0.732955 0.326661
O O5 0.195524 0.916793 0.725334
O O6 0.341395 0.926416 0.709175
O O7 0.355742 0.817552 0.807237
O O8 0.500000 0.920040 0.000000
O O9 0.167496 0.147326 0.836491
O O10 0.931095 0.084293 0.588541
O O11 0.151531 0.000000 0.807515
O O12 0.748185 0.753071 0.826011
O O13 0.750000 0.750000 0.000000
O O14 0.763305 0.000000 0.514917
O O15 0.500000 0.710707 0.000000
#
# Coordination Sequence:
#
# PCOD9194005 Si02
#       6
#     8   8   8   8   8   8
#     4  12  21  38  61  85 118 157 196 242 290 348
#     4  10  20  34  54  86 122 157 191 234 294 362
#     4  10  21  36  55  81 120 156 193 237 296 359
#     4  11  23  38  61  89 118 154 201 245 294 351
#     4  11  23  37  57  84 119 159 198 243 296 355
#     4  10  21  37  61  88 117 153 197 245 293 345
#
# _framework density 17.770443
#
# number of rings (size 3 to 8) (size 9 to 14) (size 15 to 20)
#    0.000    1.333    3.333    2.500    4.667    5.333 
#    0.000    0.000    0.000    3.500    0.000    0.000 
#    0.000    0.000    0.000    0.000    0.000    0.000 
#
# Total GULP energy -133623.882219 kJ/mol
# GULP energy per Si atom -5567.661759 kJ/mol
# Density = 1.773000 g / cm^3
# Si number density = 17.770443 Si / 1000 Ang^3
#
#
#
# Elastic Constant Matrix: (Units=GPa)
#
#
# Indices 1 2 3 4 5 6 
#
# 1 77.1069 50.0496 64.3418 0.0000 -7.8132 0.0000
# 2 50.0496 127.8260 52.5722 0.0000 -16.5336 0.0000
# 3 64.3418 52.5722 132.9864 0.0000 -19.2526 0.0000
# 4 0.0000 0.0000 0.0000 6.7118 0.0000 2.4209
# 5 -7.8132 -16.5336 -19.2526 0.0000 33.9647 0.0000
# 6 0.0000 0.0000 0.0000 2.4209 0.0000 25.3301
#
#
#
# Elastic Compliance Matrix: (Units=1/GPa)
#
#
# Indices 1 2 3 4 5 6 
#
# 1 0.025061 -0.006007 -0.010174 0.000000 -0.002926 0.000000
# 2 -0.006007 0.011010 -0.000948 0.000000 0.003440 0.000000
# 3 -0.010174 -0.000948 0.013521 0.000000 0.004862 0.000000
# 4 0.000000 0.000000 0.000000 0.154310 0.000000 -0.014748
# 5 -0.002926 0.003440 0.004862 0.000000 0.033200 0.000000
# 6 0.000000 0.000000 0.000000 -0.014748 0.000000 0.040888
#
#
# Mechanical properties :
#
#
# Convention : Reuss Voigt Hill
#
# Bulk Modulus (GPa) = 65.21550 74.64960 69.93255
# Shear Modulus (GPa) = 15.75500 24.59838 20.17669
#
# Velocity S-wave (km/s) = 2.98079 3.72456 3.37324
# Velocity P-wave (km/s) = 6.97319 7.78430 7.38988
#
# Compressibility (1/GPa) = 0.01533378
#
# Stress axis : x y z
#
# Youngs Moduli (GPa) = 39.90215 90.82665 73.95975
#
# Poissons Ratio (x) = 0.54556 0.75249
# Poissons Ratio (y) = 0.23968 0.07013
# Poissons Ratio (z) = 0.40598 0.08613
#
# Static dielectric constant tensor:
#      x y z
#    x 1.693690 0.000000 -0.015080 
#    y 0.000000 2.601300 0.000000 
#    z -0.015080 0.000000 1.620090 
# 
# From -- ./inp_files/75115.got.cif
#   From: 2010.05.17/outbox.cif.g08.bks.cpg/sg12_38_cif.got.tgz:75115.got - 2010.06.03 13:09:07.
