data_PCOD9194457
_publ_section_title
;
Structure prediction by ZEFSAII (Michael W. Deem and Ramdas Pophale) SiO2 
 PCOD9194457
Probable space group: C 2/M
;
_chemical_formula_sum "Si O2"
_cell_formula_units_Z 56
_cell_length_a 32.445483
_cell_length_b 9.028095
_cell_length_c 13.841420
_cell_angle_alpha 90.000000
_cell_angle_beta 129.497497
_cell_angle_gamma 90.000000
_cell_volume 3128.619195
_symmetry_space_group_name_H-M "C 2/M"
_symmetry_group_IT_number 12
_symmetry_cell_setting 'monoclinic'
loop_
_space_group_symop_operation_xyz
x,y,z
-x,y,-z
-x,-y,-z
x,-y,z
1/2+x,1/2+y,z
1/2-x,1/2+y,-z
1/2-x,1/2-y,-z
1/2+x,1/2-y,z
loop_
_atom_site_type_symbol
_atom_site_label
_atom_site_fract_x
_atom_site_fract_y
_atom_site_fract_z
Si Si1 0.095508 0.176778 0.682109
Si Si2 0.082320 0.821905 0.442438
Si Si3 0.304805 0.677076 0.699091
Si Si4 0.630524 0.823803 0.031816
Si Si5 0.816954 0.323103 0.507983
Si Si6 0.966440 0.821966 0.214435
Si Si7 0.807167 0.324595 0.075345
O O1 0.074549 0.211832 0.544397
O O2 0.055880 0.213460 0.711203
O O3 0.150922 0.258336 0.786043
O O4 0.104373 0.000000 0.699492
O O5 0.134890 0.742580 0.482158
O O6 0.028566 0.779777 0.305044
O O7 0.088692 0.000000 0.443426
O O8 0.311542 0.500000 0.704819
O O9 0.241830 0.708514 0.623781
O O10 0.317729 0.748324 0.614656
O O11 0.341944 0.746151 0.836437
O O12 0.572630 0.757794 0.918749
O O13 0.667235 0.795321 0.991950
O O14 0.627290 0.000000 0.041391
O O15 0.750000 0.750000 0.000000
O O16 0.821901 0.500000 0.524621
O O17 0.962422 0.000000 0.196374
O O18 0.802614 0.500000 0.081207
#
# Coordination Sequence:
#
# PCOD9194457 Si02
#       7
#     8   8   8   8   8   8   8
#     4   9  18  33  53  78 109 147 186 224 267 315
#     4  10  20  34  56  83 112 146 185 227 271 320
#     4  10  21  39  61  82 107 142 180 222 275 333
#     4  10  21  36  56  80 108 144 181 224 277 324
#     4  10  22  38  57  84 112 140 177 226 276 326
#     4   9  18  35  56  80 111 148 188 225 264 321
#     4  10  21  34  49  75 110 145 183 224 267 319
#
# _framework density 17.899270000000001
#
# number of rings (size 3 to 8) (size 9 to 14) (size 15 to 20)
#    0.000    2.286    0.000    2.143    2.000    6.286 
#    0.000    0.714    0.000    8.571    0.000    0.000 
#    0.000    0.000    0.000    0.000    0.000    0.000 
#
# Total GULP energy -156290.863205 kJ/mol
# GULP energy per Si atom -5581.816543 kJ/mol
# Density = 1.785853 g / cm^3
# Si number density = 17.899270 Si / 1000 Ang^3
#
#
#
# Elastic Constant Matrix: (Units=GPa)
#
#
# Indices 1 2 3 4 5 6 
#
# 1 47.7179 22.3357 33.0316 0.0000 9.1790 0.0000
# 2 22.3357 34.0682 48.4564 0.0000 -1.2346 0.0000
# 3 33.0316 48.4564 137.9108 0.0000 2.6404 0.0000
# 4 0.0000 0.0000 0.0000 28.8803 0.0000 0.5878
# 5 9.1790 -1.2346 2.6404 0.0000 14.4990 0.0000
# 6 0.0000 0.0000 0.0000 0.5878 0.0000 29.7240
#
#
#
# Elastic Compliance Matrix: (Units=1/GPa)
#
#
# Indices 1 2 3 4 5 6 
#
# 1 0.038277 -0.027493 0.001004 0.000000 -0.026756 0.000000
# 2 -0.027493 0.079560 -0.021909 0.000000 0.028170 0.000000
# 3 0.001004 -0.021909 0.014808 0.000000 -0.005198 0.000000
# 4 0.000000 0.000000 0.000000 0.034640 0.000000 -0.000685
# 5 -0.026756 0.028170 -0.005198 0.000000 0.089254 0.000000
# 6 0.000000 0.000000 0.000000 -0.000685 0.000000 0.033656
#
#
# Mechanical properties :
#
#
# Convention : Reuss Voigt Hill
#
# Bulk Modulus (GPa) = 27.89399 47.48270 37.68834
# Shear Modulus (GPa) = 12.53322 22.34555 17.43938
#
# Velocity S-wave (km/s) = 2.64902 3.53711 3.12478
# Velocity P-wave (km/s) = 4.99741 6.57775 5.84127
#
# Compressibility (1/GPa) = 0.03585002
#
# Stress axis : x y z
#
# Youngs Moduli (GPa) = 26.12536 12.56914 67.53194
#
# Poissons Ratio (x) = 0.34557 -0.06783
# Poissons Ratio (y) = 0.71827 1.47953
# Poissons Ratio (z) = -0.02624 0.27537
#
# Static dielectric constant tensor:
#      x y z
#    x 1.597890 0.000000 0.001100 
#    y 0.000000 1.593030 0.000000 
#    z 0.001100 0.000000 1.596400 
# 
# From -- ./inp_files/244278.got.cif
#   From: 2010.05.17/outbox.cif.g08.bks.cpg/sg12_123_cif.got.tgz:244278.got - 2010.06.03 13:09:07.
