data_PCOD9194105
_publ_section_title
;
Structure prediction by ZEFSAII (Michael W. Deem and Ramdas Pophale) SiO2 
 PCOD9194105
Probable space group: C 2/M
;
_chemical_formula_sum "Si O2"
_cell_formula_units_Z 56
_cell_length_a 24.326541
_cell_length_b 14.306906
_cell_length_c 9.226689
_cell_angle_alpha 90.000000
_cell_angle_beta 70.778031
_cell_angle_gamma 90.000000
_cell_volume 3032.208450
_symmetry_space_group_name_H-M "C 2/M"
_symmetry_group_IT_number 12
_symmetry_cell_setting 'monoclinic'
loop_
_space_group_symop_operation_xyz
x,y,z
-x,y,-z
-x,-y,-z
x,-y,z
1/2+x,1/2+y,z
1/2-x,1/2+y,-z
1/2-x,1/2-y,-z
1/2+x,1/2-y,z
loop_
_atom_site_type_symbol
_atom_site_label
_atom_site_fract_x
_atom_site_fract_y
_atom_site_fract_z
Si Si1 0.934462 0.102617 0.990944
Si Si2 0.391630 0.609719 0.704179
Si Si3 0.828406 0.608336 0.597992
Si Si4 0.938309 0.711737 0.132608
Si Si5 0.558378 0.229779 0.529252
Si Si6 0.227549 0.772868 0.178044
Si Si7 0.822229 0.605910 0.259511
O O1 0.909905 0.195235 0.086465
O O2 0.908321 0.000000 0.046579
O O3 0.928247 0.115263 0.823129
O O4 0.000000 0.100381 0.000000
O O5 0.385316 0.500000 0.674449
O O6 0.422479 0.669851 0.551962
O O7 0.329494 0.660517 0.779893
O O8 0.826874 0.500000 0.644189
O O9 0.892272 0.654255 0.551423
O O10 0.788683 0.676957 0.726122
O O11 0.813302 0.613124 0.440475
O O12 0.889147 0.632689 0.167574
O O13 0.949578 0.732174 0.291632
O O14 0.000000 0.691762 0.000000
O O15 0.500000 0.201947 0.500000
O O16 0.277858 0.825734 0.220627
O O17 0.250000 0.750000 0.000000
O O18 0.810827 0.500000 0.223952
#
# Coordination Sequence:
#
# PCOD9194105 Si02
#       7
#     8   8   8   8   8   8   8
#     4   9  17  31  51  73 102 140 177 217 266 318
#     4  10  21  36  53  78 111 145 184 228 275 329
#     4   9  21  40  59  81 111 147 187 228 272 331
#     4  10  20  35  55  80 111 143 182 229 275 327
#     4  10  20  34  55  81 109 145 184 226 276 327
#     4  11  22  37  59  85 114 143 181 232 285 333
#     4  10  21  39  60  81 109 148 188 224 272 333
#
# _framework density 18.468388000000001
#
# number of rings (size 3 to 8) (size 9 to 14) (size 15 to 20)
#    0.000    2.143    0.000    3.429    0.000    3.714 
#    0.000    0.714    0.000    0.000    0.000    0.000 
#    0.000    0.000    0.000    0.000    0.000    0.000 
#
# Total GULP energy -156184.984172 kJ/mol
# GULP energy per Si atom -5578.035149 kJ/mol
# Density = 1.842635 g / cm^3
# Si number density = 18.468388 Si / 1000 Ang^3
#
#
#
# Elastic Constant Matrix: (Units=GPa)
#
#
# Indices 1 2 3 4 5 6 
#
# 1 96.2546 55.5315 65.1021 0.0000 0.3486 0.0000
# 2 55.5315 160.2432 74.1632 0.0000 -1.6102 0.0000
# 3 65.1021 74.1632 106.4204 0.0000 -11.7318 0.0000
# 4 0.0000 0.0000 0.0000 -4.0058 0.0000 -10.6322
# 5 0.3486 -1.6102 -11.7318 0.0000 23.0212 0.0000
# 6 0.0000 0.0000 0.0000 -10.6322 0.0000 0.9617
#
#
#
# Elastic Compliance Matrix: (Units=1/GPa)
#
#
# Indices 1 2 3 4 5 6 
#
# 1 0.018783 -0.001390 -0.011193 0.000000 -0.006086 0.000000
# 2 -0.001390 0.009486 -0.006023 0.000000 -0.002385 0.000000
# 3 -0.011193 -0.006023 0.021628 0.000000 0.010770 0.000000
# 4 0.000000 0.000000 0.000000 -0.008227 0.000000 -0.090954
# 5 -0.006086 -0.002385 0.010770 0.000000 0.048852 0.000000
# 6 0.000000 0.000000 0.000000 -0.090954 0.000000 0.034268
#
#
# Mechanical properties :
#
#
# Convention : Reuss Voigt Hill
#
# Bulk Modulus (GPa) = 78.82817 83.61243 81.22030
# Shear Modulus (GPa) = 30.07852 15.20351 22.64101
#
# Velocity S-wave (km/s) = 4.04003 2.87229 3.50513
# Velocity P-wave (km/s) = 8.03355 7.50810 7.77526
#
# Compressibility (1/GPa) = 0.01268582
#
# Stress axis : x y z
#
# Youngs Moduli (GPa) = 53.23833 105.41954 46.23539
#
# Poissons Ratio (x) = 0.14657 0.51750
# Poissons Ratio (y) = 0.07402 0.27848
# Poissons Ratio (z) = 0.59588 0.63494
#
# Static dielectric constant tensor:
#      x y z
#    x 1.632130 0.000000 -0.002650 
#    y 0.000000 1.639140 0.000000 
#    z -0.002650 0.000000 1.620670 
# 
# From -- ./inp_files/86321.got.cif
#   From: 2010.05.17/outbox.cif.g08.bks.cpg/sg12_44_cif.got.tgz:86321.got - 2010.06.03 13:09:07.
