data_PCOD9194441
_publ_section_title
;
Structure prediction by ZEFSAII (Michael W. Deem and Ramdas Pophale) SiO2 
 PCOD9194441
Probable space group: C 2/M
;
_chemical_formula_sum "Si O2"
_cell_formula_units_Z 58
_cell_length_a 13.203114
_cell_length_b 24.910777
_cell_length_c 15.235294
_cell_angle_alpha 90.000000
_cell_angle_beta 30.021297
_cell_angle_gamma 90.000000
_cell_volume 2507.055644
_symmetry_space_group_name_H-M "C 2/M"
_symmetry_group_IT_number 12
_symmetry_cell_setting 'monoclinic'
loop_
_space_group_symop_operation_xyz
x,y,z
-x,y,-z
-x,-y,-z
x,-y,z
1/2+x,1/2+y,z
1/2-x,1/2+y,-z
1/2-x,1/2-y,-z
1/2+x,1/2-y,z
loop_
_atom_site_type_symbol
_atom_site_label
_atom_site_fract_x
_atom_site_fract_y
_atom_site_fract_z
Si Si1 0.507909 0.225780 0.754237
Si Si2 0.412929 0.935571 0.343792
Si Si3 0.975278 0.085795 0.679983
Si Si4 0.051858 0.563212 0.054536
Si Si5 0.065454 0.818251 0.054607
Si Si6 0.878309 0.938185 0.001862
Si Si7 0.000000 0.000000 0.500000
Si Si8 0.055901 0.801314 0.556173
O O1 0.533717 0.272188 0.809463
O O2 0.704139 0.189401 0.616330
O O3 0.510439 0.254892 0.658769
O O4 0.299263 0.193511 0.907278
O O5 0.205429 0.916506 0.543080
O O6 0.390701 0.000000 0.359190
O O7 0.428248 0.917592 0.230359
O O8 0.641614 0.925943 0.203731
O O9 0.969921 0.046375 0.599847
O O10 0.939970 0.145814 0.673686
O O11 0.792799 0.069337 0.880957
O O12 0.000973 0.500000 0.088396
O O13 0.000000 0.588197 0.000000
O O14 0.033423 0.881224 0.101214
O O15 0.000000 0.811016 0.000000
O O16 0.883483 0.000000 0.959705
O O17 0.000000 0.943426 0.000000
O O18 0.000000 0.787054 0.500000
#
# Coordination Sequence:
#
# PCOD9194441 Si02
#       8
#     8   8   8   8   8   8   2   8
#     4  10  23  42  63  92 122 160 223 266 317 387
#     4  10  20  34  56  82 119 168 209 251 311 374
#     4  12  22  37  58  86 129 174 213 254 314 388
#     4  10  21  33  51  82 121 167 214 251 293 377
#     4  10  20  40  69  93 122 163 207 272 330 383
#     4   9  19  36  61  94 125 158 208 263 327 392
#     4  12  20  36  58  84 130 180 206 242 312 398
#     4  11  24  40  61  89 125 166 211 271 321 369
#
# _framework density 23.134709000000001
#
# number of rings (size 3 to 8) (size 9 to 14) (size 15 to 20)
#    0.000    1.655    2.069    2.483    3.862    0.000 
#    0.000    0.690    0.000    0.828    0.000    4.828 
#    0.000    0.000    0.000    0.000    0.000    0.000 
#
# Total GULP energy -161521.093937 kJ/mol
# GULP energy per Si atom -5569.692894 kJ/mol
# Density = 2.308205 g / cm^3
# Si number density = 23.134709 Si / 1000 Ang^3
#
#
#
# Elastic Constant Matrix: (Units=GPa)
#
#
# Indices 1 2 3 4 5 6 
#
# 1 94.5622 23.9286 -14.0154 -0.0057 -2.1594 0.0187
# 2 23.9286 125.9820 10.8816 0.0043 7.0958 0.0196
# 3 -14.0154 10.8816 58.9337 -0.0028 -12.0502 0.0616
# 4 -0.0057 0.0043 -0.0028 25.8158 0.0020 1.0229
# 5 -2.1594 7.0958 -12.0502 0.0020 25.4326 0.0059
# 6 0.0187 0.0196 0.0616 1.0229 0.0059 -12.6480
#
#
#
# Elastic Compliance Matrix: (Units=1/GPa)
#
#
# Indices 1 2 3 4 5 6 
#
# 1 0.011998 -0.002851 0.004153 0.000002 0.003782 0.000035
# 2 -0.002851 0.008997 -0.003213 -0.000002 -0.004275 -0.000008
# 3 0.004153 -0.003213 0.020822 -0.000001 0.011115 0.000108
# 4 0.000002 -0.000002 -0.000001 0.038612 -0.000004 0.003123
# 5 0.003782 -0.004275 0.011115 -0.000004 0.046099 0.000074
# 6 0.000035 -0.000008 0.000108 0.003123 0.000074 -0.078811
#
#
# Mechanical properties :
#
#
# Convention : Reuss Voigt Hill
#
# Bulk Modulus (GPa) = 26.31899 35.67417 30.99658
# Shear Modulus (GPa) = 77.87544 24.96565 51.42055
#
# Velocity S-wave (km/s) = 5.80817 3.28859 4.71962
# Velocity P-wave (km/s) = 7.50872 5.46566 6.56713
#
# Compressibility (1/GPa) = 0.03799538
#
# Stress axis : x y z
#
# Youngs Moduli (GPa) = 83.34537 111.14325 48.02699
#
# Poissons Ratio (x) = 0.31683 -0.19945
# Poissons Ratio (y) = 0.23759 0.15432
# Poissons Ratio (z) = -0.34613 0.35713
#
# Static dielectric constant tensor:
#      x y z
#    x 1.924690 0.000000 -0.032540 
#    y 0.000000 1.877920 0.000010 
#    z -0.032540 0.000010 1.903150 
# 
# From -- ./inp_files/272690.got.cif
#   From: 2010.05.17/outbox.cif.g08.bks.cpg/sg12_137_cif.got.tgz:272690.got - 2010.06.03 13:09:07.
