data_PCOD9194748
_publ_section_title
;
Structure prediction by ZEFSAII (Michael W. Deem and Ramdas Pophale) SiO2 
 PCOD9194748
Probable space group: C 2/M
;
_chemical_formula_sum "Si O2"
_cell_formula_units_Z 56
_cell_length_a 19.820855
_cell_length_b 8.638663
_cell_length_c 27.321286
_cell_angle_alpha 90.000000
_cell_angle_beta 38.473132
_cell_angle_gamma 90.000000
_cell_volume 2910.472281
_symmetry_space_group_name_H-M "C 2/M"
_symmetry_group_IT_number 12
_symmetry_cell_setting 'monoclinic'
loop_
_space_group_symop_operation_xyz
x,y,z
-x,y,-z
-x,-y,-z
x,-y,z
1/2+x,1/2+y,z
1/2-x,1/2+y,-z
1/2-x,1/2-y,-z
1/2+x,1/2-y,z
loop_
_atom_site_type_symbol
_atom_site_label
_atom_site_fract_x
_atom_site_fract_y
_atom_site_fract_z
Si Si1 0.483650 0.187508 0.139735
Si Si2 0.204295 0.686370 0.974827
Si Si3 0.761408 0.815252 0.736005
Si Si4 0.449724 0.815184 0.691745
Si Si5 0.371157 0.186053 0.576546
Si Si6 0.573910 0.314315 0.191114
Si Si7 0.161483 0.686583 0.513308
O O1 0.363558 0.238069 0.193101
O O2 0.516980 0.251055 0.174340
O O3 0.483705 0.000000 0.142801
O O4 0.578385 0.234309 0.047445
O O5 0.205240 0.500000 0.974916
O O6 0.297890 0.733174 0.883683
O O7 0.250000 0.750000 0.000000
O O8 0.835674 0.744545 0.736145
O O9 0.815101 0.767108 0.653985
O O10 0.762770 0.000000 0.740152
O O11 0.474238 0.750007 0.731487
O O12 0.543377 0.766106 0.600487
O O13 0.448784 0.000000 0.694059
O O14 0.500000 0.216249 0.500000
O O15 0.322427 0.235421 0.551938
O O16 0.358740 0.000000 0.589548
O O17 0.567051 0.500000 0.194549
O O18 0.164393 0.500000 0.511890
O O19 0.250000 0.750000 0.500000
#
# Coordination Sequence:
#
# PCOD9194748 Si02
#       7
#     8   8   8   8   8   8   8
#     4   9  19  36  57  83 114 147 181 223 275 329
#     4   8  15  31  54  79 110 144 179 221 270 322
#     4  11  23  37  57  85 112 143 187 231 271 324
#     4  11  23  41  58  77 112 152 183 222 280 332
#     4  10  20  40  61  78 106 147 186 220 271 329
#     4  10  20  34  57  87 112 142 186 230 271 322
#     4  10  23  40  59  81 108 143 182 225 273 326
#
# _framework density 19.240863999999998
#
# number of rings (size 3 to 8) (size 9 to 14) (size 15 to 20)
#    0.000    2.143    1.429    1.286    2.000    3.714 
#    0.000    0.714    0.000    4.286    0.000    0.000 
#    0.000    0.000    0.000    0.000    0.000    0.000 
#
# Total GULP energy -156200.741122 kJ/mol
# GULP energy per Si atom -5578.597897 kJ/mol
# Density = 1.919707 g / cm^3
# Si number density = 19.240864 Si / 1000 Ang^3
#
#
#
# Elastic Constant Matrix: (Units=GPa)
#
#
# Indices 1 2 3 4 5 6 
#
# 1 68.7074 8.2655 -6.5227 0.0000 -14.6591 0.0000
# 2 8.2655 14.7176 6.8926 -0.0001 -5.4529 0.0001
# 3 -6.5227 6.8926 30.3850 0.0000 -16.0125 0.0000
# 4 0.0000 -0.0001 0.0000 19.2234 0.0000 -1.0348
# 5 -14.6591 -5.4529 -16.0125 0.0000 36.7366 0.0000
# 6 0.0000 0.0001 0.0000 -1.0348 0.0000 30.1446
#
#
#
# Elastic Compliance Matrix: (Units=1/GPa)
#
#
# Indices 1 2 3 4 5 6 
#
# 1 0.019965 -0.013141 0.013550 0.000000 0.011922 0.000000
# 2 -0.013141 0.085354 -0.023718 0.000000 -0.002912 0.000000
# 3 0.013550 -0.023718 0.054776 0.000000 0.025762 0.000000
# 4 0.000000 0.000000 0.000000 0.052116 0.000000 0.001789
# 5 0.011922 -0.002912 0.025762 0.000000 0.042775 0.000000
# 6 0.000000 0.000000 0.000000 0.001789 0.000000 0.033235
#
#
# Mechanical properties :
#
#
# Convention : Reuss Voigt Hill
#
# Bulk Modulus (GPa) = 8.81234 14.56455 11.68844
# Shear Modulus (GPa) = 13.41688 24.23257 18.82473
#
# Velocity S-wave (km/s) = 2.64353 3.55270 3.13129
# Velocity P-wave (km/s) = 3.72929 4.94114 4.37736
#
# Compressibility (1/GPa) = 0.11347729
#
# Stress axis : x y z
#
# Youngs Moduli (GPa) = 50.08681 11.71588 18.25627
#
# Poissons Ratio (x) = 0.15396 -0.24737
# Poissons Ratio (y) = 0.65819 0.43299
# Poissons Ratio (z) = -0.67866 0.27787
#
# Static dielectric constant tensor:
#      x y z
#    x 1.643300 0.000000 -0.027890 
#    y 0.000000 1.651790 0.000000 
#    z -0.027890 0.000000 1.703590 
# 
# From -- ./inp_files/362921.got.cif
#   From: 2010.05.17/outbox.cif.g08.bks.cpg/sg12_182_cif.got.tgz:362921.got - 2010.06.03 13:09:07.
