data_PCOD9194021
_publ_section_title
;
Structure prediction by ZEFSAII (Michael W. Deem and Ramdas Pophale) SiO2 
 PCOD9194021
Probable space group: C 2/M
;
_chemical_formula_sum "Si O2"
_cell_formula_units_Z 40
_cell_length_a 13.246918
_cell_length_b 12.531706
_cell_length_c 11.877174
_cell_angle_alpha 90.000000
_cell_angle_beta 106.326694
_cell_angle_gamma 90.000000
_cell_volume 1892.178424
_symmetry_space_group_name_H-M "C 2/M"
_symmetry_group_IT_number 12
_symmetry_cell_setting 'monoclinic'
loop_
_space_group_symop_operation_xyz
x,y,z
-x,y,-z
-x,-y,-z
x,-y,z
1/2+x,1/2+y,z
1/2-x,1/2+y,-z
1/2-x,1/2-y,-z
1/2+x,1/2-y,z
loop_
_atom_site_type_symbol
_atom_site_label
_atom_site_fract_x
_atom_site_fract_y
_atom_site_fract_z
Si Si1 0.313575 0.770757 0.865593
Si Si2 0.629154 0.623776 0.925841
Si Si3 0.386794 0.818085 0.653182
Si Si4 0.599811 0.751561 0.703753
Si Si5 0.665146 0.620035 0.504598
O O1 0.251251 0.855635 0.924449
O O2 0.372214 0.827823 0.782135
O O3 0.215024 0.707847 0.776562
O O4 0.379665 0.692148 0.963622
O O5 0.606306 0.500000 0.931531
O O6 0.569286 0.677696 0.801871
O O7 0.507360 0.835800 0.657216
O O8 0.364748 0.696042 0.607290
O O9 0.291587 0.878805 0.562673
O O10 0.617994 0.677765 0.600778
O O11 0.627428 0.500000 0.481688
#
# Coordination Sequence:
#
# PCOD9194021 Si02
#       5
#     8   8   8   8   8
#     4   8  19  34  50  75 107 139 164 217 265 309
#     4   9  17  34  54  74 104 137 172 217 260 304
#     4  10  20  34  55  77 108 138 176 219 265 306
#     4   9  18  33  54  77 103 137 175 213 256 307
#     4  10  21  36  54  79 108 139 176 218 262 312
#
# _framework density 21.139655000000001
#
# number of rings (size 3 to 8) (size 9 to 14) (size 15 to 20)
#    1.200    1.600    0.000    1.200    0.000    4.000 
#    0.000    2.000    0.000   16.800    0.000    0.000 
#    0.000    0.000    0.000    0.000    0.000    0.000 
#
# Total GULP energy -111364.848740 kJ/mol
# GULP energy per Si atom -5568.242437 kJ/mol
# Density = 2.109154 g / cm^3
# Si number density = 21.139655 Si / 1000 Ang^3
#
#
#
# Elastic Constant Matrix: (Units=GPa)
#
#
# Indices 1 2 3 4 5 6 
#
# 1 71.3280 -5.8747 -7.8463 0.0000 15.2456 0.0000
# 2 -5.8747 26.7582 19.9346 0.0000 2.9956 0.0000
# 3 -7.8463 19.9346 68.7377 0.0000 -2.5303 0.0000
# 4 0.0000 0.0000 0.0000 4.7515 0.0000 1.4817
# 5 15.2456 2.9956 -2.5303 0.0000 19.7765 0.0000
# 6 0.0000 0.0000 0.0000 1.4817 0.0000 2.3701
#
#
#
# Elastic Compliance Matrix: (Units=1/GPa)
#
#
# Indices 1 2 3 4 5 6 
#
# 1 0.017536 0.005565 -0.000142 0.000000 -0.014380 0.000000
# 2 0.005565 0.051099 -0.014696 0.000000 -0.013911 0.000000
# 3 -0.000142 -0.014696 0.018969 0.000000 0.004762 0.000000
# 4 0.000000 0.000000 0.000000 0.261424 0.000000 -0.163435
# 5 -0.014380 -0.013911 0.004762 0.000000 0.064367 0.000000
# 6 0.000000 0.000000 0.000000 -0.163435 0.000000 0.524092
#
#
# Mechanical properties :
#
#
# Convention : Reuss Voigt Hill
#
# Bulk Modulus (GPa) = 14.48023 19.91679 17.19851
# Shear Modulus (GPa) = 5.10698 16.08698 10.59698
#
# Velocity S-wave (km/s) = 1.55598 2.76159 2.24137
# Velocity P-wave (km/s) = 3.17691 4.42837 3.85378
#
# Compressibility (1/GPa) = 0.06905969
#
# Stress axis : x y z
#
# Youngs Moduli (GPa) = 57.02560 19.56967 52.71689
#
# Poissons Ratio (x) = -0.10891 0.00746
# Poissons Ratio (y) = -0.31736 0.77474
# Poissons Ratio (z) = 0.00807 0.28760
#
# Static dielectric constant tensor:
#      x y z
#    x 1.875750 0.000000 0.001050 
#    y 0.000000 1.691770 0.000000 
#    z 0.001050 0.000000 1.770470 
# 
# From -- ./inp_files/142151.got.cif
#   From: 2010.05.17/outbox.cif.g08.bks.cpg/sg12_72_cif.got.tgz:142151.got - 2010.06.03 13:09:07.
