data_PCOD9194913
_publ_section_title
;
Structure prediction by ZEFSAII (Michael W. Deem and Ramdas Pophale) SiO2 
 PCOD9194913
Probable space group: C 2/M
;
_chemical_formula_sum "Si O2"
_cell_formula_units_Z 48
_cell_length_a 13.064005
_cell_length_b 19.177112
_cell_length_c 11.895974
_cell_angle_alpha 90.000000
_cell_angle_beta 127.211960
_cell_angle_gamma 90.000000
_cell_volume 2373.519563
_symmetry_space_group_name_H-M "C 2/M"
_symmetry_group_IT_number 12
_symmetry_cell_setting 'monoclinic'
loop_
_space_group_symop_operation_xyz
x,y,z
-x,y,-z
-x,-y,-z
x,-y,z
1/2+x,1/2+y,z
1/2-x,1/2+y,-z
1/2-x,1/2-y,-z
1/2+x,1/2-y,z
loop_
_atom_site_type_symbol
_atom_site_label
_atom_site_fract_x
_atom_site_fract_y
_atom_site_fract_z
Si Si1 0.548400 0.279904 0.927001
Si Si2 0.781020 0.785030 0.173854
Si Si3 0.161053 0.802938 0.380131
Si Si4 0.857624 0.638496 0.347544
Si Si5 0.530584 0.500000 0.837196
Si Si6 0.723754 0.500000 0.174450
Si Si7 0.455003 0.392238 0.355157
O O1 0.650307 0.302826 0.900265
O O2 0.424910 0.265160 0.770875
O O3 0.500000 0.327987 0.000000
O O4 0.631413 0.222381 0.046950
O O5 0.834054 0.710585 0.259060
O O6 0.822630 0.849508 0.278107
O O7 0.250000 0.750000 0.500000
O O8 0.252304 0.856892 0.377136
O O9 0.062930 0.834428 0.402988
O O10 0.813419 0.569102 0.250462
O O11 0.000000 0.636684 0.500000
O O12 0.393892 0.500000 0.811889
O O13 0.541816 0.436837 0.756185
O O14 0.645790 0.500000 0.004594
O O15 0.500000 0.427010 0.500000
#
# Coordination Sequence:
#
# PCOD9194913 Si02
#       7
#     8   8   8   8   4   4   8
#     4  10  20  34  58  88 135 162 210 261 327 378
#     4  10  22  36  65  99 125 170 214 269 334 381
#     4  11  22  37  61  95 130 170 207 265 326 388
#     4  12  23  42  63  93 137 168 220 268 328 393
#     4  11  25  46  68  93 125 175 223 275 322 400
#     4  11  27  42  68  93 127 179 221 265 334 391
#     4  11  23  42  66  95 130 168 221 267 333 389
#
# _framework density 20.223132
#
# number of rings (size 3 to 8) (size 9 to 14) (size 15 to 20)
#    0.000    1.167    3.333    4.000    7.000    0.000 
#    0.000    0.000    0.000    0.000    0.000    2.333 
#    0.000    0.000    0.000    0.000    0.000    0.000 
#
# Total GULP energy -133622.664942 kJ/mol
# GULP energy per Si atom -5567.611039 kJ/mol
# Density = 2.017710 g / cm^3
# Si number density = 20.223132 Si / 1000 Ang^3
#
#
#
# Elastic Constant Matrix: (Units=GPa)
#
#
# Indices 1 2 3 4 5 6 
#
# 1 62.5459 7.7783 48.5508 0.0000 14.5323 0.0000
# 2 7.7783 93.8170 56.2270 0.0000 13.0009 0.0000
# 3 48.5508 56.2270 195.4979 0.0000 20.9409 0.0000
# 4 0.0000 0.0000 0.0000 8.1975 0.0000 -4.2629
# 5 14.5323 13.0009 20.9409 0.0000 50.9016 0.0000
# 6 0.0000 0.0000 0.0000 -4.2629 0.0000 18.4032
#
#
#
# Elastic Compliance Matrix: (Units=1/GPa)
#
#
# Indices 1 2 3 4 5 6 
#
# 1 0.020851 0.002047 -0.005307 0.000000 -0.004292 0.000000
# 2 0.002047 0.013248 -0.004073 0.000000 -0.002292 0.000000
# 3 -0.005307 -0.004073 0.007669 0.000000 -0.000599 0.000000
# 4 0.000000 0.000000 0.000000 0.138695 0.000000 0.032127
# 5 -0.004292 -0.002292 -0.000599 0.000000 0.021703 0.000000
# 6 0.000000 0.000000 0.000000 0.032127 0.000000 0.061780
#
#
# Mechanical properties :
#
#
# Convention : Reuss Voigt Hill
#
# Bulk Modulus (GPa) = 36.89924 64.10811 50.50367
# Shear Modulus (GPa) = 17.38245 31.45412 24.41829
#
# Velocity S-wave (km/s) = 2.93496 3.94808 3.47860
# Velocity P-wave (km/s) = 5.45628 7.24929 6.41573
#
# Compressibility (1/GPa) = 0.02710083
#
# Stress axis : x y z
#
# Youngs Moduli (GPa) = 47.96037 75.48248 130.39916
#
# Poissons Ratio (x) = -0.15449 0.69203
# Poissons Ratio (y) = -0.09816 0.53112
# Poissons Ratio (z) = 0.25453 0.30744
#
# Static dielectric constant tensor:
#      x y z
#    x 1.820660 0.000000 -0.027780 
#    y 0.000000 1.830570 0.000000 
#    z -0.027780 0.000000 1.784490 
# 
# From -- ./inp_files/147285.got.cif
#   From: 2010.05.17/outbox.cif.g08.bks.cpg/sg12_74_cif.got.tgz:147285.got - 2010.06.03 13:09:07.
