data_PCOD9194283
_publ_section_title
;
Structure prediction by ZEFSAII (Michael W. Deem and Ramdas Pophale) SiO2 
 PCOD9194283
Probable space group: C 2/M
;
_chemical_formula_sum "Si O2"
_cell_formula_units_Z 56
_cell_length_a 30.436513
_cell_length_b 8.525840
_cell_length_c 13.065794
_cell_angle_alpha 90.000000
_cell_angle_beta 57.378390
_cell_angle_gamma 90.000000
_cell_volume 2855.672846
_symmetry_space_group_name_H-M "C 2/M"
_symmetry_group_IT_number 12
_symmetry_cell_setting 'monoclinic'
loop_
_space_group_symop_operation_xyz
x,y,z
-x,y,-z
-x,-y,-z
x,-y,z
1/2+x,1/2+y,z
1/2-x,1/2+y,-z
1/2-x,1/2-y,-z
1/2+x,1/2-y,z
loop_
_atom_site_type_symbol
_atom_site_label
_atom_site_fract_x
_atom_site_fract_y
_atom_site_fract_z
Si Si1 0.102538 0.187242 0.866738
Si Si2 0.913028 0.686090 0.885108
Si Si3 0.910855 0.686409 0.331890
Si Si4 0.205684 0.686706 0.982303
Si Si5 0.279670 0.681888 0.253416
Si Si6 0.203321 0.817430 0.488342
Si Si7 0.002259 0.691725 0.616291
O O1 0.074362 0.246103 0.799039
O O2 0.163824 0.233922 0.773917
O O3 0.100977 0.000000 0.870789
O O4 0.084929 0.246208 0.001230
O O5 0.921541 0.500000 0.887118
O O6 0.954507 0.743914 0.749408
O O7 0.854953 0.707798 0.912392
O O8 0.915306 0.500000 0.318459
O O9 0.851415 0.732689 0.430724
O O10 0.946928 0.739006 0.381425
O O11 0.212314 0.500000 0.953128
O O12 0.211866 0.793938 0.875682
O O13 0.250000 0.750000 0.000000
O O14 0.270520 0.500000 0.291396
O O15 0.230273 0.785020 0.346110
O O16 0.250000 0.750000 0.500000
O O17 0.195686 0.000000 0.518113
O O18 0.001281 0.500000 0.614072
O O19 0.000000 0.743947 0.500000
#
# Coordination Sequence:
#
# PCOD9194283 Si02
#       7
#     8   8   8   8   8   8   8
#     4  10  20  35  57  85 119 152 190 242 299 362
#     4   9  19  37  61  85 114 154 199 248 299 354
#     4  11  22  36  60  89 119 157 201 249 301 357
#     4  10  20  34  55  84 117 154 197 247 297 355
#     4  10  20  35  55  80 114 156 194 239 293 348
#     4  12  23  36  56  85 122 158 194 236 291 357
#     4   9  20  40  63  87 115 153 204 253 295 351
#
# _framework density 19.61009
#
# number of rings (size 3 to 8) (size 9 to 14) (size 15 to 20)
#    0.000    1.857    1.429    3.000    0.000    3.429 
#    0.000    7.143    0.000    3.857    0.000    0.000 
#    0.000    0.000    0.000    0.000    0.000    0.000 
#
# Total GULP energy -156081.234622 kJ/mol
# GULP energy per Si atom -5574.329808 kJ/mol
# Density = 1.956546 g / cm^3
# Si number density = 19.610090 Si / 1000 Ang^3
#
#
#
# Elastic Constant Matrix: (Units=GPa)
#
#
# Indices 1 2 3 4 5 6 
#
# 1 128.7509 22.5720 76.7197 0.0000 18.2711 0.0000
# 2 22.5720 34.6879 24.5976 0.0000 2.4302 0.0000
# 3 76.7197 24.5976 135.9805 0.0000 0.2612 0.0000
# 4 0.0000 0.0000 0.0000 25.3097 0.0000 2.2074
# 5 18.2711 2.4302 0.2612 0.0000 25.6138 0.0000
# 6 0.0000 0.0000 0.0000 2.2074 0.0000 20.1790
#
#
#
# Elastic Compliance Matrix: (Units=1/GPa)
#
#
# Indices 1 2 3 4 5 6 
#
# 1 0.014083 -0.003288 -0.007332 0.000000 -0.009659 0.000000
# 2 -0.003288 0.034082 -0.004308 0.000000 -0.000844 0.000000
# 3 -0.007332 -0.004308 0.012260 0.000000 0.005514 0.000000
# 4 0.000000 0.000000 0.000000 0.039891 0.000000 -0.004364
# 5 -0.009659 -0.000844 0.005514 0.000000 0.045956 0.000000
# 6 0.000000 0.000000 0.000000 -0.004364 0.000000 0.050034
#
#
# Mechanical properties :
#
#
# Convention : Reuss Voigt Hill
#
# Bulk Modulus (GPa) = 32.71440 60.79977 46.75708
# Shear Modulus (GPa) = 21.15478 25.92250 23.53864
#
# Velocity S-wave (km/s) = 3.28803 3.63973 3.46834
# Velocity P-wave (km/s) = 5.57974 6.98106 6.31936
#
# Compressibility (1/GPa) = 0.03056758
#
# Stress axis : x y z
#
# Youngs Moduli (GPa) = 71.00565 29.34065 81.56800
#
# Poissons Ratio (x) = 0.09647 0.59809
# Poissons Ratio (y) = 0.23347 0.35143
# Poissons Ratio (z) = 0.52065 0.12641
#
# Static dielectric constant tensor:
#      x y z
#    x 1.832160 0.000000 0.282600 
#    y 0.000000 1.694170 0.000000 
#    z 0.282600 0.000000 2.609360 
# 
# From -- ./inp_files/187162.got.cif
#   From: 2010.05.17/outbox.cif.g08.bks.cpg/sg12_94_cif.got.tgz:187162.got - 2010.06.03 13:09:07.
