data_PCOD9194070
_publ_section_title
;
Structure prediction by ZEFSAII (Michael W. Deem and Ramdas Pophale) SiO2 
 PCOD9194070
Probable space group: C 2/M
;
_chemical_formula_sum "Si O2"
_cell_formula_units_Z 56
_cell_length_a 26.107412
_cell_length_b 9.059659
_cell_length_c 15.952579
_cell_angle_alpha 90.000000
_cell_angle_beta 125.984000
_cell_angle_gamma 90.000000
_cell_volume 3053.179308
_symmetry_space_group_name_H-M "C 2/M"
_symmetry_group_IT_number 12
_symmetry_cell_setting 'monoclinic'
loop_
_space_group_symop_operation_xyz
x,y,z
-x,y,-z
-x,-y,-z
x,-y,z
1/2+x,1/2+y,z
1/2-x,1/2+y,-z
1/2-x,1/2-y,-z
1/2+x,1/2-y,z
loop_
_atom_site_type_symbol
_atom_site_label
_atom_site_fract_x
_atom_site_fract_y
_atom_site_fract_z
Si Si1 0.648388 0.326881 0.902096
Si Si2 0.516670 0.175792 0.774849
Si Si3 0.764088 0.674726 0.142829
Si Si4 0.896608 0.824096 0.730772
Si Si5 0.722650 0.677662 0.287356
Si Si6 0.332685 0.326580 0.488578
Si Si7 0.968620 0.823108 0.558445
O O1 0.634159 0.500000 0.879144
O O2 0.585230 0.239111 0.863221
O O3 0.679725 0.263439 0.847437
O O4 0.701957 0.309205 0.024855
O O5 0.461902 0.238156 0.782916
O O6 0.499915 0.238523 0.666154
O O7 0.516261 0.000000 0.773784
O O8 0.780037 0.500000 0.159976
O O9 0.746772 0.725662 0.219389
O O10 0.848689 0.776383 0.757770
O O11 0.857575 0.801308 0.606635
O O12 0.909395 0.000000 0.749397
O O13 0.722407 0.500000 0.288435
O O14 0.772272 0.734781 0.403383
O O15 0.318179 0.500000 0.466361
O O16 0.393563 0.291240 0.489053
O O17 0.000000 0.786524 0.500000
O O18 0.975475 0.000000 0.579585
#
# Coordination Sequence:
#
# PCOD9194070 Si02
#       7
#     8   8   8   8   8   8   8
#     4  10  20  37  59  78 106 144 177 214 272 332
#     4  11  22  35  55  80 106 138 179 224 268 311
#     4   9  20  37  56  83 109 134 176 227 270 316
#     4   9  19  37  55  75 106 146 183 214 260 321
#     4  10  20  34  55  80 108 138 176 226 269 310
#     4   9  18  31  49  76 108 143 179 211 254 316
#     4   9  19  35  52  75 109 143 179 216 258 320
#
# _framework density 18.341536000000001
#
# number of rings (size 3 to 8) (size 9 to 14) (size 15 to 20)
#    0.000    2.429    0.000    3.000    2.000    4.286 
#    0.000    0.714    0.000    4.286    0.000    0.000 
#    0.000    0.000    0.000    0.000    0.000    0.000 
#
# Total GULP energy -156269.064103 kJ/mol
# GULP energy per Si atom -5581.038004 kJ/mol
# Density = 1.829979 g / cm^3
# Si number density = 18.341536 Si / 1000 Ang^3
#
#
#
# Elastic Constant Matrix: (Units=GPa)
#
#
# Indices 1 2 3 4 5 6 
#
# 1 85.1585 28.9639 12.8494 0.0000 15.6130 0.0000
# 2 28.9639 48.1461 20.3742 0.0000 13.1444 0.0000
# 3 12.8494 20.3742 14.8037 0.0000 13.3914 0.0000
# 4 0.0000 0.0000 0.0000 25.0613 0.0000 7.5439
# 5 15.6130 13.1444 13.3914 0.0000 21.9259 0.0000
# 6 0.0000 0.0000 0.0000 7.5439 0.0000 26.2909
#
#
#
# Elastic Compliance Matrix: (Units=1/GPa)
#
#
# Indices 1 2 3 4 5 6 
#
# 1 0.016146 -0.012564 0.015338 0.000000 -0.013333 0.000000
# 2 -0.012564 0.067722 -0.119924 0.000000 0.041592 0.000000
# 3 0.015338 -0.119924 0.366767 0.000000 -0.163034 0.000000
# 4 0.000000 0.000000 0.000000 0.043675 0.000000 -0.012532
# 5 -0.013333 0.041592 -0.163034 0.000000 0.129742 0.000000
# 6 0.000000 0.000000 0.000000 -0.012532 0.000000 0.041632
#
#
# Mechanical properties :
#
#
# Convention : Reuss Voigt Hill
#
# Bulk Modulus (GPa) = 4.62243 30.27591 17.44917
# Shear Modulus (GPa) = 5.14353 20.38367 12.76360
#
# Velocity S-wave (km/s) = 1.67642 3.33729 2.64082
# Velocity P-wave (km/s) = 2.50457 5.60291 4.33967
#
# Compressibility (1/GPa) = 0.21633626
#
# Stress axis : x y z
#
# Youngs Moduli (GPa) = 61.93417 14.76623 2.72652
#
# Poissons Ratio (x) = 0.18552 -0.04182
# Poissons Ratio (y) = 0.77813 0.32698
# Poissons Ratio (z) = -0.94995 1.77082
#
# Static dielectric constant tensor:
#      x y z
#    x 1.649950 0.000000 -0.003670 
#    y 0.000000 1.609540 0.000000 
#    z -0.003670 0.000000 1.611620 
# 
# From -- ./inp_files/288385.got.cif
#   From: 2010.05.17/outbox.cif.g08.bks.cpg/sg12_145_cif.got.tgz:288385.got - 2010.06.03 13:09:07.
