data_PCOD9194355
_publ_section_title
;
Structure prediction by ZEFSAII (Michael W. Deem and Ramdas Pophale) SiO2 
 PCOD9194355
Probable space group: C 2/M
;
_chemical_formula_sum "Si O2"
_cell_formula_units_Z 56
_cell_length_a 31.263251
_cell_length_b 8.745622
_cell_length_c 21.861771
_cell_angle_alpha 90.000000
_cell_angle_beta 152.889597
_cell_angle_gamma 90.000000
_cell_volume 2723.926815
_symmetry_space_group_name_H-M "C 2/M"
_symmetry_group_IT_number 12
_symmetry_cell_setting 'monoclinic'
loop_
_space_group_symop_operation_xyz
x,y,z
-x,y,-z
-x,-y,-z
x,-y,z
1/2+x,1/2+y,z
1/2-x,1/2+y,-z
1/2-x,1/2-y,-z
1/2+x,1/2-y,z
loop_
_atom_site_type_symbol
_atom_site_label
_atom_site_fract_x
_atom_site_fract_y
_atom_site_fract_z
Si Si1 0.999660 0.167672 0.754232
Si Si2 0.199810 0.180651 0.373572
Si Si3 0.289005 0.821376 0.870169
Si Si4 0.165905 0.827899 0.548304
Si Si5 0.996647 0.322664 0.118298
Si Si6 0.166396 0.675450 0.929108
Si Si7 0.093348 0.682928 0.579338
O O1 0.903628 0.159406 0.597272
O O2 0.999114 0.301336 0.802903
O O3 0.078092 0.215868 0.806314
O O4 0.020586 0.000000 0.808659
O O5 0.250000 0.250000 0.500000
O O6 0.252993 0.226476 0.378577
O O7 0.092224 0.234289 0.224547
O O8 0.201603 0.000000 0.385309
O O9 0.194020 0.728607 0.737215
O O10 0.274702 0.000000 0.835706
O O11 0.388949 0.771015 0.966331
O O12 0.307928 0.816786 0.966621
O O13 0.107872 0.758827 0.531045
O O14 0.198984 0.000000 0.605612
O O15 0.004632 0.500000 0.110952
O O16 0.148613 0.500000 0.889346
O O17 0.250000 0.750000 0.000000
O O18 0.087240 0.500000 0.565331
O O19 0.000000 0.731203 0.500000
#
# Coordination Sequence:
#
# PCOD9194355 Si02
#       7
#     8   8   8   8   8   8   8
#     4  10  20  34  55  86 121 159 201 246 306 371
#     4  12  23  37  62  96 134 170 206 254 312 377
#     4   9  21  41  62  86 118 161 207 253 309 370
#     4  11  24  41  63  91 125 166 212 260 310 372
#     4  10  20  37  62  92 127 164 201 250 309 370
#     4  10  21  35  55  84 118 154 199 253 314 374
#     4  11  26  45  65  91 122 164 213 265 318 369
#
# _framework density 20.558555999999999
#
# number of rings (size 3 to 8) (size 9 to 14) (size 15 to 20)
#    0.000    1.571    1.429    4.286    2.000    6.286 
#    0.000    0.714    0.000    4.286    0.000    0.000 
#    0.000    0.000    0.000    0.000    0.000    0.000 
#
# Total GULP energy -155924.773720 kJ/mol
# GULP energy per Si atom -5568.741919 kJ/mol
# Density = 2.051176 g / cm^3
# Si number density = 20.558556 Si / 1000 Ang^3
#
#
#
# Elastic Constant Matrix: (Units=GPa)
#
#
# Indices 1 2 3 4 5 6 
#
# 1 99.9643 24.9832 30.9209 0.0000 33.0431 0.0000
# 2 24.9832 88.3046 27.5793 0.0000 13.2278 0.0000
# 3 30.9209 27.5793 80.6956 0.0000 27.6139 0.0000
# 4 0.0000 0.0000 0.0000 28.8239 0.0000 4.5340
# 5 33.0431 13.2278 27.6139 0.0000 38.5755 0.0000
# 6 0.0000 0.0000 0.0000 4.5340 0.0000 27.6918
#
#
#
# Elastic Compliance Matrix: (Units=1/GPa)
#
#
# Indices 1 2 3 4 5 6 
#
# 1 0.014470 -0.002122 -0.001095 0.000000 -0.010883 0.000000
# 2 -0.002122 0.013068 -0.003631 0.000000 -0.000064 0.000000
# 3 -0.001095 -0.003631 0.017623 0.000000 -0.010432 0.000000
# 4 0.000000 0.000000 0.000000 0.035611 0.000000 -0.005831
# 5 -0.010883 -0.000064 -0.010432 0.000000 0.042735 0.000000
# 6 0.000000 0.000000 0.000000 -0.005831 0.000000 0.037066
#
#
# Mechanical properties :
#
#
# Convention : Reuss Voigt Hill
#
# Bulk Modulus (GPa) = 31.78160 48.43681 40.10921
# Shear Modulus (GPa) = 27.06240 31.38364 29.22302
#
# Velocity S-wave (km/s) = 3.63210 3.91135 3.77431
# Velocity P-wave (km/s) = 5.75171 6.63398 6.20854
#
# Compressibility (1/GPa) = 0.03146475
#
# Stress axis : x y z
#
# Youngs Moduli (GPa) = 69.10833 76.51995 56.74489
#
# Poissons Ratio (x) = 0.16234 0.06215
# Poissons Ratio (y) = 0.14661 0.20607
# Poissons Ratio (z) = 0.07570 0.27788
#
# Static dielectric constant tensor:
#      x y z
#    x 1.744700 0.000000 0.007320 
#    y 0.000000 1.759380 0.000000 
#    z 0.007320 0.000000 1.784040 
# 
# From -- ./inp_files/329628.got.cif
#   From: 2010.05.17/outbox.cif.g08.bks.cpg/sg12_165_cif.got.tgz:329628.got - 2010.06.03 13:09:07.
