data_PCOD9194135
_publ_section_title
;
Structure prediction by ZEFSAII (Michael W. Deem and Ramdas Pophale) SiO2 
 PCOD9194135
Probable space group: C 2/M
;
_chemical_formula_sum "Si O2"
_cell_formula_units_Z 56
_cell_length_a 18.491776
_cell_length_b 7.528678
_cell_length_c 29.770080
_cell_angle_alpha 90.000000
_cell_angle_beta 38.362820
_cell_angle_gamma 90.000000
_cell_volume 2572.269577
_symmetry_space_group_name_H-M "C 2/M"
_symmetry_group_IT_number 12
_symmetry_cell_setting 'monoclinic'
loop_
_space_group_symop_operation_xyz
x,y,z
-x,y,-z
-x,-y,-z
x,-y,z
1/2+x,1/2+y,z
1/2-x,1/2+y,-z
1/2-x,1/2-y,-z
1/2+x,1/2-y,z
loop_
_atom_site_type_symbol
_atom_site_label
_atom_site_fract_x
_atom_site_fract_y
_atom_site_fract_z
Si Si1 0.738298 0.282699 0.141083
Si Si2 0.897729 0.285013 0.146970
Si Si3 0.529166 0.294982 0.437319
Si Si4 0.615786 0.712969 0.575716
Si Si5 0.293210 0.291499 0.295094
Si Si6 0.339353 0.212831 0.996602
Si Si7 0.971505 0.217435 0.284663
O O1 0.738779 0.500000 0.140681
O O2 0.818194 0.226259 0.143939
O O3 0.790388 0.222244 0.068158
O O4 0.604604 0.226691 0.212147
O O5 0.899019 0.500000 0.145462
O O6 0.843407 0.231580 0.220861
O O7 0.030606 0.220916 0.077156
O O8 0.500000 0.213549 0.500000
O O9 0.488331 0.500000 0.459607
O O10 0.462439 0.215778 0.427102
O O11 0.666623 0.292850 0.361929
O O12 0.599654 0.500000 0.585479
O O13 0.750000 0.750000 0.500000
O O14 0.575806 0.778282 0.644011
O O15 0.276303 0.500000 0.312005
O O16 0.386023 0.223919 0.286427
O O17 0.348261 0.000000 0.996223
O O18 0.250000 0.250000 0.000000
O O19 0.971693 0.000000 0.284007
#
# Coordination Sequence:
#
# PCOD9194135 Si02
#       7
#     8   8   8   8   8   8   8
#     4   9  17  33  56  78 103 138 180 221 261 315
#     4  10  20  35  56  80 106 139 180 223 266 317
#     4  10  21  37  57  81 109 142 179 220 267 317
#     4  10  20  35  55  78 105 138 175 215 261 311
#     4  11  22  35  54  80 109 141 177 219 267 318
#     4  10  20  34  55  82 109 140 178 220 269 323
#     4   9  18  32  51  75 103 137 174 213 260 312
#
# _framework density 21.770657
#
# number of rings (size 3 to 8) (size 9 to 14) (size 15 to 20)
#    0.000    2.143    0.000    3.429    0.000    6.571 
#    0.000    1.429    0.000    6.000    0.000    0.000 
#    0.000    0.000    0.000    0.000    0.000    0.000 
#
# Total GULP energy -156533.889779 kJ/mol
# GULP energy per Si atom -5590.496064 kJ/mol
# Density = 2.172111 g / cm^3
# Si number density = 21.770657 Si / 1000 Ang^3
#
#
#
# Elastic Constant Matrix: (Units=GPa)
#
#
# Indices 1 2 3 4 5 6 
#
# 1 228.0932 -6.9426 113.2975 0.0159 9.2646 0.0330
# 2 -6.9426 53.8786 -14.3926 0.0043 4.1932 -0.0030
# 3 113.2975 -14.3926 198.8393 0.0155 11.1735 -0.0007
# 4 0.0159 0.0043 0.0155 -8.5162 -0.0002 5.8403
# 5 9.2646 4.1932 11.1735 -0.0002 48.1180 0.0015
# 6 0.0330 -0.0030 -0.0007 5.8403 0.0015 7.6128
#
#
#
# Elastic Compliance Matrix: (Units=1/GPa)
#
#
# Indices 1 2 3 4 5 6 
#
# 1 0.006122 -0.000112 -0.003476 -0.000009 -0.000362 -0.000020
# 2 -0.000112 0.019119 0.001560 0.000012 -0.002007 -0.000001
# 3 -0.003476 0.001560 0.007187 0.000012 -0.001135 0.000007
# 4 -0.000009 0.000012 0.000012 -0.076943 -0.000004 0.059028
# 5 -0.000362 -0.002007 -0.001135 -0.000004 0.021290 0.000000
# 6 -0.000020 -0.000001 0.000007 0.059028 0.000000 0.086073
#
#
# Mechanical properties :
#
#
# Convention : Reuss Voigt Hill
#
# Bulk Modulus (GPa) = 35.24512 73.85951 54.55232
# Shear Modulus (GPa) = 65.47850 35.36616 50.42233
#
# Velocity S-wave (km/s) = 5.49015 4.03487 4.81778
# Velocity P-wave (km/s) = 7.51089 7.46369 7.48733
#
# Compressibility (1/GPa) = 0.02837272
#
# Stress axis : x y z
#
# Youngs Moduli (GPa) = 163.34256 52.30439 139.14836
#
# Poissons Ratio (x) = 0.00583 0.48369
# Poissons Ratio (y) = 0.01822 -0.21710
# Poissons Ratio (z) = 0.56779 -0.08161
#
# Static dielectric constant tensor:
#      x y z
#    x 1.758530 -0.000010 0.011150 
#    y -0.000010 1.841590 -0.000010 
#    z 0.011150 -0.000010 1.736430 
# 
# From -- ./inp_files/275240.got.cif
#   From: 2010.05.17/outbox.cif.g08.bks.cpg/sg12_138_cif.got.tgz:275240.got - 2010.06.03 13:09:07.
