data_PCOD9194830
_publ_section_title
;
Structure prediction by ZEFSAII (Michael W. Deem and Ramdas Pophale) SiO2 
 PCOD9194830
Probable space group: C 2/M
;
_chemical_formula_sum "Si O2"
_cell_formula_units_Z 56
_cell_length_a 7.918353
_cell_length_b 28.244845
_cell_length_c 12.581194
_cell_angle_alpha 90.000000
_cell_angle_beta 64.238744
_cell_angle_gamma 90.000000
_cell_volume 2534.160190
_symmetry_space_group_name_H-M "C 2/M"
_symmetry_group_IT_number 12
_symmetry_cell_setting 'monoclinic'
loop_
_space_group_symop_operation_xyz
x,y,z
-x,y,-z
-x,-y,-z
x,-y,z
1/2+x,1/2+y,z
1/2-x,1/2+y,-z
1/2-x,1/2-y,-z
1/2+x,1/2-y,z
loop_
_atom_site_type_symbol
_atom_site_label
_atom_site_fract_x
_atom_site_fract_y
_atom_site_fract_z
Si Si1 0.362709 0.672893 0.938253
Si Si2 0.906255 0.397023 0.339272
Si Si3 0.992396 0.000000 0.324396
Si Si4 0.156739 0.235138 0.733840
Si Si5 0.661682 0.330917 0.545010
Si Si6 0.080715 0.100603 0.252226
Si Si7 0.177873 0.500000 0.584945
Si Si8 0.933086 0.316797 0.814033
O O1 0.471115 0.712111 0.839104
O O2 0.340337 0.627299 0.871059
O O3 0.500000 0.662896 0.000000
O O4 0.169190 0.687836 0.045655
O O5 0.837629 0.358132 0.444552
O O6 0.734481 0.401081 0.303251
O O7 0.933132 0.450193 0.375065
O O8 0.064530 0.370556 0.227756
O O9 0.012131 0.047643 0.252562
O O10 0.163176 0.000000 0.364700
O O11 0.801462 0.000000 0.444340
O O12 0.184018 0.216897 0.606769
O O13 0.323017 0.213093 0.756066
O O14 0.135401 0.291313 0.756823
O O15 0.500000 0.324753 0.500000
O O16 0.585845 0.368116 0.653371
#
# Coordination Sequence:
#
# PCOD9194830 Si02
#       8
#     8   8   4   8   8   8   4   8
#     4   9  20  40  58  78 112 157 199 245 287 347
#     4  10  20  34  57  89 122 152 190 243 295 350
#     4   9  14  28  58  92 115 146 197 240 287 349
#     4  10  23  40  59  83 115 156 201 243 290 352
#     4   9  18  34  57  85 119 152 190 238 291 347
#     4   9  17  32  58  88 115 149 195 244 291 343
#     4   9  16  32  57  89 123 153 190 236 287 353
#     4  11  24  39  58  86 118 157 199 244 295 340
#
# _framework density 22.098051000000002
#
# number of rings (size 3 to 8) (size 9 to 14) (size 15 to 20)
#    0.000    2.429    1.429    0.429    6.000    1.714 
#    0.000    1.071    0.000   11.143    0.000    0.000 
#    0.000    0.000    0.000    0.000    0.000    0.000 
#
# Total GULP energy -156430.522940 kJ/mol
# GULP energy per Si atom -5586.804391 kJ/mol
# Density = 2.204775 g / cm^3
# Si number density = 22.098051 Si / 1000 Ang^3
#
#
#
# Elastic Constant Matrix: (Units=GPa)
#
#
# Indices 1 2 3 4 5 6 
#
# 1 19.8945 -2.8316 6.3682 0.0000 -0.3075 0.0000
# 2 -2.8316 110.6897 54.5078 0.0000 -4.2747 0.0000
# 3 6.3682 54.5078 90.9181 0.0000 8.0779 0.0000
# 4 0.0000 0.0000 0.0000 28.2016 0.0000 1.0296
# 5 -0.3075 -4.2747 8.0779 0.0000 19.2689 0.0000
# 6 0.0000 0.0000 0.0000 1.0296 0.0000 16.4843
#
#
#
# Elastic Compliance Matrix: (Units=1/GPa)
#
#
# Indices 1 2 3 4 5 6 
#
# 1 0.053402 0.005141 -0.007271 0.000000 0.005041 0.000000
# 2 0.005141 0.014095 -0.009447 0.000000 0.007169 0.000000
# 3 -0.007271 -0.009447 0.018041 0.000000 -0.009775 0.000000
# 4 0.000000 0.000000 0.000000 0.035540 0.000000 -0.002220
# 5 0.005041 0.007169 -0.009775 0.000000 0.057666 0.000000
# 6 0.000000 0.000000 0.000000 -0.002220 0.000000 0.060802
#
#
# Mechanical properties :
#
#
# Convention : Reuss Voigt Hill
#
# Bulk Modulus (GPa) = 16.02981 37.51015 26.76998
# Shear Modulus (GPa) = 17.63704 23.68814 20.66259
#
# Velocity S-wave (km/s) = 2.82818 3.27763 3.06116
# Velocity P-wave (km/s) = 4.23491 5.59777 4.96334
#
# Compressibility (1/GPa) = 0.06238378
#
# Stress axis : x y z
#
# Youngs Moduli (GPa) = 18.72589 70.94772 55.43054
#
# Poissons Ratio (x) = -0.36474 0.40301
# Poissons Ratio (y) = -0.09627 0.52367
# Poissons Ratio (z) = 0.13615 0.67027
#
# Static dielectric constant tensor:
#      x y z
#    x 1.885220 0.000000 -0.004540 
#    y 0.000000 1.823440 0.000000 
#    z -0.004540 0.000000 1.800430 
# 
# From -- ./inp_files/125680.got.cif
#   From: 2010.05.17/outbox.cif.g08.bks.cpg/sg12_63_cif.got.tgz:125680.got - 2010.06.03 13:09:07.
