data_PCOD9194967
_publ_section_title
;
Structure prediction by ZEFSAII (Michael W. Deem and Ramdas Pophale) SiO2 
 PCOD9194967
Probable space group: C 2/M
;
_chemical_formula_sum "Si O2"
_cell_formula_units_Z 48
_cell_length_a 12.458354
_cell_length_b 17.643277
_cell_length_c 8.119196
_cell_angle_alpha 90.000000
_cell_angle_beta 96.318963
_cell_angle_gamma 90.000000
_cell_volume 1773.807053
_symmetry_space_group_name_H-M "C 2/M"
_symmetry_group_IT_number 12
_symmetry_cell_setting 'monoclinic'
loop_
_space_group_symop_operation_xyz
x,y,z
-x,y,-z
-x,-y,-z
x,-y,z
1/2+x,1/2+y,z
1/2-x,1/2+y,-z
1/2-x,1/2-y,-z
1/2+x,1/2-y,z
loop_
_atom_site_type_symbol
_atom_site_label
_atom_site_fract_x
_atom_site_fract_y
_atom_site_fract_z
Si Si1 0.127776 0.745775 0.385876
Si Si2 0.324393 0.415821 0.661714
Si Si3 0.651099 0.111243 0.894196
Si Si4 0.058005 0.919812 0.833285
Si Si5 0.909728 0.416719 0.744148
Si Si6 0.096484 0.763800 0.769440
O O1 0.193437 0.825925 0.385996
O O2 0.144617 0.656234 0.349919
O O3 0.104403 0.747787 0.576944
O O4 0.033086 0.760390 0.233851
O O5 0.299982 0.500000 0.579595
O O6 0.256529 0.418768 0.820562
O O7 0.454849 0.417634 0.694900
O O8 0.540934 0.093551 0.771386
O O9 0.653842 0.202222 0.888259
O O10 0.628218 0.083942 0.072853
O O11 0.131645 0.848272 0.814631
O O12 0.114637 0.000000 0.825201
O O13 0.000000 0.915652 0.000000
O O14 0.889293 0.500000 0.669013
#
# Coordination Sequence:
#
# PCOD9194967 Si02
#       6
#     8   8   8   8   8   8
#     4   9  20  36  54  83 112 150 187 222 279 331
#     4  10  20  35  57  84 114 144 186 233 277 330
#     4  10  20  34  59  84 108 146 189 231 279 327
#     4   9  19  35  58  85 113 146 185 230 278 331
#     4  10  20  37  58  81 112 147 189 232 276 331
#     4   9  19  35  56  80 114 147 185 227 270 336
#
# _framework density 27.06044
#
# number of rings (size 3 to 8) (size 9 to 14) (size 15 to 20)
#    0.000    2.500    0.000    2.000    7.000    2.000 
#    0.000   11.667    0.000    0.000    0.000    0.000 
#    0.000    0.000    0.000    0.000    0.000    0.000 
#
# Total GULP energy -133876.099789 kJ/mol
# GULP energy per Si atom -5578.170825 kJ/mol
# Density = 2.699885 g / cm^3
# Si number density = 27.060440 Si / 1000 Ang^3
#
#
#
# Elastic Constant Matrix: (Units=GPa)
#
#
# Indices 1 2 3 4 5 6 
#
# 1 68.2908 33.1405 3.0879 0.0000 14.3235 0.0000
# 2 33.1405 344.4340 47.4364 0.0000 -1.2949 0.0000
# 3 3.0879 47.4364 47.9707 0.0000 -3.3359 0.0000
# 4 0.0000 0.0000 0.0000 16.8261 0.0000 76.2933
# 5 14.3235 -1.2949 -3.3359 0.0000 36.3833 0.0000
# 6 0.0000 0.0000 0.0000 76.2933 0.0000 -79.8917
#
#
#
# Elastic Compliance Matrix: (Units=1/GPa)
#
#
# Indices 1 2 3 4 5 6 
#
# 1 0.016846 -0.001658 0.000091 0.000000 -0.006683 0.000000
# 2 -0.001658 0.003526 -0.003347 0.000000 0.000472 0.000000
# 3 0.000091 -0.003347 0.024294 0.000000 0.002072 0.000000
# 4 0.000000 0.000000 0.000000 0.011150 0.000000 0.010648
# 5 -0.006683 0.000472 0.002072 0.000000 0.030323 0.000000
# 6 0.000000 0.000000 0.000000 0.010648 0.000000 -0.002348
#
#
# Mechanical properties :
#
#
# Convention : Reuss Voigt Hill
#
# Bulk Modulus (GPa) = 28.70558 69.78054 49.24306
# Shear Modulus (GPa) = 47.51475 19.79892 33.65683
#
# Velocity S-wave (km/s) = 4.19486 2.70785 3.53053
# Velocity P-wave (km/s) = 5.83896 5.96821 5.90394
#
# Compressibility (1/GPa) = 0.03483644
#
# Stress axis : x y z
#
# Youngs Moduli (GPa) = 59.36263 283.64063 41.16274
#
# Poissons Ratio (x) = 0.47042 -0.00374
# Poissons Ratio (y) = 0.09845 0.13776
# Poissons Ratio (z) = -0.00540 0.94928
#
# Static dielectric constant tensor:
#      x y z
#    x 2.354460 0.000000 -0.017990 
#    y 0.000000 2.184160 0.000000 
#    z -0.017990 0.000000 2.040630 
# 
# From -- ./inp_files/61685.got.cif
#   From: 2010.05.17/outbox.cif.g08.bks.cpg/sg12_31_cif.got.tgz:61685.got - 2010.06.03 13:09:07.
