data_PCOD9194230
_publ_section_title
;
Structure prediction by ZEFSAII (Michael W. Deem and Ramdas Pophale) SiO2 
 PCOD9194230
Probable space group: C 2/M
;
_chemical_formula_sum "Si O2"
_cell_formula_units_Z 64
_cell_length_a 18.464011
_cell_length_b 15.662246
_cell_length_c 14.419971
_cell_angle_alpha 90.000000
_cell_angle_beta 137.511769
_cell_angle_gamma 90.000000
_cell_volume 2816.634219
_symmetry_space_group_name_H-M "C 2/M"
_symmetry_group_IT_number 12
_symmetry_cell_setting 'monoclinic'
loop_
_space_group_symop_operation_xyz
x,y,z
-x,y,-z
-x,-y,-z
x,-y,z
1/2+x,1/2+y,z
1/2-x,1/2+y,-z
1/2-x,1/2-y,-z
1/2+x,1/2-y,z
loop_
_atom_site_type_symbol
_atom_site_label
_atom_site_fract_x
_atom_site_fract_y
_atom_site_fract_z
Si Si1 0.664809 0.147119 0.685580
Si Si2 0.650478 0.101962 0.999295
Si Si3 0.493435 0.325720 0.275224
Si Si4 0.809701 0.902211 0.465697
Si Si5 0.960520 0.633747 0.608931
Si Si6 0.579169 0.094178 0.225942
Si Si7 0.346312 0.649122 0.303795
Si Si8 0.689871 0.397718 0.015396
O O1 0.565033 0.108246 0.649294
O O2 0.640530 0.126720 0.555614
O O3 0.652019 0.249408 0.679008
O O4 0.769122 0.120376 0.841835
O O5 0.532066 0.136911 0.909883
O O6 0.713251 0.130011 0.964473
O O7 0.637973 0.000000 0.978904
O O8 0.730414 0.122354 0.157389
O O9 0.612201 0.364181 0.383876
O O10 0.514385 0.229614 0.330023
O O11 0.426547 0.370404 0.295627
O O12 0.415202 0.344571 0.114978
O O13 0.694012 0.859788 0.335705
O O14 0.868180 0.894705 0.421722
O O15 0.788239 0.000000 0.468501
O O16 0.943555 0.584208 0.686392
O O17 0.589826 0.000000 0.190367
O O18 0.672672 0.500000 0.986758
#
# Coordination Sequence:
#
# PCOD9194230 Si02
#       8
#     8   8   8   8   8   8   8   8
#     4  10  20  34  57  87 115 145 184 234 292 335
#     4   9  18  33  53  81 112 145 182 226 284 338
#     4  10  21  36  58  85 113 147 190 239 285 336
#     4  11  22  37  56  80 113 155 191 229 284 343
#     4  10  20  36  58  84 116 146 186 242 284 337
#     4  10  22  37  55  80 114 152 192 230 277 345
#     4  10  20  34  55  83 115 144 182 239 285 337
#     4  10  20  34  57  88 116 145 186 236 289 343
#
# _framework density 22.722156999999999
#
# number of rings (size 3 to 8) (size 9 to 14) (size 15 to 20)
#    0.000    2.000    2.500    1.125    1.750    5.000 
#    0.000    3.125    0.000    0.750    0.000    2.625 
#    0.000    0.000    0.000    0.000    0.000    0.000 
#
# Total GULP energy -178503.739793 kJ/mol
# GULP energy per Si atom -5578.241869 kJ/mol
# Density = 2.267044 g / cm^3
# Si number density = 22.722157 Si / 1000 Ang^3
#
#
#
# Elastic Constant Matrix: (Units=GPa)
#
#
# Indices 1 2 3 4 5 6 
#
# 1 20.3668 7.1096 17.6346 0.0000 8.5128 0.0000
# 2 7.1096 43.0430 14.0205 0.0000 8.4378 0.0000
# 3 17.6346 14.0205 196.6146 0.0000 13.2345 0.0000
# 4 0.0000 0.0000 0.0000 -55.0065 0.0000 28.0559
# 5 8.5128 8.4378 13.2345 0.0000 35.6113 0.0000
# 6 0.0000 0.0000 0.0000 28.0559 0.0000 1.1772
#
#
#
# Elastic Compliance Matrix: (Units=1/GPa)
#
#
# Indices 1 2 3 4 5 6 
#
# 1 0.059565 -0.006293 -0.004139 0.000000 -0.011210 0.000000
# 2 -0.006293 0.025402 -0.000967 0.000000 -0.004155 0.000000
# 3 -0.004139 -0.000967 0.005584 0.000000 -0.000857 0.000000
# 4 0.000000 0.000000 0.000000 -0.001382 0.000000 0.032934
# 5 -0.011210 -0.004155 -0.000857 0.000000 0.032063 0.000000
# 6 0.000000 0.000000 0.000000 0.032934 0.000000 0.064570
#
#
# Mechanical properties :
#
#
# Convention : Reuss Voigt Hill
#
# Bulk Modulus (GPa) = 14.75967 37.50598 26.13283
# Shear Modulus (GPa) = 21.62763 11.10705 16.36734
#
# Velocity S-wave (km/s) = 3.08852 2.21333 2.68680
# Velocity P-wave (km/s) = 4.38502 4.80353 4.59904
#
# Compressibility (1/GPa) = 0.06775217
#
# Stress axis : x y z
#
# Youngs Moduli (GPa) = 16.78825 39.36762 179.08387
#
# Poissons Ratio (x) = 0.24774 0.74126
# Poissons Ratio (y) = 0.10565 0.17322
# Poissons Ratio (z) = 0.06949 0.03808
#
# Static dielectric constant tensor:
#      x y z
#    x 1.885080 0.000000 0.059470 
#    y 0.000000 1.846550 0.000000 
#    z 0.059470 0.000000 1.915870 
# 
# From -- ./inp_files/226875.got.cif
#   From: 2010.05.17/outbox.cif.g08.bks.cpg/sg12_114_cif.got.tgz:226875.got - 2010.06.03 13:09:07.
