data_PCOD9194642
_publ_section_title
;
Structure prediction by ZEFSAII (Michael W. Deem and Ramdas Pophale) SiO2 
 PCOD9194642
Probable space group: C 2/M
;
_chemical_formula_sum "Si O2"
_cell_formula_units_Z 64
_cell_length_a 12.415522
_cell_length_b 13.233970
_cell_length_c 20.419977
_cell_angle_alpha 90.000000
_cell_angle_beta 108.073591
_cell_angle_gamma 90.000000
_cell_volume 3189.591491
_symmetry_space_group_name_H-M "C 2/M"
_symmetry_group_IT_number 12
_symmetry_cell_setting 'monoclinic'
loop_
_space_group_symop_operation_xyz
x,y,z
-x,y,-z
-x,-y,-z
x,-y,z
1/2+x,1/2+y,z
1/2-x,1/2+y,-z
1/2-x,1/2-y,-z
1/2+x,1/2-y,z
loop_
_atom_site_type_symbol
_atom_site_label
_atom_site_fract_x
_atom_site_fract_y
_atom_site_fract_z
Si Si1 0.379503 0.882052 0.014316
Si Si2 0.922816 0.829358 0.423549
Si Si3 0.590829 0.675025 0.342805
Si Si4 0.784252 0.241971 0.105320
Si Si5 0.956621 0.114372 0.195968
Si Si6 0.926388 0.884758 0.922341
Si Si7 0.664192 0.886299 0.560009
Si Si8 0.331802 0.112658 0.596726
O O1 0.275513 0.846640 0.948435
O O2 0.368113 0.000000 0.029105
O O3 0.500000 0.870174 0.000000
O O4 0.365580 0.809613 0.074400
O O5 0.904460 0.707389 0.423178
O O6 0.799762 0.877324 0.407946
O O7 0.000000 0.857262 0.500000
O O8 0.989230 0.858456 0.371109
O O9 0.556294 0.645932 0.263481
O O10 0.707853 0.625965 0.389468
O O11 0.606034 0.795120 0.356279
O O12 0.853343 0.192651 0.177313
O O13 0.680488 0.312950 0.105455
O O14 0.999814 0.117026 0.129310
O O15 0.921291 0.000000 0.204585
O O16 0.887777 0.000000 0.925954
O O17 0.000000 0.856770 0.000000
O O18 0.664818 0.872229 0.481434
O O19 0.622543 0.000000 0.566446
O O20 0.373659 0.000000 0.619426
#
# Coordination Sequence:
#
# PCOD9194642 Si02
#       8
#     8   8   8   8   8   8   8   8
#     4  10  20  34  56  89 123 150 183 233 290 343
#     4  11  19  35  57  85 114 148 189 235 286 346
#     4  11  22  40  57  80 120 158 192 238 296 352
#     4  11  20  35  59  87 115 152 195 237 283 342
#     4  11  25  41  59  85 118 156 195 243 300 354
#     4  10  21  40  66  91 115 150 199 248 294 347
#     4  10  20  35  59  88 115 148 196 249 291 338
#     4  10  21  36  58  87 115 149 196 246 291 339
#
# _framework density 20.065265
#
# number of rings (size 3 to 8) (size 9 to 14) (size 15 to 20)
#    0.000    1.500    2.500    4.500    0.000    5.000 
#    0.000    1.250    0.000    1.125    0.000    0.000 
#    0.000    0.000    0.000    0.000    0.000    0.000 
#
# Total GULP energy -178887.875135 kJ/mol
# GULP energy per Si atom -5590.246098 kJ/mol
# Density = 2.001960 g / cm^3
# Si number density = 20.065265 Si / 1000 Ang^3
#
#
#
# Elastic Constant Matrix: (Units=GPa)
#
#
# Indices 1 2 3 4 5 6 
#
# 1 77.4728 13.1134 10.2223 0.0000 5.0623 0.0000
# 2 13.1134 124.7987 25.8160 0.0000 15.2205 0.0000
# 3 10.2223 25.8160 64.7390 0.0000 6.6182 0.0000
# 4 0.0000 0.0000 0.0000 19.2699 0.0000 0.0141
# 5 5.0623 15.2205 6.6182 0.0000 20.3864 0.0000
# 6 0.0000 0.0000 0.0000 0.0141 0.0000 8.8119
#
#
#
# Elastic Compliance Matrix: (Units=1/GPa)
#
#
# Indices 1 2 3 4 5 6 
#
# 1 0.013396 -0.000814 -0.001565 0.000000 -0.002211 0.000000
# 2 -0.000814 0.009442 -0.003037 0.000000 -0.005861 0.000000
# 3 -0.001565 -0.003037 0.017204 0.000000 -0.002929 0.000000
# 4 0.000000 0.000000 0.000000 0.051894 0.000000 -0.000083
# 5 -0.002211 -0.005861 -0.002929 0.000000 0.054928 0.000000
# 6 0.000000 0.000000 0.000000 -0.000083 0.000000 0.113483
#
#
# Mechanical properties :
#
#
# Convention : Reuss Voigt Hill
#
# Bulk Modulus (GPa) = 34.23502 40.59044 37.41273
# Shear Modulus (GPa) = 17.79888 24.21756 21.00822
#
# Velocity S-wave (km/s) = 2.98157 3.47787 3.23924
# Velocity P-wave (km/s) = 5.38069 6.03329 5.71631
#
# Compressibility (1/GPa) = 0.02920985
#
# Stress axis : x y z
#
# Youngs Moduli (GPa) = 74.64640 105.91462 58.12505
#
# Poissons Ratio (x) = 0.08626 0.09094
# Poissons Ratio (y) = 0.06079 0.17654
# Poissons Ratio (z) = 0.11679 0.32169
#
# Static dielectric constant tensor:
#      x y z
#    x 1.726040 0.000000 -0.004170 
#    y 0.000000 1.741950 0.000000 
#    z -0.004170 0.000000 1.675590 
# 
# From -- ./inp_files/305446.got.cif
#   From: 2010.05.17/outbox.cif.g08.bks.cpg/sg12_153_cif.got.tgz:305446.got - 2010.06.03 13:09:07.
