data_PCOD9194071
_publ_section_title
;
Structure prediction by ZEFSAII (Michael W. Deem and Ramdas Pophale) SiO2 
 PCOD9194071
Probable space group: C 2/M
;
_chemical_formula_sum "Si O2"
_cell_formula_units_Z 50
_cell_length_a 14.498289
_cell_length_b 7.810154
_cell_length_c 21.963305
_cell_angle_alpha 90.000000
_cell_angle_beta 66.161300
_cell_angle_gamma 90.000000
_cell_volume 2274.817160
_symmetry_space_group_name_H-M "C 2/M"
_symmetry_group_IT_number 12
_symmetry_cell_setting 'monoclinic'
loop_
_space_group_symop_operation_xyz
x,y,z
-x,y,-z
-x,-y,-z
x,-y,z
1/2+x,1/2+y,z
1/2-x,1/2+y,-z
1/2-x,1/2-y,-z
1/2+x,1/2-y,z
loop_
_atom_site_type_symbol
_atom_site_label
_atom_site_fract_x
_atom_site_fract_y
_atom_site_fract_z
Si Si1 0.848084 0.804077 0.910403
Si Si2 0.183921 0.203973 0.575730
Si Si3 0.029120 0.208198 0.330010
Si Si4 0.960468 0.298341 0.212783
Si Si5 0.000000 0.500000 0.000000
Si Si6 0.251246 0.703008 0.692425
Si Si7 0.360478 0.303349 0.050280
O O1 0.757640 0.706436 0.900586
O O2 0.956853 0.785817 0.851982
O O3 0.815569 0.000000 0.917836
O O4 0.855838 0.755483 0.979113
O O5 0.250000 0.250000 0.500000
O O6 0.228698 0.274922 0.626849
O O7 0.066630 0.259892 0.603054
O O8 0.183867 0.000000 0.581939
O O9 0.138785 0.272245 0.320582
O O10 0.001283 0.270789 0.270287
O O11 0.032304 0.000000 0.328410
O O12 0.958910 0.500000 0.199793
O O13 0.845979 0.228206 0.244745
O O14 0.067002 0.653116 0.946962
O O15 0.252864 0.500000 0.704495
O O16 0.394308 0.500000 0.049983
#
# Coordination Sequence:
#
# PCOD9194071 Si02
#       7
#     8   8   8   8   2   8   8
#     4  10  20  39  61  83 111 159 198 236 289 357
#     4  10  20  34  55  80 108 143 182 227 278 336
#     4   9  19  37  56  77 108 147 187 229 279 339
#     4  10  20  34  57  83 111 146 188 235 287 344
#     4  12  22  40  60  94 120 154 186 256 306 342
#     4   9  19  37  56  78 108 144 185 230 278 332
#     4  10  22  39  62  87 120 154 198 243 300 356
#
# _framework density 21.979787999999999
#
# number of rings (size 3 to 8) (size 9 to 14) (size 15 to 20)
#    0.000    2.240    0.800    1.680    2.240    2.560 
#    2.880    3.200    0.000    0.000    0.000    0.000 
#    0.000    0.000    0.000    0.000    0.000    0.000 
#
# Total GULP energy -139299.187060 kJ/mol
# GULP energy per Si atom -5571.967482 kJ/mol
# Density = 2.192976 g / cm^3
# Si number density = 21.979788 Si / 1000 Ang^3
#
#
#
# Elastic Constant Matrix: (Units=GPa)
#
#
# Indices 1 2 3 4 5 6 
#
# 1 130.7115 42.5983 28.9871 0.0000 -37.5621 0.0000
# 2 42.5983 50.9981 -1.5780 0.0000 -12.6658 0.0000
# 3 28.9871 -1.5780 82.8828 0.0000 -33.5050 0.0000
# 4 0.0000 0.0000 0.0000 28.9568 0.0000 -6.2606
# 5 -37.5621 -12.6658 -33.5050 0.0000 26.3266 0.0000
# 6 0.0000 0.0000 0.0000 -6.2606 0.0000 14.1953
#
#
#
# Elastic Compliance Matrix: (Units=1/GPa)
#
#
# Indices 1 2 3 4 5 6 
#
# 1 0.016339 -0.007153 0.004494 0.000000 0.025590 0.000000
# 2 -0.007153 0.030070 0.009879 0.000000 0.016834 0.000000
# 3 0.004494 0.009879 0.031296 0.000000 0.050994 0.000000
# 4 0.000000 0.000000 0.000000 0.038174 0.000000 0.016836
# 5 0.025590 0.016834 0.050994 0.000000 0.147493 0.000000
# 6 0.000000 0.000000 0.000000 0.016836 0.000000 0.077871
#
#
# Mechanical properties :
#
#
# Convention : Reuss Voigt Hill
#
# Bulk Modulus (GPa) = 10.85244 44.95636 27.90440
# Shear Modulus (GPa) = 13.98538 26.86807 20.42673
#
# Velocity S-wave (km/s) = 2.52520 3.50008 3.05182
# Velocity P-wave (km/s) = 3.66748 6.06893 5.01410
#
# Compressibility (1/GPa) = 0.09214514
#
# Stress axis : x y z
#
# Youngs Moduli (GPa) = 61.20500 33.25572 31.95329
#
# Poissons Ratio (x) = 0.23788 -0.14360
# Poissons Ratio (y) = 0.43780 -0.31568
# Poissons Ratio (z) = -0.27506 -0.32854
#
# Static dielectric constant tensor:
#      x y z
#    x 2.051180 0.000000 0.049010 
#    y 0.000000 1.834300 0.000000 
#    z 0.049010 0.000000 1.837170 
# 
# From -- ./inp_files/337776.got.cif
#   From: 2010.05.17/outbox.cif.g08.bks.cpg/sg12_169_cif.got.tgz:337776.got - 2010.06.03 13:09:07.
