data_PCOD9194278
_publ_section_title
;
Structure prediction by ZEFSAII (Michael W. Deem and Ramdas Pophale) SiO2 
 PCOD9194278
Probable space group: C 2/M
;
_chemical_formula_sum "Si O2"
_cell_formula_units_Z 60
_cell_length_a 8.425750
_cell_length_b 11.679693
_cell_length_c 32.101646
_cell_angle_alpha 90.000000
_cell_angle_beta 115.967881
_cell_angle_gamma 90.000000
_cell_volume 2840.181816
_symmetry_space_group_name_H-M "C 2/M"
_symmetry_group_IT_number 12
_symmetry_cell_setting 'monoclinic'
loop_
_space_group_symop_operation_xyz
x,y,z
-x,y,-z
-x,-y,-z
x,-y,z
1/2+x,1/2+y,z
1/2-x,1/2+y,-z
1/2-x,1/2-y,-z
1/2+x,1/2-y,z
loop_
_atom_site_type_symbol
_atom_site_label
_atom_site_fract_x
_atom_site_fract_y
_atom_site_fract_z
Si Si1 0.456670 0.000000 0.389476
Si Si2 0.084544 0.703713 0.889933
Si Si3 0.218903 0.800921 0.322483
Si Si4 0.296493 0.202892 0.550636
Si Si5 0.195020 0.873373 0.833022
Si Si6 0.525950 0.369689 0.050580
Si Si7 0.925069 0.867089 0.401517
Si Si8 0.824766 0.131340 0.268394
O O1 0.359900 0.899037 0.349736
O O2 0.560069 0.898667 0.428872
O O3 0.098938 0.778637 0.849559
O O4 0.265790 0.635126 0.915051
O O5 0.902969 0.634546 0.867659
O O6 0.070476 0.789049 0.927569
O O7 0.272886 0.694338 0.357942
O O8 0.225261 0.737774 0.278410
O O9 0.026109 0.852740 0.307009
O O10 0.250000 0.250000 0.500000
O O11 0.129406 0.157880 0.557112
O O12 0.385793 0.311188 0.584299
O O13 0.177504 0.857475 0.781618
O O14 0.126992 0.000000 0.835832
O O15 0.461200 0.500000 0.046367
O O16 0.500000 0.331071 0.000000
O O17 0.925690 0.000000 0.393296
O O18 0.765444 0.000000 0.271617
#
# Coordination Sequence:
#
# PCOD9194278 Si02
#       8
#     4   8   8   8   8   8   8   8
#     4  10  22  42  64  88 124 158 190 242 296 346
#     4  10  20  36  57  81 120 160 200 252 309 366
#     4  11  22  42  65  89 121 157 196 243 301 350
#     4  11  24  42  65  92 121 158 195 238 287 345
#     4  10  21  37  58  85 117 156 197 246 309 360
#     4  10  20  34  55  84 116 159 210 258 304 358
#     4  11  24  43  66  90 123 158 195 240 293 349
#     4  11  23  40  64  92 122 154 202 252 296 370
#
# _framework density 21.125406999999999
#
# number of rings (size 3 to 8) (size 9 to 14) (size 15 to 20)
#    0.000    1.467    1.333    4.400    0.933    0.533 
#    6.000    2.667    2.933    6.400    0.000    0.000 
#    0.000    0.000    0.000    0.000    0.000    0.000 
#
# Total GULP energy -167048.308746 kJ/mol
# GULP energy per Si atom -5568.276958 kJ/mol
# Density = 2.107732 g / cm^3
# Si number density = 21.125407 Si / 1000 Ang^3
#
#
#
# Elastic Constant Matrix: (Units=GPa)
#
#
# Indices 1 2 3 4 5 6 
#
# 1 27.5587 6.1834 -17.1896 0.0000 1.5687 0.0000
# 2 6.1834 132.4547 24.1096 0.0000 -6.9064 0.0000
# 3 -17.1896 24.1096 74.8233 0.0000 -3.6359 0.0000
# 4 0.0000 0.0000 0.0000 9.7864 0.0000 -1.8518
# 5 1.5687 -6.9064 -3.6359 0.0000 24.8715 0.0000
# 6 0.0000 0.0000 0.0000 -1.8518 0.0000 5.0319
#
#
#
# Elastic Compliance Matrix: (Units=1/GPa)
#
#
# Indices 1 2 3 4 5 6 
#
# 1 0.044561 -0.004296 0.011509 0.000000 -0.002321 0.000000
# 2 -0.004296 0.008521 -0.003630 0.000000 0.002106 0.000000
# 3 0.011509 -0.003630 0.017217 0.000000 0.000783 0.000000
# 4 0.000000 0.000000 0.000000 0.109830 0.000000 0.040418
# 5 -0.002321 0.002106 0.000783 0.000000 0.041052 0.000000
# 6 0.000000 0.000000 0.000000 0.040418 0.000000 0.213608
#
#
# Mechanical properties :
#
#
# Convention : Reuss Voigt Hill
#
# Bulk Modulus (GPa) = 12.90936 29.00483 20.95710
# Shear Modulus (GPa) = 11.02669 22.72017 16.87343
#
# Velocity S-wave (km/s) = 2.28713 3.28302 2.82924
# Velocity P-wave (km/s) = 3.61921 5.30383 4.54034
#
# Compressibility (1/GPa) = 0.07746315
#
# Stress axis : x y z
#
# Youngs Moduli (GPa) = 22.44123 117.35824 58.08353
#
# Poissons Ratio (x) = 0.50418 -0.66847
# Poissons Ratio (y) = 0.09641 0.21086
# Poissons Ratio (z) = -0.25827 0.42604
#
# Static dielectric constant tensor:
#      x y z
#    x 1.818300 0.000000 -0.028700 
#    y 0.000000 1.730550 0.000000 
#    z -0.028700 0.000000 1.784130 
# 
# From -- ./inp_files/372200.got.cif
#   From: 2010.05.17/outbox.cif.g08.bks.cpg/sg12_187_cif.got.tgz:372200.got - 2010.06.03 13:09:07.
