data_PCOD9194945
_publ_section_title
;
Structure prediction by ZEFSAII (Michael W. Deem and Ramdas Pophale) SiO2 
 PCOD9194945
Probable space group: C 2/M
;
_chemical_formula_sum "Si O2"
_cell_formula_units_Z 60
_cell_length_a 24.162245
_cell_length_b 9.174044
_cell_length_c 11.637971
_cell_angle_alpha 90.000000
_cell_angle_beta 109.849742
_cell_angle_gamma 90.000000
_cell_volume 2426.465038
_symmetry_space_group_name_H-M "C 2/M"
_symmetry_group_IT_number 12
_symmetry_cell_setting 'monoclinic'
loop_
_space_group_symop_operation_xyz
x,y,z
-x,y,-z
-x,-y,-z
x,-y,z
1/2+x,1/2+y,z
1/2-x,1/2+y,-z
1/2-x,1/2-y,-z
1/2+x,1/2-y,z
loop_
_atom_site_type_symbol
_atom_site_label
_atom_site_fract_x
_atom_site_fract_y
_atom_site_fract_z
Si Si1 0.729758 0.769316 0.150750
Si Si2 0.059364 0.833257 0.156675
Si Si3 0.355868 0.168551 0.458757
Si Si4 0.014437 0.332612 0.337260
Si Si5 0.399371 0.673580 0.271689
Si Si6 0.398140 0.834164 0.026817
Si Si7 0.691011 0.332632 0.359878
Si Si8 0.776666 0.000000 0.027539
O O1 0.729987 0.734710 0.285356
O O2 0.777057 0.874377 0.128164
O O3 0.666956 0.842480 0.074517
O O4 0.729092 0.623575 0.076762
O O5 0.025041 0.721583 0.214269
O O6 0.125518 0.837874 0.256058
O O7 0.036917 0.000000 0.145196
O O8 0.066130 0.770930 0.033539
O O9 0.422284 0.172069 0.558031
O O10 0.360303 0.262961 0.346977
O O11 0.315996 0.235208 0.531884
O O12 0.341760 0.000000 0.423669
O O13 0.993159 0.500000 0.330383
O O14 0.966287 0.222080 0.351736
O O15 0.396479 0.500000 0.252431
O O16 0.391314 0.760011 0.145999
O O17 0.420539 0.000000 0.048879
O O18 0.706665 0.500000 0.397847
#
# Coordination Sequence:
#
# PCOD9194945 Si02
#       8
#     8   8   8   8   8   8   8   4
#     4  10  20  35  58  90 121 144 172 213 267 324
#     4   9  18  32  53  79 107 144 182 223 276 321
#     4  10  21  36  56  79 105 143 190 235 273 313
#     4  10  20  36  56  78 108 140 185 240 279 317
#     4  12  25  37  53  76 105 147 191 231 278 320
#     4  11  22  37  55  77 113 149 182 220 268 331
#     4   9  17  31  53  80 114 144 176 221 265 312
#     4  10  20  34  58  92 120 142 172 208 268 330
#
# _framework density 24.727329000000001
#
# number of rings (size 3 to 8) (size 9 to 14) (size 15 to 20)
#    0.000    1.867    1.333    3.200    2.800    5.333 
#    0.000    2.667    0.000    0.000    0.000    5.600 
#    0.000    0.000    0.000    0.000    0.000    0.000 
#
# Total GULP energy -167584.928907 kJ/mol
# GULP energy per Si atom -5586.164297 kJ/mol
# Density = 2.467105 g / cm^3
# Si number density = 24.727329 Si / 1000 Ang^3
#
#
#
# Elastic Constant Matrix: (Units=GPa)
#
#
# Indices 1 2 3 4 5 6 
#
# 1 81.8471 29.0162 22.1320 0.0000 -15.6863 0.0000
# 2 29.0162 198.5059 63.6661 0.0000 -33.0464 0.0000
# 3 22.1320 63.6661 172.0379 0.0000 -37.0164 0.0000
# 4 0.0000 0.0000 0.0000 62.4918 0.0000 -46.8618
# 5 -15.6863 -33.0464 -37.0164 0.0000 55.7380 0.0000
# 6 0.0000 0.0000 0.0000 -46.8618 0.0000 86.3647
#
#
#
# Elastic Compliance Matrix: (Units=1/GPa)
#
#
# Indices 1 2 3 4 5 6 
#
# 1 0.013353 -0.001311 -0.000690 0.000000 0.002523 0.000000
# 2 -0.001311 0.006113 -0.001625 0.000000 0.002176 0.000000
# 3 -0.000690 -0.001625 0.007296 0.000000 0.003688 0.000000
# 4 0.000000 0.000000 0.000000 0.026980 0.000000 0.014639
# 5 0.002523 0.002176 0.003688 0.000000 0.022390 0.000000
# 6 0.000000 0.000000 0.000000 0.014639 0.000000 0.019522
#
#
# Mechanical properties :
#
#
# Convention : Reuss Voigt Hill
#
# Bulk Modulus (GPa) = 51.25604 75.77995 63.51799
# Shear Modulus (GPa) = 45.69998 63.42402 54.56200
#
# Velocity S-wave (km/s) = 4.30368 5.07001 4.70249
# Velocity P-wave (km/s) = 6.74308 8.06140 7.43153
#
# Compressibility (1/GPa) = 0.01950990
#
# Stress axis : x y z
#
# Youngs Moduli (GPa) = 74.89211 163.59293 137.05341
#
# Poissons Ratio (x) = 0.21439 0.09457
# Poissons Ratio (y) = 0.09815 0.22276
# Poissons Ratio (z) = 0.05168 0.26590
#
# Static dielectric constant tensor:
#      x y z
#    x 2.116070 0.000000 0.091420 
#    y 0.000000 1.844010 0.000000 
#    z 0.091420 0.000000 1.921300 
# 
# From -- ./inp_files/186781.got.cif
#   From: 2010.05.17/outbox.cif.g08.bks.cpg/sg12_94_cif.got.tgz:186781.got - 2010.06.03 13:09:07.
