data_PCOD9194502
_publ_section_title
;
Structure prediction by ZEFSAII (Michael W. Deem and Ramdas Pophale) SiO2 
 PCOD9194502
Probable space group: C 2/M
;
_chemical_formula_sum "Si O2"
_cell_formula_units_Z 60
_cell_length_a 31.027895
_cell_length_b 12.208138
_cell_length_c 9.107886
_cell_angle_alpha 90.000000
_cell_angle_beta 106.449525
_cell_angle_gamma 90.000000
_cell_volume 3308.791790
_symmetry_space_group_name_H-M "C 2/M"
_symmetry_group_IT_number 12
_symmetry_cell_setting 'monoclinic'
loop_
_space_group_symop_operation_xyz
x,y,z
-x,y,-z
-x,-y,-z
x,-y,z
1/2+x,1/2+y,z
1/2-x,1/2+y,-z
1/2-x,1/2-y,-z
1/2+x,1/2-y,z
loop_
_atom_site_type_symbol
_atom_site_label
_atom_site_fract_x
_atom_site_fract_y
_atom_site_fract_z
Si Si1 0.590996 0.629575 0.289875
Si Si2 0.248643 0.727081 0.249277
Si Si3 0.448723 0.783422 0.977964
Si Si4 0.303696 0.627152 0.565153
Si Si5 0.302427 0.126648 0.068699
Si Si6 0.452023 0.000000 0.781394
Si Si7 0.907736 0.628917 0.221454
Si Si8 0.954834 0.698940 0.549219
O O1 0.581743 0.500000 0.270549
O O2 0.582805 0.694157 0.129714
O O3 0.642836 0.644460 0.386856
O O4 0.559534 0.693866 0.374399
O O5 0.280305 0.658234 0.388860
O O6 0.218119 0.800263 0.327490
O O7 0.278961 0.800702 0.170823
O O8 0.217518 0.657512 0.109418
O O9 0.443785 0.902694 0.897507
O O10 0.500000 0.748980 0.000000
O O11 0.437615 0.802426 0.136802
O O12 0.295173 0.500000 0.588897
O O13 0.355937 0.141885 0.126051
O O14 0.292732 0.000000 0.090177
O O15 0.459559 0.902844 0.664775
O O16 0.919797 0.500000 0.224423
O O17 0.916378 0.668443 0.394515
O O18 0.000000 0.713299 0.500000
#
# Coordination Sequence:
#
# PCOD9194502 Si02
#       8
#     8   8   8   8   8   4   8   8
#     4  10  23  41  57  79 113 153 198 240 275 331
#     4  10  20  36  58  82 108 142 184 230 274 342
#     4  11  22  36  58  84 114 152 192 234 285 341
#     4  10  20  37  61  81 106 144 190 235 276 326
#     4  10  21  35  53  80 116 144 174 219 284 338
#     4  10  20  34  56  84 112 146 192 230 282 346
#     4  11  21  34  55  85 119 146 176 234 291 346
#     4  11  22  36  58  84 114 152 192 234 285 341
#
# _framework density 18.133507000000002
#
# number of rings (size 3 to 8) (size 9 to 14) (size 15 to 20)
#    0.000    1.600    1.333    4.400    1.867    0.533 
#    0.000    0.667    8.800    4.800    0.000    0.000 
#    0.000    0.000    0.000    0.000    0.000    0.000 
#
# Total GULP energy -167015.547131 kJ/mol
# GULP energy per Si atom -5567.184904 kJ/mol
# Density = 1.809223 g / cm^3
# Si number density = 18.133507 Si / 1000 Ang^3
#
#
#
# Elastic Constant Matrix: (Units=GPa)
#
#
# Indices 1 2 3 4 5 6 
#
# 1 25.9824 18.2844 1.4393 0.0000 7.4376 0.0000
# 2 18.2844 71.2236 6.1992 0.0000 11.1101 0.0000
# 3 1.4393 6.1992 64.4670 0.0000 1.8761 0.0000
# 4 0.0000 0.0000 0.0000 8.1473 0.0000 -2.8988
# 5 7.4376 11.1101 1.8761 0.0000 32.5109 0.0000
# 6 0.0000 0.0000 0.0000 -2.8988 0.0000 16.5987
#
#
#
# Elastic Compliance Matrix: (Units=1/GPa)
#
#
# Indices 1 2 3 4 5 6 
#
# 1 0.048534 -0.011350 0.000218 0.000000 -0.007237 0.000000
# 2 -0.011350 0.017591 -0.001341 0.000000 -0.003338 0.000000
# 3 0.000218 -0.001341 0.015650 0.000000 -0.000495 0.000000
# 4 0.000000 0.000000 0.000000 0.130873 0.000000 0.022856
# 5 -0.007237 -0.003338 -0.000495 0.000000 0.033584 0.000000
# 6 0.000000 0.000000 0.000000 0.022856 0.000000 0.064237
#
#
# Mechanical properties :
#
#
# Convention : Reuss Voigt Hill
#
# Bulk Modulus (GPa) = 17.59595 23.72431 20.66013
# Shear Modulus (GPa) = 14.11002 20.50140 17.30571
#
# Velocity S-wave (km/s) = 2.79250 3.36606 3.09261
# Velocity P-wave (km/s) = 4.48576 5.31213 4.91634
#
# Compressibility (1/GPa) = 0.05683126
#
# Stress axis : x y z
#
# Youngs Moduli (GPa) = 20.60400 56.84615 63.89659
#
# Poissons Ratio (x) = 0.64519 -0.01396
# Poissons Ratio (y) = 0.23385 0.08569
# Poissons Ratio (z) = -0.00450 0.07623
#
# Static dielectric constant tensor:
#      x y z
#    x 1.621720 0.000000 0.025940 
#    y 0.000000 1.581420 0.000000 
#    z 0.025940 0.000000 1.629420 
# 
# From -- ./inp_files/110537.got.cif
#   From: 2010.05.17/outbox.cif.g08.bks.cpg/sg12_56_cif.got.tgz:110537.got - 2010.06.03 13:09:07.
