data_PCOD9194127
_publ_section_title
;
Structure prediction by ZEFSAII (Michael W. Deem and Ramdas Pophale) SiO2 
 PCOD9194127
Probable space group: C 2/M
;
_chemical_formula_sum "Si O2"
_cell_formula_units_Z 56
_cell_length_a 20.312664
_cell_length_b 24.715859
_cell_length_c 9.099530
_cell_angle_alpha 90.000000
_cell_angle_beta 39.669193
_cell_angle_gamma 90.000000
_cell_volume 2916.239314
_symmetry_space_group_name_H-M "C 2/M"
_symmetry_group_IT_number 12
_symmetry_cell_setting 'monoclinic'
loop_
_space_group_symop_operation_xyz
x,y,z
-x,y,-z
-x,-y,-z
x,-y,z
1/2+x,1/2+y,z
1/2-x,1/2+y,-z
1/2-x,1/2-y,-z
1/2+x,1/2-y,z
loop_
_atom_site_type_symbol
_atom_site_label
_atom_site_fract_x
_atom_site_fract_y
_atom_site_fract_z
Si Si1 0.735377 0.669587 0.371941
Si Si2 0.842594 0.334352 0.502283
Si Si3 0.949602 0.935123 0.738443
Si Si4 0.149987 0.061844 0.571960
Si Si5 0.025158 0.762734 0.781964
Si Si6 0.191797 0.761193 0.950285
Si Si7 0.761667 0.936453 0.251808
O O1 0.796128 0.670935 0.419693
O O2 0.714569 0.606986 0.374810
O O3 0.625049 0.699700 0.582188
O O4 0.801064 0.704208 0.146861
O O5 0.944337 0.297917 0.322182
O O6 0.760941 0.303646 0.744198
O O7 0.835750 0.396756 0.561982
O O8 0.000000 0.913526 0.500000
O O9 0.032272 0.927893 0.727446
O O10 0.938667 0.000000 0.736744
O O11 0.838308 0.917436 0.989670
O O12 0.174749 0.067970 0.702540
O O13 0.174297 0.000000 0.489206
O O14 0.000000 0.764395 0.000000
O O15 0.926202 0.780102 0.856974
O O16 0.250000 0.750000 0.000000
O O17 0.736849 0.000000 0.276070
#
# Coordination Sequence:
#
# PCOD9194127 Si02
#       7
#     8   8   8   8   8   8   8
#     4  10  20  34  55  82 107 147 185 217 276 338
#     4  10  20  35  57  82 108 146 186 219 275 338
#     4   9  17  28  43  68 104 144 180 215 267 324
#     4   9  18  31  48  73 107 143 181 220 263 324
#     4  11  19  36  61  78 105 149 181 228 278 326
#     4  11  23  37  55  84 112 135 185 235 276 326
#     4   9  18  32  52  76 107 142 182 229 266 317
#
# _framework density 19.202812999999999
#
# number of rings (size 3 to 8) (size 9 to 14) (size 15 to 20)
#    0.000    2.143    2.857    1.286    2.000    5.143 
#    0.000    0.000    0.000    1.286    0.000    1.000 
#    0.000    0.000    0.000    0.000    0.000    0.000 
#
# Total GULP energy -156058.903803 kJ/mol
# GULP energy per Si atom -5573.532279 kJ/mol
# Density = 1.915911 g / cm^3
# Si number density = 19.202813 Si / 1000 Ang^3
#
#
#
# Elastic Constant Matrix: (Units=GPa)
#
#
# Indices 1 2 3 4 5 6 
#
# 1 32.7497 -2.8925 2.3560 0.0000 -3.1263 0.0000
# 2 -2.8925 73.5303 10.7393 0.0000 7.5605 0.0000
# 3 2.3560 10.7393 32.8643 0.0000 -5.5608 0.0000
# 4 0.0000 0.0000 0.0000 20.0002 0.0000 -8.1214
# 5 -3.1263 7.5605 -5.5608 0.0000 18.5179 0.0000
# 6 0.0000 0.0000 0.0000 -8.1214 0.0000 5.1102
#
#
#
# Elastic Compliance Matrix: (Units=1/GPa)
#
#
# Indices 1 2 3 4 5 6 
#
# 1 0.031170 0.001058 -0.001857 0.000000 0.004272 0.000000
# 2 0.001058 0.015416 -0.006477 0.000000 -0.008061 0.000000
# 3 -0.001857 -0.006477 0.034843 0.000000 0.012794 0.000000
# 4 0.000000 0.000000 0.000000 0.140979 0.000000 0.224052
# 5 0.004272 -0.008061 0.012794 0.000000 0.061856 0.000000
# 6 0.000000 0.000000 0.000000 0.224052 0.000000 0.551764
#
#
# Mechanical properties :
#
#
# Convention : Reuss Voigt Hill
#
# Bulk Modulus (GPa) = 14.95318 17.72774 16.34046
# Shear Modulus (GPa) = 5.72821 17.32176 11.52499
#
# Velocity S-wave (km/s) = 1.72901 3.00666 2.45250
# Velocity P-wave (km/s) = 3.43364 4.61576 4.06787
#
# Compressibility (1/GPa) = 0.06687540
#
# Stress axis : x y z
#
# Youngs Moduli (GPa) = 32.08256 64.86631 28.70028
#
# Poissons Ratio (x) = -0.06864 0.05331
# Poissons Ratio (y) = -0.03395 0.18591
# Poissons Ratio (z) = 0.05959 0.42017
#
# Static dielectric constant tensor:
#      x y z
#    x 1.652230 0.000000 0.009800 
#    y 0.000000 1.721360 0.000000 
#    z 0.009800 0.000000 1.676450 
# 
# From -- ./inp_files/80029.got.cif
#   From: 2010.05.17/outbox.cif.g08.bks.cpg/sg12_41_cif.got.tgz:80029.got - 2010.06.03 13:09:07.
