data_PCOD9194316
_publ_section_title
;
Structure prediction by ZEFSAII (Michael W. Deem and Ramdas Pophale) SiO2 
 PCOD9194316
Probable space group: C 2/M
;
_chemical_formula_sum "Si O2"
_cell_formula_units_Z 48
_cell_length_a 23.225457
_cell_length_b 19.659076
_cell_length_c 19.162057
_cell_angle_alpha 90.000000
_cell_angle_beta 162.563443
_cell_angle_gamma 90.000000
_cell_volume 2621.701022
_symmetry_space_group_name_H-M "C 2/M"
_symmetry_group_IT_number 12
_symmetry_cell_setting 'monoclinic'
loop_
_space_group_symop_operation_xyz
x,y,z
-x,y,-z
-x,-y,-z
x,-y,z
1/2+x,1/2+y,z
1/2-x,1/2+y,-z
1/2-x,1/2-y,-z
1/2+x,1/2-y,z
loop_
_atom_site_type_symbol
_atom_site_label
_atom_site_fract_x
_atom_site_fract_y
_atom_site_fract_z
Si Si1 0.092312 0.258529 0.684623
Si Si2 0.651798 0.500000 0.507129
Si Si3 0.591428 0.396677 0.682860
Si Si4 0.527534 0.000000 0.345459
Si Si5 0.293536 0.864046 0.383206
Si Si6 0.885807 0.864046 0.975478
Si Si7 0.891683 0.000000 0.073759
Si Si8 0.941132 0.500000 0.085804
O O1 0.119376 0.181078 0.738754
O O2 0.284124 0.303068 0.899022
O O3 0.000000 0.254913 0.500000
O O4 0.945672 0.303069 0.560569
O O5 0.557369 0.436180 0.438876
O O6 0.562309 0.500000 0.326495
O O7 0.883179 0.500000 0.766354
O O8 0.500000 0.398278 0.500000
O O9 0.794346 0.436180 0.912842
O O10 0.624336 0.067159 0.489073
O O11 0.533941 0.000000 0.269757
O O12 0.305636 0.000000 0.111271
O O13 0.238725 0.877049 0.238725
O O14 0.097843 0.844973 0.195685
O O15 0.894862 0.932841 0.030126
#
# Coordination Sequence:
#
# PCOD9194316 Si02
#       8
#     8   4   8   4   8   8   4   4
#     4   9  19  35  56  82 114 145 178 227 278 326
#     4  11  23  40  60  84 111 143 183 229 285 334
#     4  10  22  41  62  87 110 135 182 234 282 338
#     4  12  21  36  58  80 115 154 189 229 271 317
#     4  10  20  34  55  85 117 151 189 224 264 319
#     4  10  20  34  55  85 117 151 189 224 264 319
#     4  12  21  36  58  80 115 154 189 229 271 317
#     4  11  23  40  60  84 111 143 183 229 285 334
#
# _framework density 18.308724000000002
#
# number of rings (size 3 to 8) (size 9 to 14) (size 15 to 20)
#    0.000    1.667    3.333    3.000    0.000    4.667 
#    0.000    6.667    0.000    4.000    0.000    0.000 
#    0.000    0.000    0.000    0.000    0.000    0.000 
#
# Total GULP energy -133975.525214 kJ/mol
# GULP energy per Si atom -5582.313551 kJ/mol
# Density = 1.826705 g / cm^3
# Si number density = 18.308724 Si / 1000 Ang^3
#
#
#
# Elastic Constant Matrix: (Units=GPa)
#
#
# Indices 1 2 3 4 5 6 
#
# 1 85.6544 59.2832 46.9053 -0.0009 22.1429 -0.0006
# 2 59.2832 188.8453 66.3118 -0.0016 15.9596 -0.0014
# 3 46.9053 66.3118 106.6505 -0.0028 25.5266 -0.0030
# 4 -0.0009 -0.0016 -0.0028 -11.0220 -0.0028 5.1808
# 5 22.1429 15.9596 25.5266 -0.0028 31.9342 -0.0012
# 6 -0.0006 -0.0014 -0.0030 5.1808 -0.0012 -13.3126
#
#
#
# Elastic Compliance Matrix: (Units=1/GPa)
#
#
# Indices 1 2 3 4 5 6 
#
# 1 0.018423 -0.003754 -0.003907 0.000003 -0.007775 0.000002
# 2 -0.003754 0.007539 -0.003410 0.000000 0.001561 0.000000
# 3 -0.003907 -0.003410 0.015036 -0.000003 -0.007605 -0.000003
# 4 0.000003 0.000000 -0.000003 -0.111040 -0.000011 -0.043213
# 5 -0.007775 0.001561 -0.007605 -0.000011 0.042004 -0.000006
# 6 0.000002 0.000000 -0.000003 -0.043213 -0.000006 -0.091934
#
#
# Mechanical properties :
#
#
# Convention : Reuss Voigt Hill
#
# Bulk Modulus (GPa) = 53.03912 80.68343 66.86128
# Shear Modulus (GPa) = -54.61889 15.42992 -19.59448
#
# Velocity S-wave (km/s) = -5.46781 2.90619 -3.27498
# Velocity P-wave (km/s) = 3.29095 7.44481 4.72201
#
# Compressibility (1/GPa) = 0.01885401
#
# Stress axis : x y z
#
# Youngs Moduli (GPa) = 54.28065 132.63504 66.50916
#
# Poissons Ratio (x) = 0.49795 0.25987
# Poissons Ratio (y) = 0.20379 0.22682
# Poissons Ratio (z) = 0.21209 0.45233
#
# Static dielectric constant tensor:
#      x y z
#    x 1.629400 0.000000 0.003550 
#    y 0.000000 1.606040 0.000000 
#    z 0.003550 0.000000 1.630980 
# 
# From -- ./inp_files/285973.got.cif
#   From: 2010.05.17/outbox.cif.g08.bks.cpg/sg12_143_cif.got.tgz:285973.got - 2010.06.03 13:09:07.
