data_PCOD9194929
_publ_section_title
;
Structure prediction by ZEFSAII (Michael W. Deem and Ramdas Pophale) SiO2 
 PCOD9194929
Probable space group: C 2/M
;
_chemical_formula_sum "Si O2"
_cell_formula_units_Z 48
_cell_length_a 28.813802
_cell_length_b 18.475084
_cell_length_c 10.080874
_cell_angle_alpha 90.000000
_cell_angle_beta 152.738805
_cell_angle_gamma 90.000000
_cell_volume 2458.078783
_symmetry_space_group_name_H-M "C 2/M"
_symmetry_group_IT_number 12
_symmetry_cell_setting 'monoclinic'
loop_
_space_group_symop_operation_xyz
x,y,z
-x,y,-z
-x,-y,-z
x,-y,z
1/2+x,1/2+y,z
1/2-x,1/2+y,-z
1/2-x,1/2-y,-z
1/2+x,1/2-y,z
loop_
_atom_site_type_symbol
_atom_site_label
_atom_site_fract_x
_atom_site_fract_y
_atom_site_fract_z
Si Si1 0.379429 0.084827 0.710719
Si Si2 0.725830 0.172039 0.790258
Si Si3 0.588891 0.586674 0.625148
Si Si4 0.917114 0.087788 0.686936
Si Si5 0.384949 0.795924 0.223811
Si Si6 0.816437 0.414056 0.851481
O O1 0.323761 0.136798 0.464975
O O2 0.352328 0.102396 0.793825
O O3 0.350257 0.000000 0.613085
O O4 0.500000 0.090203 0.000000
O O5 0.643994 0.191535 0.695689
O O6 0.803422 0.115120 0.053251
O O7 0.799163 0.240660 0.952404
O O8 0.500000 0.606341 0.500000
O O9 0.592739 0.500000 0.629154
O O10 0.567002 0.614883 0.421937
O O11 0.802877 0.103023 0.440062
O O12 0.926932 0.000000 0.708740
O O13 0.000000 0.116046 0.000000
O O14 0.500000 0.769895 0.500000
O O15 0.373490 0.868468 0.108109
O O16 0.829539 0.500000 0.907125
#
# Coordination Sequence:
#
# PCOD9194929 Si02
#       6
#     8   8   8   8   8   8
#     4  10  22  40  64  94 124 158 203 251 300 356
#     4  11  23  40  62  87 125 160 200 251 305 362
#     4  10  20  34  58  90 120 156 201 247 302 361
#     4   9  18  33  53  83 120 152 190 242 296 354
#     4  11  24  42  62  86 120 161 205 253 306 366
#     4  10  21  39  62  89 120 156 203 255 306 361
#
# _framework density 19.527446000000001
#
# number of rings (size 3 to 8) (size 9 to 14) (size 15 to 20)
#    0.000    1.833    1.667    2.000    2.333    1.667 
#    0.000    0.833    0.000    0.000    0.000    0.000 
#    0.000    0.000    0.000    0.000    0.000    0.000 
#
# Total GULP energy -134048.576830 kJ/mol
# GULP energy per Si atom -5585.357368 kJ/mol
# Density = 1.948300 g / cm^3
# Si number density = 19.527446 Si / 1000 Ang^3
#
#
#
# Elastic Constant Matrix: (Units=GPa)
#
#
# Indices 1 2 3 4 5 6 
#
# 1 154.1408 41.2619 46.2353 0.0000 9.1709 0.0000
# 2 41.2619 67.0423 36.3467 0.0000 -7.5767 0.0000
# 3 46.2353 36.3467 70.9330 0.0000 -5.7547 0.0000
# 4 0.0000 0.0000 0.0000 42.3301 0.0000 -31.8532
# 5 9.1709 -7.5767 -5.7547 0.0000 27.8552 0.0000
# 6 0.0000 0.0000 0.0000 -31.8532 0.0000 28.1724
#
#
#
# Elastic Compliance Matrix: (Units=1/GPa)
#
#
# Indices 1 2 3 4 5 6 
#
# 1 0.009114 -0.003780 -0.004405 0.000000 -0.004939 0.000000
# 2 -0.003780 0.022560 -0.008642 0.000000 0.005595 0.000000
# 3 -0.004405 -0.008642 0.021688 0.000000 0.003580 0.000000
# 4 0.000000 0.000000 0.000000 0.158350 0.000000 0.179040
# 5 -0.004939 0.005595 0.003580 0.000000 0.039788 0.000000
# 6 0.000000 0.000000 0.000000 0.179040 0.000000 0.237927
#
#
# Mechanical properties :
#
#
# Convention : Reuss Voigt Hill
#
# Bulk Modulus (GPa) = 50.73962 59.97822 55.35892
# Shear Modulus (GPa) = 9.44018 30.88968 20.16493
#
# Velocity S-wave (km/s) = 2.20109 3.98157 3.21697
# Velocity P-wave (km/s) = 5.70087 7.20547 6.49687
#
# Compressibility (1/GPa) = 0.01970847
#
# Stress axis : x y z
#
# Youngs Moduli (GPa) = 109.71554 44.32631 46.10876
#
# Poissons Ratio (x) = 0.16754 0.20311
# Poissons Ratio (y) = 0.41469 0.39849
# Poissons Ratio (z) = 0.48329 0.38308
#
# Static dielectric constant tensor:
#      x y z
#    x 1.676060 0.000000 -0.002440 
#    y 0.000000 1.709380 0.000000 
#    z -0.002440 0.000000 1.631920 
# 
# From -- ./inp_files/106583.got.cif
#   From: 2010.05.17/outbox.cif.g08.bks.cpg/sg12_54_cif.got.tgz:106583.got - 2010.06.03 13:09:07.
