data_PCOD9194234
_publ_section_title
;
Structure prediction by ZEFSAII (Michael W. Deem and Ramdas Pophale) SiO2 
 PCOD9194234
Probable space group: C 2/M
;
_chemical_formula_sum "Si O2"
_cell_formula_units_Z 48
_cell_length_a 23.962444
_cell_length_b 8.799500
_cell_length_c 12.876390
_cell_angle_alpha 90.000000
_cell_angle_beta 89.412735
_cell_angle_gamma 90.000000
_cell_volume 2714.941122
_symmetry_space_group_name_H-M "C 2/M"
_symmetry_group_IT_number 12
_symmetry_cell_setting 'monoclinic'
loop_
_space_group_symop_operation_xyz
x,y,z
-x,y,-z
-x,-y,-z
x,-y,z
1/2+x,1/2+y,z
1/2-x,1/2+y,-z
1/2-x,1/2-y,-z
1/2+x,1/2-y,z
loop_
_atom_site_type_symbol
_atom_site_label
_atom_site_fract_x
_atom_site_fract_y
_atom_site_fract_z
Si Si1 0.250697 0.319549 0.615920
Si Si2 0.064858 0.682426 0.102134
Si Si3 0.935713 0.818128 0.519824
Si Si4 0.136138 0.181683 0.685479
Si Si5 0.444033 0.317352 0.122481
Si Si6 0.862988 0.681034 0.702597
O O1 0.252796 0.500000 0.606646
O O2 0.250000 0.250000 0.500000
O O3 0.194534 0.266746 0.674239
O O4 0.305186 0.260696 0.674668
O O5 0.061263 0.500000 0.092438
O O6 0.111984 0.720602 0.185338
O O7 0.004946 0.745650 0.141061
O O8 0.074664 0.755672 0.989341
O O9 0.900013 0.787164 0.417097
O O10 0.908038 0.732210 0.616066
O O11 0.000000 0.776715 0.500000
O O12 0.933401 0.000000 0.539693
O O13 0.099444 0.222726 0.786427
O O14 0.146439 0.000000 0.688392
O O15 0.449581 0.500000 0.119047
O O16 0.855405 0.500000 0.697691
#
# Coordination Sequence:
#
# PCOD9194234 Si02
#       6
#     8   8   8   8   8   8
#     4  12  24  39  60  83 112 152 193 236 285 343
#     4  10  21  37  58  85 119 154 190 237 286 336
#     4  10  20  34  55  83 115 149 183 229 288 343
#     4  10  21  37  57  84 116 149 189 236 284 338
#     4  10  20  36  61  88 116 152 192 234 283 343
#     4  11  23  38  57  83 114 151 194 237 284 337
#
# _framework density 17.679942
#
# number of rings (size 3 to 8) (size 9 to 14) (size 15 to 20)
#    0.000    1.500    1.667    5.000    0.000    5.667 
#    0.000    0.833    0.000    0.000    0.000    0.000 
#    0.000    0.000    0.000    0.000    0.000    0.000 
#
# Total GULP energy -134131.818229 kJ/mol
# GULP energy per Si atom -5588.825760 kJ/mol
# Density = 1.763970 g / cm^3
# Si number density = 17.679942 Si / 1000 Ang^3
#
#
#
# Elastic Constant Matrix: (Units=GPa)
#
#
# Indices 1 2 3 4 5 6 
#
# 1 79.3573 34.6119 31.5803 0.0000 26.5429 0.0000
# 2 34.6119 56.7501 35.4683 0.0000 13.9543 0.0000
# 3 31.5803 35.4683 75.4698 0.0000 16.6272 0.0000
# 4 0.0000 0.0000 0.0000 26.9102 0.0000 -0.4624
# 5 26.5429 13.9543 16.6272 0.0000 27.6965 0.0000
# 6 0.0000 0.0000 0.0000 -0.4624 0.0000 19.7740
#
#
#
# Elastic Compliance Matrix: (Units=1/GPa)
#
#
# Indices 1 2 3 4 5 6 
#
# 1 0.022462 -0.008612 -0.001804 0.000000 -0.016104 0.000000
# 2 -0.008612 0.029268 -0.010050 0.000000 -0.000459 0.000000
# 3 -0.001804 -0.010050 0.019858 0.000000 -0.005130 0.000000
# 4 0.000000 0.000000 0.000000 0.037176 0.000000 0.000869
# 5 -0.016104 -0.000459 -0.005130 0.000000 0.054850 0.000000
# 6 0.000000 0.000000 0.000000 0.000869 0.000000 0.050592
#
#
# Mechanical properties :
#
#
# Convention : Reuss Voigt Hill
#
# Bulk Modulus (GPa) = 32.61987 46.09980 39.35983
# Shear Modulus (GPa) = 18.84265 22.20392 20.52329
#
# Velocity S-wave (km/s) = 3.26815 3.54769 3.41078
# Velocity P-wave (km/s) = 5.72113 6.55078 6.14996
#
# Compressibility (1/GPa) = 0.03065616
#
# Stress axis : x y z
#
# Youngs Moduli (GPa) = 44.52028 34.16727 50.35664
#
# Poissons Ratio (x) = 0.29426 0.09082
# Poissons Ratio (y) = 0.38342 0.50608
# Poissons Ratio (z) = 0.08030 0.34338
#
# Static dielectric constant tensor:
#      x y z
#    x 1.579820 0.000000 0.005870 
#    y 0.000000 1.594820 0.000000 
#    z 0.005870 0.000000 1.585260 
# 
# From -- ./inp_files/172259.got.cif
#   From: 2010.05.17/outbox.cif.g08.bks.cpg/sg12_87_cif.got.tgz:172259.got - 2010.06.03 13:09:07.
