data_PCOD9194645
_publ_section_title
;
Structure prediction by ZEFSAII (Michael W. Deem and Ramdas Pophale) SiO2 
 PCOD9194645
Probable space group: C 2/M
;
_chemical_formula_sum "Si O2"
_cell_formula_units_Z 44
_cell_length_a 8.928668
_cell_length_b 21.669380
_cell_length_c 11.295784
_cell_angle_alpha 90.000000
_cell_angle_beta 103.820548
_cell_angle_gamma 90.000000
_cell_volume 2122.220660
_symmetry_space_group_name_H-M "C 2/M"
_symmetry_group_IT_number 12
_symmetry_cell_setting 'monoclinic'
loop_
_space_group_symop_operation_xyz
x,y,z
-x,y,-z
-x,-y,-z
x,-y,z
1/2+x,1/2+y,z
1/2-x,1/2+y,-z
1/2-x,1/2-y,-z
1/2+x,1/2-y,z
loop_
_atom_site_type_symbol
_atom_site_label
_atom_site_fract_x
_atom_site_fract_y
_atom_site_fract_z
Si Si1 0.736927 0.073747 0.770755
Si Si2 0.902830 0.625961 0.678090
Si Si3 0.653990 0.571723 0.469515
Si Si4 0.000000 0.725787 0.500000
Si Si5 0.905771 0.186405 0.867337
Si Si6 0.826741 0.213520 0.264119
O O1 0.559030 0.093937 0.749418
O O2 0.789198 0.094226 0.647441
O O3 0.844726 0.116627 0.871307
O O4 0.752836 0.000000 0.787686
O O5 0.794262 0.579279 0.586217
O O6 0.941656 0.680525 0.592425
O O7 0.797222 0.658521 0.756049
O O8 0.500000 0.599450 0.500000
O O9 0.620298 0.500000 0.442426
O O10 0.875877 0.767223 0.406748
O O11 0.757570 0.228618 0.812484
O O12 0.022156 0.194477 0.779330
O O13 0.000000 0.206714 0.000000
#
# Coordination Sequence:
#
# PCOD9194645 Si02
#       6
#     8   8   8   4   8   8
#     4  11  23  41  61  88 124 168 217 259 309 367
#     4  12  21  36  62  93 132 165 202 249 319 383
#     4  10  20  34  56  89 128 167 204 249 309 378
#     4  12  22  36  63  92 135 156 196 248 316 384
#     4  12  25  45  66  90 127 168 216 263 312 373
#     4  12  25  40  65  99 126 166 206 259 322 378
#
# _framework density 20.733001000000002
#
# number of rings (size 3 to 8) (size 9 to 14) (size 15 to 20)
#    0.000    0.545    5.455    2.727    3.818    1.818 
#    0.000    0.909    0.000    1.091    0.000    0.000 
#    0.000    0.000    0.000    0.000    0.000    0.000 
#
# Total GULP energy -122936.804977 kJ/mol
# GULP energy per Si atom -5588.036590 kJ/mol
# Density = 2.068581 g / cm^3
# Si number density = 20.733001 Si / 1000 Ang^3
#
#
#
# Elastic Constant Matrix: (Units=GPa)
#
#
# Indices 1 2 3 4 5 6 
#
# 1 106.4531 33.4096 3.9310 0.0000 15.9854 0.0000
# 2 33.4096 79.3714 18.1522 0.0000 14.1796 0.0000
# 3 3.9310 18.1522 40.6943 0.0000 25.3211 0.0000
# 4 0.0000 0.0000 0.0000 5.8679 0.0000 9.1680
# 5 15.9854 14.1796 25.3211 0.0000 28.5868 0.0000
# 6 0.0000 0.0000 0.0000 9.1680 0.0000 40.0652
#
#
#
# Elastic Compliance Matrix: (Units=1/GPa)
#
#
# Indices 1 2 3 4 5 6 
#
# 1 0.012470 -0.005052 0.008529 0.000000 -0.012022 0.000000
# 2 -0.005052 0.016206 -0.007791 0.000000 0.001687 0.000000
# 3 0.008529 -0.007791 0.061909 0.000000 -0.055742 0.000000
# 4 0.000000 0.000000 0.000000 0.265255 0.000000 -0.060698
# 5 -0.012022 0.001687 -0.055742 0.000000 0.090241 0.000000
# 6 0.000000 0.000000 0.000000 -0.060698 0.000000 0.038849
#
#
# Mechanical properties :
#
#
# Convention : Reuss Voigt Hill
#
# Bulk Modulus (GPa) = 12.20134 37.50049 24.85092
# Shear Modulus (GPa) = 9.59925 26.30569 17.95247
#
# Velocity S-wave (km/s) = 2.15406 3.56586 2.94579
# Velocity P-wave (km/s) = 3.47626 5.92288 4.85617
#
# Compressibility (1/GPa) = 0.08195820
#
# Stress axis : x y z
#
# Youngs Moduli (GPa) = 80.19503 61.70658 16.15277
#
# Poissons Ratio (x) = 0.31173 -0.13777
# Poissons Ratio (y) = 0.40512 0.12584
# Poissons Ratio (z) = -0.68401 0.48073
#
# Static dielectric constant tensor:
#      x y z
#    x 1.767030 0.000000 -0.018560 
#    y 0.000000 1.775100 0.000000 
#    z -0.018560 0.000000 1.733280 
# 
# From -- ./inp_files/120754.got.cif
#   From: 2010.05.17/outbox.cif.g08.bks.cpg/sg12_61_cif.got.tgz:120754.got - 2010.06.03 13:09:07.
