data_PCOD9194273
_publ_section_title
;
Structure prediction by ZEFSAII (Michael W. Deem and Ramdas Pophale) SiO2 
 PCOD9194273
Probable space group: C 2/M
;
_chemical_formula_sum "Si O2"
_cell_formula_units_Z 56
_cell_length_a 16.486973
_cell_length_b 23.988107
_cell_length_c 8.912977
_cell_angle_alpha 90.000000
_cell_angle_beta 122.466069
_cell_angle_gamma 90.000000
_cell_volume 2974.079849
_symmetry_space_group_name_H-M "C 2/M"
_symmetry_group_IT_number 12
_symmetry_cell_setting 'monoclinic'
loop_
_space_group_symop_operation_xyz
x,y,z
-x,y,-z
-x,-y,-z
x,-y,z
1/2+x,1/2+y,z
1/2-x,1/2+y,-z
1/2-x,1/2-y,-z
1/2+x,1/2-y,z
loop_
_atom_site_type_symbol
_atom_site_label
_atom_site_fract_x
_atom_site_fract_y
_atom_site_fract_z
Si Si1 0.897800 0.330061 0.827753
Si Si2 0.103086 0.668661 0.530959
Si Si3 0.590465 0.564189 0.697837
Si Si4 0.275336 0.735169 0.854108
Si Si5 0.794426 0.564897 0.229579
Si Si6 0.400200 0.624994 0.986713
Si Si7 0.693046 0.064177 0.118794
O O1 0.900980 0.327537 0.651950
O O2 0.817296 0.288665 0.812191
O O3 0.871485 0.391691 0.859901
O O4 0.000000 0.313857 0.000000
O O5 0.182502 0.710150 0.678607
O O6 0.136371 0.606758 0.614192
O O7 0.000000 0.680801 0.500000
O O8 0.500000 0.569355 0.500000
O O9 0.592493 0.500000 0.758944
O O10 0.694691 0.572151 0.725743
O O11 0.582616 0.607074 0.825172
O O12 0.355208 0.686407 0.932053
O O13 0.250000 0.750000 0.000000
O O14 0.808942 0.500000 0.277549
O O15 0.684856 0.583843 0.154073
O O16 0.809485 0.573322 0.064594
O O17 0.500000 0.620178 0.000000
O O18 0.666391 0.000000 0.121048
#
# Coordination Sequence:
#
# PCOD9194273 Si02
#       7
#     8   8   8   8   8   8   8
#     4  12  24  41  63  87 118 152 193 241 296 358
#     4  11  24  41  62  89 118 153 196 244 296 353
#     4   9  18  33  54  82 118 156 191 231 283 340
#     4  11  23  43  64  83 114 154 197 247 299 350
#     4   9  19  37  59  84 118 158 197 241 295 350
#     4  10  20  34  55  84 115 149 193 238 287 344
#     4   9  19  38  61  85 116 155 198 243 293 350
#
# _framework density 18.829353999999999
#
# number of rings (size 3 to 8) (size 9 to 14) (size 15 to 20)
#    0.000    1.857    0.000    6.429    0.000    4.571 
#    0.000    8.571    0.000    0.000    0.000    0.000 
#    0.000    0.000    0.000    0.000    0.000    0.000 
#
# Total GULP energy -156428.167318 kJ/mol
# GULP energy per Si atom -5586.720261 kJ/mol
# Density = 1.878650 g / cm^3
# Si number density = 18.829354 Si / 1000 Ang^3
#
#
#
# Elastic Constant Matrix: (Units=GPa)
#
#
# Indices 1 2 3 4 5 6 
#
# 1 122.4936 54.7913 51.4983 0.0000 -7.7902 0.0000
# 2 54.7913 94.5734 49.3493 0.0000 -7.0833 0.0000
# 3 51.4983 49.3493 111.8098 0.0000 -0.9490 0.0000
# 4 0.0000 0.0000 0.0000 24.8996 0.0000 4.6977
# 5 -7.7902 -7.0833 -0.9490 0.0000 24.3476 0.0000
# 6 0.0000 0.0000 0.0000 4.6977 0.0000 26.7387
#
#
#
# Elastic Compliance Matrix: (Units=1/GPa)
#
#
# Indices 1 2 3 4 5 6 
#
# 1 0.011929 -0.005051 -0.003246 0.000000 0.002221 0.000000
# 2 -0.005051 0.016230 -0.004812 0.000000 0.002918 0.000000
# 3 -0.003246 -0.004812 0.012546 0.000000 -0.001950 0.000000
# 4 0.000000 0.000000 0.000000 0.041538 0.000000 -0.007298
# 5 0.002221 0.002918 -0.001950 0.000000 0.042555 0.000000
# 6 0.000000 0.000000 0.000000 -0.007298 0.000000 0.038681
#
#
# Mechanical properties :
#
#
# Convention : Reuss Voigt Hill
#
# Bulk Modulus (GPa) = 69.02967 71.12828 70.07898
# Shear Modulus (GPa) = 25.70344 26.74635 26.22490
#
# Velocity S-wave (km/s) = 3.69870 3.77299 3.73603
# Velocity P-wave (km/s) = 7.41490 7.53909 7.47725
#
# Compressibility (1/GPa) = 0.01448652
#
# Stress axis : x y z
#
# Youngs Moduli (GPa) = 83.82993 61.61606 79.70484
#
# Poissons Ratio (x) = 0.31121 0.25874
# Poissons Ratio (y) = 0.42341 0.38355
# Poissons Ratio (z) = 0.27213 0.29650
#
# Static dielectric constant tensor:
#      x y z
#    x 1.640060 0.000000 0.017570 
#    y 0.000000 1.654690 0.000000 
#    z 0.017570 0.000000 1.639070 
# 
# From -- ./inp_files/65744.got.cif
#   From: 2010.05.17/outbox.cif.g08.bks.cpg/sg12_33_cif.got.tgz:65744.got - 2010.06.03 13:09:07.
