data_PCOD9194673
_publ_section_title
;
Structure prediction by ZEFSAII (Michael W. Deem and Ramdas Pophale) SiO2 
 PCOD9194673
Probable space group: C 2/M
;
_chemical_formula_sum "Si O2"
_cell_formula_units_Z 56
_cell_length_a 11.470379
_cell_length_b 29.391157
_cell_length_c 9.534004
_cell_angle_alpha 90.000000
_cell_angle_beta 109.371428
_cell_angle_gamma 90.000000
_cell_volume 3032.216534
_symmetry_space_group_name_H-M "C 2/M"
_symmetry_group_IT_number 12
_symmetry_cell_setting 'monoclinic'
loop_
_space_group_symop_operation_xyz
x,y,z
-x,y,-z
-x,-y,-z
x,-y,z
1/2+x,1/2+y,z
1/2-x,1/2+y,-z
1/2-x,1/2-y,-z
1/2+x,1/2-y,z
loop_
_atom_site_type_symbol
_atom_site_label
_atom_site_fract_x
_atom_site_fract_y
_atom_site_fract_z
Si Si1 0.032790 0.371774 0.171229
Si Si2 0.920530 0.726321 0.684676
Si Si3 0.812976 0.053247 0.578442
Si Si4 0.538906 0.555190 0.862710
Si Si5 0.181989 0.724619 0.671333
Si Si6 0.241796 0.446609 0.236053
Si Si7 0.375133 0.878053 0.358625
O O1 0.082549 0.326478 0.268953
O O2 0.128673 0.412835 0.204921
O O3 0.918287 0.389115 0.218745
O O4 0.000000 0.359032 0.000000
O O5 0.871653 0.733476 0.506501
O O6 0.817044 0.752392 0.736368
O O7 0.068550 0.737762 0.732411
O O8 0.817119 0.057011 0.412346
O O9 0.704643 0.083843 0.597977
O O10 0.937283 0.067585 0.706597
O O11 0.790435 0.000000 0.601441
O O12 0.540761 0.500000 0.868879
O O13 0.672303 0.568298 0.858454
O O14 0.500000 0.572159 0.000000
O O15 0.193833 0.670048 0.679573
O O16 0.207436 0.500000 0.206802
O O17 0.500000 0.871800 0.500000
#
# Coordination Sequence:
#
# PCOD9194673 Si02
#       7
#     8   8   8   8   8   8   8
#     4  11  23  37  55  81 118 151 180 233 290 334
#     4   9  17  34  56  83 106 143 180 227 286 335
#     4  10  20  34  57  82 110 149 193 236 273 329
#     4   9  19  35  53  75 109 149 187 234 285 325
#     4   9  16  33  60  79 108 138 183 232 277 338
#     4  10  20  36  56  80 111 151 197 234 273 331
#     4  11  19  37  56  80 114 148 184 229 286 335
#
# _framework density 18.468337999999999
#
# number of rings (size 3 to 8) (size 9 to 14) (size 15 to 20)
#    0.000    2.143    4.286    0.429    2.000    2.857 
#    2.571    2.857    0.000    0.857    0.000    0.000 
#    0.000    0.000    0.000    0.000    0.000    0.000 
#
# Total GULP energy -155936.333692 kJ/mol
# GULP energy per Si atom -5569.154775 kJ/mol
# Density = 1.842630 g / cm^3
# Si number density = 18.468338 Si / 1000 Ang^3
#
#
#
# Elastic Constant Matrix: (Units=GPa)
#
#
# Indices 1 2 3 4 5 6 
#
# 1 127.5383 62.0652 20.5514 0.0000 -25.7247 0.0000
# 2 62.0652 55.4197 6.6975 0.0000 -3.6774 0.0000
# 3 20.5514 6.6975 28.4362 0.0000 -12.1303 0.0000
# 4 0.0000 0.0000 0.0000 10.2531 0.0000 -5.4491
# 5 -25.7247 -3.6774 -12.1303 0.0000 25.0927 0.0000
# 6 0.0000 0.0000 0.0000 -5.4491 0.0000 30.0222
#
#
#
# Elastic Compliance Matrix: (Units=1/GPa)
#
#
# Indices 1 2 3 4 5 6 
#
# 1 0.025729 -0.027029 -0.003359 0.000000 0.020792 0.000000
# 2 -0.027029 0.046978 -0.000521 0.000000 -0.021077 0.000000
# 3 -0.003359 -0.000521 0.045624 0.000000 0.018535 0.000000
# 4 0.000000 0.000000 0.000000 0.107944 0.000000 0.019592
# 5 0.020792 -0.021077 0.018535 0.000000 0.067039 0.000000
# 6 0.000000 0.000000 0.000000 0.019592 0.000000 0.036865
#
#
# Mechanical properties :
#
#
# Convention : Reuss Voigt Hill
#
# Bulk Modulus (GPa) = 17.69533 43.33584 30.51559
# Shear Modulus (GPa) = 12.17032 21.21228 16.69130
#
# Velocity S-wave (km/s) = 2.56985 3.39274 3.00955
# Velocity P-wave (km/s) = 4.29043 6.23406 5.35123
#
# Compressibility (1/GPa) = 0.05651207
#
# Stress axis : x y z
#
# Youngs Moduli (GPa) = 38.86638 21.28637 21.91832
#
# Poissons Ratio (x) = 0.57534 0.07363
# Poissons Ratio (y) = 1.05051 0.01143
# Poissons Ratio (z) = 0.13057 0.01110
#
# Static dielectric constant tensor:
#      x y z
#    x 1.667810 0.000000 -0.012380 
#    y 0.000000 1.613460 0.000000 
#    z -0.012380 0.000000 1.657900 
# 
# From -- ./inp_files/54337.got.cif
#   From: 2010.05.17/outbox.cif.g08.bks.cpg/sg12_28_cif.got.tgz:54337.got - 2010.06.03 13:09:07.
