data_PCOD9194921
_publ_section_title
;
Structure prediction by ZEFSAII (Michael W. Deem and Ramdas Pophale) SiO2 
 PCOD9194921
Probable space group: C 2/M
;
_chemical_formula_sum "Si O2"
_cell_formula_units_Z 52
_cell_length_a 24.878311
_cell_length_b 17.324673
_cell_length_c 10.878909
_cell_angle_alpha 90.000000
_cell_angle_beta 34.706845
_cell_angle_gamma 90.000000
_cell_volume 2669.757199
_symmetry_space_group_name_H-M "C 2/M"
_symmetry_group_IT_number 12
_symmetry_cell_setting 'monoclinic'
loop_
_space_group_symop_operation_xyz
x,y,z
-x,y,-z
-x,-y,-z
x,-y,z
1/2+x,1/2+y,z
1/2-x,1/2+y,-z
1/2-x,1/2-y,-z
1/2+x,1/2-y,z
loop_
_atom_site_type_symbol
_atom_site_label
_atom_site_fract_x
_atom_site_fract_y
_atom_site_fract_z
Si Si1 0.115367 0.355357 0.601797
Si Si2 0.830000 0.806020 0.190554
Si Si3 0.982793 0.796728 0.290339
Si Si4 0.836461 0.624760 0.223907
Si Si5 0.000000 0.714914 0.500000
Si Si6 0.875220 0.912794 0.333203
Si Si7 0.548889 0.914223 0.236160
O O1 0.224411 0.337028 0.365280
O O2 0.057102 0.274806 0.715724
O O3 0.114460 0.393057 0.738199
O O4 0.059606 0.404078 0.605086
O O5 0.822271 0.717585 0.249364
O O6 0.875816 0.859425 0.210428
O O7 0.904897 0.804248 0.938978
O O8 0.957437 0.769823 0.475261
O O9 0.935036 0.872662 0.327503
O O10 0.733359 0.588519 0.420404
O O11 0.892351 0.599480 0.998722
O O12 0.934145 0.654760 0.699203
O O13 0.904346 0.000000 0.252811
O O14 0.566132 0.000000 0.251660
#
# Coordination Sequence:
#
# PCOD9194921 Si02
#       7
#     8   8   8   8   4   8   8
#     4  10  20  34  58  89 118 151 185 230 290 357
#     4  11  20  36  62  88 119 151 192 232 287 361
#     4  11  21  38  60  84 113 159 203 236 281 338
#     4  11  19  36  62  91 121 151 187 231 289 363
#     4  10  23  40  61  80 110 158 208 244 275 336
#     4  11  23  37  60  92 124 149 184 241 298 347
#     4  11  23  38  59  87 121 152 189 244 298 338
#
# _framework density 19.477426000000001
#
# number of rings (size 3 to 8) (size 9 to 14) (size 15 to 20)
#    0.000    1.231    6.154    2.538    0.000    4.923 
#    0.000    7.308    0.000    0.000    0.000    0.000 
#    0.000    0.000    0.000    0.000    0.000    0.000 
#
# Total GULP energy -145108.018029 kJ/mol
# GULP energy per Si atom -5581.077617 kJ/mol
# Density = 1.943309 g / cm^3
# Si number density = 19.477426 Si / 1000 Ang^3
#
#
#
# Elastic Constant Matrix: (Units=GPa)
#
#
# Indices 1 2 3 4 5 6 
#
# 1 46.6558 17.4584 50.4101 0.0000 11.2276 0.0000
# 2 17.4584 121.5368 12.5733 0.0000 5.0731 0.0000
# 3 50.4101 12.5733 92.3921 0.0000 2.5361 0.0000
# 4 0.0000 0.0000 0.0000 -1.2838 0.0000 -3.3012
# 5 11.2276 5.0731 2.5361 0.0000 23.9480 0.0000
# 6 0.0000 0.0000 0.0000 -3.3012 0.0000 17.3363
#
#
#
# Elastic Compliance Matrix: (Units=1/GPa)
#
#
# Indices 1 2 3 4 5 6 
#
# 1 0.069136 -0.005030 -0.036282 0.000000 -0.027506 0.000000
# 2 -0.005030 0.008777 0.001541 0.000000 0.000336 0.000000
# 3 -0.036282 0.001541 0.030039 0.000000 0.013503 0.000000
# 4 0.000000 0.000000 0.000000 -0.522905 0.000000 -0.099573
# 5 -0.027506 0.000336 0.013503 0.000000 0.053152 0.000000
# 6 0.000000 0.000000 0.000000 -0.099573 0.000000 0.038721
#
#
# Mechanical properties :
#
#
# Convention : Reuss Voigt Hill
#
# Bulk Modulus (GPa) = 35.19858 46.82979 41.01418
# Shear Modulus (GPa) = -21.36142 20.00964 -0.67589
#
# Velocity S-wave (km/s) = -3.31528 3.20867 -0.58972
# Velocity P-wave (km/s) = 1.85901 6.15002 4.54305
#
# Compressibility (1/GPa) = 0.02841024
#
# Stress axis : x y z
#
# Youngs Moduli (GPa) = 14.46414 113.93321 33.29001
#
# Poissons Ratio (x) = 0.57304 1.20783
# Poissons Ratio (y) = 0.07275 -0.05129
# Poissons Ratio (z) = 0.52479 -0.17552
#
# Static dielectric constant tensor:
#      x y z
#    x 1.687740 0.000000 0.007780 
#    y 0.000000 1.701640 0.000000 
#    z 0.007780 0.000000 1.714510 
# 
# From -- ./inp_files/184319.got.cif
#   From: 2010.05.17/outbox.cif.g08.bks.cpg/sg12_93_cif.got.tgz:184319.got - 2010.06.03 13:09:07.
