data_PCOD9194351
_publ_section_title
;
Structure prediction by ZEFSAII (Michael W. Deem and Ramdas Pophale) SiO2 
 PCOD9194351
Probable space group: C 2/M
;
_chemical_formula_sum "Si O2"
_cell_formula_units_Z 56
_cell_length_a 18.764597
_cell_length_b 15.456513
_cell_length_c 17.538186
_cell_angle_alpha 90.000000
_cell_angle_beta 34.016640
_cell_angle_gamma 90.000000
_cell_volume 2845.666646
_symmetry_space_group_name_H-M "C 2/M"
_symmetry_group_IT_number 12
_symmetry_cell_setting 'monoclinic'
loop_
_space_group_symop_operation_xyz
x,y,z
-x,y,-z
-x,-y,-z
x,-y,z
1/2+x,1/2+y,z
1/2-x,1/2+y,-z
1/2-x,1/2-y,-z
1/2+x,1/2-y,z
loop_
_atom_site_type_symbol
_atom_site_label
_atom_site_fract_x
_atom_site_fract_y
_atom_site_fract_z
Si Si1 0.034210 0.846509 0.238597
Si Si2 0.277305 0.598999 0.383012
Si Si3 0.350651 0.901465 0.112297
Si Si4 0.722043 0.216415 0.687051
Si Si5 0.445155 0.593442 0.464195
Si Si6 0.294590 0.098154 0.985240
Si Si7 0.445154 0.843081 0.304069
O O1 0.169388 0.846624 0.076072
O O2 0.916065 0.890823 0.299686
O O3 0.048962 0.894692 0.306366
O O4 0.990386 0.749650 0.293645
O O5 0.263880 0.500000 0.366784
O O6 0.271988 0.679868 0.328314
O O7 0.165235 0.617288 0.544715
O O8 0.293787 0.826171 0.215917
O O9 0.333123 0.883545 0.038630
O O10 0.301289 0.000000 0.172838
O O11 0.500000 0.903434 0.000000
O O12 0.848274 0.171573 0.542930
O O13 0.613629 0.178900 0.726903
O O14 0.500000 0.594625 0.500000
O O15 0.381016 0.500000 0.508507
O O16 0.248756 0.000000 0.020876
O O17 0.423697 0.105743 0.822508
#
# Coordination Sequence:
#
# PCOD9194351 Si02
#       7
#     8   8   8   8   8   8   8
#     4  11  21  37  53  85 118 147 186 238 288 343
#     4  11  22  38  61  83 111 152 201 244 278 327
#     4  10  20  34  55  86 121 153 184 224 285 355
#     4  11  20  36  56  83 115 150 196 232 282 336
#     4  11  21  33  55  85 116 148 181 228 290 346
#     4  11  22  35  56  87 119 151 184 228 292 349
#     4  11  21  37  57  83 115 155 193 231 283 341
#
# _framework density 19.679044000000001
#
# number of rings (size 3 to 8) (size 9 to 14) (size 15 to 20)
#    0.000    1.143    4.286    4.286    0.000    3.429 
#    0.000    0.000    0.000    0.857    0.000    0.000 
#    0.000    0.000    0.000    0.000    0.000    0.000 
#
# Total GULP energy -156179.723526 kJ/mol
# GULP energy per Si atom -5577.847269 kJ/mol
# Density = 1.963425 g / cm^3
# Si number density = 19.679044 Si / 1000 Ang^3
#
#
#
# Elastic Constant Matrix: (Units=GPa)
#
#
# Indices 1 2 3 4 5 6 
#
# 1 37.9908 25.5670 21.4266 0.0000 -9.1328 0.0000
# 2 25.5670 126.5641 23.8903 0.0000 -0.8535 0.0000
# 3 21.4266 23.8903 92.5707 0.0000 -20.4119 0.0000
# 4 0.0000 0.0000 0.0000 32.1841 0.0000 -2.5397
# 5 -9.1328 -0.8535 -20.4119 0.0000 34.3548 0.0000
# 6 0.0000 0.0000 0.0000 -2.5397 0.0000 21.4452
#
#
#
# Elastic Compliance Matrix: (Units=1/GPa)
#
#
# Indices 1 2 3 4 5 6 
#
# 1 0.034715 -0.005998 -0.005161 0.000000 0.006013 0.000000
# 2 -0.005998 0.009387 -0.001536 0.000000 -0.002274 0.000000
# 3 -0.005161 -0.001536 0.013904 0.000000 0.006851 0.000000
# 4 0.000000 0.000000 0.000000 0.031364 0.000000 0.003714
# 5 0.006013 -0.002274 0.006851 0.000000 0.034720 0.000000
# 6 0.000000 0.000000 0.000000 0.003714 0.000000 0.047070
#
#
# Mechanical properties :
#
#
# Convention : Reuss Voigt Hill
#
# Bulk Modulus (GPa) = 30.65935 44.32149 37.49042
# Shear Modulus (GPa) = 24.10520 30.01294 27.05907
#
# Velocity S-wave (km/s) = 3.50368 3.90952 3.71215
# Velocity P-wave (km/s) = 5.65519 6.55364 6.12092
#
# Compressibility (1/GPa) = 0.03261648
#
# Stress axis : x y z
#
# Youngs Moduli (GPa) = 28.80587 106.52686 71.92074
#
# Poissons Ratio (x) = 0.63894 0.37122
# Poissons Ratio (y) = 0.17278 0.11045
# Poissons Ratio (z) = 0.14868 0.16359
#
# Static dielectric constant tensor:
#      x y z
#    x 1.693410 0.000000 -0.022160 
#    y 0.000000 1.708720 0.000000 
#    z -0.022160 0.000000 1.765910 
# 
# From -- ./inp_files/284491.got.cif
#   From: 2010.05.17/outbox.cif.g08.bks.cpg/sg12_143_cif.got.tgz:284491.got - 2010.06.03 13:09:07.
