data_PCOD9194251
_publ_section_title
;
Structure prediction by ZEFSAII (Michael W. Deem and Ramdas Pophale) SiO2 
 PCOD9194251
Probable space group: C 2/M
;
_chemical_formula_sum "Si O2"
_cell_formula_units_Z 24
_cell_length_a 8.877243
_cell_length_b 18.495934
_cell_length_c 7.231410
_cell_angle_alpha 90.000000
_cell_angle_beta 122.125891
_cell_angle_gamma 90.000000
_cell_volume 1005.541760
_symmetry_space_group_name_H-M "C 2/M"
_symmetry_group_IT_number 12
_symmetry_cell_setting 'monoclinic'
loop_
_space_group_symop_operation_xyz
x,y,z
-x,y,-z
-x,-y,-z
x,-y,z
1/2+x,1/2+y,z
1/2-x,1/2+y,-z
1/2-x,1/2-y,-z
1/2+x,1/2-y,z
loop_
_atom_site_type_symbol
_atom_site_label
_atom_site_fract_x
_atom_site_fract_y
_atom_site_fract_z
Si Si1 0.049023 0.920383 0.751967
Si Si2 0.808186 0.646199 0.395754
Si Si3 0.297233 0.796476 0.808153
O O1 0.189017 0.855304 0.855903
O O2 0.000000 0.922662 0.500000
O O3 0.867709 0.901583 0.741927
O O4 0.117679 0.000000 0.845548
O O5 0.799321 0.719109 0.267330
O O6 0.797545 0.673511 0.599893
O O7 0.000000 0.609710 0.500000
O O8 0.500000 0.787607 0.000000
#
# Coordination Sequence:
#
# PCOD9194251 Si02
#       3
#     8   8   8
#     4   9  19  36  55  77 110 147 178 215 269 327
#     4  10  20  34  55  84 110 137 181 229 267 310
#     4  10  20  35  57  81 108 145 183 218 265 326
#
# _framework density 23.867729000000001
#
# number of rings (size 3 to 8) (size 9 to 14) (size 15 to 20)
#    0.000    2.333    0.000    5.000    0.000    6.667 
#    0.000    0.000    0.000    7.000    0.000    0.000 
#    0.000    0.000    0.000    0.000    0.000    0.000 
#
# Total GULP energy -67163.978324 kJ/mol
# GULP energy per Si atom -5596.998194 kJ/mol
# Density = 2.381341 g / cm^3
# Si number density = 23.867729 Si / 1000 Ang^3
#
#
#
# Elastic Constant Matrix: (Units=GPa)
#
#
# Indices 1 2 3 4 5 6 
#
# 1 143.5812 67.1190 20.2122 0.0000 31.5212 0.0000
# 2 67.1190 97.0747 33.9476 0.0000 2.5197 0.0000
# 3 20.2122 33.9476 86.1108 0.0000 16.7478 0.0000
# 4 0.0000 0.0000 0.0000 19.2802 0.0000 4.0672
# 5 31.5212 2.5197 16.7478 0.0000 43.8507 0.0000
# 6 0.0000 0.0000 0.0000 4.0672 0.0000 29.0773
#
#
#
# Elastic Compliance Matrix: (Units=1/GPa)
#
#
# Indices 1 2 3 4 5 6 
#
# 1 0.013507 -0.010043 0.002771 0.000000 -0.010190 0.000000
# 2 -0.010043 0.019475 -0.007029 0.000000 0.008785 0.000000
# 3 0.002771 -0.007029 0.015169 0.000000 -0.007381 0.000000
# 4 0.000000 0.000000 0.000000 0.053444 0.000000 -0.007476
# 5 -0.010190 0.008785 -0.007381 0.000000 0.032444 0.000000
# 6 0.000000 0.000000 0.000000 -0.007476 0.000000 0.035437
#
#
# Mechanical properties :
#
#
# Convention : Reuss Voigt Hill
#
# Bulk Modulus (GPa) = 51.15442 63.25826 57.20634
# Shear Modulus (GPa) = 24.43861 32.14085 28.28973
#
# Velocity S-wave (km/s) = 3.20334 3.67362 3.44651
# Velocity P-wave (km/s) = 5.92966 6.67497 6.31332
#
# Compressibility (1/GPa) = 0.01954865
#
# Stress axis : x y z
#
# Youngs Moduli (GPa) = 74.03833 51.34684 65.92292
#
# Poissons Ratio (x) = 0.51568 -0.18267
# Poissons Ratio (y) = 0.74358 0.46337
# Poissons Ratio (z) = -0.20515 0.36092
#
# Static dielectric constant tensor:
#      x y z
#    x 1.905900 0.000000 -0.058890 
#    y 0.000000 1.860040 0.000000 
#    z -0.058890 0.000000 1.936620 
# 
# From -- ./inp_files/37061.got.cif
#   From: 2010.05.17/outbox.cif.g08.bks.cpg/sg12_19_cif.got.tgz:37061.got - 2010.06.03 13:09:07.
