data_PCOD9194939
_publ_section_title
;
Structure prediction by ZEFSAII (Michael W. Deem and Ramdas Pophale) SiO2 
 PCOD9194939
Probable space group: C 2/M
;
_chemical_formula_sum "Si O2"
_cell_formula_units_Z 58
_cell_length_a 20.188907
_cell_length_b 7.628937
_cell_length_c 23.874213
_cell_angle_alpha 90.000000
_cell_angle_beta 39.785858
_cell_angle_gamma 90.000000
_cell_volume 2353.052500
_symmetry_space_group_name_H-M "C 2/M"
_symmetry_group_IT_number 12
_symmetry_cell_setting 'monoclinic'
loop_
_space_group_symop_operation_xyz
x,y,z
-x,y,-z
-x,-y,-z
x,-y,z
1/2+x,1/2+y,z
1/2-x,1/2+y,-z
1/2-x,1/2-y,-z
1/2+x,1/2-y,z
loop_
_atom_site_type_symbol
_atom_site_label
_atom_site_fract_x
_atom_site_fract_y
_atom_site_fract_z
Si Si1 0.659595 0.707699 0.818584
Si Si2 0.628423 0.209452 0.372416
Si Si3 0.764428 0.300533 0.583867
Si Si4 0.973851 0.701501 0.870180
Si Si5 0.168028 0.207348 0.933690
Si Si6 0.098898 0.712458 0.202016
Si Si7 0.500000 0.500000 0.500000
Si Si8 0.597631 0.292866 0.607347
O O1 0.638563 0.500000 0.828160
O O2 0.782401 0.730604 0.731622
O O3 0.592354 0.786009 0.812318
O O4 0.627641 0.777145 0.900348
O O5 0.687089 0.275084 0.391436
O O6 0.534625 0.343673 0.432390
O O7 0.602241 0.000000 0.392662
O O8 0.738125 0.500000 0.616785
O O9 0.663852 0.224448 0.618282
O O10 0.852265 0.296816 0.478962
O O11 0.943532 0.500000 0.886026
O O12 0.948415 0.779085 0.826175
O O13 0.906277 0.773482 0.965337
O O14 0.283360 0.275835 0.870186
O O15 0.179401 0.000000 0.916572
O O16 0.099605 0.500000 0.201819
O O17 0.021708 0.764929 0.301742
O O18 0.619871 0.500000 0.587600
#
# Coordination Sequence:
#
# PCOD9194939 Si02
#       8
#     8   8   8   8   8   8   2   8
#     4  10  22  42  66  91 122 166 216 263 312 386
#     4  10  23  43  64  91 128 171 217 266 325 385
#     4   9  19  37  58  83 122 163 204 258 318 382
#     4  11  23  38  62  94 126 160 208 266 321 377
#     4  10  22  41  63  87 122 167 209 255 319 390
#     4  10  22  39  58  87 124 165 206 253 318 386
#     4  12  26  40  64  94 122 164 218 264 324 380
#     4  10  20  34  58  91 120 155 207 261 316 377
#
# _framework density 24.648834999999998
#
# number of rings (size 3 to 8) (size 9 to 14) (size 15 to 20)
#    0.000    1.931    0.000    2.690    1.931    6.621 
#    0.000    2.759    0.000    0.000    0.000    0.000 
#    0.000    0.000    0.000    0.000    0.000    0.000 
#
# Total GULP energy -161928.129835 kJ/mol
# GULP energy per Si atom -5583.728615 kJ/mol
# Density = 2.459273 g / cm^3
# Si number density = 24.648835 Si / 1000 Ang^3
#
#
#
# Elastic Constant Matrix: (Units=GPa)
#
#
# Indices 1 2 3 4 5 6 
#
# 1 69.4658 1.6349 5.6452 -0.0001 -2.7722 0.0009
# 2 1.6349 81.6317 2.3313 -0.0007 -1.1427 0.0034
# 3 5.6452 2.3313 102.9358 -0.0003 -10.0817 0.0000
# 4 -0.0001 -0.0007 -0.0003 26.6071 0.0000 -3.8223
# 5 -2.7722 -1.1427 -10.0817 0.0000 38.1884 -0.0003
# 6 0.0009 0.0034 0.0000 -3.8223 -0.0003 2.9090
#
#
#
# Elastic Compliance Matrix: (Units=1/GPa)
#
#
# Indices 1 2 3 4 5 6 
#
# 1 0.014493 -0.000258 -0.000705 -0.000001 0.000858 -0.000005
# 2 -0.000258 0.012266 -0.000236 -0.000002 0.000286 -0.000017
# 3 -0.000705 -0.000236 0.010012 0.000000 0.002585 0.000001
# 4 -0.000001 -0.000002 0.000000 0.046329 0.000000 0.060873
# 5 0.000858 0.000286 0.002585 0.000000 0.026939 0.000003
# 6 -0.000005 -0.000017 0.000001 0.060873 0.000003 0.423744
#
#
# Mechanical properties :
#
#
# Convention : Reuss Voigt Hill
#
# Bulk Modulus (GPa) = 29.09190 30.36181 29.72685
# Shear Modulus (GPa) = 9.13012 29.83570 19.48291
#
# Velocity S-wave (km/s) = 1.92669 3.48290 2.81449
# Velocity P-wave (km/s) = 4.09605 5.34028 4.75900
#
# Compressibility (1/GPa) = 0.03437383
#
# Stress axis : x y z
#
# Youngs Moduli (GPa) = 68.99796 81.52588 99.88052
#
# Poissons Ratio (x) = 0.02104 0.07041
# Poissons Ratio (y) = 0.01781 0.02353
# Poissons Ratio (z) = 0.04864 0.01921
#
# Static dielectric constant tensor:
#      x y z
#    x 2.057030 0.000000 -0.007450 
#    y 0.000000 1.947230 0.000000 
#    z -0.007450 0.000000 1.932740 
# 
# From -- ./inp_files/346464.got.cif
#   From: 2010.05.17/outbox.cif.g08.bks.cpg/sg12_174_cif.got.tgz:346464.got - 2010.06.03 13:09:07.
