data_PCOD9194549
_publ_section_title
;
Structure prediction by ZEFSAII (Michael W. Deem and Ramdas Pophale) SiO2 
 PCOD9194549
Probable space group: C 2/M
;
_chemical_formula_sum "Si O2"
_cell_formula_units_Z 56
_cell_length_a 23.517768
_cell_length_b 8.821917
_cell_length_c 32.110448
_cell_angle_alpha 90.000000
_cell_angle_beta 154.198717
_cell_angle_gamma 90.000000
_cell_volume 2899.649272
_symmetry_space_group_name_H-M "C 2/M"
_symmetry_group_IT_number 12
_symmetry_cell_setting 'monoclinic'
loop_
_space_group_symop_operation_xyz
x,y,z
-x,y,-z
-x,-y,-z
x,-y,z
1/2+x,1/2+y,z
1/2-x,1/2+y,-z
1/2-x,1/2-y,-z
1/2+x,1/2-y,z
loop_
_atom_site_type_symbol
_atom_site_label
_atom_site_fract_x
_atom_site_fract_y
_atom_site_fract_z
Si Si1 0.382005 0.682460 0.106153
Si Si2 0.650113 0.317255 0.592797
Si Si3 0.122483 0.182284 0.206182
Si Si4 0.672754 0.680527 0.837361
Si Si5 0.043611 0.180221 0.981555
Si Si6 0.545822 0.181118 0.359029
Si Si7 0.287590 0.317257 0.459681
O O1 0.372891 0.500000 0.097880
O O2 0.507785 0.729394 0.162648
O O3 0.390587 0.726185 0.160124
O O4 0.250000 0.750000 0.000000
O O5 0.500000 0.270250 0.500000
O O6 0.654531 0.500000 0.596726
O O7 0.743746 0.254272 0.690275
O O8 0.701338 0.267539 0.580890
O O9 0.068672 0.224865 0.125188
O O10 0.134709 0.000000 0.215727
O O11 0.664341 0.500000 0.827509
O O12 0.593038 0.758835 0.747878
O O13 0.822422 0.732218 0.937962
O O14 0.068199 0.000000 0.991498
O O15 0.000000 0.204152 0.000000
O O16 0.596467 0.250557 0.435593
O O17 0.653783 0.226909 0.395132
O O18 0.544779 0.000000 0.361194
O O19 0.295419 0.500000 0.465733
#
# Coordination Sequence:
#
# PCOD9194549 Si02
#       7
#     8   8   8   8   8   8   8
#     4  10  20  34  56  85 114 146 186 232 284 337
#     4  10  22  39  59  83 112 148 190 234 283 338
#     4  10  21  38  59  84 114 147 187 238 286 333
#     4  11  22  35  55  85 116 148 187 232 283 341
#     4  10  22  40  59  80 112 152 192 232 276 335
#     4  10  20  34  57  84 112 148 185 229 285 341
#     4   9  19  37  57  81 112 145 185 235 286 336
#
# _framework density 19.312681000000001
#
# number of rings (size 3 to 8) (size 9 to 14) (size 15 to 20)
#    0.000    2.000    1.429    1.714    0.000    4.571 
#    0.000    2.857    0.000    0.000    0.000    0.000 
#    0.000    0.000    0.000    0.000    0.000    0.000 
#
# Total GULP energy -156400.163258 kJ/mol
# GULP energy per Si atom -5585.720116 kJ/mol
# Density = 1.926872 g / cm^3
# Si number density = 19.312681 Si / 1000 Ang^3
#
#
#
# Elastic Constant Matrix: (Units=GPa)
#
#
# Indices 1 2 3 4 5 6 
#
# 1 44.9605 17.9709 28.9743 0.0007 -15.4448 -0.0003
# 2 17.9709 4.2762 21.9634 0.0002 -5.1675 -0.0011
# 3 28.9743 21.9634 154.2932 0.0006 -17.9857 -0.0005
# 4 0.0007 0.0002 0.0006 37.3354 0.0000 -1.9240
# 5 -15.4448 -5.1675 -17.9857 0.0000 27.7946 0.0000
# 6 -0.0003 -0.0011 -0.0005 -1.9240 0.0000 15.5637
#
#
#
# Elastic Compliance Matrix: (Units=1/GPa)
#
#
# Indices 1 2 3 4 5 6 
#
# 1 -0.006844 0.097581 -0.011826 0.000000 0.006687 0.000007
# 2 0.097581 -0.261715 0.021176 -0.000002 0.019269 -0.000017
# 3 -0.011826 0.021176 0.005819 0.000000 0.001131 0.000002
# 4 0.000000 -0.000002 0.000000 0.026956 0.000000 0.003332
# 5 0.006687 0.019269 0.001131 0.000000 0.044008 0.000001
# 6 0.000007 -0.000017 0.000002 0.003332 0.000001 0.064664
#
#
# Mechanical properties :
#
#
# Convention : Reuss Voigt Hill
#
# Bulk Modulus (GPa) = -20.45980 37.92744 8.73382
# Shear Modulus (GPa) = -13.99513 25.11349 5.55918
#
# Velocity S-wave (km/s) = -2.69487 3.60997 1.69846
# Velocity P-wave (km/s) = 4.50556 6.08745 2.89456
#
# Compressibility (1/GPa) = -0.04887633
#
# Stress axis : x y z
#
# Youngs Moduli (GPa) = -146.11595 -3.82095 171.83983
#
# Poissons Ratio (x) = 0.37285 2.03216
# Poissons Ratio (y) = 14.25817 -3.63895
# Poissons Ratio (z) = -1.72795 0.08091
#
# Static dielectric constant tensor:
#      x y z
#    x 1.684060 0.000000 -0.001410 
#    y 0.000000 1.647260 0.000000 
#    z -0.001410 0.000000 1.646080 
# 
# From -- ./inp_files/380752.got.cif
#   From: 2010.05.17/outbox.cif.g08.bks.cpg/sg12_191_cif.got.tgz:380752.got - 2010.06.03 13:09:07.
