data_PCOD9194671
_publ_section_title
;
Structure prediction by ZEFSAII (Michael W. Deem and Ramdas Pophale) SiO2 
 PCOD9194671
Probable space group: C 2/M
;
_chemical_formula_sum "Si O2"
_cell_formula_units_Z 58
_cell_length_a 21.712092
_cell_length_b 7.770117
_cell_length_c 29.077138
_cell_angle_alpha 90.000000
_cell_angle_beta 143.601368
_cell_angle_gamma 90.000000
_cell_volume 2910.906032
_symmetry_space_group_name_H-M "C 2/M"
_symmetry_group_IT_number 12
_symmetry_cell_setting 'monoclinic'
loop_
_space_group_symop_operation_xyz
x,y,z
-x,y,-z
-x,-y,-z
x,-y,z
1/2+x,1/2+y,z
1/2-x,1/2+y,-z
1/2-x,1/2-y,-z
1/2+x,1/2-y,z
loop_
_atom_site_type_symbol
_atom_site_label
_atom_site_fract_x
_atom_site_fract_y
_atom_site_fract_z
Si Si1 0.115302 0.206606 0.955046
Si Si2 0.935324 0.200085 0.269981
Si Si3 0.867078 0.206491 0.557648
Si Si4 0.689716 0.804666 0.720428
Si Si5 0.494319 0.300457 0.547638
Si Si6 0.000000 0.500000 0.000000
Si Si7 0.338252 0.799544 0.118789
Si Si8 0.908662 0.792362 0.888669
O O1 0.112402 0.279172 0.901916
O O2 0.013182 0.243500 0.922574
O O3 0.124496 0.000000 0.956466
O O4 0.220940 0.271111 0.042680
O O5 0.855206 0.297020 0.254784
O O6 0.905062 0.217116 0.199048
O O7 0.050332 0.260372 0.353468
O O8 0.926998 0.000000 0.278080
O O9 0.750000 0.250000 0.500000
O O10 0.914048 0.274213 0.537323
O O11 0.871550 0.000000 0.557742
O O12 0.607513 0.706006 0.639508
O O13 0.808802 0.751841 0.797287
O O14 0.687926 0.000000 0.702455
O O15 0.500000 0.222377 0.500000
O O16 0.463557 0.500000 0.523154
O O17 0.082723 0.655340 0.065234
O O18 0.330021 0.000000 0.125575
O O19 0.905102 0.000000 0.898464
#
# Coordination Sequence:
#
# PCOD9194671 Si02
#       8
#     8   8   8   8   8   2   8   8
#     4   9  20  39  55  74 114 152 183 241 289 330
#     4  10  21  36  57  82 112 149 189 229 285 350
#     4   9  19  36  57  83 113 147 185 235 290 343
#     4  10  21  37  58  85 119 150 186 244 293 343
#     4   9  19  38  62  86 115 153 197 240 293 365
#     4  12  26  36  64  86 110 164 194 240 306 342
#     4  10  20  34  57  82 105 144 195 233 280 342
#     4  10  24  41  57  87 122 152 199 247 295 356
#
# _framework density 19.925068
#
# number of rings (size 3 to 8) (size 9 to 14) (size 15 to 20)
#    0.000    2.345    0.000    2.276    4.828    3.586 
#    2.483    0.000    0.000    0.000    0.000    0.000 
#    0.000    0.000    0.000    0.000    0.000    0.000 
#
# Total GULP energy -161448.464047 kJ/mol
# GULP energy per Si atom -5567.188415 kJ/mol
# Density = 1.987972 g / cm^3
# Si number density = 19.925068 Si / 1000 Ang^3
#
#
#
# Elastic Constant Matrix: (Units=GPa)
#
#
# Indices 1 2 3 4 5 6 
#
# 1 96.0217 17.8713 84.5420 -0.0002 3.2758 0.0008
# 2 17.8713 39.0041 15.6762 -0.0002 0.8115 0.0016
# 3 84.5420 15.6762 125.7986 0.0001 -5.9053 0.0000
# 4 -0.0002 -0.0002 0.0001 17.0510 0.0000 1.2415
# 5 3.2758 0.8115 -5.9053 0.0000 31.7926 -0.0002
# 6 0.0008 0.0016 0.0000 1.2415 -0.0002 10.8406
#
#
#
# Elastic Compliance Matrix: (Units=1/GPa)
#
#
# Indices 1 2 3 4 5 6 
#
# 1 0.027607 -0.005212 -0.018189 0.000000 -0.006090 -0.000001
# 2 -0.005212 0.028030 0.000001 0.000001 -0.000178 -0.000004
# 3 -0.018189 0.000001 0.020439 0.000000 0.005671 0.000001
# 4 0.000000 0.000001 0.000000 0.059141 0.000000 -0.006773
# 5 -0.006090 -0.000178 0.005671 0.000000 0.033139 0.000001
# 6 -0.000001 -0.000004 0.000001 -0.006773 0.000001 0.093021
#
#
# Mechanical properties :
#
#
# Convention : Reuss Voigt Hill
#
# Bulk Modulus (GPa) = 34.15783 55.22259 44.69021
# Shear Modulus (GPa) = 15.72647 21.45251 18.58949
#
# Velocity S-wave (km/s) = 2.81246 3.28481 3.05777
# Velocity P-wave (km/s) = 5.26564 6.49322 5.91138
#
# Compressibility (1/GPa) = 0.02927587
#
# Stress axis : x y z
#
# Youngs Moduli (GPa) = 36.22280 35.67664 48.92537
#
# Poissons Ratio (x) = 0.18594 0.88992
# Poissons Ratio (y) = 0.18879 -0.00007
# Poissons Ratio (z) = 0.65887 -0.00005
#
# Static dielectric constant tensor:
#      x y z
#    x 1.717320 0.000000 -0.000060 
#    y 0.000000 1.770120 0.000000 
#    z -0.000060 0.000000 1.710150 
# 
# From -- ./inp_files/382082.got.cif
#   From: 2010.05.17/outbox.cif.g08.bks.cpg/sg12_192_cif.got.tgz:382082.got - 2010.06.03 13:09:07.
