data_PCOD9194900
_publ_section_title
;
Structure prediction by ZEFSAII (Michael W. Deem and Ramdas Pophale) SiO2 
 PCOD9194900
Probable space group: C 2/M
;
_chemical_formula_sum "Si O2"
_cell_formula_units_Z 40
_cell_length_a 12.545420
_cell_length_b 29.019281
_cell_length_c 5.104245
_cell_angle_alpha 90.000000
_cell_angle_beta 95.102504
_cell_angle_gamma 90.000000
_cell_volume 1850.882781
_symmetry_space_group_name_H-M "C 2/M"
_symmetry_group_IT_number 12
_symmetry_cell_setting 'monoclinic'
loop_
_space_group_symop_operation_xyz
x,y,z
-x,y,-z
-x,-y,-z
x,-y,z
1/2+x,1/2+y,z
1/2-x,1/2+y,-z
1/2-x,1/2-y,-z
1/2+x,1/2-y,z
loop_
_atom_site_type_symbol
_atom_site_label
_atom_site_fract_x
_atom_site_fract_y
_atom_site_fract_z
Si Si1 0.719746 0.897382 0.981252
Si Si2 0.398856 0.357115 0.343057
Si Si3 0.592539 0.261054 0.865147
Si Si4 0.261590 0.192573 0.289556
Si Si5 0.375257 0.054543 0.534610
O O1 0.840826 0.887980 0.110949
O O2 0.657178 0.918204 0.212375
O O3 0.685441 0.846420 0.882270
O O4 0.697849 0.929236 0.725182
O O5 0.500000 0.381436 0.500000
O O6 0.449368 0.309955 0.245193
O O7 0.302388 0.336264 0.504420
O O8 0.646530 0.230750 0.647887
O O9 0.500000 0.235280 0.000000
O O10 0.677956 0.278844 0.097079
O O11 0.500000 0.063406 0.500000
O O12 0.362322 0.000000 0.574721
#
# Coordination Sequence:
#
# PCOD9194900 Si02
#       5
#     8   8   8   8   8
#     4  11  23  42  66 101 132 167 218 270 315 394
#     4  11  21  39  65  90 131 183 230 267 320 379
#     4  10  20  34  58  87 129 179 227 276 321 376
#     4  10  21  38  56  92 130 175 222 278 318 375
#     4  11  24  45  73 100 131 167 204 258 339 415
#
# _framework density 21.611311000000001
#
# number of rings (size 3 to 8) (size 9 to 14) (size 15 to 20)
#    0.000    1.400    4.000    1.800    0.000    3.200 
#    0.000    1.000    0.000    3.600    0.000    0.000 
#    0.000    0.000    0.000    0.000    0.000    0.000 
#
# Total GULP energy -111521.249552 kJ/mol
# GULP energy per Si atom -5576.062478 kJ/mol
# Density = 2.156212 g / cm^3
# Si number density = 21.611311 Si / 1000 Ang^3
#
#
#
# Elastic Constant Matrix: (Units=GPa)
#
#
# Indices 1 2 3 4 5 6 
#
# 1 48.8108 46.2635 20.0963 0.0000 -16.3490 0.0000
# 2 46.2635 76.9752 34.3821 0.0000 -7.4616 0.0000
# 3 20.0963 34.3821 105.4975 0.0000 -17.0934 0.0000
# 4 0.0000 0.0000 0.0000 22.7480 0.0000 -8.6906
# 5 -16.3490 -7.4616 -17.0934 0.0000 37.4468 0.0000
# 6 0.0000 0.0000 0.0000 -8.6906 0.0000 27.3427
#
#
#
# Elastic Compliance Matrix: (Units=1/GPa)
#
#
# Indices 1 2 3 4 5 6 
#
# 1 0.059253 -0.035191 0.003496 0.000000 0.020453 0.000000
# 2 -0.035191 0.036129 -0.006905 0.000000 -0.011317 0.000000
# 3 0.003496 -0.006905 0.011973 0.000000 0.005616 0.000000
# 4 0.000000 0.000000 0.000000 0.050036 0.000000 0.015903
# 5 0.020453 -0.011317 0.005616 0.000000 0.035943 0.000000
# 6 0.000000 0.000000 0.000000 0.015903 0.000000 0.041628
#
#
# Mechanical properties :
#
#
# Convention : Reuss Voigt Hill
#
# Bulk Modulus (GPa) = 33.16187 48.08529 40.62358
# Shear Modulus (GPa) = 15.51770 26.21026 20.86398
#
# Velocity S-wave (km/s) = 2.68253 3.48631 3.11049
# Velocity P-wave (km/s) = 4.99726 6.20517 5.63368
#
# Compressibility (1/GPa) = 0.03015511
#
# Stress axis : x y z
#
# Youngs Moduli (GPa) = 16.87671 27.67879 83.52023
#
# Poissons Ratio (x) = 0.97405 -0.29196
# Poissons Ratio (y) = 0.59391 0.57667
# Poissons Ratio (z) = -0.05900 0.19111
#
# Static dielectric constant tensor:
#      x y z
#    x 1.894280 0.000000 -0.003680 
#    y 0.000000 1.758300 0.000000 
#    z -0.003680 0.000000 1.882380 
# 
# From -- ./inp_files/8163.got.cif
#   From: 2010.05.17/outbox.cif.g08.bks.cpg/sg12_5_cif.got.tgz:8163.got - 2010.06.03 13:09:07.
