data_PCOD9194463
_publ_section_title
;
Structure prediction by ZEFSAII (Michael W. Deem and Ramdas Pophale) SiO2 
 PCOD9194463
Probable space group: C 2/M
;
_chemical_formula_sum "Si O2"
_cell_formula_units_Z 56
_cell_length_a 30.676215
_cell_length_b 8.856606
_cell_length_c 22.320975
_cell_angle_alpha 90.000000
_cell_angle_beta 32.837244
_cell_angle_gamma 90.000000
_cell_volume 3288.405874
_symmetry_space_group_name_H-M "C 2/M"
_symmetry_group_IT_number 12
_symmetry_cell_setting 'monoclinic'
loop_
_space_group_symop_operation_xyz
x,y,z
-x,y,-z
-x,-y,-z
x,-y,z
1/2+x,1/2+y,z
1/2-x,1/2+y,-z
1/2-x,1/2-y,-z
1/2+x,1/2-y,z
loop_
_atom_site_type_symbol
_atom_site_label
_atom_site_fract_x
_atom_site_fract_y
_atom_site_fract_z
Si Si1 0.379077 0.179679 0.346320
Si Si2 0.832116 0.679820 0.613966
Si Si3 0.238454 0.820186 0.418755
Si Si4 0.655406 0.320141 0.270800
Si Si5 0.013602 0.320163 0.358991
Si Si6 0.211953 0.320082 0.983922
Si Si7 0.958400 0.180109 0.804496
O O1 0.324469 0.207113 0.350829
O O2 0.327410 0.244060 0.461576
O O3 0.464913 0.259152 0.247774
O O4 0.388928 0.000000 0.342913
O O5 0.821242 0.500000 0.630241
O O6 0.772578 0.750742 0.633817
O O7 0.824637 0.754364 0.687394
O O8 0.922731 0.708665 0.485254
O O9 0.224645 0.000000 0.433502
O O10 0.642359 0.500000 0.289236
O O11 0.576219 0.241261 0.335405
O O12 0.727460 0.291614 0.140771
O O13 0.023823 0.500000 0.339631
O O14 0.030641 0.239400 0.276267
O O15 0.203927 0.500000 0.000943
O O16 0.124942 0.247067 0.075316
O O17 0.250000 0.250000 0.000000
O O18 0.956085 0.000000 0.807001
#
# Coordination Sequence:
#
# PCOD9194463 Si02
#       7
#     8   8   8   8   8   8   8
#     4  10  20  35  55  83 115 148 184 230 285 334
#     4  11  23  37  56  82 116 155 189 227 281 336
#     4  10  20  34  56  83 114 148 186 230 278 336
#     4  11  24  39  57  81 111 150 194 234 279 334
#     4  11  22  36  55  81 115 152 188 228 278 335
#     4  11  23  39  59  82 111 148 190 237 283 331
#     4  12  23  35  57  85 114 150 189 232 282 332
#
# _framework density 17.029529
#
# number of rings (size 3 to 8) (size 9 to 14) (size 15 to 20)
#    0.000    1.143    2.857    4.286    0.000    6.857 
#    0.000    0.000    0.000    0.857    0.000    6.000 
#    0.000    0.000    0.000    0.000    0.000    0.000 
#
# Total GULP energy -156545.744098 kJ/mol
# GULP energy per Si atom -5590.919432 kJ/mol
# Density = 1.699077 g / cm^3
# Si number density = 17.029529 Si / 1000 Ang^3
#
#
#
# Elastic Constant Matrix: (Units=GPa)
#
#
# Indices 1 2 3 4 5 6 
#
# 1 135.5306 68.5901 49.5578 -0.0008 -3.3863 0.0008
# 2 68.5901 98.9298 52.0650 -0.0007 0.9476 -0.0001
# 3 49.5578 52.0650 51.2577 0.0006 -5.0050 0.0016
# 4 -0.0008 -0.0007 0.0006 27.9806 0.0007 -1.0709
# 5 -3.3863 0.9476 -5.0050 0.0007 26.7245 -0.0008
# 6 0.0008 -0.0001 0.0016 -1.0709 -0.0008 34.2363
#
#
#
# Elastic Compliance Matrix: (Units=1/GPa)
#
#
# Indices 1 2 3 4 5 6 
#
# 1 0.012446 -0.004994 -0.006916 0.000000 0.000459 0.000000
# 2 -0.004994 0.024396 -0.020473 0.000001 -0.005332 0.000001
# 3 -0.006916 -0.020473 0.047852 -0.000002 0.008811 -0.000002
# 4 0.000000 0.000001 -0.000002 0.035782 -0.000001 0.001119
# 5 0.000459 -0.005332 0.008811 -0.000001 0.039316 0.000000
# 6 0.000000 0.000001 -0.000002 0.001119 0.000000 0.029244
#
#
# Mechanical properties :
#
#
# Convention : Reuss Voigt Hill
#
# Bulk Modulus (GPa) = 50.17950 69.57152 59.87551
# Shear Modulus (GPa) = 19.19803 25.48862 22.34333
#
# Velocity S-wave (km/s) = 3.36123 3.87296 3.62613
# Velocity P-wave (km/s) = 6.67787 7.80653 7.26415
#
# Compressibility (1/GPa) = 0.01992846
#
# Stress axis : x y z
#
# Youngs Moduli (GPa) = 80.34692 40.99053 20.89791
#
# Poissons Ratio (x) = 0.20469 0.14453
# Poissons Ratio (y) = 0.40122 0.42784
# Poissons Ratio (z) = 0.55570 0.83919
#
# Static dielectric constant tensor:
#      x y z
#    x 1.569810 0.000000 -0.010970 
#    y 0.000000 1.566200 0.000000 
#    z -0.010970 0.000000 1.552430 
# 
# From -- ./inp_files/238394.got.cif
#   From: 2010.05.17/outbox.cif.g08.bks.cpg/sg12_120_cif.got.tgz:238394.got - 2010.06.03 13:09:07.
