data_PCOD9194221
_publ_section_title
;
Structure prediction by ZEFSAII (Michael W. Deem and Ramdas Pophale) SiO2 
 PCOD9194221
Probable space group: C 2/M
;
_chemical_formula_sum "Si O2"
_cell_formula_units_Z 56
_cell_length_a 21.834712
_cell_length_b 25.632491
_cell_length_c 14.247646
_cell_angle_alpha 90.000000
_cell_angle_beta 20.399352
_cell_angle_gamma 90.000000
_cell_volume 2779.462041
_symmetry_space_group_name_H-M "C 2/M"
_symmetry_group_IT_number 12
_symmetry_cell_setting 'monoclinic'
loop_
_space_group_symop_operation_xyz
x,y,z
-x,y,-z
-x,-y,-z
x,-y,z
1/2+x,1/2+y,z
1/2-x,1/2+y,-z
1/2-x,1/2-y,-z
1/2+x,1/2-y,z
loop_
_atom_site_type_symbol
_atom_site_label
_atom_site_fract_x
_atom_site_fract_y
_atom_site_fract_z
Si Si1 0.977137 0.620867 0.257484
Si Si2 0.805436 0.060658 0.820452
Si Si3 0.367196 0.061823 0.602054
Si Si4 0.016406 0.738518 0.138856
Si Si5 0.315113 0.097003 0.299661
Si Si6 0.424402 0.561679 0.846879
Si Si7 0.248658 0.215595 0.355965
O O1 0.999826 0.682621 0.214069
O O2 0.922220 0.597652 0.436440
O O3 0.838523 0.604303 0.377478
O O4 0.164001 0.593695 0.968007
O O5 0.828324 0.082958 0.892436
O O6 0.000000 0.061910 0.500000
O O7 0.748239 0.000000 0.904460
O O8 0.500000 0.065810 0.500000
O O9 0.365289 0.000000 0.577564
O O10 0.176464 0.079013 0.915160
O O11 0.944743 0.778293 0.320581
O O12 0.878164 0.738874 0.250209
O O13 0.200759 0.741159 0.817030
O O14 0.298933 0.154810 0.278414
O O15 0.131695 0.069571 0.544131
O O16 0.500000 0.073021 0.000000
O O17 0.391682 0.500000 0.889238
#
# Coordination Sequence:
#
# PCOD9194221 Si02
#       7
#     8   8   8   8   8   8   8
#     4  11  20  34  60  89 112 151 199 242 297 347
#     4  10  20  34  55  83 113 155 205 237 277 349
#     4  10  20  38  59  81 116 159 203 246 286 343
#     4   9  18  32  57  85 112 146 196 238 291 357
#     4  11  21  37  57  87 124 150 186 244 304 346
#     4  10  22  37  55  83 118 159 197 238 292 349
#     4   9  17  35  55  82 119 152 185 237 296 361
#
# _framework density 20.147784000000001
#
# number of rings (size 3 to 8) (size 9 to 14) (size 15 to 20)
#    0.000    2.000    4.286    1.286    0.000    3.143 
#    0.000    4.286    0.000    0.857    0.000    0.000 
#    0.000    0.000    0.000    0.000    0.000    0.000 
#
# Total GULP energy -156037.977525 kJ/mol
# GULP energy per Si atom -5572.784912 kJ/mol
# Density = 2.010193 g / cm^3
# Si number density = 20.147784 Si / 1000 Ang^3
#
#
#
# Elastic Constant Matrix: (Units=GPa)
#
#
# Indices 1 2 3 4 5 6 
#
# 1 61.2046 19.8079 26.6588 0.0267 11.8309 -0.0166
# 2 19.8079 24.7893 19.7963 0.0620 8.9928 -0.0534
# 3 26.6588 19.7963 119.9675 0.0069 25.0803 0.0043
# 4 0.0267 0.0620 0.0069 51.2188 -0.0253 -21.0429
# 5 11.8309 8.9928 25.0803 -0.0253 38.1738 0.0157
# 6 -0.0166 -0.0534 0.0043 -21.0429 0.0157 45.4740
#
#
#
# Elastic Compliance Matrix: (Units=1/GPa)
#
#
# Indices 1 2 3 4 5 6 
#
# 1 0.022724 -0.015821 -0.002024 0.000003 -0.001986 -0.000008
# 2 -0.015821 0.059076 -0.005041 -0.000047 -0.005702 0.000044
# 3 -0.002024 -0.005041 0.010709 0.000001 -0.005221 -0.000005
# 4 0.000003 -0.000047 0.000001 0.024107 0.000021 0.011155
# 5 -0.001986 -0.005702 -0.005221 0.000021 0.031585 -0.000008
# 6 -0.000008 0.000044 -0.000005 0.011155 -0.000008 0.027153
#
#
# Mechanical properties :
#
#
# Convention : Reuss Voigt Hill
#
# Bulk Modulus (GPa) = 21.39606 37.60973 29.50289
# Shear Modulus (GPa) = 21.12339 36.28655 28.70497
#
# Velocity S-wave (km/s) = 3.24145 4.24845 3.77864
# Velocity P-wave (km/s) = 4.96507 6.54012 5.80625
#
# Compressibility (1/GPa) = 0.04673758
#
# Stress axis : x y z
#
# Youngs Moduli (GPa) = 44.00565 16.92733 93.38322
#
# Poissons Ratio (x) = 0.26781 0.18899
# Poissons Ratio (y) = 0.69623 0.47071
# Poissons Ratio (z) = 0.08906 0.08532
#
# Static dielectric constant tensor:
#      x y z
#    x 1.706290 -0.000040 0.064390 
#    y -0.000040 1.698740 0.000000 
#    z 0.064390 0.000000 1.817090 
# 
# From -- ./inp_files/242257.got.cif
#   From: 2010.05.17/outbox.cif.g08.bks.cpg/sg12_122_cif.got.tgz:242257.got - 2010.06.03 13:09:07.
