data_PCOD9194045
_publ_section_title
;
Structure prediction by ZEFSAII (Michael W. Deem and Ramdas Pophale) SiO2 
 PCOD9194045
Probable space group: C 2/M
;
_chemical_formula_sum "Si O2"
_cell_formula_units_Z 56
_cell_length_a 16.226336
_cell_length_b 7.617682
_cell_length_c 20.749929
_cell_angle_alpha 90.000000
_cell_angle_beta 125.131627
_cell_angle_gamma 90.000000
_cell_volume 2097.606986
_symmetry_space_group_name_H-M "C 2/M"
_symmetry_group_IT_number 12
_symmetry_cell_setting 'monoclinic'
loop_
_space_group_symop_operation_xyz
x,y,z
-x,y,-z
-x,-y,-z
x,-y,z
1/2+x,1/2+y,z
1/2-x,1/2+y,-z
1/2-x,1/2-y,-z
1/2+x,1/2-y,z
loop_
_atom_site_type_symbol
_atom_site_label
_atom_site_fract_x
_atom_site_fract_y
_atom_site_fract_z
Si Si1 0.082596 0.212209 0.166266
Si Si2 0.291300 0.290727 0.446192
Si Si3 0.885735 0.706976 0.018929
Si Si4 0.991667 0.210517 0.591093
Si Si5 0.417527 0.703953 0.694694
Si Si6 0.313981 0.202893 0.124258
Si Si7 0.811074 0.288417 0.261582
O O1 0.046861 0.277257 0.221029
O O2 0.196981 0.275805 0.214204
O O3 0.005369 0.267847 0.076203
O O4 0.083679 0.000000 0.167545
O O5 0.289624 0.500000 0.434761
O O6 0.250000 0.250000 0.500000
O O7 0.407627 0.226732 0.502265
O O8 0.204909 0.210818 0.362511
O O9 0.865759 0.500000 0.006313
O O10 0.850936 0.782394 0.073580
O O11 0.808574 0.791395 0.934137
O O12 0.110979 0.239873 0.647410
O O13 0.956101 0.283949 0.645134
O O14 0.978610 0.000000 0.583939
O O15 0.445074 0.500000 0.705399
O O16 0.347748 0.278628 0.207737
O O17 0.343606 0.000000 0.136129
O O18 0.808257 0.500000 0.258023
#
# Coordination Sequence:
#
# PCOD9194045 Si02
#       7
#     8   8   8   8   8   8   8
#     4  10  21  36  52  73 104 137 168 206 252 299
#     4   9  17  30  50  77 104 131 167 210 256 300
#     4  10  20  34  55  80 101 128 168 209 252 300
#     4   9  18  32  51  75 101 129 163 207 255 296
#     4   9  18  33  53  76 101 132 170 209 252 300
#     4   9  19  36  55  76 102 130 165 208 251 298
#     4  10  21  35  52  74 100 135 173 205 246 301
#
# _framework density 26.697088999999998
#
# number of rings (size 3 to 8) (size 9 to 14) (size 15 to 20)
#    0.000    2.571    0.000    2.571    0.000    5.714 
#    0.000    3.571    0.000    4.286    0.000    0.000 
#    0.000    0.000    0.000    0.000    0.000    0.000 
#
# Total GULP energy -156529.701259 kJ/mol
# GULP energy per Si atom -5590.346474 kJ/mol
# Density = 2.663633 g / cm^3
# Si number density = 26.697089 Si / 1000 Ang^3
#
#
#
# Elastic Constant Matrix: (Units=GPa)
#
#
# Indices 1 2 3 4 5 6 
#
# 1 75.3096 0.5532 30.9524 0.0000 26.5806 0.0000
# 2 0.5532 85.5952 -2.0594 0.0000 2.0893 0.0000
# 3 30.9524 -2.0594 203.8676 0.0000 23.5839 0.0000
# 4 0.0000 0.0000 0.0000 25.7351 0.0000 19.5338
# 5 26.5806 2.0893 23.5839 0.0000 57.8547 0.0000
# 6 0.0000 0.0000 0.0000 19.5338 0.0000 15.5060
#
#
#
# Elastic Compliance Matrix: (Units=1/GPa)
#
#
# Indices 1 2 3 4 5 6 
#
# 1 0.016390 0.000020 -0.001697 0.000000 -0.006839 0.000000
# 2 0.000020 0.011699 0.000173 0.000000 -0.000502 0.000000
# 3 -0.001697 0.000173 0.005326 0.000000 -0.001398 0.000000
# 4 0.000000 0.000000 0.000000 0.887072 0.000000 -1.117494
# 5 -0.006839 -0.000502 -0.001398 0.000000 0.021015 0.000000
# 6 0.000000 0.000000 0.000000 -1.117494 0.000000 1.472261
#
#
# Mechanical properties :
#
#
# Convention : Reuss Voigt Hill
#
# Bulk Modulus (GPa) = 32.88618 47.07384 39.98001
# Shear Modulus (GPa) = 2.06024 42.17424 22.11724
#
# Velocity S-wave (km/s) = 0.87942 3.97890 2.88141
# Velocity P-wave (km/s) = 3.65735 6.22733 5.10666
#
# Compressibility (1/GPa) = 0.03040791
#
# Stress axis : x y z
#
# Youngs Moduli (GPa) = 61.01396 85.47596 187.74959
#
# Poissons Ratio (x) = -0.00172 0.31862
# Poissons Ratio (y) = -0.00123 -0.03252
# Poissons Ratio (z) = 0.10354 -0.01481
#
# Static dielectric constant tensor:
#      x y z
#    x 2.296700 0.000000 0.020060 
#    y 0.000000 1.973420 0.000000 
#    z 0.020060 0.000000 2.070400 
# 
# From -- ./inp_files/342536.got.cif
#   From: 2010.05.17/outbox.cif.g08.bks.cpg/sg12_172_cif.got.tgz:342536.got - 2010.06.03 13:09:07.
