data_PCOD9194925
_publ_section_title
;
Structure prediction by ZEFSAII (Michael W. Deem and Ramdas Pophale) SiO2 
 PCOD9194925
Probable space group: C 2/M
;
_chemical_formula_sum "Si O2"
_cell_formula_units_Z 56
_cell_length_a 20.775044
_cell_length_b 8.827210
_cell_length_c 17.880083
_cell_angle_alpha 90.000000
_cell_angle_beta 71.573541
_cell_angle_gamma 90.000000
_cell_volume 3110.839762
_symmetry_space_group_name_H-M "C 2/M"
_symmetry_group_IT_number 12
_symmetry_cell_setting 'monoclinic'
loop_
_space_group_symop_operation_xyz
x,y,z
-x,y,-z
-x,-y,-z
x,-y,z
1/2+x,1/2+y,z
1/2-x,1/2+y,-z
1/2-x,1/2-y,-z
1/2+x,1/2-y,z
loop_
_atom_site_type_symbol
_atom_site_label
_atom_site_fract_x
_atom_site_fract_y
_atom_site_fract_z
Si Si1 0.657794 0.819358 0.596393
Si Si2 0.303248 0.180725 0.584853
Si Si3 0.672566 0.181494 0.833225
Si Si4 0.677859 0.182390 0.002677
Si Si5 0.328885 0.319292 0.731132
Si Si6 0.931120 0.180238 0.247090
Si Si7 0.421132 0.181917 0.826759
O O1 0.658007 0.790152 0.507437
O O2 0.728170 0.750507 0.601746
O O3 0.596775 0.745980 0.664394
O O4 0.658690 0.000000 0.608154
O O5 0.336774 0.255292 0.644786
O O6 0.297467 0.000000 0.596851
O O7 0.751002 0.212219 0.784084
O O8 0.622617 0.265931 0.795581
O O9 0.661952 0.000000 0.829451
O O10 0.661139 0.225820 0.923675
O O11 0.620872 0.226723 0.083531
O O12 0.683792 0.000000 0.001778
O O13 0.750000 0.250000 0.000000
O O14 0.338652 0.500000 0.728992
O O15 0.378764 0.240861 0.771358
O O16 0.004439 0.247686 0.201785
O O17 0.933741 0.000000 0.249326
O O18 0.425660 0.000000 0.823155
#
# Coordination Sequence:
#
# PCOD9194925 Si02
#       7
#     8   8   8   8   8   8   8
#     4  10  20  36  58  86 120 156 194 244 296 345
#     4  10  20  34  58  90 120 152 197 244 290 347
#     4  10  21  38  61  88 120 156 195 242 295 350
#     4  10  21  38  62  89 117 153 196 245 294 347
#     4  11  21  36  61  90 122 157 196 243 293 350
#     4  12  25  40  60  87 121 159 200 245 296 356
#     4  11  24  41  62  86 120 160 198 244 300 356
#
# _framework density 18.001570999999998
#
# number of rings (size 3 to 8) (size 9 to 14) (size 15 to 20)
#    0.000    1.429    2.857    3.000    0.000    4.000 
#    0.000    3.571    0.000    4.286    0.000    0.000 
#    0.000    0.000    0.000    0.000    0.000    0.000 
#
# Total GULP energy -156489.985209 kJ/mol
# GULP energy per Si atom -5588.928043 kJ/mol
# Density = 1.796060 g / cm^3
# Si number density = 18.001571 Si / 1000 Ang^3
#
#
#
# Elastic Constant Matrix: (Units=GPa)
#
#
# Indices 1 2 3 4 5 6 
#
# 1 81.5457 47.3022 49.7778 0.0000 -11.7075 0.0000
# 2 47.3022 72.6021 53.9496 0.0000 -7.0727 0.0000
# 3 49.7778 53.9496 129.9958 0.0000 -4.0708 0.0000
# 4 0.0000 0.0000 0.0000 24.8663 0.0000 1.4070
# 5 -11.7075 -7.0727 -4.0708 0.0000 31.4286 0.0000
# 6 0.0000 0.0000 0.0000 1.4070 0.0000 34.6620
#
#
#
# Elastic Compliance Matrix: (Units=1/GPa)
#
#
# Indices 1 2 3 4 5 6 
#
# 1 0.021452 -0.010837 -0.003557 0.000000 0.005091 0.000000
# 2 -0.010837 0.025764 -0.006514 0.000000 0.000917 0.000000
# 3 -0.003557 -0.006514 0.011718 0.000000 -0.001273 0.000000
# 4 0.000000 0.000000 0.000000 0.040308 0.000000 -0.001636
# 5 0.005091 0.000917 -0.001273 0.000000 0.033756 0.000000
# 6 0.000000 0.000000 0.000000 -0.001636 0.000000 0.028916
#
#
# Mechanical properties :
#
#
# Convention : Reuss Voigt Hill
#
# Bulk Modulus (GPa) = 58.41982 65.13363 61.77672
# Shear Modulus (GPa) = 23.87355 27.06566 25.46961
#
# Velocity S-wave (km/s) = 3.64564 3.88173 3.76554
# Velocity P-wave (km/s) = 7.08830 7.50674 7.30052
#
# Compressibility (1/GPa) = 0.01711748
#
# Stress axis : x y z
#
# Youngs Moduli (GPa) = 46.61624 38.81378 85.33713
#
# Poissons Ratio (x) = 0.42062 0.30358
# Poissons Ratio (y) = 0.50518 0.55588
# Poissons Ratio (z) = 0.16583 0.25283
#
# Static dielectric constant tensor:
#      x y z
#    x 1.571690 0.000000 0.001840 
#    y 0.000000 1.598730 0.000000 
#    z 0.001840 0.000000 1.627760 
# 
# From -- ./inp_files/275011.got.cif
#   From: 2010.05.17/outbox.cif.g08.bks.cpg/sg12_138_cif.got.tgz:275011.got - 2010.06.03 13:09:07.
