data_PCOD9194781
_publ_section_title
;
Structure prediction by ZEFSAII (Michael W. Deem and Ramdas Pophale) SiO2 
 PCOD9194781
Probable space group: C 2/M
;
_chemical_formula_sum "Si O2"
_cell_formula_units_Z 52
_cell_length_a 21.376410
_cell_length_b 14.013068
_cell_length_c 11.193474
_cell_angle_alpha 90.000000
_cell_angle_beta 49.852689
_cell_angle_gamma 90.000000
_cell_volume 2562.993324
_symmetry_space_group_name_H-M "C 2/M"
_symmetry_group_IT_number 12
_symmetry_cell_setting 'monoclinic'
loop_
_space_group_symop_operation_xyz
x,y,z
-x,y,-z
-x,-y,-z
x,-y,z
1/2+x,1/2+y,z
1/2-x,1/2+y,-z
1/2-x,1/2-y,-z
1/2+x,1/2-y,z
loop_
_atom_site_type_symbol
_atom_site_label
_atom_site_fract_x
_atom_site_fract_y
_atom_site_fract_z
Si Si1 0.673091 0.610534 0.780814
Si Si2 0.000000 0.209181 0.000000
Si Si3 0.292942 0.889988 0.419730
Si Si4 0.232113 0.298986 0.802028
Si Si5 0.574202 0.187389 0.135042
Si Si6 0.413759 0.289716 0.639842
Si Si7 0.930070 0.607599 0.446578
O O1 0.681080 0.500000 0.806910
O O2 0.579873 0.644229 0.886254
O O3 0.713372 0.619961 0.600337
O O4 0.719318 0.683814 0.813236
O O5 0.978030 0.274262 0.912922
O O6 0.290335 0.828839 0.304677
O O7 0.366430 0.868544 0.419665
O O8 0.301384 0.000000 0.372612
O O9 0.324737 0.329268 0.715181
O O10 0.163186 0.340022 0.975531
O O11 0.586103 0.269643 0.219467
O O12 0.518841 0.112697 0.275138
O O13 0.500000 0.340045 0.500000
O O14 0.419336 0.189571 0.558277
O O15 0.913824 0.500000 0.510146
#
# Coordination Sequence:
#
# PCOD9194781 Si02
#       7
#     8   4   8   8   8   8   8
#     4  10  20  34  57  88 114 145 192 242 288 341
#     4  10  21  36  59  80 118 144 193 238 294 338
#     4  10  21  35  59  89 115 151 193 234 290 345
#     4  11  21  37  60  81 122 153 188 240 290 343
#     4  10  22  36  54  87 110 154 191 230 290 350
#     4  10  22  35  57  82 112 150 198 233 288 340
#     4  10  20  37  58  87 120 148 192 244 288 343
#
# _framework density 20.288775999999999
#
# number of rings (size 3 to 8) (size 9 to 14) (size 15 to 20)
#    0.000    1.846    1.538    3.000    4.308    3.385 
#    0.000    1.923    0.000    8.769    0.000    0.000 
#    0.000    0.000    0.000    0.000    0.000    0.000 
#
# Total GULP energy -145050.177695 kJ/mol
# GULP energy per Si atom -5578.852988 kJ/mol
# Density = 2.024260 g / cm^3
# Si number density = 20.288776 Si / 1000 Ang^3
#
#
#
# Elastic Constant Matrix: (Units=GPa)
#
#
# Indices 1 2 3 4 5 6 
#
# 1 78.5715 11.3176 35.6251 0.0000 -11.7108 0.0000
# 2 11.3176 23.7179 6.8364 0.0000 5.7456 0.0000
# 3 35.6251 6.8364 84.8849 0.0000 -25.3161 0.0000
# 4 0.0000 0.0000 0.0000 17.2152 0.0000 -6.0853
# 5 -11.7108 5.7456 -25.3161 0.0000 45.1786 0.0000
# 6 0.0000 0.0000 0.0000 -6.0853 0.0000 9.6449
#
#
#
# Elastic Compliance Matrix: (Units=1/GPa)
#
#
# Indices 1 2 3 4 5 6 
#
# 1 0.016639 -0.006695 -0.005888 0.000000 0.001865 0.000000
# 2 -0.006695 0.049082 -0.004229 0.000000 -0.010347 0.000000
# 3 -0.005888 -0.004229 0.017166 0.000000 0.008631 0.000000
# 4 0.000000 0.000000 0.000000 0.074762 0.000000 0.047170
# 5 0.001865 -0.010347 0.008631 0.000000 0.028770 0.000000
# 6 0.000000 0.000000 0.000000 0.047170 0.000000 0.133442
#
#
# Mechanical properties :
#
#
# Convention : Reuss Voigt Hill
#
# Bulk Modulus (GPa) = 20.29854 32.74806 26.52330
# Shear Modulus (GPa) = 13.51689 23.30075 18.40882
#
# Velocity S-wave (km/s) = 2.58393 3.39256 3.01548
# Velocity P-wave (km/s) = 4.35073 5.61444 5.02249
#
# Compressibility (1/GPa) = 0.04926463
#
# Stress axis : x y z
#
# Youngs Moduli (GPa) = 60.09922 20.37389 58.25327
#
# Poissons Ratio (x) = 0.13639 0.34298
# Poissons Ratio (y) = 0.40234 0.24637
# Poissons Ratio (z) = 0.35385 0.08617
#
# Static dielectric constant tensor:
#      x y z
#    x 1.749340 0.000000 -0.040280 
#    y 0.000000 1.734760 0.000000 
#    z -0.040280 0.000000 1.730940 
# 
# From -- ./inp_files/167139.got.cif
#   From: 2010.05.17/outbox.cif.g08.bks.cpg/sg12_84_cif.got.tgz:167139.got - 2010.06.03 13:09:07.
