data_PCOD9194201
_publ_section_title
;
Structure prediction by ZEFSAII (Michael W. Deem and Ramdas Pophale) SiO2 
 PCOD9194201
Probable space group: C 2/M
;
_chemical_formula_sum "Si O2"
_cell_formula_units_Z 64
_cell_length_a 19.165454
_cell_length_b 9.147003
_cell_length_c 29.481788
_cell_angle_alpha 90.000000
_cell_angle_beta 137.101093
_cell_angle_gamma 90.000000
_cell_volume 3518.130146
_symmetry_space_group_name_H-M "C 2/M"
_symmetry_group_IT_number 12
_symmetry_cell_setting 'monoclinic'
loop_
_space_group_symop_operation_xyz
x,y,z
-x,y,-z
-x,-y,-z
x,-y,z
1/2+x,1/2+y,z
1/2-x,1/2+y,-z
1/2-x,1/2-y,-z
1/2+x,1/2-y,z
loop_
_atom_site_type_symbol
_atom_site_label
_atom_site_fract_x
_atom_site_fract_y
_atom_site_fract_z
Si Si1 0.426827 0.825953 0.371877
Si Si2 0.717527 0.825976 0.782259
Si Si3 0.905729 0.826024 0.198482
Si Si4 0.926223 0.174849 0.838296
Si Si5 0.151093 0.825739 0.932500
Si Si6 0.104677 0.329608 0.271910
Si Si7 0.842013 0.674514 0.516100
Si Si8 0.836870 0.828482 0.416635
O O1 0.344999 0.790612 0.293643
O O2 0.542884 0.798283 0.410174
O O3 0.401108 0.738255 0.405446
O O4 0.418776 0.000000 0.377869
O O5 0.670756 0.736831 0.801024
O O6 0.837464 0.794876 0.831853
O O7 0.704790 0.000000 0.783831
O O8 0.867729 0.788989 0.129432
O O9 0.016891 0.753342 0.257856
O O10 0.914515 0.000000 0.205534
O O11 0.896634 0.257267 0.778229
O O12 0.043366 0.213445 0.905598
O O13 0.924401 0.000000 0.828004
O O14 0.164116 0.000000 0.941893
O O15 0.250000 0.750000 0.000000
O O16 0.077672 0.500000 0.255927
O O17 0.217303 0.317273 0.346111
O O18 0.825289 0.500000 0.507483
O O19 0.750000 0.750000 0.500000
O O20 0.848175 0.738787 0.468268
O O21 0.861876 0.000000 0.435067
#
# Coordination Sequence:
#
# PCOD9194201 Si02
#       8
#     8   8   8   8   8   8   8   8
#     4  10  22  40  61  83 110 148 191 234 286 342
#     4  10  20  36  59  85 115 148 184 235 289 334
#     4  10  22  37  55  83 118 150 187 232 280 332
#     4   9  18  35  58  84 114 146 184 228 275 329
#     4   9  19  36  58  84 113 149 190 227 269 329
#     4  10  20  34  55  83 111 144 188 232 276 333
#     4  11  25  42  59  82 113 149 191 239 289 343
#     4  11  23  38  59  85 113 146 190 235 283 345
#
# _framework density 18.191481
#
# number of rings (size 3 to 8) (size 9 to 14) (size 15 to 20)
#    0.000    2.000    1.250    2.625    1.750    7.500 
#    0.000    0.625    0.000    3.750    0.000    0.000 
#    0.000    0.000    0.000    0.000    0.000    0.000 
#
# Total GULP energy -178639.582926 kJ/mol
# GULP energy per Si atom -5582.486966 kJ/mol
# Density = 1.815008 g / cm^3
# Si number density = 18.191481 Si / 1000 Ang^3
#
#
#
# Elastic Constant Matrix: (Units=GPa)
#
#
# Indices 1 2 3 4 5 6 
#
# 1 137.9748 62.8727 45.4792 0.0000 26.4710 0.0000
# 2 62.8727 56.8341 36.8472 0.0000 16.2067 0.0000
# 3 45.4792 36.8472 71.4387 0.0000 28.6886 0.0000
# 4 0.0000 0.0000 0.0000 28.5082 0.0000 -0.4963
# 5 26.4710 16.2067 28.6886 0.0000 23.6337 0.0000
# 6 0.0000 0.0000 0.0000 -0.4963 0.0000 38.6111
#
#
#
# Elastic Compliance Matrix: (Units=1/GPa)
#
#
# Indices 1 2 3 4 5 6 
#
# 1 0.015579 -0.015908 0.001783 0.000000 -0.008705 0.000000
# 2 -0.015908 0.042794 -0.014274 0.000000 0.005799 0.000000
# 3 0.001783 -0.014274 0.033357 0.000000 -0.032700 0.000000
# 4 0.000000 0.000000 0.000000 0.035085 0.000000 0.000451
# 5 -0.008705 0.005799 -0.032700 0.000000 0.087780 0.000000
# 6 0.000000 0.000000 0.000000 0.000451 0.000000 0.025905
#
#
# Mechanical properties :
#
#
# Convention : Reuss Voigt Hill
#
# Bulk Modulus (GPa) = 28.62710 61.84952 45.23831
# Shear Modulus (GPa) = 16.18421 26.22051 21.20236
#
# Velocity S-wave (km/s) = 2.98595 3.80065 3.41766
# Velocity P-wave (km/s) = 5.25914 7.30294 6.36362
#
# Compressibility (1/GPa) = 0.03493194
#
# Stress axis : x y z
#
# Youngs Moduli (GPa) = 64.18880 23.36783 29.97840
#
# Poissons Ratio (x) = 0.37173 -0.05345
# Poissons Ratio (y) = 1.02111 0.42792
# Poissons Ratio (z) = -0.11445 0.33356
#
# Static dielectric constant tensor:
#      x y z
#    x 1.620360 0.000000 0.025250 
#    y 0.000000 1.607450 0.000000 
#    z 0.025250 0.000000 1.620950 
# 
# From -- ./inp_files/378442.got.cif
#   From: 2010.05.17/outbox.cif.g08.bks.cpg/sg12_190_cif.got.tgz:378442.got - 2010.06.03 13:09:07.
