data_PCOD9194790
_publ_section_title
;
Structure prediction by ZEFSAII (Michael W. Deem and Ramdas Pophale) SiO2 
 PCOD9194790
Probable space group: C 2/M
;
_chemical_formula_sum "Si O2"
_cell_formula_units_Z 64
_cell_length_a 21.115002
_cell_length_b 8.720171
_cell_length_c 20.721408
_cell_angle_alpha 90.000000
_cell_angle_beta 66.730128
_cell_angle_gamma 90.000000
_cell_volume 3504.995595
_symmetry_space_group_name_H-M "C 2/M"
_symmetry_group_IT_number 12
_symmetry_cell_setting 'monoclinic'
loop_
_space_group_symop_operation_xyz
x,y,z
-x,y,-z
-x,-y,-z
x,-y,z
1/2+x,1/2+y,z
1/2-x,1/2+y,-z
1/2-x,1/2-y,-z
1/2+x,1/2-y,z
loop_
_atom_site_type_symbol
_atom_site_label
_atom_site_fract_x
_atom_site_fract_y
_atom_site_fract_z
Si Si1 0.579481 0.185229 0.463501
Si Si2 0.352050 0.816585 0.919882
Si Si3 0.641051 0.685021 0.307216
Si Si4 0.392938 0.814557 0.292655
Si Si5 0.953774 0.183841 0.775605
Si Si6 0.700047 0.316696 0.929584
Si Si7 0.174794 0.685143 0.544887
Si Si8 0.202499 0.314831 0.789174
O O1 0.500000 0.235705 0.500000
O O2 0.614883 0.248523 0.385054
O O3 0.622123 0.232545 0.509626
O O4 0.580010 0.000000 0.460530
O O5 0.414034 0.746333 0.854153
O O6 0.279551 0.773054 0.914324
O O7 0.356927 0.000000 0.918409
O O8 0.345756 0.754530 0.995031
O O9 0.640171 0.500000 0.311299
O O10 0.590582 0.732607 0.269334
O O11 0.719341 0.732426 0.259980
O O12 0.469239 0.746993 0.259815
O O13 0.353858 0.766466 0.373818
O O14 0.348651 0.769827 0.247825
O O15 0.397557 0.000000 0.291621
O O16 0.954533 0.000000 0.777077
O O17 0.695222 0.500000 0.933732
O O18 0.682941 0.255247 0.865825
O O19 0.178456 0.500000 0.543395
O O20 0.250000 0.750000 0.500000
O O21 0.201816 0.500000 0.794640
#
# Coordination Sequence:
#
# PCOD9194790 Si02
#       8
#     8   8   8   8   8   8   8   8
#     4  10  21  36  55  80 109 143 184 233 283 333
#     4  10  20  35  58  86 117 153 188 226 278 338
#     4  10  21  36  57  83 110 144 186 232 283 335
#     4  10  22  39  59  81 113 155 192 230 284 345
#     4  11  22  37  58  85 117 150 188 237 286 335
#     4  10  20  34  57  88 118 148 186 234 280 325
#     4  10  21  38  59  82 110 148 191 235 284 339
#     4  10  20  37  58  82 113 149 188 232 279 335
#
# _framework density 18.259653
#
# number of rings (size 3 to 8) (size 9 to 14) (size 15 to 20)
#    0.000    1.875    1.250    2.625    0.000    6.250 
#    0.000    0.625    0.000    3.750    0.000    0.000 
#    0.000    0.000    0.000    0.000    0.000    0.000 
#
# Total GULP energy -178783.326496 kJ/mol
# GULP energy per Si atom -5586.978953 kJ/mol
# Density = 1.821809 g / cm^3
# Si number density = 18.259653 Si / 1000 Ang^3
#
#
#
# Elastic Constant Matrix: (Units=GPa)
#
#
# Indices 1 2 3 4 5 6 
#
# 1 152.4188 37.5027 91.1103 0.0000 11.8075 0.0000
# 2 37.5027 18.6519 39.9759 0.0000 3.6283 -0.0001
# 3 91.1103 39.9759 183.8979 0.0000 16.7358 0.0000
# 4 0.0000 0.0000 0.0000 37.7054 0.0000 -1.6339
# 5 11.8075 3.6283 16.7358 0.0000 27.7679 0.0000
# 6 0.0000 -0.0001 0.0000 -1.6339 0.0000 27.5078
#
#
#
# Elastic Compliance Matrix: (Units=1/GPa)
#
#
# Indices 1 2 3 4 5 6 
#
# 1 0.013269 -0.023573 -0.001287 0.000000 -0.001786 0.000000
# 2 -0.023573 0.142263 -0.019538 0.000000 0.003211 0.000000
# 3 -0.001287 -0.019538 0.010623 0.000000 -0.003302 0.000000
# 4 0.000000 0.000000 0.000000 0.026590 0.000000 0.001579
# 5 -0.001786 0.003211 -0.003302 0.000000 0.038343 0.000000
# 6 0.000000 0.000000 0.000000 0.001579 0.000000 0.036447
#
#
# Mechanical properties :
#
#
# Convention : Reuss Voigt Hill
#
# Bulk Modulus (GPa) = 12.92695 76.90516 44.91605
# Shear Modulus (GPa) = 13.08496 31.02152 22.05324
#
# Velocity S-wave (km/s) = 2.67985 4.12626 3.47905
# Velocity P-wave (km/s) = 4.08294 8.05669 6.38673
#
# Compressibility (1/GPa) = 0.07735779
#
# Stress axis : x y z
#
# Youngs Moduli (GPa) = 75.36496 7.02924 94.13394
#
# Poissons Ratio (x) = 0.16570 0.12114
# Poissons Ratio (y) = 1.77661 1.83921
# Poissons Ratio (z) = 0.09699 0.13734
#
# Static dielectric constant tensor:
#      x y z
#    x 1.612840 0.000000 0.008280 
#    y 0.000000 1.618460 0.000000 
#    z 0.008280 0.000000 1.593720 
# 
# From -- ./inp_files/319846.got.cif
#   From: 2010.05.17/outbox.cif.g08.bks.cpg/sg12_160_cif.got.tgz:319846.got - 2010.06.03 13:09:07.
