data_PCOD9194912
_publ_section_title
;
Structure prediction by ZEFSAII (Michael W. Deem and Ramdas Pophale) SiO2 
 PCOD9194912
Probable space group: C 2/M
;
_chemical_formula_sum "Si O2"
_cell_formula_units_Z 64
_cell_length_a 8.203378
_cell_length_b 25.032414
_cell_length_c 19.416151
_cell_angle_alpha 90.000000
_cell_angle_beta 127.660720
_cell_angle_gamma 90.000000
_cell_volume 3156.368842
_symmetry_space_group_name_H-M "C 2/M"
_symmetry_group_IT_number 12
_symmetry_cell_setting 'monoclinic'
loop_
_space_group_symop_operation_xyz
x,y,z
-x,y,-z
-x,-y,-z
x,-y,z
1/2+x,1/2+y,z
1/2-x,1/2+y,-z
1/2-x,1/2-y,-z
1/2+x,1/2-y,z
loop_
_atom_site_type_symbol
_atom_site_label
_atom_site_fract_x
_atom_site_fract_y
_atom_site_fract_z
Si Si1 0.387761 0.563346 0.772017
Si Si2 0.645574 0.858209 0.794192
Si Si3 0.975873 0.786452 0.070542
Si Si4 0.191133 0.384592 0.586733
Si Si5 0.644802 0.187102 0.187424
Si Si6 0.269541 0.130226 0.927012
Si Si7 0.419800 0.805785 0.611629
Si Si8 0.468930 0.688397 0.394776
O O1 0.393910 0.500000 0.772530
O O2 0.203875 0.587560 0.771470
O O3 0.328776 0.585293 0.680188
O O4 0.596261 0.586641 0.861701
O O5 0.493369 0.860898 0.818483
O O6 0.548244 0.816574 0.714632
O O7 0.847272 0.829367 0.871853
O O8 0.781916 0.826207 0.026890
O O9 0.012911 0.740374 0.136848
O O10 0.000000 0.764302 0.000000
O O11 0.355585 0.355732 0.577834
O O12 0.000000 0.415935 0.500000
O O13 0.050600 0.341348 0.591623
O O14 0.740236 0.168648 0.141447
O O15 0.819860 0.192597 0.289506
O O16 0.500000 0.109349 0.000000
O O17 0.430141 0.746705 0.584030
O O18 0.188549 0.818719 0.580788
#
# Coordination Sequence:
#
# PCOD9194912 Si02
#       8
#     8   8   8   8   8   8   8   8
#     4  10  23  46  68  85 110 151 206 268 325 371
#     4   9  20  34  56  83 115 158 203 248 297 355
#     4  11  21  32  52  89 133 167 202 233 285 356
#     4  11  24  42  64  93 124 160 206 256 316 379
#     4  11  20  33  57  88 127 169 200 238 290 359
#     4  11  23  37  59  90 124 161 204 247 298 360
#     4  10  20  34  58  88 128 172 203 241 289 369
#     4  11  20  35  59  89 131 175 210 240 293 363
#
# _framework density 20.276464000000001
#
# number of rings (size 3 to 8) (size 9 to 14) (size 15 to 20)
#    0.000    1.500    3.750    1.875    1.750    3.000 
#    0.000    0.625    0.000   12.750    0.000    3.500 
#    0.000    0.000    0.000    0.000    0.000    0.000 
#
# Total GULP energy -178245.681342 kJ/mol
# GULP energy per Si atom -5570.177542 kJ/mol
# Density = 2.023031 g / cm^3
# Si number density = 20.276464 Si / 1000 Ang^3
#
#
#
# Elastic Constant Matrix: (Units=GPa)
#
#
# Indices 1 2 3 4 5 6 
#
# 1 110.9509 42.8859 32.2439 0.0000 1.8908 0.0000
# 2 42.8859 99.0868 25.3891 0.0000 11.3750 0.0000
# 3 32.2439 25.3891 91.3266 0.0000 22.0276 0.0000
# 4 0.0000 0.0000 0.0000 1.3350 0.0000 -0.6022
# 5 1.8908 11.3750 22.0276 0.0000 36.7902 0.0000
# 6 0.0000 0.0000 0.0000 -0.6022 0.0000 10.3728
#
#
#
# Elastic Compliance Matrix: (Units=1/GPa)
#
#
# Indices 1 2 3 4 5 6 
#
# 1 0.011751 -0.004500 -0.003609 0.000000 0.002948 0.000000
# 2 -0.004500 0.012694 -0.001227 0.000000 -0.002959 0.000000
# 3 -0.003609 -0.001227 0.014526 0.000000 -0.008133 0.000000
# 4 0.000000 0.000000 0.000000 0.769214 0.000000 0.044655
# 5 0.002948 -0.002959 -0.008133 0.000000 0.032814 0.000000
# 6 0.000000 0.000000 0.000000 0.044655 0.000000 0.098998
#
#
# Mechanical properties :
#
#
# Convention : Reuss Voigt Hill
#
# Bulk Modulus (GPa) = 49.25915 55.82247 52.54081
# Shear Modulus (GPa) = 5.17902 23.08929 14.13415
#
# Velocity S-wave (km/s) = 1.59992 3.37816 2.64308
# Velocity P-wave (km/s) = 5.26873 6.54266 5.93994
#
# Compressibility (1/GPa) = 0.02030080
#
# Stress axis : x y z
#
# Youngs Moduli (GPa) = 85.10068 78.77984 68.84003
#
# Poissons Ratio (x) = 0.35448 0.24844
# Poissons Ratio (y) = 0.38292 0.08443
# Poissons Ratio (z) = 0.30712 0.09662
#
# Static dielectric constant tensor:
#      x y z
#    x 1.809070 0.000000 0.017930 
#    y 0.000000 1.659980 0.000000 
#    z 0.017930 0.000000 1.832500 
# 
# From -- ./inp_files/302359.got.cif
#   From: 2010.05.17/outbox.cif.g08.bks.cpg/sg12_152_cif.got.tgz:302359.got - 2010.06.03 13:09:07.
