data_PCOD9194801
_publ_section_title
;
Structure prediction by ZEFSAII (Michael W. Deem and Ramdas Pophale) SiO2 
 PCOD9194801
Probable space group: C 2/M
;
_chemical_formula_sum "Si O2"
_cell_formula_units_Z 48
_cell_length_a 11.349642
_cell_length_b 20.454559
_cell_length_c 11.020806
_cell_angle_alpha 90.000000
_cell_angle_beta 65.123345
_cell_angle_gamma 90.000000
_cell_volume 2321.112002
_symmetry_space_group_name_H-M "C 2/M"
_symmetry_group_IT_number 12
_symmetry_cell_setting 'monoclinic'
loop_
_space_group_symop_operation_xyz
x,y,z
-x,y,-z
-x,-y,-z
x,-y,z
1/2+x,1/2+y,z
1/2-x,1/2+y,-z
1/2-x,1/2-y,-z
1/2+x,1/2-y,z
loop_
_atom_site_type_symbol
_atom_site_label
_atom_site_fract_x
_atom_site_fract_y
_atom_site_fract_z
Si Si1 0.742984 0.342487 0.900194
Si Si2 0.634905 0.929061 0.515082
Si Si3 0.310820 0.195044 0.126504
Si Si4 0.389932 0.574911 0.236457
Si Si5 0.030661 0.682892 0.715251
Si Si6 0.529960 0.324031 0.347990
O O1 0.679635 0.270400 0.920229
O O2 0.650066 0.393724 0.875030
O O3 0.880617 0.338750 0.770027
O O4 0.781441 0.350444 0.023854
O O5 0.500000 0.928861 0.500000
O O6 0.757254 0.924788 0.373510
O O7 0.623585 0.867337 0.606799
O O8 0.643109 0.000000 0.575694
O O9 0.431660 0.181613 0.160024
O O10 0.182138 0.189710 0.264776
O O11 0.434125 0.500000 0.206161
O O12 0.485810 0.621164 0.271100
O O13 0.040815 0.755954 0.657910
O O14 0.500000 0.341546 0.500000
#
# Coordination Sequence:
#
# PCOD9194801 Si02
#       6
#     8   8   8   8   8   8
#     4  10  21  38  59  88 118 159 202 246 300 353
#     4  10  20  34  57  88 120 154 191 240 300 353
#     4  10  22  38  59  87 123 154 199 252 301 355
#     4  11  23  41  62  87 125 164 204 246 296 363
#     4  11  20  36  64  90 121 155 197 257 300 357
#     4  11  24  38  60  91 122 158 204 251 301 358
#
# _framework density 20.679742000000001
#
# number of rings (size 3 to 8) (size 9 to 14) (size 15 to 20)
#    0.000    1.500    3.333    2.000    2.333    2.333 
#    0.000    3.333    0.000    2.000    0.000    0.000 
#    0.000    0.000    0.000    0.000    0.000    0.000 
#
# Total GULP energy -134078.671562 kJ/mol
# GULP energy per Si atom -5586.611315 kJ/mol
# Density = 2.063267 g / cm^3
# Si number density = 20.679742 Si / 1000 Ang^3
#
#
#
# Elastic Constant Matrix: (Units=GPa)
#
#
# Indices 1 2 3 4 5 6 
#
# 1 76.3711 36.8197 7.1880 0.0000 20.5243 0.0000
# 2 36.8197 128.8543 25.7712 0.0000 25.4697 0.0000
# 3 7.1880 25.7712 44.3686 0.0000 19.3076 0.0000
# 4 0.0000 0.0000 0.0000 26.2225 0.0000 3.6624
# 5 20.5243 25.4697 19.3076 0.0000 42.0804 0.0000
# 6 0.0000 0.0000 0.0000 3.6624 0.0000 20.7867
#
#
#
# Elastic Compliance Matrix: (Units=1/GPa)
#
#
# Indices 1 2 3 4 5 6 
#
# 1 0.016585 -0.003888 0.002583 0.000000 -0.006921 0.000000
# 2 -0.003888 0.010183 -0.004283 0.000000 -0.002302 0.000000
# 3 0.002583 -0.004283 0.030022 0.000000 -0.012443 0.000000
# 4 0.000000 0.000000 0.000000 0.039097 0.000000 -0.006889
# 5 -0.006921 -0.002302 -0.012443 0.000000 0.034242 0.000000
# 6 0.000000 0.000000 0.000000 -0.006889 0.000000 0.049321
#
#
# Mechanical properties :
#
#
# Convention : Reuss Voigt Hill
#
# Bulk Modulus (GPa) = 21.92241 43.23908 32.58074
# Shear Modulus (GPa) = 24.29156 29.80557 27.04857
#
# Velocity S-wave (km/s) = 3.43104 3.80056 3.62052
# Velocity P-wave (km/s) = 5.13030 6.34139 5.76772
#
# Compressibility (1/GPa) = 0.04561542
#
# Stress axis : x y z
#
# Youngs Moduli (GPa) = 60.29441 98.19984 33.30844
#
# Poissons Ratio (x) = 0.38177 -0.08604
# Poissons Ratio (y) = 0.23441 0.14267
# Poissons Ratio (z) = -0.15575 0.42062
#
# Static dielectric constant tensor:
#      x y z
#    x 1.738630 0.000000 -0.002980 
#    y 0.000000 1.726860 0.000000 
#    z -0.002980 0.000000 1.769550 
# 
# From -- ./inp_files/131035.got.cif
#   From: 2010.05.17/outbox.cif.g08.bks.cpg/sg12_66_cif.got.tgz:131035.got - 2010.06.03 13:09:07.
