data_PCOD9194933
_publ_section_title
;
Structure prediction by ZEFSAII (Michael W. Deem and Ramdas Pophale) SiO2 
 PCOD9194933
Probable space group: C 2/M
;
_chemical_formula_sum "Si O2"
_cell_formula_units_Z 36
_cell_length_a 8.945539
_cell_length_b 14.112280
_cell_length_c 11.999486
_cell_angle_alpha 90.000000
_cell_angle_beta 104.011930
_cell_angle_gamma 90.000000
_cell_volume 1469.765009
_symmetry_space_group_name_H-M "C 2/M"
_symmetry_group_IT_number 12
_symmetry_cell_setting 'monoclinic'
loop_
_space_group_symop_operation_xyz
x,y,z
-x,y,-z
-x,-y,-z
x,-y,z
1/2+x,1/2+y,z
1/2-x,1/2+y,-z
1/2-x,1/2-y,-z
1/2+x,1/2-y,z
loop_
_atom_site_type_symbol
_atom_site_label
_atom_site_fract_x
_atom_site_fract_y
_atom_site_fract_z
Si Si1 0.949698 0.816679 0.617534
Si Si2 0.500000 0.793832 0.000000
Si Si3 0.577326 0.898898 0.392014
Si Si4 0.246535 0.099210 0.242613
Si Si5 0.792047 0.205170 0.152266
O O1 0.873017 0.710751 0.611524
O O2 0.099121 0.825511 0.725621
O O3 0.000000 0.833429 0.500000
O O4 0.825060 0.887147 0.647184
O O5 0.639825 0.851454 0.085823
O O6 0.405101 0.731100 0.071784
O O7 0.500000 0.901204 0.500000
O O8 0.430307 0.902944 0.284043
O O9 0.664443 0.000000 0.392863
O O10 0.214994 0.194988 0.173568
O O11 0.189010 0.000000 0.184600
#
# Coordination Sequence:
#
# PCOD9194933 Si02
#       5
#     8   4   8   8   8
#     4  10  20  34  58  90 124 158 203 240 302 362
#     4  10  20  38  66  86 116 152 212 248 306 356
#     4   8  16  30  50  77 112 152 192 238 292 352
#     4  10  20  36  55  84 122 163 204 243 299 360
#     4  10  20  38  63  91 115 156 201 255 302 362
#
# _framework density 24.493711999999999
#
# number of rings (size 3 to 8) (size 9 to 14) (size 15 to 20)
#    0.000    2.444    2.222    0.000    0.000    8.444 
#    0.000    1.111    0.000    6.667    0.000    0.000 
#    0.000    0.000    0.000    0.000    0.000    0.000 
#
# Total GULP energy -100299.191915 kJ/mol
# GULP energy per Si atom -5572.177329 kJ/mol
# Density = 2.443796 g / cm^3
# Si number density = 24.493712 Si / 1000 Ang^3
#
#
#
# Elastic Constant Matrix: (Units=GPa)
#
#
# Indices 1 2 3 4 5 6 
#
# 1 114.6376 1.1708 49.6866 0.0000 4.4488 0.0000
# 2 1.1708 72.3104 -9.3599 0.0000 2.7369 0.0000
# 3 49.6866 -9.3599 126.5011 0.0000 3.3117 0.0000
# 4 0.0000 0.0000 0.0000 -4.9062 0.0000 0.9298
# 5 4.4488 2.7369 3.3117 0.0000 55.6127 0.0000
# 6 0.0000 0.0000 0.0000 0.9298 0.0000 10.6074
#
#
#
# Elastic Compliance Matrix: (Units=1/GPa)
#
#
# Indices 1 2 3 4 5 6 
#
# 1 0.010567 -0.000692 -0.004187 0.000000 -0.000562 0.000000
# 2 -0.000692 0.014040 0.001329 0.000000 -0.000715 0.000000
# 3 -0.004187 0.001329 0.009656 0.000000 -0.000305 0.000000
# 4 0.000000 0.000000 0.000000 -0.200494 0.000000 0.017575
# 5 -0.000562 -0.000715 -0.000305 0.000000 0.018080 0.000000
# 6 0.000000 0.000000 0.000000 0.017575 0.000000 0.092733
#
#
# Mechanical properties :
#
#
# Convention : Reuss Voigt Hill
#
# Bulk Modulus (GPa) = 36.81417 44.04933 40.43175
# Shear Modulus (GPa) = -127.33738 30.39290 -48.47224
#
# Velocity S-wave (km/s) = -7.21808 3.52638 -4.45338
# Velocity P-wave (km/s) = 7.37596 5.88247 3.14653
#
# Compressibility (1/GPa) = 0.02716345
#
# Stress axis : x y z
#
# Youngs Moduli (GPa) = 94.63716 71.22718 103.56366
#
# Poissons Ratio (x) = 0.04927 0.43360
# Poissons Ratio (y) = 0.06547 -0.13766
# Poissons Ratio (z) = 0.39623 -0.09468
#
# Static dielectric constant tensor:
#      x y z
#    x 1.986200 0.000000 0.063350 
#    y 0.000000 2.018170 0.000000 
#    z 0.063350 0.000000 2.060300 
# 
# From -- ./inp_files/194190.got.cif
#   From: 2010.05.17/outbox.cif.g08.bks.cpg/sg12_98_cif.got.tgz:194190.got - 2010.06.03 13:09:07.
