data_PCOD9194510
_publ_section_title
;
Structure prediction by ZEFSAII (Michael W. Deem and Ramdas Pophale) SiO2 
 PCOD9194510
Probable space group: C 2/M
;
_chemical_formula_sum "Si O2"
_cell_formula_units_Z 56
_cell_length_a 20.981173
_cell_length_b 8.053657
_cell_length_c 29.781769
_cell_angle_alpha 90.000000
_cell_angle_beta 149.520039
_cell_angle_gamma 90.000000
_cell_volume 2552.608982
_symmetry_space_group_name_H-M "C 2/M"
_symmetry_group_IT_number 12
_symmetry_cell_setting 'monoclinic'
loop_
_space_group_symop_operation_xyz
x,y,z
-x,y,-z
-x,-y,-z
x,-y,z
1/2+x,1/2+y,z
1/2-x,1/2+y,-z
1/2-x,1/2-y,-z
1/2+x,1/2-y,z
loop_
_atom_site_type_symbol
_atom_site_label
_atom_site_fract_x
_atom_site_fract_y
_atom_site_fract_z
Si Si1 0.807499 0.307503 0.462320
Si Si2 0.649476 0.302853 0.205551
Si Si3 0.925130 0.298948 0.619921
Si Si4 0.863197 0.189168 0.403896
Si Si5 0.893244 0.698671 0.099545
Si Si6 0.638103 0.703304 0.097406
Si Si7 0.869425 0.701687 0.184665
O O1 0.821326 0.500000 0.457851
O O2 0.920363 0.255401 0.564391
O O3 0.687528 0.285566 0.421315
O O4 0.793958 0.200208 0.409885
O O5 0.645727 0.500000 0.200398
O O6 0.767051 0.259805 0.309026
O O7 0.512594 0.251749 0.142011
O O8 0.668627 0.238702 0.166340
O O9 0.908430 0.500000 0.611408
O O10 0.046490 0.253272 0.721647
O O11 0.000000 0.267112 0.500000
O O12 0.888050 0.000000 0.405699
O O13 0.894369 0.500000 0.100242
O O14 0.914135 0.761963 0.163425
O O15 0.750000 0.750000 0.000000
O O16 0.643116 0.500000 0.100965
O O17 0.731555 0.757516 0.114890
O O18 0.500000 0.754524 0.000000
O O19 0.871544 0.500000 0.183511
#
# Coordination Sequence:
#
# PCOD9194510 Si02
#       7
#     8   8   8   8   8   8   8
#     4  10  20  34  56  84 114 147 193 248 296 353
#     4  11  23  39  65  95 124 159 204 260 315 373
#     4   9  18  33  56  83 113 149 188 240 305 360
#     4  11  25  42  59  81 119 168 210 251 307 372
#     4  11  22  38  63  91 125 163 204 252 305 371
#     4   9  18  34  58  88 119 151 193 244 300 364
#     4   9  18  33  56  83 110 148 196 242 293 351
#
# _framework density 21.938338999999999
#
# number of rings (size 3 to 8) (size 9 to 14) (size 15 to 20)
#    0.000    2.000    0.000    3.429    2.000    5.143 
#    0.000    0.714    0.000    9.429    0.000    0.000 
#    0.000    0.000    0.000    0.000    0.000    0.000 
#
# Total GULP energy -156226.897204 kJ/mol
# GULP energy per Si atom -5579.532043 kJ/mol
# Density = 2.188841 g / cm^3
# Si number density = 21.938339 Si / 1000 Ang^3
#
#
#
# Elastic Constant Matrix: (Units=GPa)
#
#
# Indices 1 2 3 4 5 6 
#
# 1 60.7385 -0.0827 -7.1239 0.0000 -9.5153 0.0006
# 2 -0.0827 32.3365 7.0296 -0.0002 -1.6639 0.0020
# 3 -7.1239 7.0296 68.3194 0.0002 -6.9322 0.0000
# 4 0.0000 -0.0002 0.0002 22.6061 0.0000 5.9483
# 5 -9.5153 -1.6639 -6.9322 0.0000 38.0804 0.0000
# 6 0.0006 0.0020 0.0000 5.9483 0.0000 11.9441
#
#
#
# Elastic Compliance Matrix: (Units=1/GPa)
#
#
# Indices 1 2 3 4 5 6 
#
# 1 0.017487 -0.000216 0.002331 0.000000 0.004784 -0.000001
# 2 -0.000216 0.031659 -0.003204 0.000002 0.000746 -0.000006
# 3 0.002331 -0.003204 0.015542 0.000000 0.003272 0.000001
# 4 0.000000 0.000002 0.000000 0.050907 0.000000 -0.025352
# 5 0.004784 0.000746 0.003272 0.000000 0.028084 0.000000
# 6 -0.000001 -0.000006 0.000001 -0.025352 0.000000 0.096349
#
#
# Mechanical properties :
#
#
# Convention : Reuss Voigt Hill
#
# Bulk Modulus (GPa) = 15.99757 17.89339 16.94548
# Shear Modulus (GPa) = 19.00838 25.29757 22.15298
#
# Velocity S-wave (km/s) = 2.94674 3.39945 3.18116
# Velocity P-wave (km/s) = 4.34575 4.85616 4.60803
#
# Compressibility (1/GPa) = 0.06250948
#
# Stress axis : x y z
#
# Youngs Moduli (GPa) = 57.18650 31.58639 64.34228
#
# Poissons Ratio (x) = 0.00682 -0.14999
# Poissons Ratio (y) = 0.01234 0.20617
# Poissons Ratio (z) = -0.13331 0.10121
#
# Static dielectric constant tensor:
#      x y z
#    x 1.817540 0.000000 0.011140 
#    y 0.000000 1.785580 0.000000 
#    z 0.011140 0.000000 1.879850 
# 
# From -- ./inp_files/380818.got.cif
#   From: 2010.05.17/outbox.cif.g08.bks.cpg/sg12_191_cif.got.tgz:380818.got - 2010.06.03 13:09:07.
