data_PCOD9194636
_publ_section_title
;
Structure prediction by ZEFSAII (Michael W. Deem and Ramdas Pophale) SiO2 
 PCOD9194636
Probable space group: C 2/M
;
_chemical_formula_sum "Si O2"
_cell_formula_units_Z 44
_cell_length_a 13.906860
_cell_length_b 16.608360
_cell_length_c 8.826404
_cell_angle_alpha 90.000000
_cell_angle_beta 105.134443
_cell_angle_gamma 90.000000
_cell_volume 1967.927408
_symmetry_space_group_name_H-M "C 2/M"
_symmetry_group_IT_number 12
_symmetry_cell_setting 'monoclinic'
loop_
_space_group_symop_operation_xyz
x,y,z
-x,y,-z
-x,-y,-z
x,-y,z
1/2+x,1/2+y,z
1/2-x,1/2+y,-z
1/2-x,1/2-y,-z
1/2+x,1/2-y,z
loop_
_atom_site_type_symbol
_atom_site_label
_atom_site_fract_x
_atom_site_fract_y
_atom_site_fract_z
Si Si1 0.724617 0.337400 0.060391
Si Si2 0.261312 0.731592 0.330092
Si Si3 0.738536 0.000000 0.078388
Si Si4 0.953711 0.327523 0.812109
Si Si5 0.476589 0.500000 0.171723
Si Si6 0.053550 0.834019 0.770003
Si Si7 0.950162 0.500000 0.812105
O O1 0.752834 0.318204 0.242753
O O2 0.777965 0.417554 0.022703
O O3 0.750000 0.250000 0.000000
O O4 0.610710 0.344129 0.956845
O O5 0.250000 0.750000 0.500000
O O6 0.164622 0.682680 0.234965
O O7 0.358427 0.681807 0.315722
O O8 0.856994 0.000000 0.155961
O O9 0.667137 0.000000 0.193247
O O10 0.977736 0.414648 0.751593
O O11 0.993712 0.248553 0.746019
O O12 0.000000 0.325928 0.000000
O O13 0.509467 0.416050 0.263052
O O14 0.500000 0.500000 0.000000
O O15 0.000000 0.500000 0.000000
#
# Coordination Sequence:
#
# PCOD9194636 Si02
#       7
#     8   8   4   8   4   8   4
#     4   9  18  35  61  85 115 156 200 252 306 356
#     4  11  24  40  62  89 124 171 210 252 320 374
#     4  10  20  34  56  88 126 150 203 256 306 367
#     4  11  21  38  65  93 122 162 210 259 311 370
#     4  10  20  34  61 100 118 154 208 268 321 364
#     4  10  21  38  65  90 126 158 210 263 307 371
#     4  10  22  32  59 100 120 156 206 257 309 362
#
# _framework density 22.358547000000002
#
# number of rings (size 3 to 8) (size 9 to 14) (size 15 to 20)
#    0.000    1.818    1.818    3.818   10.182    0.727 
#    0.000    1.818    0.000    2.182    0.000    0.000 
#    0.000    0.000    0.000    0.000    0.000    0.000 
#
# Total GULP energy -122654.783964 kJ/mol
# GULP energy per Si atom -5575.217453 kJ/mol
# Density = 2.230766 g / cm^3
# Si number density = 22.358547 Si / 1000 Ang^3
#
#
#
# Elastic Constant Matrix: (Units=GPa)
#
#
# Indices 1 2 3 4 5 6 
#
# 1 80.0185 43.9033 6.5861 0.0000 -14.9987 0.0000
# 2 43.9033 237.5722 32.8714 0.0000 -16.8222 0.0000
# 3 6.5861 32.8714 76.8885 0.0000 -23.2125 0.0000
# 4 0.0000 0.0000 0.0000 8.9998 0.0000 -8.1359
# 5 -14.9987 -16.8222 -23.2125 0.0000 17.2955 0.0000
# 6 0.0000 0.0000 0.0000 -8.1359 0.0000 32.6931
#
#
#
# Elastic Compliance Matrix: (Units=1/GPa)
#
#
# Indices 1 2 3 4 5 6 
#
# 1 0.017177 -0.002540 0.005659 0.000000 0.020021 0.000000
# 2 -0.002540 0.004944 -0.001865 0.000000 0.000103 0.000000
# 3 0.005659 -0.001865 0.023961 0.000000 0.035251 0.000000
# 4 0.000000 0.000000 0.000000 0.143367 0.000000 0.035678
# 5 0.020021 0.000103 0.035251 0.000000 0.122592 0.000000
# 6 0.000000 0.000000 0.000000 0.035678 0.000000 0.039466
#
#
# Mechanical properties :
#
#
# Convention : Reuss Voigt Hill
#
# Bulk Modulus (GPa) = 20.58032 62.35564 41.46798
# Shear Modulus (GPa) = 13.69126 32.53890 23.11508
#
# Velocity S-wave (km/s) = 2.47726 3.81901 3.21882
# Velocity P-wave (km/s) = 4.17218 6.88447 5.69223
#
# Compressibility (1/GPa) = 0.04859010
#
# Stress axis : x y z
#
# Youngs Moduli (GPa) = 58.21569 202.26814 41.73498
#
# Poissons Ratio (x) = 0.51370 -0.23616
# Poissons Ratio (y) = 0.14785 0.07783
# Poissons Ratio (z) = -0.32942 0.37721
#
# Static dielectric constant tensor:
#      x y z
#    x 1.563820 0.000000 0.062760 
#    y 0.000000 1.969770 0.000000 
#    z 0.062760 0.000000 1.883540 
# 
# From -- ./inp_files/61257.got.cif
#   From: 2010.05.17/outbox.cif.g08.bks.cpg/sg12_31_cif.got.tgz:61257.got - 2010.06.03 13:09:07.
