data_PCOD9194711
_publ_section_title
;
Structure prediction by ZEFSAII (Michael W. Deem and Ramdas Pophale) SiO2 
 PCOD9194711
Probable space group: C 2/M
;
_chemical_formula_sum "Si O2"
_cell_formula_units_Z 64
_cell_length_a 32.632179
_cell_length_b 7.546229
_cell_length_c 11.030790
_cell_angle_alpha 90.000000
_cell_angle_beta 94.064153
_cell_angle_gamma 90.000000
_cell_volume 2709.500182
_symmetry_space_group_name_H-M "C 2/M"
_symmetry_group_IT_number 12
_symmetry_cell_setting 'monoclinic'
loop_
_space_group_symop_operation_xyz
x,y,z
-x,y,-z
-x,-y,-z
x,-y,z
1/2+x,1/2+y,z
1/2-x,1/2+y,-z
1/2-x,1/2-y,-z
1/2+x,1/2-y,z
loop_
_atom_site_type_symbol
_atom_site_label
_atom_site_fract_x
_atom_site_fract_y
_atom_site_fract_z
Si Si1 0.109180 0.288814 0.673918
Si Si2 0.262970 0.703117 0.175946
Si Si3 0.156945 0.789752 0.931888
Si Si4 0.016432 0.796765 0.128252
Si Si5 0.016058 0.204064 0.628375
Si Si6 0.691713 0.786030 0.568271
Si Si7 0.688433 0.217984 0.298671
Si Si8 0.391122 0.202565 0.839166
O O1 0.103870 0.500000 0.671635
O O2 0.128747 0.237685 0.807276
O O3 0.065152 0.206029 0.642079
O O4 0.143927 0.243494 0.582790
O O5 0.257045 0.500000 0.136840
O O6 0.297445 0.780995 0.093914
O O7 0.283928 0.705015 0.314077
O O8 0.218694 0.782710 0.198324
O O9 0.160085 0.000000 0.953494
O O10 0.134152 0.706009 0.040584
O O11 0.065628 0.797234 0.138976
O O12 0.000252 0.714377 0.249702
O O13 0.000527 0.000000 0.124669
O O14 0.000000 0.714098 0.000000
O O15 0.000000 0.286014 0.500000
O O16 0.000733 0.000000 0.625252
O O17 0.702971 0.727829 0.435395
O O18 0.696310 0.000000 0.577666
O O19 0.641903 0.274018 0.263739
O O20 0.689017 0.000000 0.295878
O O21 0.400805 0.000000 0.808917
#
# Coordination Sequence:
#
# PCOD9194711 Si02
#       8
#     8   8   8   8   8   8   8   8
#     4  10  20  34  57  85 111 144 187 231 279 336
#     4   9  18  34  56  80 107 147 192 229 273 329
#     4  10  20  36  57  80 110 146 188 234 279 330
#     4  10  22  41  62  82 110 151 194 237 287 343
#     4  10  22  38  57  84 118 153 188 235 292 344
#     4   9  18  33  54  80 113 148 183 228 280 329
#     4   9  19  35  53  78 115 150 181 227 283 331
#     4  11  23  37  58  84 112 146 186 231 283 339
#
# _framework density 23.620594000000001
#
# number of rings (size 3 to 8) (size 9 to 14) (size 15 to 20)
#    0.000    2.250    0.000    2.250    1.750    3.500 
#    0.000    2.500    0.000    0.000    0.000    0.000 
#    0.000    0.000    0.000    0.000    0.000    0.000 
#
# Total GULP energy -178835.230842 kJ/mol
# GULP energy per Si atom -5588.600964 kJ/mol
# Density = 2.356683 g / cm^3
# Si number density = 23.620594 Si / 1000 Ang^3
#
#
#
# Elastic Constant Matrix: (Units=GPa)
#
#
# Indices 1 2 3 4 5 6 
#
# 1 109.7144 0.9101 28.1694 0.0000 -1.7351 0.0000
# 2 0.9101 62.8660 6.4596 0.0000 -0.5251 0.0000
# 3 28.1694 6.4596 118.4837 0.0000 -4.1005 0.0000
# 4 0.0000 0.0000 0.0000 15.3961 0.0000 -42.1217
# 5 -1.7351 -0.5251 -4.1005 0.0000 33.0086 0.0000
# 6 0.0000 0.0000 0.0000 -42.1217 0.0000 140.0930
#
#
#
# Elastic Compliance Matrix: (Units=1/GPa)
#
#
# Indices 1 2 3 4 5 6 
#
# 1 0.009709 0.000098 -0.002306 0.000000 0.000225 0.000000
# 2 0.000098 0.015998 -0.000890 0.000000 0.000149 0.000000
# 3 -0.002306 -0.000890 0.009071 0.000000 0.000991 0.000000
# 4 0.000000 0.000000 0.000000 0.366108 0.000000 0.110078
# 5 0.000225 0.000149 0.000991 0.000000 0.030432 0.000000
# 6 0.000000 0.000000 0.000000 0.110078 0.000000 0.040235
#
#
# Mechanical properties :
#
#
# Convention : Reuss Voigt Hill
#
# Bulk Modulus (GPa) = 34.98651 40.23803 37.61227
# Shear Modulus (GPa) = 10.26108 54.73455 32.49782
#
# Velocity S-wave (km/s) = 2.08652 4.81899 3.71324
# Velocity P-wave (km/s) = 4.54409 6.93078 5.86023
#
# Compressibility (1/GPa) = 0.02858244
#
# Stress axis : x y z
#
# Youngs Moduli (GPa) = 102.99317 62.50717 110.24052
#
# Poissons Ratio (x) = -0.00614 0.25421
# Poissons Ratio (y) = -0.01012 0.09816
# Poissons Ratio (z) = 0.23750 0.05566
#
# Static dielectric constant tensor:
#      x y z
#    x 1.865250 0.000000 -0.005780 
#    y 0.000000 1.925830 0.000000 
#    z -0.005780 0.000000 1.912360 
# 
# From -- ./inp_files/187592.got.cif
#   From: 2010.05.17/outbox.cif.g08.bks.cpg/sg12_94_cif.got.tgz:187592.got - 2010.06.03 13:09:07.
