data_PCOD9194807
_publ_section_title
;
Structure prediction by ZEFSAII (Michael W. Deem and Ramdas Pophale) SiO2 
 PCOD9194807
Probable space group: C 2/M
;
_chemical_formula_sum "Si O2"
_cell_formula_units_Z 64
_cell_length_a 30.569957
_cell_length_b 8.901266
_cell_length_c 16.425412
_cell_angle_alpha 90.000000
_cell_angle_beta 46.979835
_cell_angle_gamma 90.000000
_cell_volume 3267.741996
_symmetry_space_group_name_H-M "C 2/M"
_symmetry_group_IT_number 12
_symmetry_cell_setting 'monoclinic'
loop_
_space_group_symop_operation_xyz
x,y,z
-x,y,-z
-x,-y,-z
x,-y,z
1/2+x,1/2+y,z
1/2-x,1/2+y,-z
1/2-x,1/2-y,-z
1/2+x,1/2-y,z
loop_
_atom_site_type_symbol
_atom_site_label
_atom_site_fract_x
_atom_site_fract_y
_atom_site_fract_z
Si Si1 0.463155 0.678561 0.905620
Si Si2 0.082785 0.676684 0.192271
Si Si3 0.969982 0.676965 0.452573
Si Si4 0.593621 0.821525 0.718185
Si Si5 0.128230 0.820644 0.839622
Si Si6 0.640277 0.678046 0.492586
Si Si7 0.741566 0.180074 0.258260
Si Si8 0.205530 0.680767 0.122533
O O1 0.473540 0.500000 0.892036
O O2 0.420959 0.724885 0.883851
O O3 0.525761 0.761987 0.813875
O O4 0.428931 0.718311 0.032168
O O5 0.088872 0.500000 0.162925
O O6 0.138022 0.717094 0.180475
O O7 0.020830 0.693812 0.319568
O O8 0.952873 0.500000 0.478586
O O9 0.912726 0.772437 0.501315
O O10 0.000000 0.717677 0.500000
O O11 0.627029 0.768124 0.757124
O O12 0.623512 0.750635 0.600388
O O13 0.593107 0.000000 0.710844
O O14 0.188764 0.791235 0.812814
O O15 0.125453 0.000000 0.826522
O O16 0.642512 0.500000 0.497693
O O17 0.701108 0.741681 0.377496
O O18 0.721671 0.230664 0.193354
O O19 0.732012 0.000000 0.275137
O O20 0.211433 0.500000 0.113649
O O21 0.250000 0.750000 0.000000
#
# Coordination Sequence:
#
# PCOD9194807 Si02
#       8
#     8   8   8   8   8   8   8   8
#     4  11  22  39  64  94 128 161 201 258 316 371
#     4  10  20  34  57  88 122 162 205 247 299 364
#     4  10  20  37  61  87 119 161 204 247 303 366
#     4  12  25  42  65  92 124 164 207 254 317 380
#     4  10  23  42  65  92 122 161 209 259 315 373
#     4  12  25  41  63  92 126 162 207 263 313 364
#     4  10  22  43  66  89 124 170 213 254 311 376
#     4  10  21  38  61  91 126 168 212 254 303 363
#
# _framework density 19.585391000000001
#
# number of rings (size 3 to 8) (size 9 to 14) (size 15 to 20)
#    0.000    1.375    1.250    4.500    0.000    7.750 
#    0.000    1.250    0.000    0.000    0.000    0.000 
#    0.000    0.000    0.000    0.000    0.000    0.000 
#
# Total GULP energy -178968.165150 kJ/mol
# GULP energy per Si atom -5592.755161 kJ/mol
# Density = 1.954081 g / cm^3
# Si number density = 19.585391 Si / 1000 Ang^3
#
#
#
# Elastic Constant Matrix: (Units=GPa)
#
#
# Indices 1 2 3 4 5 6 
#
# 1 71.5602 26.5939 18.8294 0.0000 8.8497 0.0000
# 2 26.5939 51.5035 37.9303 0.0002 2.5455 -0.0002
# 3 18.8294 37.9303 98.7934 0.0001 5.8821 0.0000
# 4 0.0000 0.0002 0.0001 32.2627 0.0000 1.7384
# 5 8.8497 2.5455 5.8821 0.0000 35.7508 0.0000
# 6 0.0000 -0.0002 0.0000 1.7384 0.0000 33.4082
#
#
#
# Elastic Compliance Matrix: (Units=1/GPa)
#
#
# Indices 1 2 3 4 5 6 
#
# 1 0.017794 -0.009298 0.000405 0.000000 -0.003809 0.000000
# 2 -0.009298 0.031931 -0.010593 0.000000 0.001771 0.000000
# 3 0.000405 -0.010593 0.014212 0.000000 -0.001684 0.000000
# 4 0.000000 0.000000 0.000000 0.031083 0.000000 -0.001617
# 5 -0.003809 0.001771 -0.001684 0.000000 0.029065 0.000000
# 6 0.000000 0.000000 0.000000 -0.001617 0.000000 0.030017
#
#
# Mechanical properties :
#
#
# Convention : Reuss Voigt Hill
#
# Bulk Modulus (GPa) = 40.05468 43.17384 41.61426
# Shear Modulus (GPa) = 24.82678 29.51791 27.17235
#
# Velocity S-wave (km/s) = 3.56422 3.88640 3.72879
# Velocity P-wave (km/s) = 6.11833 6.49850 6.31128
#
# Compressibility (1/GPa) = 0.02496587
#
# Stress axis : x y z
#
# Youngs Moduli (GPa) = 56.19807 31.31767 70.36268
#
# Poissons Ratio (x) = 0.29120 -0.02852
# Poissons Ratio (y) = 0.52254 0.74533
# Poissons Ratio (z) = -0.02278 0.33174
#
# Static dielectric constant tensor:
#      x y z
#    x 1.695470 0.000000 0.002050 
#    y 0.000000 1.656590 0.000000 
#    z 0.002050 0.000000 1.662970 
# 
# From -- ./inp_files/249869.got.cif
#   From: 2010.05.17/outbox.cif.g08.bks.cpg/sg12_125_cif.got.tgz:249869.got - 2010.06.03 13:09:07.
