data_PCOD9194226
_publ_section_title
;
Structure prediction by ZEFSAII (Michael W. Deem and Ramdas Pophale) SiO2 
 PCOD9194226
Probable space group: C 2/M
;
_chemical_formula_sum "Si O2"
_cell_formula_units_Z 56
_cell_length_a 29.581032
_cell_length_b 8.956695
_cell_length_c 20.594879
_cell_angle_alpha 90.000000
_cell_angle_beta 32.390909
_cell_angle_gamma 90.000000
_cell_volume 2923.049550
_symmetry_space_group_name_H-M "C 2/M"
_symmetry_group_IT_number 12
_symmetry_cell_setting 'monoclinic'
loop_
_space_group_symop_operation_xyz
x,y,z
-x,y,-z
-x,-y,-z
x,-y,z
1/2+x,1/2+y,z
1/2-x,1/2+y,-z
1/2-x,1/2-y,-z
1/2+x,1/2-y,z
loop_
_atom_site_type_symbol
_atom_site_label
_atom_site_fract_x
_atom_site_fract_y
_atom_site_fract_z
Si Si1 0.983490 0.321815 0.311034
Si Si2 0.053705 0.820202 0.778325
Si Si3 0.141300 0.177696 0.440733
Si Si4 0.628148 0.322752 0.942377
Si Si5 0.813707 0.177732 0.273375
Si Si6 0.333235 0.821587 0.868546
Si Si7 0.199071 0.822140 0.226327
O O1 0.976847 0.500000 0.318158
O O2 0.942182 0.253553 0.296850
O O3 0.936438 0.257848 0.430902
O O4 0.082324 0.280458 0.194676
O O5 0.128701 0.776516 0.736010
O O6 0.055989 0.000000 0.769281
O O7 0.963456 0.780818 0.919913
O O8 0.226714 0.234156 0.371922
O O9 0.153309 0.213280 0.349966
O O10 0.133457 0.000000 0.456708
O O11 0.641222 0.500000 0.938741
O O12 0.635796 0.300334 0.855528
O O13 0.704256 0.232152 0.882610
O O14 0.795934 0.000000 0.299911
O O15 0.340609 0.761328 0.786469
O O16 0.325245 0.000000 0.878225
O O17 0.250000 0.750000 0.000000
O O18 0.197003 0.000000 0.218879
#
# Coordination Sequence:
#
# PCOD9194226 Si02
#       7
#     8   8   8   8   8   8   8
#     4  11  25  41  57  80 111 147 188 233 277 328
#     4  10  20  34  55  83 114 150 189 230 279 331
#     4  10  22  40  60  83 111 146 189 232 277 330
#     4   9  17  32  56  85 116 149 186 228 276 332
#     4   9  18  34  57  84 114 148 187 231 277 329
#     4  11  24  41  62  88 116 147 183 224 275 333
#     4  10  21  37  59  86 115 147 184 229 280 332
#
# _framework density 19.158073999999999
#
# number of rings (size 3 to 8) (size 9 to 14) (size 15 to 20)
#    0.000    2.000    0.000    3.000    0.000   10.286 
#    0.000    2.857    0.000    4.286    0.000    0.000 
#    0.000    0.000    0.000    0.000    0.000    0.000 
#
# Total GULP energy -156465.756473 kJ/mol
# GULP energy per Si atom -5588.062731 kJ/mol
# Density = 1.911447 g / cm^3
# Si number density = 19.158074 Si / 1000 Ang^3
#
#
#
# Elastic Constant Matrix: (Units=GPa)
#
#
# Indices 1 2 3 4 5 6 
#
# 1 78.6915 17.3267 -4.1571 -0.0014 9.4707 0.0003
# 2 17.3267 22.1565 15.9194 -0.0027 5.1011 0.0004
# 3 -4.1571 15.9194 66.2822 0.0011 5.7525 -0.0005
# 4 -0.0014 -0.0027 0.0011 28.1091 -0.0012 1.9938
# 5 9.4707 5.1011 5.7525 -0.0012 9.3252 0.0007
# 6 0.0003 0.0004 -0.0005 1.9938 0.0007 29.0468
#
#
#
# Elastic Compliance Matrix: (Units=1/GPa)
#
#
# Indices 1 2 3 4 5 6 
#
# 1 0.018024 -0.015246 0.005977 -0.000001 -0.013652 0.000001
# 2 -0.015246 0.072542 -0.017200 0.000006 -0.013588 -0.000001
# 3 0.005977 -0.017200 0.020395 -0.000003 -0.009243 0.000001
# 4 -0.000001 0.000006 -0.000003 0.035750 0.000004 -0.002454
# 5 -0.013652 -0.013588 -0.009243 0.000004 0.134237 -0.000004
# 6 0.000001 -0.000001 0.000001 -0.002454 -0.000004 0.034596
#
#
# Mechanical properties :
#
#
# Convention : Reuss Voigt Hill
#
# Bulk Modulus (GPa) = 17.23443 25.03423 21.13433
# Shear Modulus (GPa) = 12.89253 22.49897 17.69575
#
# Velocity S-wave (km/s) = 2.59695 3.43065 3.04249
# Velocity P-wave (km/s) = 4.24354 5.36545 4.83713
#
# Compressibility (1/GPa) = 0.05802337
#
# Stress axis : x y z
#
# Youngs Moduli (GPa) = 55.48287 13.78506 49.03167
#
# Poissons Ratio (x) = 0.21017 -0.29306
# Poissons Ratio (y) = 0.84589 0.84333
# Poissons Ratio (z) = -0.33162 0.23710
#
# Static dielectric constant tensor:
#      x y z
#    x 1.651870 0.000000 0.007250 
#    y 0.000000 1.635670 0.000000 
#    z 0.007250 0.000000 1.656710 
# 
# From -- ./inp_files/329447.got.cif
#   From: 2010.05.17/outbox.cif.g08.bks.cpg/sg12_165_cif.got.tgz:329447.got - 2010.06.03 13:09:07.
