data_PCOD9194819
_publ_section_title
;
Structure prediction by ZEFSAII (Michael W. Deem and Ramdas Pophale) SiO2 
 PCOD9194819
Probable space group: C 2/M
;
_chemical_formula_sum "Si O2"
_cell_formula_units_Z 40
_cell_length_a 22.405747
_cell_length_b 7.544854
_cell_length_c 29.859789
_cell_angle_alpha 90.000000
_cell_angle_beta 161.480475
_cell_angle_gamma 90.000000
_cell_volume 1603.302662
_symmetry_space_group_name_H-M "C 2/M"
_symmetry_group_IT_number 12
_symmetry_cell_setting 'monoclinic'
loop_
_space_group_symop_operation_xyz
x,y,z
-x,y,-z
-x,-y,-z
x,-y,z
1/2+x,1/2+y,z
1/2-x,1/2+y,-z
1/2-x,1/2-y,-z
1/2+x,1/2-y,z
loop_
_atom_site_type_symbol
_atom_site_label
_atom_site_fract_x
_atom_site_fract_y
_atom_site_fract_z
Si Si1 0.040784 0.288758 0.332932
Si Si2 0.690520 0.785972 0.348118
Si Si3 0.494616 0.202728 0.045378
Si Si4 0.910908 0.287408 0.078540
Si Si5 0.895554 0.289926 0.322253
O O1 0.013702 0.500000 0.311742
O O2 0.250000 0.250000 0.500000
O O3 0.056319 0.219351 0.293435
O O4 0.913018 0.222448 0.282915
O O5 0.601830 0.723619 0.238606
O O6 0.905339 0.740300 0.511858
O O7 0.680400 0.000000 0.341661
O O8 0.386317 0.284510 0.010632
O O9 0.714583 0.203588 0.215602
O O10 0.431585 0.000000 0.994815
O O11 0.500000 0.288945 0.000000
O O12 0.922438 0.500000 0.081774
O O13 0.750000 0.250000 0.000000
O O14 0.865661 0.500000 0.299893
#
# Coordination Sequence:
#
# PCOD9194819 Si02
#       5
#     8   8   8   8   8
#     4   8  15  28  48  78 111 142 179 223 276 333
#     4   9  18  35  58  83 115 153 191 237 293 351
#     4  10  23  42  60  83 118 160 199 235 288 356
#     4  10  23  41  62  87 116 155 198 242 293 348
#     4  10  20  34  57  89 118 149 193 244 293 340
#
# _framework density 24.948504
#
# number of rings (size 3 to 8) (size 9 to 14) (size 15 to 20)
#    0.000    2.600    0.000    0.600    2.800    3.600 
#    0.000    4.000    0.000    0.000    0.000    0.000 
#    0.000    0.000    0.000    0.000    0.000    0.000 
#
# Total GULP energy -111700.077452 kJ/mol
# GULP energy per Si atom -5585.003873 kJ/mol
# Density = 2.489172 g / cm^3
# Si number density = 24.948504 Si / 1000 Ang^3
#
#
#
# Elastic Constant Matrix: (Units=GPa)
#
#
# Indices 1 2 3 4 5 6 
#
# 1 192.3392 8.8283 45.7481 0.0001 -16.1822 -0.0010
# 2 8.8283 87.1087 8.1525 -0.0043 -6.5374 0.0009
# 3 45.7481 8.1525 98.7093 -0.0016 -0.2677 -0.0014
# 4 0.0001 -0.0043 -0.0016 19.7102 0.0010 4.4587
# 5 -16.1822 -6.5374 -0.2677 0.0010 46.5879 -0.0005
# 6 -0.0010 0.0009 -0.0014 4.4587 -0.0005 10.4611
#
#
#
# Elastic Compliance Matrix: (Units=1/GPa)
#
#
# Indices 1 2 3 4 5 6 
#
# 1 0.006042 -0.000198 -0.002778 -0.000001 0.002055 0.000001
# 2 -0.000198 0.011699 -0.000870 0.000003 0.001568 -0.000002
# 3 -0.002778 -0.000870 0.011487 0.000001 -0.001021 0.000001
# 4 -0.000001 0.000003 0.000001 0.056149 -0.000001 -0.023932
# 5 0.002055 0.001568 -0.001021 -0.000001 0.022393 0.000001
# 6 0.000001 -0.000002 0.000001 -0.023932 0.000001 0.105793
#
#
# Mechanical properties :
#
#
# Convention : Reuss Voigt Hill
#
# Bulk Modulus (GPa) = 46.43518 55.95724 51.19621
# Shear Modulus (GPa) = 21.88809 36.38038 29.13424
#
# Velocity S-wave (km/s) = 2.96519 3.82281 3.42098
# Velocity P-wave (km/s) = 5.51144 6.47788 6.01410
#
# Compressibility (1/GPa) = 0.02153540
#
# Stress axis : x y z
#
# Youngs Moduli (GPa) = 165.50967 85.47672 87.05126
#
# Poissons Ratio (x) = 0.01693 0.24185
# Poissons Ratio (y) = 0.03279 0.07575
# Poissons Ratio (z) = 0.45983 0.07438
#
# Static dielectric constant tensor:
#      x y z
#    x 2.048460 0.000000 -0.021340 
#    y 0.000000 1.921370 0.000000 
#    z -0.021340 0.000000 1.964970 
# 
# From -- ./inp_files/324430.got.cif
#   From: 2010.05.17/outbox.cif.g08.bks.cpg/sg12_163_cif.got.tgz:324430.got - 2010.06.03 13:09:07.
