data_PCOD9194447
_publ_section_title
;
Structure prediction by ZEFSAII (Michael W. Deem and Ramdas Pophale) SiO2 
 PCOD9194447
Probable space group: C 2/M
;
_chemical_formula_sum "Si O2"
_cell_formula_units_Z 44
_cell_length_a 18.236881
_cell_length_b 13.165828
_cell_length_c 9.684146
_cell_angle_alpha 90.000000
_cell_angle_beta 51.733474
_cell_angle_gamma 90.000000
_cell_volume 1825.602619
_symmetry_space_group_name_H-M "C 2/M"
_symmetry_group_IT_number 12
_symmetry_cell_setting 'monoclinic'
loop_
_space_group_symop_operation_xyz
x,y,z
-x,y,-z
-x,-y,-z
x,-y,z
1/2+x,1/2+y,z
1/2-x,1/2+y,-z
1/2-x,1/2-y,-z
1/2+x,1/2-y,z
loop_
_atom_site_type_symbol
_atom_site_label
_atom_site_fract_x
_atom_site_fract_y
_atom_site_fract_z
Si Si1 0.899954 0.111594 0.274476
Si Si2 0.000000 0.277324 0.000000
Si Si3 0.357431 0.173008 0.965735
Si Si4 0.399811 0.610603 0.808657
Si Si5 0.612065 0.112220 0.373737
Si Si6 0.814689 0.825677 0.639930
O O1 0.821060 0.131450 0.479313
O O2 0.996060 0.113366 0.251779
O O3 0.891375 0.000000 0.219344
O O4 0.917418 0.201990 0.147550
O O5 0.957530 0.339050 0.923402
O O6 0.349197 0.291979 0.932401
O O7 0.355887 0.115793 0.823240
O O8 0.279002 0.148076 0.168253
O O9 0.360294 0.500000 0.889329
O O10 0.392110 0.627095 0.653635
O O11 0.500000 0.131136 0.500000
O O12 0.663059 0.205455 0.389134
O O13 0.629034 0.000000 0.412277
#
# Coordination Sequence:
#
# PCOD9194447 Si02
#       6
#     8   4   8   8   8   8
#     4  10  20  34  56  83 109 138 170 211 267 326
#     4  10  21  40  55  68 104 148 187 218 253 310
#     4  10  22  35  54  79 106 142 179 220 263 307
#     4   9  17  32  55  82 110 135 163 209 273 332
#     4  10  20  36  57  80 109 144 178 213 258 313
#     4  11  20  32  54  85 111 133 169 222 274 315
#
# _framework density 24.10163
#
# number of rings (size 3 to 8) (size 9 to 14) (size 15 to 20)
#    0.000    2.000    0.000    6.818    0.000    6.545 
#    0.000    0.455    0.000    3.273    0.000    0.000 
#    0.000    0.000    0.000    0.000    0.000    0.000 
#
# Total GULP energy -123051.387557 kJ/mol
# GULP energy per Si atom -5593.244889 kJ/mol
# Density = 2.404677 g / cm^3
# Si number density = 24.101630 Si / 1000 Ang^3
#
#
#
# Elastic Constant Matrix: (Units=GPa)
#
#
# Indices 1 2 3 4 5 6 
#
# 1 40.6778 4.5917 -13.6132 0.0000 8.2675 0.0000
# 2 4.5917 74.2790 -8.6087 0.0000 -8.0410 0.0000
# 3 -13.6132 -8.6087 117.5916 0.0000 -9.3434 0.0000
# 4 0.0000 0.0000 0.0000 0.0360 0.0000 1.7841
# 5 8.2675 -8.0410 -9.3434 0.0000 28.1132 0.0000
# 6 0.0000 0.0000 0.0000 1.7841 0.0000 12.7814
#
#
#
# Elastic Compliance Matrix: (Units=1/GPa)
#
#
# Indices 1 2 3 4 5 6 
#
# 1 0.027228 -0.002261 0.002361 0.000000 -0.007869 0.000000
# 2 -0.002261 0.014299 0.001194 0.000000 0.005152 0.000000
# 3 0.002361 0.001194 0.009076 0.000000 0.002664 0.000000
# 4 0.000000 0.000000 0.000000 -4.693802 0.000000 0.655205
# 5 -0.007869 0.005152 0.002664 0.000000 0.040243 0.000000
# 6 0.000000 0.000000 0.000000 0.655205 0.000000 -0.013221
#
#
# Mechanical properties :
#
#
# Convention : Reuss Voigt Hill
#
# Bulk Modulus (GPa) = 18.79984 21.92089 20.36037
# Shear Modulus (GPa) = -1.08671 24.86469 11.88899
#
# Velocity S-wave (km/s) = -0.67221 3.21543 2.22341
# Velocity P-wave (km/s) = 2.68602 4.78542 3.88040
#
# Compressibility (1/GPa) = 0.05319193
#
# Stress axis : x y z
#
# Youngs Moduli (GPa) = 36.72647 69.93664 110.17518
#
# Poissons Ratio (x) = 0.15815 -0.26016
# Poissons Ratio (y) = 0.08305 -0.13158
# Poissons Ratio (z) = -0.08672 -0.08353
#
# Static dielectric constant tensor:
#      x y z
#    x 1.933610 0.000000 -0.041510 
#    y 0.000000 1.933200 0.000000 
#    z -0.041510 0.000000 1.929460 
# 
# From -- ./inp_files/104801.got.cif
#   From: 2010.05.17/outbox.cif.g08.bks.cpg/sg12_53_cif.got.tgz:104801.got - 2010.06.03 13:09:07.
