data_PCOD9194595
_publ_section_title
;
Structure prediction by ZEFSAII (Michael W. Deem and Ramdas Pophale) SiO2 
 PCOD9194595
Probable space group: C 2/M
;
_chemical_formula_sum "Si O2"
_cell_formula_units_Z 56
_cell_length_a 19.604387
_cell_length_b 13.568485
_cell_length_c 16.436897
_cell_angle_alpha 90.000000
_cell_angle_beta 42.745472
_cell_angle_gamma 90.000000
_cell_volume 2967.629219
_symmetry_space_group_name_H-M "C 2/M"
_symmetry_group_IT_number 12
_symmetry_cell_setting 'monoclinic'
loop_
_space_group_symop_operation_xyz
x,y,z
-x,y,-z
-x,-y,-z
x,-y,z
1/2+x,1/2+y,z
1/2-x,1/2+y,-z
1/2-x,1/2-y,-z
1/2+x,1/2-y,z
loop_
_atom_site_type_symbol
_atom_site_label
_atom_site_fract_x
_atom_site_fract_y
_atom_site_fract_z
Si Si1 0.901995 0.386029 0.256323
Si Si2 0.262517 0.252805 0.848293
Si Si3 0.609403 0.799461 0.117117
Si Si4 0.381789 0.383309 0.619435
Si Si5 0.193206 0.881550 0.489907
Si Si6 0.468543 0.385560 0.235595
Si Si7 0.896818 0.793851 0.140022
O O1 0.889893 0.500000 0.242993
O O2 0.811090 0.360951 0.398243
O O3 0.892190 0.312631 0.188504
O O4 0.011749 0.367411 0.196724
O O5 0.326995 0.190393 0.856418
O O6 0.337268 0.323942 0.733762
O O7 0.196102 0.195349 0.839667
O O8 0.182313 0.310479 0.975647
O O9 0.563313 0.687987 0.153204
O O10 0.500000 0.370776 0.500000
O O11 0.362883 0.500000 0.647255
O O12 0.330775 0.348295 0.580392
O O13 0.109282 0.849785 0.627035
O O14 0.182893 0.000000 0.499371
O O15 0.495477 0.500000 0.224028
O O16 0.409696 0.370652 0.202220
O O17 0.000000 0.798037 0.000000
#
# Coordination Sequence:
#
# PCOD9194595 Si02
#       7
#     8   8   8   8   8   8   8
#     4  10  20  37  59  85 114 147 185 231 288 344
#     4  11  21  39  53  81 121 146 186 236 280 333
#     4  10  23  38  57  80 119 154 189 235 277 348
#     4  10  20  34  56  86 118 148 186 237 293 346
#     4   9  18  33  56  85 112 143 188 235 281 339
#     4  10  21  39  60  83 114 153 194 240 284 326
#     4  11  21  38  58  86 115 145 192 240 277 345
#
# _framework density 18.870283000000001
#
# number of rings (size 3 to 8) (size 9 to 14) (size 15 to 20)
#    0.000    1.857    4.286    0.857    0.000    5.143 
#    2.571    2.857    0.000    0.000    0.000    3.000 
#    0.000    0.000    0.000    0.000    0.000    0.000 
#
# Total GULP energy -156140.473570 kJ/mol
# GULP energy per Si atom -5576.445485 kJ/mol
# Density = 1.882733 g / cm^3
# Si number density = 18.870283 Si / 1000 Ang^3
#
#
#
# Elastic Constant Matrix: (Units=GPa)
#
#
# Indices 1 2 3 4 5 6 
#
# 1 94.4669 -11.6935 10.8312 0.0000 -4.3475 0.0000
# 2 -11.6935 43.1113 11.4941 0.0000 4.1565 0.0000
# 3 10.8312 11.4941 129.9923 0.0000 -1.0223 0.0000
# 4 0.0000 0.0000 0.0000 10.4789 0.0000 -8.9043
# 5 -4.3475 4.1565 -1.0223 0.0000 21.2202 0.0000
# 6 0.0000 0.0000 0.0000 -8.9043 0.0000 14.3808
#
#
#
# Elastic Compliance Matrix: (Units=1/GPa)
#
#
# Indices 1 2 3 4 5 6 
#
# 1 0.011194 0.003202 -0.001203 0.000000 0.001608 0.000000
# 2 0.003202 0.025161 -0.002526 0.000000 -0.004394 0.000000
# 3 -0.001203 -0.002526 0.008021 0.000000 0.000635 0.000000
# 4 0.000000 0.000000 0.000000 0.201389 0.000000 0.124697
# 5 0.001608 -0.004394 0.000635 0.000000 0.048346 0.000000
# 6 0.000000 0.000000 0.000000 0.124697 0.000000 0.146747
#
#
# Mechanical properties :
#
#
# Convention : Reuss Voigt Hill
#
# Bulk Modulus (GPa) = 23.08287 32.09268 27.58778
# Shear Modulus (GPa) = 10.95640 26.34523 18.65081
#
# Velocity S-wave (km/s) = 2.41221 3.74053 3.14725
# Velocity P-wave (km/s) = 4.47407 5.97489 5.27810
#
# Compressibility (1/GPa) = 0.04332217
#
# Stress axis : x y z
#
# Youngs Moduli (GPa) = 89.33320 39.74332 124.66689
#
# Poissons Ratio (x) = -0.12726 0.15000
# Poissons Ratio (y) = -0.28605 0.31493
# Poissons Ratio (z) = 0.10748 0.10040
#
# Static dielectric constant tensor:
#      x y z
#    x 1.702430 0.000000 -0.008220 
#    y 0.000000 1.641730 0.000000 
#    z -0.008220 0.000000 1.671500 
# 
# From -- ./inp_files/233681.got.cif
#   From: 2010.05.17/outbox.cif.g08.bks.cpg/sg12_117_cif.got.tgz:233681.got - 2010.06.03 13:09:07.
