data_PCOD9194680
_publ_section_title
;
Structure prediction by ZEFSAII (Michael W. Deem and Ramdas Pophale) SiO2 
 PCOD9194680
Probable space group: C 2/M
;
_chemical_formula_sum "Si O2"
_cell_formula_units_Z 56
_cell_length_a 14.922678
_cell_length_b 8.720681
_cell_length_c 27.469802
_cell_angle_alpha 90.000000
_cell_angle_beta 128.355392
_cell_angle_gamma 90.000000
_cell_volume 2803.281410
_symmetry_space_group_name_H-M "C 2/M"
_symmetry_group_IT_number 12
_symmetry_cell_setting 'monoclinic'
loop_
_space_group_symop_operation_xyz
x,y,z
-x,y,-z
-x,-y,-z
x,-y,z
1/2+x,1/2+y,z
1/2-x,1/2+y,-z
1/2-x,1/2-y,-z
1/2+x,1/2-y,z
loop_
_atom_site_type_symbol
_atom_site_label
_atom_site_fract_x
_atom_site_fract_y
_atom_site_fract_z
Si Si1 0.368147 0.179736 0.287220
Si Si2 0.894900 0.314721 0.998792
Si Si3 0.798263 0.818127 0.446714
Si Si4 0.222739 0.183110 0.326939
Si Si5 0.034951 0.818167 0.772396
Si Si6 0.143919 0.683189 0.904026
Si Si7 0.428936 0.680920 0.582956
O O1 0.259121 0.213397 0.283877
O O2 0.378581 0.272913 0.241226
O O3 0.473918 0.222855 0.357971
O O4 0.371644 0.000000 0.276891
O O5 0.890637 0.500000 0.994942
O O6 0.771578 0.250788 0.941492
O O7 0.904945 0.270468 0.059287
O O8 0.000000 0.263667 0.000000
O O9 0.802427 0.771143 0.391984
O O10 0.691138 0.722763 0.431762
O O11 0.905390 0.786134 0.518036
O O12 0.775511 0.000000 0.443436
O O13 0.091076 0.229537 0.288448
O O14 0.233834 0.000000 0.339165
O O15 0.068040 0.740741 0.833964
O O16 0.032599 0.000000 0.778289
O O17 0.151120 0.500000 0.905708
O O18 0.452773 0.500000 0.597192
#
# Coordination Sequence:
#
# PCOD9194680 Si02
#       7
#     8   8   8   8   8   8   8
#     4  11  23  39  59  85 113 149 195 244 297 354
#     4   9  19  38  63  92 125 158 194 235 279 331
#     4  10  20  34  57  83 109 146 191 239 293 357
#     4  10  23  40  58  82 115 150 191 243 299 353
#     4  11  23  41  61  82 116 159 196 240 289 342
#     4  10  21  37  60  90 122 157 195 237 283 336
#     4  10  20  35  55  82 113 146 187 239 300 355
#
# _framework density 19.976588
#
# number of rings (size 3 to 8) (size 9 to 14) (size 15 to 20)
#    0.000    1.857    1.429    2.143    0.000    6.000 
#    0.000    5.714    0.000    0.000    0.000    0.000 
#    0.000    0.000    0.000    0.000    0.000    0.000 
#
# Total GULP energy -156390.231008 kJ/mol
# GULP energy per Si atom -5585.365393 kJ/mol
# Density = 1.993112 g / cm^3
# Si number density = 19.976588 Si / 1000 Ang^3
#
#
#
# Elastic Constant Matrix: (Units=GPa)
#
#
# Indices 1 2 3 4 5 6 
#
# 1 81.0257 18.0260 22.2627 0.0000 -16.3259 0.0000
# 2 18.0260 18.0266 17.1751 0.0000 -3.9353 0.0000
# 3 22.2627 17.1751 95.2326 0.0000 -14.0281 0.0000
# 4 0.0000 0.0000 0.0000 36.4615 0.0000 -1.8565
# 5 -16.3259 -3.9353 -14.0281 0.0000 15.1430 0.0000
# 6 0.0000 0.0000 0.0000 -1.8565 0.0000 20.9186
#
#
#
# Elastic Compliance Matrix: (Units=1/GPa)
#
#
# Indices 1 2 3 4 5 6 
#
# 1 0.019214 -0.016393 0.001029 0.000000 0.017408 0.000000
# 2 -0.016393 0.081655 -0.012011 0.000000 -0.007580 0.000000
# 3 0.001029 -0.012011 0.014047 0.000000 0.011001 0.000000
# 4 0.000000 0.000000 0.000000 0.027551 0.000000 0.002445
# 5 0.017408 -0.007580 0.011001 0.000000 0.093025 0.000000
# 6 0.000000 0.000000 0.000000 0.002445 0.000000 0.048021
#
#
# Mechanical properties :
#
#
# Convention : Reuss Voigt Hill
#
# Bulk Modulus (GPa) = 16.62085 34.35696 25.48891
# Shear Modulus (GPa) = 13.95412 23.62602 18.79007
#
# Velocity S-wave (km/s) = 2.64583 3.44275 3.07025
# Velocity P-wave (km/s) = 4.20382 5.74798 5.03545
#
# Compressibility (1/GPa) = 0.06016539
#
# Stress axis : x y z
#
# Youngs Moduli (GPa) = 52.04669 12.24664 71.19166
#
# Poissons Ratio (x) = 0.20076 -0.07327
# Poissons Ratio (y) = 0.85322 0.85506
# Poissons Ratio (z) = -0.05356 0.14709
#
# Static dielectric constant tensor:
#      x y z
#    x 1.730330 0.000000 -0.027360 
#    y 0.000000 1.664620 0.000000 
#    z -0.027360 0.000000 1.701610 
# 
# From -- ./inp_files/339059.got.cif
#   From: 2010.05.17/outbox.cif.g08.bks.cpg/sg12_170_cif.got.tgz:339059.got - 2010.06.03 13:09:07.
