data_PCOD9194479
_publ_section_title
;
Structure prediction by ZEFSAII (Michael W. Deem and Ramdas Pophale) SiO2 
 PCOD9194479
Probable space group: C 2/M
;
_chemical_formula_sum "Si O2"
_cell_formula_units_Z 44
_cell_length_a 9.454557
_cell_length_b 9.679192
_cell_length_c 27.250072
_cell_angle_alpha 90.000000
_cell_angle_beta 119.849526
_cell_angle_gamma 90.000000
_cell_volume 2162.893275
_symmetry_space_group_name_H-M "C 2/M"
_symmetry_group_IT_number 12
_symmetry_cell_setting 'monoclinic'
loop_
_space_group_symop_operation_xyz
x,y,z
-x,y,-z
-x,-y,-z
x,-y,z
1/2+x,1/2+y,z
1/2-x,1/2+y,-z
1/2-x,1/2-y,-z
1/2+x,1/2-y,z
loop_
_atom_site_type_symbol
_atom_site_label
_atom_site_fract_x
_atom_site_fract_y
_atom_site_fract_z
Si Si1 0.859583 0.660707 0.627190
Si Si2 0.355023 0.653910 0.079150
Si Si3 0.551971 0.157819 0.564896
Si Si4 0.500000 0.717669 0.000000
Si Si5 0.864409 0.160294 0.271378
Si Si6 0.450447 0.339174 0.796341
O O1 0.864628 0.500000 0.643397
O O2 0.686465 0.732563 0.604604
O O3 0.902355 0.665332 0.576655
O O4 0.996354 0.752629 0.677153
O O5 0.336134 0.500000 0.095060
O O6 0.171299 0.707928 0.042006
O O7 0.470064 0.721443 0.140039
O O8 0.445911 0.650277 0.042322
O O9 0.500000 0.181355 0.500000
O O10 0.618364 0.000000 0.579989
O O11 0.696384 0.242861 0.246683
O O12 0.914790 0.159612 0.222832
O O13 0.856222 0.000000 0.286253
O O14 0.393365 0.500000 0.793166
#
# Coordination Sequence:
#
# PCOD9194479 Si02
#       6
#     8   8   8   4   8   8
#     4  11  23  38  60  88 116 150 191 234 283 337
#     4  10  20  36  56  80 111 145 182 228 278 330
#     4  10  22  40  60  85 118 153 190 234 282 334
#     4  10  20  34  56  84 110 142 184 224 276 336
#     4  11  23  39  59  84 113 149 191 234 283 337
#     4  10  22  39  58  82 114 149 188 234 282 334
#
# _framework density 20.343121
#
# number of rings (size 3 to 8) (size 9 to 14) (size 15 to 20)
#    0.000    1.636    0.000    4.364    0.000    7.636 
#    0.000    4.545    0.000    0.000    0.000    0.000 
#    0.000    0.000    0.000    0.000    0.000    0.000 
#
# Total GULP energy -122709.842512 kJ/mol
# GULP energy per Si atom -5577.720114 kJ/mol
# Density = 2.029682 g / cm^3
# Si number density = 20.343121 Si / 1000 Ang^3
#
#
#
# Elastic Constant Matrix: (Units=GPa)
#
#
# Indices 1 2 3 4 5 6 
#
# 1 91.1468 27.2567 3.0569 0.0000 3.2147 0.0000
# 2 27.2567 104.8304 24.0614 0.0000 18.5611 0.0000
# 3 3.0569 24.0614 55.3574 0.0000 -7.6492 0.0000
# 4 0.0000 0.0000 0.0000 26.8549 0.0000 1.2391
# 5 3.2147 18.5611 -7.6492 0.0000 35.0209 0.0000
# 6 0.0000 0.0000 0.0000 1.2391 0.0000 22.9903
#
#
#
# Elastic Compliance Matrix: (Units=1/GPa)
#
#
# Indices 1 2 3 4 5 6 
#
# 1 0.011953 -0.003512 0.001002 0.000000 0.000983 0.000000
# 2 -0.003512 0.013490 -0.006819 0.000000 -0.008317 0.000000
# 3 0.001002 -0.006819 0.022127 0.000000 0.008355 0.000000
# 4 0.000000 0.000000 0.000000 0.037330 0.000000 -0.002012
# 5 0.000983 -0.008317 0.008355 0.000000 0.034697 0.000000
# 6 0.000000 0.000000 0.000000 -0.002012 0.000000 0.043605
#
#
# Mechanical properties :
#
#
# Convention : Reuss Voigt Hill
#
# Bulk Modulus (GPa) = 34.58575 40.00939 37.29757
# Shear Modulus (GPa) = 26.11003 30.10387 28.10695
#
# Velocity S-wave (km/s) = 3.58646 3.85100 3.72108
# Velocity P-wave (km/s) = 5.84708 6.28359 6.06926
#
# Compressibility (1/GPa) = 0.02891364
#
# Stress axis : x y z
#
# Youngs Moduli (GPa) = 83.65907 74.12893 45.19291
#
# Poissons Ratio (x) = 0.26035 -0.04530
# Poissons Ratio (y) = 0.29382 0.30816
# Poissons Ratio (z) = -0.08385 0.50547
#
# Static dielectric constant tensor:
#      x y z
#    x 1.691970 0.000000 -0.033810 
#    y 0.000000 1.718180 0.000000 
#    z -0.033810 0.000000 1.770950 
# 
# From -- ./inp_files/371869.got.cif
#   From: 2010.05.17/outbox.cif.g08.bks.cpg/sg12_186_cif.got.tgz:371869.got - 2010.06.03 13:09:07.
