data_PCOD9194980
_publ_section_title
;
Structure prediction by ZEFSAII (Michael W. Deem and Ramdas Pophale) SiO2 
 PCOD9194980
Probable space group: C 2/M
;
_chemical_formula_sum "Si O2"
_cell_formula_units_Z 48
_cell_length_a 14.180420
_cell_length_b 21.999569
_cell_length_c 14.662016
_cell_angle_alpha 90.000000
_cell_angle_beta 156.605959
_cell_angle_gamma 90.000000
_cell_volume 1816.121179
_symmetry_space_group_name_H-M "C 2/M"
_symmetry_group_IT_number 12
_symmetry_cell_setting 'monoclinic'
loop_
_space_group_symop_operation_xyz
x,y,z
-x,y,-z
-x,-y,-z
x,-y,z
1/2+x,1/2+y,z
1/2-x,1/2+y,-z
1/2-x,1/2-y,-z
1/2+x,1/2-y,z
loop_
_atom_site_type_symbol
_atom_site_label
_atom_site_fract_x
_atom_site_fract_y
_atom_site_fract_z
Si Si1 0.699692 0.730433 0.090110
Si Si2 0.093116 0.567757 0.977856
Si Si3 0.807272 0.392587 0.217873
Si Si4 0.544440 0.350238 0.645124
Si Si5 0.571496 0.190971 0.266186
Si Si6 0.171408 0.931805 0.292106
O O1 0.742163 0.675238 0.195415
O O2 0.879429 0.705452 0.171873
O O3 0.768559 0.795369 0.191381
O O4 0.457584 0.750455 0.825873
O O5 0.056705 0.500000 0.908483
O O6 0.366140 0.588361 0.229561
O O7 0.981654 0.624929 0.826439
O O8 0.000000 0.568452 0.000000
O O9 0.747605 0.432899 0.252831
O O10 0.090468 0.401345 0.450665
O O11 0.601130 0.405614 0.958389
O O12 0.500000 0.363498 0.500000
O O13 0.344224 0.318536 0.528507
O O14 0.154470 0.000000 0.313365
#
# Coordination Sequence:
#
# PCOD9194980 Si02
#       6
#     8   8   8   8   8   8
#     4  10  24  38  61  89 128 162 205 258 327 387
#     4  10  21  40  63  92 123 161 212 266 322 385
#     4  10  20  34  59  86 115 165 209 259 313 376
#     4  11  22  36  65  95 122 160 208 264 318 390
#     4  10  22  44  61  87 126 165 200 263 326 388
#     4  10  20  37  58  85 122 164 210 263 311 363
#
# _framework density 26.429953999999999
#
# number of rings (size 3 to 8) (size 9 to 14) (size 15 to 20)
#    0.000    1.833    1.667    3.000    4.667    2.333 
#    0.000    2.500    0.000    0.000    0.000    0.000 
#    0.000    0.000    0.000    0.000    0.000    0.000 
#
# Total GULP energy -133813.643452 kJ/mol
# GULP energy per Si atom -5575.568477 kJ/mol
# Density = 2.636980 g / cm^3
# Si number density = 26.429954 Si / 1000 Ang^3
#
#
#
# Elastic Constant Matrix: (Units=GPa)
#
#
# Indices 1 2 3 4 5 6 
#
# 1 89.9298 11.8276 16.5977 0.0005 12.2453 0.0002
# 2 11.8276 168.8569 44.7431 0.0006 -12.2279 -0.0001
# 3 16.5977 44.7431 154.4727 -0.0006 21.2947 0.0007
# 4 0.0005 0.0006 -0.0006 18.6561 0.0003 -2.1289
# 5 12.2453 -12.2279 21.2947 0.0003 33.9510 0.0006
# 6 0.0002 -0.0001 0.0007 -2.1289 0.0006 25.4540
#
#
#
# Elastic Compliance Matrix: (Units=1/GPa)
#
#
# Indices 1 2 3 4 5 6 
#
# 1 0.011934 -0.001064 -0.000359 0.000000 -0.004462 0.000000
# 2 -0.001064 0.006992 -0.002530 0.000000 0.004489 0.000000
# 3 -0.000359 -0.002530 0.008049 0.000000 -0.005830 0.000000
# 4 0.000000 0.000000 0.000000 0.054118 -0.000001 0.004526
# 5 -0.004462 0.004489 -0.005830 -0.000001 0.036337 -0.000001
# 6 0.000000 0.000000 0.000000 0.004526 -0.000001 0.039665
#
#
# Mechanical properties :
#
#
# Convention : Reuss Voigt Hill
#
# Bulk Modulus (GPa) = 52.44088 62.17734 57.30911
# Shear Modulus (GPa) = 29.17901 38.28496 33.73199
#
# Velocity S-wave (km/s) = 3.32627 3.81010 3.57638
# Velocity P-wave (km/s) = 5.88529 6.55227 6.22772
#
# Compressibility (1/GPa) = 0.01906909
#
# Stress axis : x y z
#
# Youngs Moduli (GPa) = 83.79732 143.01914 124.24492
#
# Poissons Ratio (x) = 0.15216 0.04460
# Poissons Ratio (y) = 0.08915 0.31431
# Poissons Ratio (z) = 0.03008 0.36180
#
# Static dielectric constant tensor:
#      x y z
#    x 2.225920 0.000000 0.014620 
#    y 0.000000 2.002140 0.000000 
#    z 0.014620 0.000000 2.290570 
# 
# From -- ./inp_files/279252.got.cif
#   From: 2010.05.17/outbox.cif.g08.bks.cpg/sg12_140_cif.got.tgz:279252.got - 2010.06.03 13:09:07.
