data_PCOD9194173
_publ_section_title
;
Structure prediction by ZEFSAII (Michael W. Deem and Ramdas Pophale) SiO2 
 PCOD9194173
Probable space group: C 2/M
;
_chemical_formula_sum "Si O2"
_cell_formula_units_Z 56
_cell_length_a 19.921124
_cell_length_b 7.595855
_cell_length_c 14.954443
_cell_angle_alpha 90.000000
_cell_angle_beta 86.781269
_cell_angle_gamma 90.000000
_cell_volume 2259.306174
_symmetry_space_group_name_H-M "C 2/M"
_symmetry_group_IT_number 12
_symmetry_cell_setting 'monoclinic'
loop_
_space_group_symop_operation_xyz
x,y,z
-x,y,-z
-x,-y,-z
x,-y,z
1/2+x,1/2+y,z
1/2-x,1/2+y,-z
1/2-x,1/2-y,-z
1/2+x,1/2-y,z
loop_
_atom_site_type_symbol
_atom_site_label
_atom_site_fract_x
_atom_site_fract_y
_atom_site_fract_z
Si Si1 0.335547 0.793401 0.935247
Si Si2 0.742851 0.786868 0.688002
Si Si3 0.306328 0.800398 0.127590
Si Si4 0.862246 0.284868 0.438309
Si Si5 0.026777 0.711976 0.714355
Si Si6 0.609278 0.208499 0.364683
Si Si7 0.018514 0.792254 0.096254
O O1 0.272841 0.698878 0.894667
O O2 0.407557 0.778571 0.884432
O O3 0.317247 0.000000 0.941398
O O4 0.341659 0.723273 0.037188
O O5 0.697843 0.719366 0.774054
O O6 0.709211 0.729404 0.597663
O O7 0.819759 0.732094 0.689307
O O8 0.740981 0.000000 0.692026
O O9 0.331841 0.000000 0.135179
O O10 0.862134 0.500000 0.441911
O O11 0.880426 0.220143 0.535513
O O12 0.917019 0.231053 0.360264
O O13 0.027391 0.500000 0.712279
O O14 0.955145 0.779908 0.682372
O O15 0.032011 0.758598 0.818417
O O16 0.597109 0.000000 0.374553
O O17 0.025763 0.000000 0.086604
O O18 0.000000 0.717451 0.000000
#
# Coordination Sequence:
#
# PCOD9194173 Si02
#       7
#     8   8   8   8   8   8   8
#     4  10  20  35  57  82 108 145 193 235 277 332
#     4  10  20  34  55  82 113 152 189 227 281 336
#     4   9  19  34  54  81 113 147 185 232 283 333
#     4   9  19  36  59  85 116 149 188 236 284 334
#     4  10  21  38  63  87 110 147 195 239 281 337
#     4  10  20  36  58  87 117 148 187 234 285 335
#     4  11  25  41  56  79 115 151 184 231 291 342
#
# _framework density 24.786370000000002
#
# number of rings (size 3 to 8) (size 9 to 14) (size 15 to 20)
#    0.000    2.143    0.000    2.571    2.000    6.857 
#    0.000    1.429    0.000    1.714    0.000    0.000 
#    0.000    0.000    0.000    0.000    0.000    0.000 
#
# Total GULP energy -156563.270388 kJ/mol
# GULP energy per Si atom -5591.545371 kJ/mol
# Density = 2.472996 g / cm^3
# Si number density = 24.786370 Si / 1000 Ang^3
#
#
#
# Elastic Constant Matrix: (Units=GPa)
#
#
# Indices 1 2 3 4 5 6 
#
# 1 68.1316 -8.8017 -0.8043 0.0000 -1.2500 0.0000
# 2 -8.8017 68.5515 -6.6311 0.0000 6.2923 0.0000
# 3 -0.8043 -6.6311 124.7493 0.0000 -1.2539 0.0000
# 4 0.0000 0.0000 0.0000 9.1378 0.0000 0.8443
# 5 -1.2500 6.2923 -1.2539 0.0000 38.8919 0.0000
# 6 0.0000 0.0000 0.0000 0.8443 0.0000 7.6067
#
#
#
# Elastic Compliance Matrix: (Units=1/GPa)
#
#
# Indices 1 2 3 4 5 6 
#
# 1 0.014931 0.001920 0.000200 0.000000 0.000176 0.000000
# 2 0.001920 0.015127 0.000793 0.000000 -0.002360 0.000000
# 3 0.000200 0.000793 0.008061 0.000000 0.000138 0.000000
# 4 0.000000 0.000000 0.000000 0.110569 0.000000 -0.012272
# 5 0.000176 -0.002360 0.000138 0.000000 0.026104 0.000000
# 6 0.000000 0.000000 0.000000 -0.012272 0.000000 0.132825
#
#
# Mechanical properties :
#
#
# Convention : Reuss Voigt Hill
#
# Bulk Modulus (GPa) = 22.75525 25.43980 24.09753
# Shear Modulus (GPa) = 15.80078 29.63858 22.71968
#
# Velocity S-wave (km/s) = 2.52757 3.46173 3.03086
# Velocity P-wave (km/s) = 4.20935 5.12484 4.68949
#
# Compressibility (1/GPa) = 0.04394589
#
# Stress axis : x y z
#
# Youngs Moduli (GPa) = 66.97408 66.10498 124.05568
#
# Poissons Ratio (x) = -0.12694 -0.02482
# Poissons Ratio (y) = -0.12861 -0.09835
# Poissons Ratio (z) = -0.01340 -0.05241
#
# Static dielectric constant tensor:
#      x y z
#    x 1.917630 0.000000 0.025740 
#    y 0.000000 1.941660 0.000000 
#    z 0.025740 0.000000 1.992540 
# 
# From -- ./inp_files/231011.got.cif
#   From: 2010.05.17/outbox.cif.g08.bks.cpg/sg12_116_cif.got.tgz:231011.got - 2010.06.03 13:09:07.
