data_PCOD9194920
_publ_section_title
;
Structure prediction by ZEFSAII (Michael W. Deem and Ramdas Pophale) SiO2 
 PCOD9194920
Probable space group: C 2/M
;
_chemical_formula_sum "Si O2"
_cell_formula_units_Z 36
_cell_length_a 15.947123
_cell_length_b 10.466893
_cell_length_c 12.611623
_cell_angle_alpha 90.000000
_cell_angle_beta 66.715215
_cell_angle_gamma 90.000000
_cell_volume 1933.635299
_symmetry_space_group_name_H-M "C 2/M"
_symmetry_group_IT_number 12
_symmetry_cell_setting 'monoclinic'
loop_
_space_group_symop_operation_xyz
x,y,z
-x,y,-z
-x,-y,-z
x,-y,z
1/2+x,1/2+y,z
1/2-x,1/2+y,-z
1/2-x,1/2-y,-z
1/2+x,1/2-y,z
loop_
_atom_site_type_symbol
_atom_site_label
_atom_site_fract_x
_atom_site_fract_y
_atom_site_fract_z
Si Si1 0.486035 0.849697 0.726942
Si Si2 0.354737 0.847826 0.205916
Si Si3 0.205967 0.145506 0.442310
Si Si4 0.000000 0.787568 0.500000
Si Si5 0.669405 0.151756 0.019483
O O1 0.573427 0.793467 0.745768
O O2 0.473735 0.789658 0.618641
O O3 0.403027 0.835479 0.850102
O O4 0.500783 0.000000 0.701969
O O5 0.254275 0.827642 0.304359
O O6 0.370902 0.000000 0.196702
O O7 0.368411 0.810017 0.077761
O O8 0.250000 0.250000 0.500000
O O9 0.096454 0.148003 0.484827
O O10 0.233177 0.000000 0.459985
O O11 0.695670 0.000000 0.001082
O O12 0.750000 0.250000 0.000000
#
# Coordination Sequence:
#
# PCOD9194920 Si02
#       5
#     8   8   8   4   8
#     4  10  20  34  58  89 117 156 204 245 291 357
#     4   9  18  36  59  83 113 154 200 244 289 352
#     4  11  23  40  61  88 123 160 201 247 302 359
#     4  12  22  36  60  92 127 158 197 252 305 350
#     4  10  20  36  59  84 114 151 198 248 296 352
#
# _framework density 18.617781999999998
#
# number of rings (size 3 to 8) (size 9 to 14) (size 15 to 20)
#    0.000    1.778    2.222    2.667    0.000    3.556 
#    0.000    2.222    0.000    1.333    0.000    0.000 
#    0.000    0.000    0.000    0.000    0.000    0.000 
#
# Total GULP energy -100234.021304 kJ/mol
# GULP energy per Si atom -5568.556739 kJ/mol
# Density = 1.857541 g / cm^3
# Si number density = 18.617782 Si / 1000 Ang^3
#
#
#
# Elastic Constant Matrix: (Units=GPa)
#
#
# Indices 1 2 3 4 5 6 
#
# 1 91.7496 44.0582 27.5206 0.0000 5.5035 0.0000
# 2 44.0582 65.5636 51.2135 0.0000 0.3215 0.0000
# 3 27.5206 51.2135 117.1475 0.0000 28.8678 0.0000
# 4 0.0000 0.0000 0.0000 26.0173 0.0000 1.1900
# 5 5.5035 0.3215 28.8678 0.0000 29.7750 0.0000
# 6 0.0000 0.0000 0.0000 1.1900 0.0000 26.5334
#
#
#
# Elastic Compliance Matrix: (Units=1/GPa)
#
#
# Indices 1 2 3 4 5 6 
#
# 1 0.017148 -0.014721 0.004137 0.000000 -0.007022 0.000000
# 2 -0.014721 0.040035 -0.019193 0.000000 0.020897 0.000000
# 3 0.004137 -0.019193 0.021144 0.000000 -0.021057 0.000000
# 4 0.000000 0.000000 0.000000 0.038515 0.000000 -0.001727
# 5 -0.007022 0.020897 -0.021057 0.000000 0.055073 0.000000
# 6 0.000000 0.000000 0.000000 -0.001727 0.000000 0.037766
#
#
# Mechanical properties :
#
#
# Convention : Reuss Voigt Hill
#
# Bulk Modulus (GPa) = 53.26668 57.78282 55.52475
# Shear Modulus (GPa) = 18.14931 26.57634 22.36283
#
# Velocity S-wave (km/s) = 3.12563 3.78229 3.46953
# Velocity P-wave (km/s) = 6.45746 7.08364 6.77779
#
# Compressibility (1/GPa) = 0.01877346
#
# Stress axis : x y z
#
# Youngs Moduli (GPa) = 58.31420 24.97834 47.29490
#
# Poissons Ratio (x) = 0.36771 -0.19568
# Poissons Ratio (y) = 0.85845 0.90774
# Poissons Ratio (z) = -0.24127 0.47941
#
# Static dielectric constant tensor:
#      x y z
#    x 1.695820 0.000000 -0.005460 
#    y 0.000000 1.635670 0.000000 
#    z -0.005460 0.000000 1.670740 
# 
# From -- ./inp_files/140078.got.cif
#   From: 2010.05.17/outbox.cif.g08.bks.cpg/sg12_71_cif.got.tgz:140078.got - 2010.06.03 13:09:07.
