data_PCOD9194360
_publ_section_title
;
Structure prediction by ZEFSAII (Michael W. Deem and Ramdas Pophale) SiO2 
 PCOD9194360
Probable space group: C 2/M
;
_chemical_formula_sum "Si O2"
_cell_formula_units_Z 40
_cell_length_a 15.053223
_cell_length_b 8.598340
_cell_length_c 15.720506
_cell_angle_alpha 90.000000
_cell_angle_beta 103.106490
_cell_angle_gamma 90.000000
_cell_volume 1981.743400
_symmetry_space_group_name_H-M "C 2/M"
_symmetry_group_IT_number 12
_symmetry_cell_setting 'monoclinic'
loop_
_space_group_symop_operation_xyz
x,y,z
-x,y,-z
-x,-y,-z
x,-y,z
1/2+x,1/2+y,z
1/2-x,1/2+y,-z
1/2-x,1/2-y,-z
1/2+x,1/2-y,z
loop_
_atom_site_type_symbol
_atom_site_label
_atom_site_fract_x
_atom_site_fract_y
_atom_site_fract_z
Si Si1 0.467631 0.188096 0.718215
Si Si2 0.668624 0.684292 0.723393
Si Si3 0.503926 0.823712 0.093575
Si Si4 0.212178 0.184916 0.403363
Si Si5 0.791017 0.675146 0.093179
O O1 0.564340 0.256887 0.709407
O O2 0.448760 0.243295 0.811998
O O3 0.385278 0.240680 0.641271
O O4 0.474201 0.000000 0.722181
O O5 0.670550 0.500000 0.711297
O O6 0.718890 0.767792 0.656937
O O7 0.718741 0.727157 0.822977
O O8 0.399161 0.834411 0.099705
O O9 0.541322 0.000000 0.088511
O O10 0.500000 0.745481 0.000000
O O11 0.250000 0.250000 0.500000
O O12 0.203314 0.000000 0.405935
O O13 0.755797 0.500000 0.097666
O O14 0.750000 0.750000 0.000000
#
# Coordination Sequence:
#
# PCOD9194360 Si02
#       5
#     8   8   8   8   8
#     4  10  21  40  65  94 130 168 210 262 321 380
#     4  11  23  42  65  91 128 172 214 263 319 376
#     4   8  16  31  53  83 118 159 202 245 301 367
#     4  12  26  45  68  97 127 162 214 267 324 387
#     4  10  20  34  55  86 123 164 209 259 314 374
#
# _framework density 20.184246999999999
#
# number of rings (size 3 to 8) (size 9 to 14) (size 15 to 20)
#    0.000    1.800    0.000    6.000    2.800    0.800 
#    0.000    4.000    0.000    3.600    0.000    0.000 
#    0.000    0.000    0.000    0.000    0.000    0.000 
#
# Total GULP energy -111691.915372 kJ/mol
# GULP energy per Si atom -5584.595769 kJ/mol
# Density = 2.013831 g / cm^3
# Si number density = 20.184247 Si / 1000 Ang^3
#
#
#
# Elastic Constant Matrix: (Units=GPa)
#
#
# Indices 1 2 3 4 5 6 
#
# 1 53.2967 2.1340 31.2516 0.0000 7.2411 0.0000
# 2 2.1340 82.8496 17.6522 0.0000 11.2276 0.0000
# 3 31.2516 17.6522 152.8046 0.0000 18.4476 0.0000
# 4 0.0000 0.0000 0.0000 31.6099 0.0000 1.4976
# 5 7.2411 11.2276 18.4476 0.0000 36.7621 0.0000
# 6 0.0000 0.0000 0.0000 1.4976 0.0000 26.8569
#
#
#
# Elastic Compliance Matrix: (Units=1/GPa)
#
#
# Indices 1 2 3 4 5 6 
#
# 1 0.021513 0.000656 -0.004194 0.000000 -0.002333 0.000000
# 2 0.000656 0.012773 -0.001196 0.000000 -0.003430 0.000000
# 3 -0.004194 -0.001196 0.007873 0.000000 -0.002760 0.000000
# 4 0.000000 0.000000 0.000000 0.031719 0.000000 -0.001769
# 5 -0.002333 -0.003430 -0.002760 0.000000 0.030094 0.000000
# 6 0.000000 0.000000 0.000000 -0.001769 0.000000 0.037333
#
#
# Mechanical properties :
#
#
# Convention : Reuss Voigt Hill
#
# Bulk Modulus (GPa) = 30.58911 43.44738 37.01825
# Shear Modulus (GPa) = 30.92721 34.90664 32.91693
#
# Velocity S-wave (km/s) = 3.91864 4.16312 4.04273
# Velocity P-wave (km/s) = 5.97178 6.68437 6.33810
#
# Compressibility (1/GPa) = 0.03269137
#
# Stress axis : x y z
#
# Youngs Moduli (GPa) = 46.48399 78.29167 127.01134
#
# Poissons Ratio (x) = -0.05133 0.53267
# Poissons Ratio (y) = -0.03048 0.15184
# Poissons Ratio (z) = 0.19495 0.09360
#
# Static dielectric constant tensor:
#      x y z
#    x 1.707480 0.000000 0.003220 
#    y 0.000000 1.697880 0.000000 
#    z 0.003220 0.000000 1.724900 
# 
# From -- ./inp_files/211447.got.cif
#   From: 2010.05.17/outbox.cif.g08.bks.cpg/sg12_106_cif.got.tgz:211447.got - 2010.06.03 13:09:07.
