data_PCOD9194465
_publ_section_title
;
Structure prediction by ZEFSAII (Michael W. Deem and Ramdas Pophale) SiO2 
 PCOD9194465
Probable space group: C 2/M
;
_chemical_formula_sum "Si O2"
_cell_formula_units_Z 58
_cell_length_a 8.416147
_cell_length_b 31.025785
_cell_length_c 24.539528
_cell_angle_alpha 90.000000
_cell_angle_beta 30.973197
_cell_angle_gamma 90.000000
_cell_volume 3297.640685
_symmetry_space_group_name_H-M "C 2/M"
_symmetry_group_IT_number 12
_symmetry_cell_setting 'monoclinic'
loop_
_space_group_symop_operation_xyz
x,y,z
-x,y,-z
-x,-y,-z
x,-y,z
1/2+x,1/2+y,z
1/2-x,1/2+y,-z
1/2-x,1/2-y,-z
1/2+x,1/2-y,z
loop_
_atom_site_type_symbol
_atom_site_label
_atom_site_fract_x
_atom_site_fract_y
_atom_site_fract_z
Si Si1 0.140591 0.048083 0.119655
Si Si2 0.738866 0.548084 0.880345
Si Si3 0.812623 0.564424 0.499997
Si Si4 0.641445 0.617837 0.716863
Si Si5 0.992331 0.702922 0.378737
Si Si6 0.386014 0.702922 0.621262
Si Si7 0.000000 0.000000 0.500000
Si Si8 0.274256 0.617836 0.716856
O O1 0.952994 0.047377 0.118802
O O2 0.006041 0.086340 0.195227
O O3 0.103035 0.000000 0.156699
O O4 0.500000 0.053692 0.000000
O O5 0.886515 0.500000 0.843309
O O6 0.982191 0.586339 0.804765
O O7 0.500000 0.553697 0.000000
O O8 0.648498 0.536373 0.499998
O O9 0.539535 0.592837 0.605571
O O10 0.000000 0.546976 0.500000
O O11 0.067411 0.592836 0.394420
O O12 0.392687 0.624149 0.742924
O O13 0.766053 0.664349 0.697558
O O14 0.749402 0.695041 0.500000
O O15 0.792364 0.704009 0.383055
O O16 0.134272 0.750000 0.346292
O O17 0.246161 0.664348 0.697555
#
# Coordination Sequence:
#
# PCOD9194465 Si02
#       8
#     8   8   8   8   8   8   2   8
#     4  10  22  39  60  84 111 149 198 243 293 346
#     4  10  22  39  60  84 111 149 198 243 293 346
#     4  10  25  39  54  85 118 158 201 239 289 356
#     4  11  22  37  57  82 119 152 193 245 288 343
#     4  10  20  34  56  83 115 151 192 234 290 352
#     4  10  20  34  56  83 115 151 192 234 290 352
#     4  12  26  36  60  70 128 160 202 232 304 344
#     4  11  22  37  57  82 119 152 193 245 288 343
#
# _framework density 17.588332000000001
#
# number of rings (size 3 to 8) (size 9 to 14) (size 15 to 20)
#    0.000    1.655    1.379    2.690    5.793    2.759 
#    0.000    0.000    0.000    0.828    0.000    5.793 
#    0.000    0.000    0.000    0.000    0.000    0.000 
#
# Total GULP energy -161445.409259 kJ/mol
# GULP energy per Si atom -5567.083078 kJ/mol
# Density = 1.754830 g / cm^3
# Si number density = 17.588332 Si / 1000 Ang^3
#
#
#
# Elastic Constant Matrix: (Units=GPa)
#
#
# Indices 1 2 3 4 5 6 
#
# 1 116.3604 71.9259 31.1791 -0.0002 2.1765 0.0001
# 2 71.9259 182.4908 76.6034 -0.0003 -0.3165 0.0000
# 3 31.1791 76.6034 73.7653 -0.0066 0.7029 0.0011
# 4 -0.0002 -0.0003 -0.0066 18.9319 0.0005 1.1563
# 5 2.1765 -0.3165 0.7029 0.0005 26.5769 -0.0001
# 6 0.0001 0.0000 0.0011 1.1563 -0.0001 36.0158
#
#
#
# Elastic Compliance Matrix: (Units=1/GPa)
#
#
# Indices 1 2 3 4 5 6 
#
# 1 0.011390 -0.004386 -0.000251 0.000000 -0.000978 0.000000
# 2 -0.004386 0.011407 -0.009999 -0.000003 0.000759 0.000000
# 3 -0.000251 -0.009999 0.024053 0.000008 -0.000735 -0.000001
# 4 0.000000 -0.000003 0.000008 0.052925 -0.000001 -0.001699
# 5 -0.000978 0.000759 -0.000735 -0.000001 0.037735 0.000000
# 6 0.000000 0.000000 -0.000001 -0.001699 0.000000 0.027820
#
#
# Mechanical properties :
#
#
# Convention : Reuss Voigt Hill
#
# Bulk Modulus (GPa) = 56.88470 81.33704 69.11087
# Shear Modulus (GPa) = 24.94231 29.16547 27.05389
#
# Velocity S-wave (km/s) = 3.76987 4.07655 3.92621
# Velocity P-wave (km/s) = 7.16671 8.27665 7.74160
#
# Compressibility (1/GPa) = 0.01757942
#
# Stress axis : x y z
#
# Youngs Moduli (GPa) = 87.79260 87.66494 41.57400
#
# Poissons Ratio (x) = 0.38449 0.01042
# Poissons Ratio (y) = 0.38505 0.41571
# Poissons Ratio (z) = 0.02200 0.87659
#
# Static dielectric constant tensor:
#      x y z
#    x 1.612290 0.000000 0.019920 
#    y 0.000000 1.627780 0.000000 
#    z 0.019920 0.000000 1.317620 
# 
# From -- ./inp_files/334301.got.cif
#   From: 2010.05.17/outbox.cif.g08.bks.cpg/sg12_168_cif.got.tgz:334301.got - 2010.06.03 13:09:07.
