data_PCOD9194101
_publ_section_title
;
Structure prediction by ZEFSAII (Michael W. Deem and Ramdas Pophale) SiO2 
 PCOD9194101
Probable space group: C 2/M
;
_chemical_formula_sum "Si O2"
_cell_formula_units_Z 44
_cell_length_a 18.719345
_cell_length_b 9.543853
_cell_length_c 14.182095
_cell_angle_alpha 90.000000
_cell_angle_beta 49.114620
_cell_angle_gamma 90.000000
_cell_volume 1915.527359
_symmetry_space_group_name_H-M "C 2/M"
_symmetry_group_IT_number 12
_symmetry_cell_setting 'monoclinic'
loop_
_space_group_symop_operation_xyz
x,y,z
-x,y,-z
-x,-y,-z
x,-y,z
1/2+x,1/2+y,z
1/2-x,1/2+y,-z
1/2-x,1/2-y,-z
1/2+x,1/2-y,z
loop_
_atom_site_type_symbol
_atom_site_label
_atom_site_fract_x
_atom_site_fract_y
_atom_site_fract_z
Si Si1 0.629242 0.279443 0.055138
Si Si2 0.923096 0.166336 0.206953
Si Si3 0.919878 0.840564 0.686869
Si Si4 0.721471 0.000000 0.050896
Si Si5 0.904813 0.663566 0.414877
Si Si6 0.773051 0.661262 0.700608
O O1 0.530182 0.295157 0.087172
O O2 0.606351 0.341103 0.179817
O O3 0.663110 0.123068 0.044369
O O4 0.715038 0.377303 0.950346
O O5 0.899859 0.257344 0.319989
O O6 0.838258 0.189351 0.207260
O O7 0.921343 0.000000 0.231079
O O8 0.833999 0.771835 0.705449
O O9 0.011099 0.741446 0.601537
O O10 0.937484 0.000000 0.642951
O O11 0.929419 0.500000 0.379915
O O12 0.811851 0.671688 0.559065
O O13 0.796177 0.500000 0.708388
#
# Coordination Sequence:
#
# PCOD9194101 Si02
#       6
#     8   8   8   4   8   8
#     4  10  20  37  60  88 101 137 175 231 270 329
#     4  10  20  36  55  81 116 144 182 225 269 320
#     4  11  22  36  54  81 115 144 184 226 270 319
#     4  10  20  36  64  84 104 128 182 226 278 326
#     4  10  20  34  55  81 108 149 196 225 254 312
#     4  10  22  36  53  78 115 155 183 219 267 320
#
# _framework density 22.970174
#
# number of rings (size 3 to 8) (size 9 to 14) (size 15 to 20)
#    0.000    1.818    1.818    3.273    6.364    4.364 
#    0.000    0.000    0.000    6.545    0.000    0.000 
#    0.000    0.000    0.000    0.000    0.000    0.000 
#
# Total GULP energy -122579.311099 kJ/mol
# GULP energy per Si atom -5571.786868 kJ/mol
# Density = 2.291789 g / cm^3
# Si number density = 22.970174 Si / 1000 Ang^3
#
#
#
# Elastic Constant Matrix: (Units=GPa)
#
#
# Indices 1 2 3 4 5 6 
#
# 1 146.2889 84.7132 12.2132 0.0000 -37.7436 0.0000
# 2 84.7132 204.3496 32.3108 0.0000 -32.2311 0.0000
# 3 12.2132 32.3108 75.7203 0.0000 -6.2486 0.0000
# 4 0.0000 0.0000 0.0000 23.6300 0.0000 -1.1767
# 5 -37.7436 -32.2311 -6.2486 0.0000 39.4329 0.0000
# 6 0.0000 0.0000 0.0000 -1.1767 0.0000 35.7912
#
#
#
# Elastic Compliance Matrix: (Units=1/GPa)
#
#
# Indices 1 2 3 4 5 6 
#
# 1 0.010660 -0.003272 0.000302 0.000000 0.007577 0.000000
# 2 -0.003272 0.006953 -0.002258 0.000000 0.002194 0.000000
# 3 0.000302 -0.002258 0.014178 0.000000 0.000690 0.000000
# 4 0.000000 0.000000 0.000000 0.042388 0.000000 0.001394
# 5 0.007577 0.002194 0.000690 0.000000 0.034514 0.000000
# 6 0.000000 0.000000 0.000000 0.001394 0.000000 0.027986
#
#
# Mechanical properties :
#
#
# Convention : Reuss Voigt Hill
#
# Bulk Modulus (GPa) = 46.87042 76.09259 61.48150
# Shear Modulus (GPa) = 32.41540 39.57893 35.99716
#
# Velocity S-wave (km/s) = 3.76066 4.15548 3.96299
# Velocity P-wave (km/s) = 6.26945 7.49817 6.91117
#
# Compressibility (1/GPa) = 0.02133542
#
# Stress axis : x y z
#
# Youngs Moduli (GPa) = 93.80723 143.82388 70.53025
#
# Poissons Ratio (x) = 0.47057 -0.02130
# Poissons Ratio (y) = 0.30692 0.15927
# Poissons Ratio (z) = -0.02833 0.32478
#
# Static dielectric constant tensor:
#      x y z
#    x 1.859670 0.000000 0.031420 
#    y 0.000000 1.772020 0.000000 
#    z 0.031420 0.000000 2.041980 
# 
# From -- ./inp_files/220853.got.cif
#   From: 2010.05.17/outbox.cif.g08.bks.cpg/sg12_111_cif.got.tgz:220853.got - 2010.06.03 13:09:07.
