data_PCOD9194996
_publ_section_title
;
Structure prediction by ZEFSAII (Michael W. Deem and Ramdas Pophale) SiO2 
 PCOD9194996
Probable space group: C 2/M
;
_chemical_formula_sum "Si O2"
_cell_formula_units_Z 48
_cell_length_a 10.469531
_cell_length_b 14.833968
_cell_length_c 14.512886
_cell_angle_alpha 90.000000
_cell_angle_beta 93.186537
_cell_angle_gamma 90.000000
_cell_volume 2250.434340
_symmetry_space_group_name_H-M "C 2/M"
_symmetry_group_IT_number 12
_symmetry_cell_setting 'monoclinic'
loop_
_space_group_symop_operation_xyz
x,y,z
-x,y,-z
-x,-y,-z
x,-y,z
1/2+x,1/2+y,z
1/2-x,1/2+y,-z
1/2-x,1/2-y,-z
1/2+x,1/2-y,z
loop_
_atom_site_type_symbol
_atom_site_label
_atom_site_fract_x
_atom_site_fract_y
_atom_site_fract_z
Si Si1 0.518982 0.594123 0.889295
Si Si2 0.556915 0.096259 0.627392
Si Si3 0.661773 0.764275 0.359109
Si Si4 0.878398 0.274215 0.060897
Si Si5 0.719838 0.606781 0.498976
Si Si6 0.753425 0.861539 0.788580
O O1 0.585707 0.500000 0.868143
O O2 0.589703 0.687037 0.875722
O O3 0.383886 0.597093 0.832219
O O4 0.500000 0.594813 0.000000
O O5 0.468801 0.180137 0.646914
O O6 0.635052 0.105870 0.535676
O O7 0.671751 0.092762 0.705859
O O8 0.487295 0.000000 0.628249
O O9 0.648924 0.674392 0.423754
O O10 0.765848 0.833224 0.408161
O O11 0.702832 0.730857 0.260248
O O12 0.839871 0.352125 0.128496
O O13 0.750000 0.250000 0.000000
O O14 0.000000 0.291907 0.000000
O O15 0.679825 0.500000 0.503116
#
# Coordination Sequence:
#
# PCOD9194996 Si02
#       6
#     8   8   8   8   8   8
#     4  10  20  37  61  85 115 158 204 250 311 378
#     4  10  20  34  59  90 124 163 205 254 308 369
#     4  10  20  34  59  89 122 160 203 260 305 359
#     4  11  21  39  64  88 116 162 206 255 318 376
#     4   9  19  37  60  87 121 165 208 245 306 378
#     4  11  21  37  59  88 122 161 212 255 304 373
#
# _framework density 21.329215000000001
#
# number of rings (size 3 to 8) (size 9 to 14) (size 15 to 20)
#    0.000    1.833    3.333    2.500    0.000    2.000 
#    0.000    1.667    0.000   24.500    0.000    0.000 
#    0.000    0.000    0.000    0.000    0.000    0.000 
#
# Total GULP energy -133736.655277 kJ/mol
# GULP energy per Si atom -5572.360637 kJ/mol
# Density = 2.128067 g / cm^3
# Si number density = 21.329215 Si / 1000 Ang^3
#
#
#
# Elastic Constant Matrix: (Units=GPa)
#
#
# Indices 1 2 3 4 5 6 
#
# 1 79.0198 32.7658 26.4893 0.0000 11.6909 0.0000
# 2 32.7658 124.7847 14.2869 0.0000 5.0539 0.0000
# 3 26.4893 14.2869 82.2887 0.0000 6.3115 0.0000
# 4 0.0000 0.0000 0.0000 -20.8440 0.0000 -0.4948
# 5 11.6909 5.0539 6.3115 0.0000 35.0090 0.0000
# 6 0.0000 0.0000 0.0000 -0.4948 0.0000 22.7160
#
#
#
# Elastic Compliance Matrix: (Units=1/GPa)
#
#
# Indices 1 2 3 4 5 6 
#
# 1 0.016186 -0.003594 -0.004271 0.000000 -0.004116 0.000000
# 2 -0.003594 0.009005 -0.000404 0.000000 -0.000027 0.000000
# 3 -0.004271 -0.000404 0.013672 0.000000 -0.000980 0.000000
# 4 0.000000 0.000000 0.000000 -0.047951 0.000000 -0.001044
# 5 -0.004116 -0.000027 -0.000980 0.000000 0.030119 0.000000
# 6 0.000000 0.000000 0.000000 -0.001044 0.000000 0.043999
#
#
# Mechanical properties :
#
#
# Convention : Reuss Voigt Hill
#
# Bulk Modulus (GPa) = 44.79325 48.13082 46.46204
# Shear Modulus (GPa) = 56.17230 21.54628 38.85929
#
# Velocity S-wave (km/s) = 5.13741 3.18178 4.27298
# Velocity P-wave (km/s) = 7.49915 6.00940 6.79522
#
# Compressibility (1/GPa) = 0.02232479
#
# Stress axis : x y z
#
# Youngs Moduli (GPa) = 61.78126 111.04932 73.13969
#
# Poissons Ratio (x) = 0.39916 0.31235
# Poissons Ratio (y) = 0.22207 0.02957
# Poissons Ratio (z) = 0.26385 0.04490
#
# Static dielectric constant tensor:
#      x y z
#    x 1.791140 0.000000 0.015770 
#    y 0.000000 1.879110 0.000000 
#    z 0.015770 0.000000 1.882660 
# 
# From -- ./inp_files/204500.got.cif
#   From: 2010.05.17/outbox.cif.g08.bks.cpg/sg12_103_cif.got.tgz:204500.got - 2010.06.03 13:09:07.
