data_PCOD9194157
_publ_section_title
;
Structure prediction by ZEFSAII (Michael W. Deem and Ramdas Pophale) SiO2 
 PCOD9194157
Probable space group: C 2/M
;
_chemical_formula_sum "Si O2"
_cell_formula_units_Z 64
_cell_length_a 19.399289
_cell_length_b 8.728539
_cell_length_c 32.053642
_cell_angle_alpha 90.000000
_cell_angle_beta 40.504173
_cell_angle_gamma 90.000000
_cell_volume 3525.219794
_symmetry_space_group_name_H-M "C 2/M"
_symmetry_group_IT_number 12
_symmetry_cell_setting 'monoclinic'
loop_
_space_group_symop_operation_xyz
x,y,z
-x,y,-z
-x,-y,-z
x,-y,z
1/2+x,1/2+y,z
1/2-x,1/2+y,-z
1/2-x,1/2-y,-z
1/2+x,1/2-y,z
loop_
_atom_site_type_symbol
_atom_site_label
_atom_site_fract_x
_atom_site_fract_y
_atom_site_fract_z
Si Si1 0.092658 0.683028 0.185292
Si Si2 0.673958 0.815784 0.923675
Si Si3 0.512215 0.815734 0.926131
Si Si4 0.439994 0.682038 0.185073
Si Si5 0.795542 0.815500 0.702722
Si Si6 0.544118 0.816132 0.303043
Si Si7 0.026752 0.814360 0.441805
Si Si8 0.633187 0.316202 0.558589
O O1 0.085248 0.500000 0.184830
O O2 0.213759 0.735630 0.123505
O O3 0.059359 0.725786 0.247778
O O4 0.016411 0.758464 0.186372
O O5 0.613024 0.773771 0.908823
O O6 0.688017 0.000000 0.916843
O O7 0.592398 0.779349 0.998646
O O8 0.516399 0.735624 0.879886
O O9 0.515201 0.000000 0.919176
O O10 0.433387 0.500000 0.189447
O O11 0.322678 0.752534 0.243621
O O12 0.862208 0.754358 0.711627
O O13 0.863093 0.767307 0.630666
O O14 0.793866 0.000000 0.705458
O O15 0.433837 0.753677 0.372437
O O16 0.547219 0.000000 0.305345
O O17 0.000000 0.754802 0.500000
O O18 0.934618 0.775717 0.451464
O O19 0.030591 0.000000 0.442458
O O20 0.635599 0.500000 0.561231
O O21 0.750000 0.250000 0.500000
#
# Coordination Sequence:
#
# PCOD9194157 Si02
#       8
#     8   8   8   8   8   8   8   8
#     4  11  24  39  56  80 111 148 187 230 281 332
#     4   9  19  37  62  88 112 143 182 225 273 328
#     4   9  19  38  62  86 113 145 182 223 272 331
#     4  12  25  38  55  81 113 148 186 230 278 328
#     4  10  20  36  59  83 110 146 184 226 278 332
#     4  10  21  38  59  82 109 145 190 234 277 331
#     4   8  16  32  54  79 105 137 178 219 263 319
#     4  10  20  34  55  82 111 146 185 230 282 330
#
# _framework density 18.154896999999998
#
# number of rings (size 3 to 8) (size 9 to 14) (size 15 to 20)
#    0.000    2.125    0.000    4.875    0.000    6.500 
#    0.000    3.750    0.000   12.750    0.000    0.000 
#    0.000    0.000    0.000    0.000    0.000    0.000 
#
# Total GULP energy -178701.825404 kJ/mol
# GULP energy per Si atom -5584.432044 kJ/mol
# Density = 1.811358 g / cm^3
# Si number density = 18.154897 Si / 1000 Ang^3
#
#
#
# Elastic Constant Matrix: (Units=GPa)
#
#
# Indices 1 2 3 4 5 6 
#
# 1 128.8245 61.1782 109.5887 0.0000 4.7225 0.0020
# 2 61.1782 68.5717 62.2697 0.0017 2.2322 0.0013
# 3 109.5887 62.2697 138.7484 -0.0002 2.5708 -0.0001
# 4 0.0000 0.0017 -0.0002 30.4633 0.0001 -5.6117
# 5 4.7225 2.2322 2.5708 0.0001 34.8568 0.0005
# 6 0.0020 0.0013 -0.0001 -5.6117 0.0005 24.9581
#
#
#
# Elastic Compliance Matrix: (Units=1/GPa)
#
#
# Indices 1 2 3 4 5 6 
#
# 1 0.025931 -0.007610 -0.017034 0.000000 -0.001770 -0.000002
# 2 -0.007610 0.026869 -0.006044 -0.000002 -0.000244 -0.000001
# 3 -0.017034 -0.006044 0.023355 0.000001 0.000972 0.000002
# 4 0.000000 -0.000002 0.000001 0.034245 0.000000 0.007700
# 5 -0.001770 -0.000244 0.000972 0.000000 0.028873 -0.000001
# 6 -0.000002 -0.000001 0.000002 0.007700 -0.000001 0.041798
#
#
# Mechanical properties :
#
#
# Convention : Reuss Voigt Hill
#
# Bulk Modulus (GPa) = 67.65153 89.13530 78.39341
# Shear Modulus (GPa) = 20.21250 24.92951 22.57100
#
# Velocity S-wave (km/s) = 3.34029 3.70963 3.52979
# Velocity P-wave (km/s) = 7.22642 8.21901 7.73865
#
# Compressibility (1/GPa) = 0.01478163
#
# Stress axis : x y z
#
# Youngs Moduli (GPa) = 38.56342 37.21827 42.81671
#
# Poissons Ratio (x) = 0.28322 0.72932
# Poissons Ratio (y) = 0.29345 0.25877
# Poissons Ratio (z) = 0.65687 0.22493
#
# Static dielectric constant tensor:
#      x y z
#    x 1.593350 0.000000 0.011990 
#    y 0.000000 1.610550 0.000000 
#    z 0.011990 0.000000 1.617470 
# 
# From -- ./inp_files/378032.got.cif
#   From: 2010.05.17/outbox.cif.g08.bks.cpg/sg12_190_cif.got.tgz:378032.got - 2010.06.03 13:09:07.
