data_PCOD9194898
_publ_section_title
;
Structure prediction by ZEFSAII (Michael W. Deem and Ramdas Pophale) SiO2 
 PCOD9194898
Probable space group: C 2/M
;
_chemical_formula_sum "Si O2"
_cell_formula_units_Z 54
_cell_length_a 13.074024
_cell_length_b 14.363935
_cell_length_c 25.021430
_cell_angle_alpha 90.000000
_cell_angle_beta 34.319155
_cell_angle_gamma 90.000000
_cell_volume 2649.241803
_symmetry_space_group_name_H-M "C 2/M"
_symmetry_group_IT_number 12
_symmetry_cell_setting 'monoclinic'
loop_
_space_group_symop_operation_xyz
x,y,z
-x,y,-z
-x,-y,-z
x,-y,z
1/2+x,1/2+y,z
1/2-x,1/2+y,-z
1/2-x,1/2-y,-z
1/2+x,1/2-y,z
loop_
_atom_site_type_symbol
_atom_site_label
_atom_site_fract_x
_atom_site_fract_y
_atom_site_fract_z
Si Si1 0.233955 0.107104 0.536021
Si Si2 0.090946 0.890702 0.846788
Si Si3 0.000000 0.824516 0.000000
Si Si4 0.138304 0.387838 0.357797
Si Si5 0.074739 0.214105 0.691694
Si Si6 0.777448 0.171193 0.903207
Si Si7 0.500000 0.000000 0.000000
Si Si8 0.291323 0.393925 0.580281
O O1 0.436851 0.144149 0.458777
O O2 0.089786 0.174735 0.625397
O O3 0.224408 0.104117 0.476656
O O4 0.212480 0.000000 0.564699
O O5 0.926567 0.841505 0.885494
O O6 0.279007 0.861878 0.736106
O O7 0.068189 0.000000 0.845325
O O8 0.087270 0.877644 0.912040
O O9 0.852118 0.759493 0.034993
O O10 0.129439 0.500000 0.363668
O O11 0.279362 0.348640 0.339222
O O12 0.148068 0.319213 0.663762
O O13 0.887082 0.192196 0.801211
O O14 0.650060 0.081642 0.951427
O O15 0.500000 0.366750 0.500000
O O16 0.263102 0.500000 0.612758
#
# Coordination Sequence:
#
# PCOD9194898 Si02
#       8
#     8   8   4   8   8   8   2   8
#     4  10  20  34  58  87 121 157 203 252 305 369
#     4  10  20  39  65  90 125 158 206 258 326 377
#     4  11  23  39  61  92 120 164 209 267 307 397
#     4   9  19  34  58  92 120 151 191 257 317 366
#     4  11  21  35  61  90 119 157 209 257 302 375
#     4  10  23  40  65  92 124 162 208 265 328 382
#     4  10  20  44  70  86 128 168 196 260 350 382
#     4  10  22  39  55  78 125 181 210 248 302 359
#
# _framework density 20.383189999999999
#
# number of rings (size 3 to 8) (size 9 to 14) (size 15 to 20)
#    0.000    1.926    0.741    2.889    4.148    1.185 
#    2.667    0.741    0.000    0.000    0.000    0.000 
#    0.000    0.000    0.000    0.000    0.000    0.000 
#
# Total GULP energy -150450.114205 kJ/mol
# GULP energy per Si atom -5572.226452 kJ/mol
# Density = 2.033680 g / cm^3
# Si number density = 20.383190 Si / 1000 Ang^3
#
#
#
# Elastic Constant Matrix: (Units=GPa)
#
#
# Indices 1 2 3 4 5 6 
#
# 1 24.0263 3.2864 7.6590 0.0001 -1.3739 0.0004
# 2 3.2864 52.4169 24.8657 0.0000 -1.7283 -0.0001
# 3 7.6590 24.8657 78.1151 0.0005 10.7574 0.0003
# 4 0.0001 0.0000 0.0005 11.8604 -0.0001 2.7045
# 5 -1.3739 -1.7283 10.7574 -0.0001 27.5570 -0.0002
# 6 0.0004 -0.0001 0.0003 2.7045 -0.0002 -2.6711
#
#
#
# Elastic Compliance Matrix: (Units=1/GPa)
#
#
# Indices 1 2 3 4 5 6 
#
# 1 0.043391 -0.000368 -0.004684 -0.000001 0.003969 0.000004
# 2 -0.000368 0.023000 -0.007907 0.000001 0.004511 -0.000001
# 3 -0.004684 -0.007907 0.016780 -0.000001 -0.007280 0.000001
# 4 -0.000001 0.000001 -0.000001 0.068499 0.000001 0.069356
# 5 0.003969 0.004511 -0.007280 0.000001 0.039611 -0.000003
# 6 0.000004 -0.000001 0.000001 0.069356 -0.000003 -0.304155
#
#
# Mechanical properties :
#
#
# Convention : Reuss Voigt Hill
#
# Bulk Modulus (GPa) = 17.46553 25.13115 21.29834
# Shear Modulus (GPa) = -73.66873 15.26575 -29.20149
#
# Velocity S-wave (km/s) = -6.01834 2.73964 -3.78911
# Velocity P-wave (km/s) = 6.30132 4.72902 2.94474
#
# Compressibility (1/GPa) = 0.05725563
#
# Stress axis : x y z
#
# Youngs Moduli (GPa) = 23.04599 43.47760 59.59391
#
# Poissons Ratio (x) = 0.01599 0.27913
# Poissons Ratio (y) = 0.00847 0.47119
# Poissons Ratio (z) = 0.10795 0.34376
#
# Static dielectric constant tensor:
#      x y z
#    x 1.761310 0.000000 0.016230 
#    y 0.000000 1.731800 0.000000 
#    z 0.016230 0.000000 1.767270 
# 
# From -- ./inp_files/240925.got.cif
#   From: 2010.05.17/outbox.cif.g08.bks.cpg/sg12_121_cif.got.tgz:240925.got - 2010.06.03 13:09:07.
