data_PCOD9194148
_publ_section_title
;
Structure prediction by ZEFSAII (Michael W. Deem and Ramdas Pophale) SiO2 
 PCOD9194148
Probable space group: C 2/M
;
_chemical_formula_sum "Si O2"
_cell_formula_units_Z 56
_cell_length_a 15.721183
_cell_length_b 8.184632
_cell_length_c 24.554889
_cell_angle_alpha 90.000000
_cell_angle_beta 63.461321
_cell_angle_gamma 90.000000
_cell_volume 2826.618782
_symmetry_space_group_name_H-M "C 2/M"
_symmetry_group_IT_number 12
_symmetry_cell_setting 'monoclinic'
loop_
_space_group_symop_operation_xyz
x,y,z
-x,y,-z
-x,-y,-z
x,-y,z
1/2+x,1/2+y,z
1/2-x,1/2+y,-z
1/2-x,1/2-y,-z
1/2+x,1/2-y,z
loop_
_atom_site_type_symbol
_atom_site_label
_atom_site_fract_x
_atom_site_fract_y
_atom_site_fract_z
Si Si1 0.424193 0.197567 0.067759
Si Si2 0.397739 0.300046 0.290467
Si Si3 0.487404 0.305948 0.378367
Si Si4 0.317694 0.197786 0.638081
Si Si5 0.730930 0.302369 0.067454
Si Si6 0.981545 0.803167 0.847191
Si Si7 0.841674 0.693936 0.507665
O O1 0.319171 0.252854 0.079573
O O2 0.459550 0.257856 0.115897
O O3 0.424474 0.000000 0.068510
O O4 0.500000 0.250275 0.000000
O O5 0.399171 0.500000 0.290521
O O6 0.436314 0.244768 0.338170
O O7 0.288128 0.250716 0.314962
O O8 0.464542 0.244010 0.222198
O O9 0.476779 0.500000 0.382342
O O10 0.597588 0.260226 0.348699
O O11 0.434521 0.239791 0.446943
O O12 0.337240 0.257501 0.570643
O O13 0.320453 0.000000 0.637386
O O14 0.730205 0.500000 0.068962
O O15 0.626994 0.243077 0.115719
O O16 0.750000 0.250000 0.000000
O O17 0.977347 0.000000 0.845208
O O18 0.837361 0.500000 0.512893
O O19 0.750000 0.750000 0.500000
#
# Coordination Sequence:
#
# PCOD9194148 Si02
#       7
#     8   8   8   8   8   8   8
#     4  10  20  35  55  81 115 146 174 226 290 334
#     4   9  20  40  58  77 114 154 187 230 288 337
#     4  11  22  38  60  87 116 151 192 240 288 340
#     4  10  21  39  59  81 114 154 189 233 290 342
#     4  10  20  34  55  82 110 143 180 224 279 334
#     4  10  21  37  59  83 108 147 194 232 271 337
#     4  11  21  36  60  87 116 153 194 240 293 341
#
# _framework density 19.811657
#
# number of rings (size 3 to 8) (size 9 to 14) (size 15 to 20)
#    0.000    1.857    2.857    1.286    0.000    4.857 
#    0.000    3.571    0.000    0.000    0.000    0.000 
#    0.000    0.000    0.000    0.000    0.000    0.000 
#
# Total GULP energy -156409.145126 kJ/mol
# GULP energy per Si atom -5586.040897 kJ/mol
# Density = 1.976656 g / cm^3
# Si number density = 19.811657 Si / 1000 Ang^3
#
#
#
# Elastic Constant Matrix: (Units=GPa)
#
#
# Indices 1 2 3 4 5 6 
#
# 1 116.2677 1.5820 24.7047 0.0000 -30.6493 0.0000
# 2 1.5820 10.4713 3.5842 0.0000 -3.4553 0.0000
# 3 24.7047 3.5842 106.1810 0.0000 -27.4238 0.0000
# 4 0.0000 0.0000 0.0000 19.0687 0.0000 0.7099
# 5 -30.6493 -3.4553 -27.4238 0.0000 25.8607 0.0000
# 6 0.0000 0.0000 0.0000 0.7099 0.0000 29.4987
#
#
#
# Elastic Compliance Matrix: (Units=1/GPa)
#
#
# Indices 1 2 3 4 5 6 
#
# 1 0.012736 0.003208 0.001291 0.000000 0.016892 0.000000
# 2 0.003208 0.100712 0.000429 0.000000 0.017713 0.000000
# 3 0.001291 0.000429 0.013101 0.000000 0.015481 0.000000
# 4 0.000000 0.000000 0.000000 0.052489 0.000000 -0.001263
# 5 0.016892 0.017713 0.015481 0.000000 0.077472 0.000000
# 6 0.000000 0.000000 0.000000 -0.001263 0.000000 0.033930
#
#
# Mechanical properties :
#
#
# Convention : Reuss Voigt Hill
#
# Bulk Modulus (GPa) = 7.33108 32.51797 19.92453
# Shear Modulus (GPa) = 15.33495 28.42223 21.87859
#
# Velocity S-wave (km/s) = 2.78517 3.79175 3.32675
# Velocity P-wave (km/s) = 3.74851 5.96817 4.98349
#
# Compressibility (1/GPa) = 0.13640550
#
# Stress axis : x y z
#
# Youngs Moduli (GPa) = 78.51961 9.92926 76.32856
#
# Poissons Ratio (x) = -0.03185 -0.09856
# Poissons Ratio (y) = -0.25188 -0.03274
# Poissons Ratio (z) = -0.10139 -0.00426
#
# Static dielectric constant tensor:
#      x y z
#    x 1.687020 0.000000 -0.013440 
#    y 0.000000 1.702880 0.000000 
#    z -0.013440 0.000000 1.680830 
# 
# From -- ./inp_files/308994.got.cif
#   From: 2010.05.17/outbox.cif.g08.bks.cpg/sg12_155_cif.got.tgz:308994.got - 2010.06.03 13:09:07.
