data_PCOD9194254
_publ_section_title
;
Structure prediction by ZEFSAII (Michael W. Deem and Ramdas Pophale) SiO2 
 PCOD9194254
Probable space group: C 2/M
;
_chemical_formula_sum "Si O2"
_cell_formula_units_Z 64
_cell_length_a 14.944776
_cell_length_b 7.430881
_cell_length_c 27.613338
_cell_angle_alpha 90.000000
_cell_angle_beta 51.548520
_cell_angle_gamma 90.000000
_cell_volume 2401.514886
_symmetry_space_group_name_H-M "C 2/M"
_symmetry_group_IT_number 12
_symmetry_cell_setting 'monoclinic'
loop_
_space_group_symop_operation_xyz
x,y,z
-x,y,-z
-x,-y,-z
x,-y,z
1/2+x,1/2+y,z
1/2-x,1/2+y,-z
1/2-x,1/2-y,-z
1/2+x,1/2-y,z
loop_
_atom_site_type_symbol
_atom_site_label
_atom_site_fract_x
_atom_site_fract_y
_atom_site_fract_z
Si Si1 0.303673 0.292894 0.402906
Si Si2 0.226770 0.204298 0.088973
Si Si3 0.415937 0.283379 0.459254
Si Si4 0.913850 0.719990 0.960001
Si Si5 0.875987 0.282649 0.170838
Si Si6 0.666216 0.212297 0.363765
Si Si7 0.121979 0.289550 0.272823
Si Si8 0.992950 0.294646 0.779464
O O1 0.334499 0.500000 0.385008
O O2 0.392760 0.216119 0.411752
O O3 0.185096 0.289533 0.473575
O O4 0.266374 0.211995 0.363979
O O5 0.160184 0.205466 0.059868
O O6 0.133805 0.297858 0.153844
O O7 0.240406 0.000000 0.102701
O O8 0.351063 0.275477 0.030713
O O9 0.406262 0.500000 0.463217
O O10 0.543482 0.232738 0.430568
O O11 0.907733 0.500000 0.961597
O O12 0.041116 0.770535 0.901024
O O13 0.879181 0.500000 0.172030
O O14 0.747758 0.222314 0.207480
O O15 0.926239 0.214690 0.205846
O O16 0.644184 0.292813 0.318255
O O17 0.690132 0.000000 0.350039
O O18 0.093902 0.500000 0.288176
O O19 0.029646 0.212766 0.266035
O O20 0.029532 0.500000 0.760535
#
# Coordination Sequence:
#
# PCOD9194254 Si02
#       8
#     8   8   8   8   8   8   8   8
#     4   9  19  36  56  79 110 143 170 204 255 307
#     4   9  15  25  47  76  99 126 168 210 251 309
#     4  10  20  34  55  84 112 137 170 211 253 301
#     4   8  15  28  46  71 103 133 161 203 262 317
#     4   9  18  34  54  73  98 133 168 208 260 309
#     4  10  21  37  55  75 104 142 177 211 256 304
#     4  10  22  38  54  74 101 136 179 218 252 301
#     4   9  19  36  53  71 102 138 167 207 265 314
#
# _framework density 26.649847000000001
#
# number of rings (size 3 to 8) (size 9 to 14) (size 15 to 20)
#    0.000    2.750    0.000    1.875    0.000    7.000 
#    0.000    0.625    0.000    3.750    0.000    0.000 
#    0.000    0.000    0.000    0.000    0.000    0.000 
#
# Total GULP energy -178826.205910 kJ/mol
# GULP energy per Si atom -5588.318935 kJ/mol
# Density = 2.658919 g / cm^3
# Si number density = 26.649847 Si / 1000 Ang^3
#
#
#
# Elastic Constant Matrix: (Units=GPa)
#
#
# Indices 1 2 3 4 5 6 
#
# 1 170.3417 7.5081 45.5958 0.0000 26.0197 0.0002
# 2 7.5081 102.9039 15.4618 0.0000 1.8861 -0.0002
# 3 45.5958 15.4618 59.9244 -0.0001 -10.3690 -0.0001
# 4 0.0000 0.0000 -0.0001 21.3829 0.0000 -10.4833
# 5 26.0197 1.8861 -10.3690 0.0000 49.4128 0.0000
# 6 0.0002 -0.0002 -0.0001 -10.4833 0.0000 6.4417
#
#
#
# Elastic Compliance Matrix: (Units=1/GPa)
#
#
# Indices 1 2 3 4 5 6 
#
# 1 0.009015 0.000687 -0.008159 -0.000001 -0.006485 -0.000002
# 2 0.000687 0.010207 -0.003410 0.000000 -0.001467 0.000001
# 3 -0.008159 -0.003410 0.025466 0.000002 0.009770 0.000004
# 4 -0.000001 0.000000 0.000002 0.231364 0.000001 0.376524
# 5 -0.006485 -0.001467 0.009770 0.000001 0.025759 0.000002
# 6 -0.000002 0.000001 0.000004 0.376524 0.000002 0.767998
#
#
# Mechanical properties :
#
#
# Convention : Reuss Voigt Hill
#
# Bulk Modulus (GPa) = 43.62234 52.25573 47.93903
# Shear Modulus (GPa) = 4.54870 33.08777 18.81824
#
# Velocity S-wave (km/s) = 1.30788 3.52742 2.66019
# Velocity P-wave (km/s) = 4.32261 6.02006 5.24052
#
# Compressibility (1/GPa) = 0.02292404
#
# Stress axis : x y z
#
# Youngs Moduli (GPa) = 110.92941 97.97237 39.26805
#
# Poissons Ratio (x) = -0.06731 0.32037
# Poissons Ratio (y) = -0.07621 0.13391
# Poissons Ratio (z) = 0.90503 0.33410
#
# Static dielectric constant tensor:
#      x y z
#    x 2.080040 0.000000 0.047590 
#    y 0.000000 2.001680 0.000000 
#    z 0.047590 0.000000 2.184170 
# 
# From -- ./inp_files/375000.got.cif
#   From: 2010.05.17/outbox.cif.g08.bks.cpg/sg12_188_cif.got.tgz:375000.got - 2010.06.03 13:09:07.
