data_PCOD9194451
_publ_section_title
;
Structure prediction by ZEFSAII (Michael W. Deem and Ramdas Pophale) SiO2 
 PCOD9194451
Probable space group: C 2/M
;
_chemical_formula_sum "Si O2"
_cell_formula_units_Z 48
_cell_length_a 24.982450
_cell_length_b 15.595721
_cell_length_c 10.763934
_cell_angle_alpha 90.000000
_cell_angle_beta 32.548752
_cell_angle_gamma 90.000000
_cell_volume 2256.355584
_symmetry_space_group_name_H-M "C 2/M"
_symmetry_group_IT_number 12
_symmetry_cell_setting 'monoclinic'
loop_
_space_group_symop_operation_xyz
x,y,z
-x,y,-z
-x,-y,-z
x,-y,z
1/2+x,1/2+y,z
1/2-x,1/2+y,-z
1/2-x,1/2-y,-z
1/2+x,1/2-y,z
loop_
_atom_site_type_symbol
_atom_site_label
_atom_site_fract_x
_atom_site_fract_y
_atom_site_fract_z
Si Si1 0.379760 0.406019 0.488895
Si Si2 0.195578 0.689033 0.933673
Si Si3 0.489946 0.264729 0.828619
Si Si4 0.384581 0.904041 0.689405
Si Si5 0.324029 0.837807 0.550698
Si Si6 0.639101 0.596369 0.772129
O O1 0.414297 0.500000 0.459392
O O2 0.269217 0.387395 0.751819
O O3 0.456185 0.330062 0.374297
O O4 0.371131 0.402098 0.355809
O O5 0.255449 0.770116 0.761031
O O6 0.088595 0.699710 0.077596
O O7 0.172385 0.670013 0.122734
O O8 0.584367 0.211271 0.694266
O O9 0.428455 0.329713 0.035636
O O10 0.500000 0.896972 0.500000
O O11 0.368898 0.894467 0.573210
O O12 0.350933 0.000000 0.791898
O O13 0.251253 0.884886 0.597792
O O14 0.609749 0.500000 0.871453
#
# Coordination Sequence:
#
# PCOD9194451 Si02
#       6
#     8   8   8   8   8   8
#     4  10  21  37  57  83 116 151 187 228 277 334
#     4  10  21  37  58  84 112 147 187 234 282 330
#     4  10  20  34  56  83 111 145 188 227 273 330
#     4  11  21  36  60  81 108 148 188 230 282 340
#     4  10  21  37  58  84 112 147 187 234 282 330
#     4  10  21  37  57  83 116 151 187 228 277 334
#
# _framework density 21.273243000000001
#
# number of rings (size 3 to 8) (size 9 to 14) (size 15 to 20)
#    0.000    1.833    1.667    2.500    0.000    8.667 
#    0.000    0.000    0.000    2.000    0.000   14.000 
#    0.000    0.000    0.000    0.000    0.000    0.000 
#
# Total GULP energy -133822.419218 kJ/mol
# GULP energy per Si atom -5575.934134 kJ/mol
# Density = 2.122482 g / cm^3
# Si number density = 21.273243 Si / 1000 Ang^3
#
#
#
# Elastic Constant Matrix: (Units=GPa)
#
#
# Indices 1 2 3 4 5 6 
#
# 1 24.3523 -26.5913 23.7353 0.0000 -14.1438 0.0000
# 2 -26.5913 16.9605 23.6286 0.0000 2.7849 0.0000
# 3 23.7353 23.6286 91.6346 0.0000 -19.7713 0.0000
# 4 0.0000 0.0000 0.0000 27.5854 0.0000 6.6163
# 5 -14.1438 2.7849 -19.7713 0.0000 30.8077 0.0000
# 6 0.0000 0.0000 0.0000 6.6163 0.0000 15.2203
#
#
#
# Elastic Compliance Matrix: (Units=1/GPa)
#
#
# Indices 1 2 3 4 5 6 
#
# 1 -0.011033 -0.038859 0.014559 0.000000 0.007791 0.000000
# 2 -0.038859 -0.019586 0.013521 0.000000 -0.007392 0.000000
# 3 0.014559 0.013521 0.005611 0.000000 0.009063 0.000000
# 4 0.000000 0.000000 0.000000 0.040471 0.000000 -0.017593
# 5 0.007791 -0.007392 0.009063 0.000000 0.042520 0.000000
# 6 0.000000 0.000000 0.000000 -0.017593 0.000000 0.073349
#
#
# Mechanical properties :
#
#
# Convention : Reuss Voigt Hill
#
# Bulk Modulus (GPa) = -21.47447 19.38806 -1.04321
# Shear Modulus (GPa) = 36.39833 22.20099 29.29966
#
# Velocity S-wave (km/s) = 4.14090 3.23400 3.71523
# Velocity P-wave (km/s) = 3.57019 4.80402 4.23231
#
# Compressibility (1/GPa) = -0.04656692
#
# Stress axis : x y z
#
# Youngs Moduli (GPa) = -90.64109 -51.05596 178.22567
#
# Poissons Ratio (x) = -1.98397 -2.59472
# Poissons Ratio (y) = -3.52220 -2.40974
# Poissons Ratio (z) = 1.31961 0.69031
#
# Static dielectric constant tensor:
#      x y z
#    x 1.757270 0.000000 -0.014890 
#    y 0.000000 1.829760 0.000000 
#    z -0.014890 0.000000 1.790590 
# 
# From -- ./inp_files/131139.got.cif
#   From: 2010.05.17/outbox.cif.g08.bks.cpg/sg12_66_cif.got.tgz:131139.got - 2010.06.03 13:09:07.
