data_PCOD9194104
_publ_section_title
;
Structure prediction by ZEFSAII (Michael W. Deem and Ramdas Pophale) SiO2 
 PCOD9194104
Probable space group: C 2/M
;
_chemical_formula_sum "Si O2"
_cell_formula_units_Z 56
_cell_length_a 16.689918
_cell_length_b 7.826215
_cell_length_c 18.625019
_cell_angle_alpha 90.000000
_cell_angle_beta 66.381970
_cell_angle_gamma 90.000000
_cell_volume 2229.001630
_symmetry_space_group_name_H-M "C 2/M"
_symmetry_group_IT_number 12
_symmetry_cell_setting 'monoclinic'
loop_
_space_group_symop_operation_xyz
x,y,z
-x,y,-z
-x,-y,-z
x,-y,z
1/2+x,1/2+y,z
1/2-x,1/2+y,-z
1/2-x,1/2-y,-z
1/2+x,1/2-y,z
loop_
_atom_site_type_symbol
_atom_site_label
_atom_site_fract_x
_atom_site_fract_y
_atom_site_fract_z
Si Si1 0.768576 0.707877 0.259641
Si Si2 0.269499 0.300724 0.879737
Si Si3 0.883776 0.300016 0.593514
Si Si4 0.030948 0.706607 0.827715
Si Si5 0.849514 0.194789 0.450910
Si Si6 0.380084 0.297610 0.974282
Si Si7 0.991498 0.302677 0.688309
O O1 0.765645 0.500000 0.264048
O O2 0.721588 0.769428 0.203135
O O3 0.716585 0.780524 0.345383
O O4 0.868826 0.760262 0.215428
O O5 0.291597 0.500000 0.868286
O O6 0.326784 0.225649 0.923679
O O7 0.168234 0.285436 0.941008
O O8 0.905538 0.500000 0.577079
O O9 0.894640 0.215091 0.512772
O O10 0.938078 0.224379 0.641077
O O11 0.029229 0.500000 0.827812
O O12 0.984907 0.771395 0.770552
O O13 0.979688 0.766233 0.916584
O O14 0.750000 0.250000 0.500000
O O15 0.907148 0.297859 0.373192
O O16 0.851233 0.000000 0.427064
O O17 0.365958 0.500000 0.986188
O O18 0.964095 0.500000 0.702757
#
# Coordination Sequence:
#
# PCOD9194104 Si02
#       7
#     8   8   8   8   8   8   8
#     4  10  21  37  58  83 112 150 195 239 285 342
#     4   9  19  36  56  79 109 146 189 235 283 338
#     4  11  23  39  61  88 119 154 192 237 286 339
#     4  10  21  37  57  81 112 149 185 229 287 343
#     4  12  25  41  63  89 119 154 192 237 288 341
#     4  10  20  34  55  81 109 144 187 236 286 340
#     4  10  22  40  61  87 119 154 193 236 285 343
#
# _framework density 25.123355
#
# number of rings (size 3 to 8) (size 9 to 14) (size 15 to 20)
#    0.000    1.714    0.000    4.286    0.000    6.857 
#    0.000    2.857    0.000    0.000    0.000    0.000 
#    0.000    0.000    0.000    0.000    0.000    0.000 
#
# Total GULP energy -156705.398712 kJ/mol
# GULP energy per Si atom -5596.621383 kJ/mol
# Density = 2.506617 g / cm^3
# Si number density = 25.123355 Si / 1000 Ang^3
#
#
#
# Elastic Constant Matrix: (Units=GPa)
#
#
# Indices 1 2 3 4 5 6 
#
# 1 64.9989 -1.0409 -0.7305 0.0000 -12.5178 0.0000
# 2 -1.0409 55.9378 -10.0915 0.0000 4.9227 0.0000
# 3 -0.7305 -10.0915 122.1538 0.0000 -16.5189 0.0000
# 4 0.0000 0.0000 0.0000 23.9501 0.0000 -8.5992
# 5 -12.5178 4.9227 -16.5189 0.0000 47.0966 0.0000
# 6 0.0000 0.0000 0.0000 -8.5992 0.0000 19.4711
#
#
#
# Elastic Compliance Matrix: (Units=1/GPa)
#
#
# Indices 1 2 3 4 5 6 
#
# 1 0.016274 0.000030 0.000718 0.000000 0.004574 0.000000
# 2 0.000030 0.018241 0.001313 0.000000 -0.001438 0.000000
# 3 0.000718 0.001313 0.008720 0.000000 0.003112 0.000000
# 4 0.000000 0.000000 0.000000 0.049622 0.000000 0.021915
# 5 0.004574 -0.001438 0.003112 0.000000 0.023691 0.000000
# 6 0.000000 0.000000 0.000000 0.021915 0.000000 0.061037
#
#
# Mechanical properties :
#
#
# Convention : Reuss Voigt Hill
#
# Bulk Modulus (GPa) = 21.11618 24.37387 22.74503
# Shear Modulus (GPa) = 26.42029 35.10045 30.76037
#
# Velocity S-wave (km/s) = 3.24639 3.74187 3.50290
# Velocity P-wave (km/s) = 4.74081 5.32837 5.04316
#
# Compressibility (1/GPa) = 0.04735706
#
# Stress axis : x y z
#
# Youngs Moduli (GPa) = 61.44625 54.82173 114.67887
#
# Poissons Ratio (x) = -0.00164 -0.08238
# Poissons Ratio (y) = -0.00183 -0.15053
# Poissons Ratio (z) = -0.04414 -0.07196
#
# Static dielectric constant tensor:
#      x y z
#    x 2.114950 0.000000 0.009220 
#    y 0.000000 1.883070 0.000000 
#    z 0.009220 0.000000 1.941360 
# 
# From -- ./inp_files/275303.got.cif
#   From: 2010.05.17/outbox.cif.g08.bks.cpg/sg12_138_cif.got.tgz:275303.got - 2010.06.03 13:09:07.
