data_PCOD9194618
_publ_section_title
;
Structure prediction by ZEFSAII (Michael W. Deem and Ramdas Pophale) SiO2 
 PCOD9194618
Probable space group: C 2/M
;
_chemical_formula_sum "Si O2"
_cell_formula_units_Z 58
_cell_length_a 25.176802
_cell_length_b 9.711637
_cell_length_c 24.003973
_cell_angle_alpha 90.000000
_cell_angle_beta 150.657511
_cell_angle_gamma 90.000000
_cell_volume 2876.059956
_symmetry_space_group_name_H-M "C 2/M"
_symmetry_group_IT_number 12
_symmetry_cell_setting 'monoclinic'
loop_
_space_group_symop_operation_xyz
x,y,z
-x,y,-z
-x,-y,-z
x,-y,z
1/2+x,1/2+y,z
1/2-x,1/2+y,-z
1/2-x,1/2-y,-z
1/2+x,1/2-y,z
loop_
_atom_site_type_symbol
_atom_site_label
_atom_site_fract_x
_atom_site_fract_y
_atom_site_fract_z
Si Si1 0.890085 0.750323 0.330997
Si Si2 0.500000 0.000000 0.500000
Si Si3 0.922803 0.665738 0.082796
Si Si4 0.982197 0.342699 0.714487
Si Si5 0.777552 0.658155 0.119367
Si Si6 0.544245 0.659005 0.102947
Si Si7 0.247879 0.157217 0.694031
Si Si8 0.096484 0.156580 0.452234
O O1 0.947522 0.619658 0.411503
O O2 0.800587 0.701393 0.204322
O O3 0.836143 0.834805 0.331610
O O4 0.982361 0.829508 0.380784
O O5 0.914790 0.500000 0.070151
O O6 0.002911 0.696884 0.207659
O O7 0.969616 0.743193 0.072193
O O8 0.805518 0.735150 0.983933
O O9 0.944467 0.500000 0.677216
O O10 0.105105 0.338456 0.802684
O O11 0.910457 0.251156 0.608259
O O12 0.737401 0.500000 0.079988
O O13 0.546364 0.500000 0.124401
O O14 0.661577 0.729428 0.212040
O O15 0.500000 0.659306 0.000000
O O16 0.186794 0.191896 0.580674
O O17 0.290544 0.000000 0.729171
O O18 0.112904 0.000000 0.450019
#
# Coordination Sequence:
#
# PCOD9194618 Si02
#       8
#     8   2   8   8   8   8   8   8
#     4  11  21  33  57  86 123 160 196 233 286 343
#     4  12  20  32  54  88 122 168 194 236 286 340
#     4  11  23  41  61  85 116 151 192 241 292 341
#     4   9  21  38  60  87 118 153 191 233 284 347
#     4  10  20  34  56  87 119 152 194 233 281 341
#     4  11  26  44  63  85 111 148 197 241 285 341
#     4  11  23  38  58  85 119 154 192 241 291 342
#     4  10  21  36  57  89 122 153 189 236 288 344
#
# _framework density 20.166478999999999
#
# number of rings (size 3 to 8) (size 9 to 14) (size 15 to 20)
#    0.000    1.517    2.069    2.483    1.931    8.828 
#    0.000    0.690    0.000    0.000    0.000    0.000 
#    0.000    0.000    0.000    0.000    0.000    0.000 
#
# Total GULP energy -161756.165673 kJ/mol
# GULP energy per Si atom -5577.798816 kJ/mol
# Density = 2.012058 g / cm^3
# Si number density = 20.166479 Si / 1000 Ang^3
#
#
#
# Elastic Constant Matrix: (Units=GPa)
#
#
# Indices 1 2 3 4 5 6 
#
# 1 29.6424 18.2451 9.2339 0.0000 -20.3134 -0.0001
# 2 18.2451 109.6431 60.5876 0.0000 -19.9643 0.0000
# 3 9.2339 60.5876 83.7967 -0.0001 -20.8782 -0.0002
# 4 0.0000 0.0000 -0.0001 -107.8466 0.0000 -405.0725
# 5 -20.3134 -19.9643 -20.8782 0.0000 25.2383 0.0000
# 6 -0.0001 0.0000 -0.0002 -405.0725 0.0000-1078.9894
#
#
#
# Elastic Compliance Matrix: (Units=1/GPa)
#
#
# Indices 1 2 3 4 5 6 
#
# 1 0.085974 -0.009563 0.016119 0.000000 0.074967 0.000000
# 2 -0.009563 0.016531 -0.012040 0.000000 -0.004580 0.000000
# 3 0.016119 -0.012040 0.024842 0.000000 0.024000 0.000000
# 4 0.000000 0.000000 0.000000 0.022612 0.000000 -0.008489
# 5 0.074967 -0.004580 0.024000 0.000000 0.116191 0.000000
# 6 0.000000 0.000000 0.000000 -0.008489 0.000000 0.002260
#
#
# Mechanical properties :
#
#
# Convention : Reuss Voigt Hill
#
# Bulk Modulus (GPa) = 8.59266 44.35729 26.47498
# Shear Modulus (GPa) = 15.71484 -223.31851 -103.80183
#
# Velocity S-wave (km/s) = 2.79454 -10.53460 -7.18221
# Velocity P-wave (km/s) = 3.83181 11.22173 7.45803
#
# Compressibility (1/GPa) = 0.11637841
#
# Stress axis : x y z
#
# Youngs Moduli (GPa) = 11.63148 60.49290 40.25399
#
# Poissons Ratio (x) = 0.57851 -0.64885
# Poissons Ratio (y) = 0.11123 0.48465
# Poissons Ratio (z) = -0.18749 0.72832
#
# Static dielectric constant tensor:
#      x y z
#    x 1.756440 0.000000 0.022490 
#    y 0.000000 1.683600 0.000000 
#    z 0.022490 0.000000 1.712860 
# 
# From -- ./inp_files/351470.got.cif
#   From: 2010.05.17/outbox.cif.g08.bks.cpg/sg12_176_cif.got.tgz:351470.got - 2010.06.03 13:09:07.
