data_PCOD9194789
_publ_section_title
;
Structure prediction by ZEFSAII (Michael W. Deem and Ramdas Pophale) SiO2 
 PCOD9194789
Probable space group: C 2/M
;
_chemical_formula_sum "Si O2"
_cell_formula_units_Z 64
_cell_length_a 23.116641
_cell_length_b 9.035688
_cell_length_c 16.242378
_cell_angle_alpha 90.000000
_cell_angle_beta 91.346380
_cell_angle_gamma 90.000000
_cell_volume 3391.686090
_symmetry_space_group_name_H-M "C 2/M"
_symmetry_group_IT_number 12
_symmetry_cell_setting 'monoclinic'
loop_
_space_group_symop_operation_xyz
x,y,z
-x,y,-z
-x,-y,-z
x,-y,z
1/2+x,1/2+y,z
1/2-x,1/2+y,-z
1/2-x,1/2-y,-z
1/2+x,1/2-y,z
loop_
_atom_site_type_symbol
_atom_site_label
_atom_site_fract_x
_atom_site_fract_y
_atom_site_fract_z
Si Si1 0.760023 0.322799 0.089115
Si Si2 0.920066 0.823478 0.661413
Si Si3 0.834675 0.674271 0.546853
Si Si4 0.724235 0.825419 0.625756
Si Si5 0.164949 0.176290 0.777123
Si Si6 0.137781 0.823320 0.165896
Si Si7 0.468959 0.323510 0.237451
Si Si8 0.469541 0.823100 0.914447
O O1 0.765548 0.500000 0.081900
O O2 0.814676 0.253915 0.138165
O O3 0.703451 0.290083 0.143630
O O4 0.750000 0.250000 0.000000
O O5 0.894417 0.737020 0.583510
O O6 0.882271 0.783270 0.742040
O O7 0.986462 0.789942 0.687190
O O8 0.914177 0.000000 0.648643
O O9 0.829298 0.500000 0.563884
O O10 0.784214 0.762388 0.592814
O O11 0.821982 0.695212 0.449761
O O12 0.703903 0.739748 0.705189
O O13 0.730267 0.000000 0.643480
O O14 0.098242 0.208904 0.752852
O O15 0.171725 0.000000 0.784979
O O16 0.093847 0.744576 0.102002
O O17 0.129682 0.000000 0.159006
O O18 0.475038 0.500000 0.221910
O O19 0.492304 0.236341 0.159586
O O20 0.465885 0.000000 0.912282
O O21 0.500000 0.776983 0.000000
#
# Coordination Sequence:
#
# PCOD9194789 Si02
#       8
#     8   8   8   8   8   8   8   8
#     4  11  24  40  58  83 114 150 189 231 282 337
#     4   9  17  34  58  82 109 144 187 234 282 332
#     4  10  20  34  57  88 118 147 188 236 280 334
#     4  10  21  37  57  85 118 154 188 227 285 341
#     4  11  23  40  61  84 112 149 193 235 281 338
#     4   9  20  37  55  76 105 144 185 223 272 334
#     4   9  21  39  57  79 108 148 191 228 277 342
#     4  10  21  34  53  82 108 135 179 234 283 326
#
# _framework density 18.869672000000001
#
# number of rings (size 3 to 8) (size 9 to 14) (size 15 to 20)
#    0.000    2.125    0.000    3.375    1.750    7.500 
#    0.000    0.625    0.000    3.750    0.000    0.000 
#    0.000    0.000    0.000    0.000    0.000    0.000 
#
# Total GULP energy -178700.276734 kJ/mol
# GULP energy per Si atom -5584.383648 kJ/mol
# Density = 1.882672 g / cm^3
# Si number density = 18.869672 Si / 1000 Ang^3
#
#
#
# Elastic Constant Matrix: (Units=GPa)
#
#
# Indices 1 2 3 4 5 6 
#
# 1 70.6387 34.1277 31.2863 0.0000 19.5098 0.0000
# 2 34.1277 45.5455 33.8773 0.0000 14.3078 0.0000
# 3 31.2863 33.8773 60.1921 0.0000 24.6374 0.0000
# 4 0.0000 0.0000 0.0000 29.9217 0.0000 9.6122
# 5 19.5098 14.3078 24.6374 0.0000 30.3189 0.0000
# 6 0.0000 0.0000 0.0000 9.6122 0.0000 24.9408
#
#
#
# Elastic Compliance Matrix: (Units=1/GPa)
#
#
# Indices 1 2 3 4 5 6 
#
# 1 0.023794 -0.014718 -0.000988 0.000000 -0.007562 0.000000
# 2 -0.014718 0.046884 -0.020315 0.000000 0.003854 0.000000
# 3 -0.000988 -0.020315 0.036525 0.000000 -0.019458 0.000000
# 4 0.000000 0.000000 0.000000 0.038143 0.000000 -0.014700
# 5 -0.007562 0.003854 -0.019458 0.000000 0.051842 0.000000
# 6 0.000000 0.000000 0.000000 -0.014700 0.000000 0.045760
#
#
# Mechanical properties :
#
#
# Convention : Reuss Voigt Hill
#
# Bulk Modulus (GPa) = 28.44085 41.66210 35.05147
# Shear Modulus (GPa) = 15.30405 22.17528 18.73966
#
# Velocity S-wave (km/s) = 2.85097 3.43181 3.15478
# Velocity P-wave (km/s) = 5.09336 6.15060 5.64678
#
# Compressibility (1/GPa) = 0.03516070
#
# Stress axis : x y z
#
# Youngs Moduli (GPa) = 42.02796 21.32915 27.37845
#
# Poissons Ratio (x) = 0.31392 0.02706
# Poissons Ratio (y) = 0.61857 0.55618
# Poissons Ratio (z) = 0.04154 0.43329
#
# Static dielectric constant tensor:
#      x y z
#    x 1.672920 0.000000 0.021300 
#    y 0.000000 1.625410 0.000000 
#    z 0.021300 0.000000 1.641870 
# 
# From -- ./inp_files/238654.got.cif
#   From: 2010.05.17/outbox.cif.g08.bks.cpg/sg12_120_cif.got.tgz:238654.got - 2010.06.03 13:09:07.
