data_PCOD9194143
_publ_section_title
;
Structure prediction by ZEFSAII (Michael W. Deem and Ramdas Pophale) SiO2 
 PCOD9194143
Probable space group: C 2/M
;
_chemical_formula_sum "Si O2"
_cell_formula_units_Z 32
_cell_length_a 10.604642
_cell_length_b 13.976333
_cell_length_c 17.429899
_cell_angle_alpha 90.000000
_cell_angle_beta 27.240297
_cell_angle_gamma 90.000000
_cell_volume 1182.462002
_symmetry_space_group_name_H-M "C 2/M"
_symmetry_group_IT_number 12
_symmetry_cell_setting 'monoclinic'
loop_
_space_group_symop_operation_xyz
x,y,z
-x,y,-z
-x,-y,-z
x,-y,z
1/2+x,1/2+y,z
1/2-x,1/2+y,-z
1/2-x,1/2-y,-z
1/2+x,1/2-y,z
loop_
_atom_site_type_symbol
_atom_site_label
_atom_site_fract_x
_atom_site_fract_y
_atom_site_fract_z
Si Si1 0.213522 0.353292 0.267167
Si Si2 0.106736 0.856298 0.360010
Si Si3 0.038338 0.101194 0.227889
Si Si4 0.162447 0.674078 0.131463
O O1 0.058915 0.256996 0.375388
O O2 0.276080 0.402832 0.313564
O O3 0.090915 0.379485 0.250370
O O4 0.532783 0.342994 0.064479
O O5 0.495545 0.599234 0.342483
O O6 0.438952 0.858940 0.190133
O O7 0.000000 0.888457 0.500000
O O8 0.146241 0.210979 0.157199
O O9 0.192683 0.000000 0.127090
#
# Coordination Sequence:
#
# PCOD9194143 Si02
#       4
#     8   8   8   8
#     4   9  19  37  58  79 107 143 181 216 260 323
#     4  10  20  34  56  80 106 143 184 219 260 317
#     4  10  20  34  55  82 110 137 176 228 270 308
#     4   9  19  39  59  78 107 143 180 216 262 323
#
# _framework density 27.062180999999999
#
# number of rings (size 3 to 8) (size 9 to 14) (size 15 to 20)
#    0.000    2.500    0.000    3.000    0.000   12.500 
#    0.000   26.250    0.000   25.500    0.000    0.000 
#    0.000    0.000    0.000    0.000    0.000    0.000 
#
# Total GULP energy -89116.203575 kJ/mol
# GULP energy per Si atom -5569.762723 kJ/mol
# Density = 2.700059 g / cm^3
# Si number density = 27.062181 Si / 1000 Ang^3
#
#
#
# Elastic Constant Matrix: (Units=GPa)
#
#
# Indices 1 2 3 4 5 6 
#
# 1 237.7063 40.4831 35.5593 0.0031 62.1112 0.0091
# 2 40.4831 126.1380 17.6015 -0.0340 2.1296 0.0044
# 3 35.5593 17.6015 97.3418 -0.0205 15.1403 0.0270
# 4 0.0031 -0.0340 -0.0205 -5.6257 0.0109 -15.5580
# 5 62.1112 2.1296 15.1403 0.0109 44.5939 -0.0146
# 6 0.0091 0.0044 0.0270 -15.5580 -0.0146 -75.4092
#
#
#
# Elastic Compliance Matrix: (Units=1/GPa)
#
#
# Indices 1 2 3 4 5 6 
#
# 1 0.007192 -0.002040 -0.000755 -0.000014 -0.009664 0.000005
# 2 -0.002040 0.008712 -0.001275 -0.000097 0.002858 0.000019
# 3 -0.000755 -0.001275 0.011198 -0.000118 -0.002689 0.000029
# 4 -0.000014 -0.000097 -0.000118 -0.413935 0.000194 0.085401
# 5 -0.009664 0.002858 -0.002689 0.000194 0.036661 -0.000049
# 6 0.000005 0.000019 0.000029 0.085401 -0.000049 -0.030880
#
#
# Mechanical properties :
#
#
# Convention : Reuss Voigt Hill
#
# Bulk Modulus (GPa) = 52.73658 72.05267 62.39462
# Shear Modulus (GPa) = -13.63914 17.21461 1.78773
#
# Velocity S-wave (km/s) = -2.24741 2.52486 0.81366
# Velocity P-wave (km/s) = 3.57701 5.93149 4.89784
#
# Compressibility (1/GPa) = 0.01896217
#
# Stress axis : x y z
#
# Youngs Moduli (GPa) = 139.03675 114.78320 89.30400
#
# Poissons Ratio (x) = 0.23413 0.06747
# Poissons Ratio (y) = 0.28360 0.11384
# Poissons Ratio (z) = 0.10504 0.14632
#
# Static dielectric constant tensor:
#      x y z
#    x 2.217400 0.000010 0.008520 
#    y 0.000010 2.122060 0.000000 
#    z 0.008520 0.000000 2.144940 
# 
# From -- ./inp_files/63871.got.cif
#   From: 2010.05.17/outbox.cif.g08.bks.cpg/sg12_32_cif.got.tgz:63871.got - 2010.06.03 13:09:07.
