data_PCOD9194533
_publ_section_title
;
Structure prediction by ZEFSAII (Michael W. Deem and Ramdas Pophale) SiO2 
 PCOD9194533
Probable space group: C 2/M
;
_chemical_formula_sum "Si O2"
_cell_formula_units_Z 64
_cell_length_a 20.580151
_cell_length_b 8.309700
_cell_length_c 19.692833
_cell_angle_alpha 90.000000
_cell_angle_beta 90.287305
_cell_angle_gamma 90.000000
_cell_volume 3367.725147
_symmetry_space_group_name_H-M "C 2/M"
_symmetry_group_IT_number 12
_symmetry_cell_setting 'monoclinic'
loop_
_space_group_symop_operation_xyz
x,y,z
-x,y,-z
-x,-y,-z
x,-y,z
1/2+x,1/2+y,z
1/2-x,1/2+y,-z
1/2-x,1/2-y,-z
1/2+x,1/2-y,z
loop_
_atom_site_type_symbol
_atom_site_label
_atom_site_fract_x
_atom_site_fract_y
_atom_site_fract_z
Si Si1 0.700426 0.694310 0.056991
Si Si2 0.555081 0.807731 0.207333
Si Si3 0.979969 0.308635 0.340524
Si Si4 0.139383 0.190117 0.579539
Si Si5 0.298140 0.691897 0.791988
Si Si6 0.599771 0.304457 0.429594
Si Si7 0.449710 0.305166 0.941693
Si Si8 0.730646 0.693376 0.353665
O O1 0.700824 0.500000 0.058144
O O2 0.719249 0.754167 0.132993
O O3 0.625233 0.743856 0.044373
O O4 0.750000 0.750000 0.000000
O O5 0.507069 0.756333 0.267249
O O6 0.625081 0.724440 0.216768
O O7 0.531847 0.762510 0.131969
O O8 0.564084 0.000000 0.212245
O O9 0.970710 0.500000 0.338925
O O10 0.035354 0.264661 0.395410
O O11 0.913243 0.229426 0.363403
O O12 0.111976 0.248910 0.506951
O O13 0.208657 0.260763 0.600110
O O14 0.147318 0.000000 0.573062
O O15 0.287782 0.500000 0.793924
O O16 0.263896 0.755593 0.723826
O O17 0.594851 0.500000 0.428265
O O18 0.662635 0.253634 0.386228
O O19 0.450625 0.500000 0.937862
O O20 0.500000 0.254420 0.000000
O O21 0.727771 0.500000 0.350628
#
# Coordination Sequence:
#
# PCOD9194533 Si02
#       8
#     8   8   8   8   8   8   8   8
#     4   9  18  33  54  81 109 140 176 217 264 316
#     4  10  20  34  56  85 111 140 184 232 271 318
#     4  11  23  38  57  82 113 148 187 230 278 331
#     4  11  24  38  54  82 116 146 183 233 281 331
#     4   9  18  35  59  81 106 146 188 222 267 326
#     4  10  21  38  61  84 107 143 188 230 279 336
#     4   9  19  37  59  81 109 144 184 222 265 326
#     4  10  20  37  60  82 110 146 183 229 282 332
#
# _framework density 19.003926
#
# number of rings (size 3 to 8) (size 9 to 14) (size 15 to 20)
#    0.000    2.125    1.250    2.625    0.000    7.250 
#    2.250    0.000    0.000    0.000    0.000    0.000 
#    0.000    0.000    0.000    0.000    0.000    0.000 
#
# Total GULP energy -178605.849741 kJ/mol
# GULP energy per Si atom -5581.432804 kJ/mol
# Density = 1.896067 g / cm^3
# Si number density = 19.003926 Si / 1000 Ang^3
#
#
#
# Elastic Constant Matrix: (Units=GPa)
#
#
# Indices 1 2 3 4 5 6 
#
# 1 28.9669 -6.7543 -1.1083 0.0000 -1.9610 0.0000
# 2 -6.7543 -11.7744 2.0285 0.0000 -0.5479 0.0000
# 3 -1.1083 2.0285 93.0149 0.0000 -4.7787 0.0000
# 4 0.0000 0.0000 0.0000 24.1660 0.0000 -1.4787
# 5 -1.9610 -0.5479 -4.7787 0.0000 32.2187 0.0000
# 6 0.0000 0.0000 0.0000 -1.4787 0.0000 23.6789
#
#
#
# Elastic Compliance Matrix: (Units=1/GPa)
#
#
# Indices 1 2 3 4 5 6 
#
# 1 0.030592 -0.017484 0.000833 0.000000 0.001688 0.000000
# 2 -0.017484 -0.074576 0.001308 0.000000 -0.002138 0.000000
# 3 0.000833 0.001308 0.010819 0.000000 0.001678 0.000000
# 4 0.000000 0.000000 0.000000 0.041539 0.000000 0.002594
# 5 0.001688 -0.002138 0.001678 0.000000 0.031353 0.000000
# 6 0.000000 0.000000 0.000000 0.002594 0.000000 0.042394
#
#
# Mechanical properties :
#
#
# Convention : Reuss Voigt Hill
#
# Bulk Modulus (GPa) = -15.66134 10.94880 -2.35627
# Shear Modulus (GPa) = 54.63137 23.74880 39.19009
#
# Velocity S-wave (km/s) = 5.36748 3.53891 4.54608
# Velocity P-wave (km/s) = 5.49127 4.74051 5.12964
#
# Compressibility (1/GPa) = -0.06385148
#
# Stress axis : x y z
#
# Youngs Moduli (GPa) = 32.68870 -13.40919 92.43389
#
# Poissons Ratio (x) = -0.23444 -0.07695
# Poissons Ratio (y) = 0.57152 -0.12092
# Poissons Ratio (z) = -0.02721 0.01754
#
# Static dielectric constant tensor:
#      x y z
#    x 1.617710 0.000000 0.001090 
#    y 0.000000 1.662610 0.000000 
#    z 0.001090 0.000000 1.688750 
# 
# From -- ./inp_files/281252.got.cif
#   From: 2010.05.17/outbox.cif.g08.bks.cpg/sg12_141_cif.got.tgz:281252.got - 2010.06.03 13:09:07.
