data_PCOD9194588
_publ_section_title
;
Structure prediction by ZEFSAII (Michael W. Deem and Ramdas Pophale) SiO2 
 PCOD9194588
Probable space group: C 2/M
;
_chemical_formula_sum "Si O2"
_cell_formula_units_Z 64
_cell_length_a 21.180289
_cell_length_b 19.939468
_cell_length_c 22.892605
_cell_angle_alpha 90.000000
_cell_angle_beta 157.697536
_cell_angle_gamma 90.000000
_cell_volume 3669.000798
_symmetry_space_group_name_H-M "C 2/M"
_symmetry_group_IT_number 12
_symmetry_cell_setting 'monoclinic'
loop_
_space_group_symop_operation_xyz
x,y,z
-x,y,-z
-x,-y,-z
x,-y,z
1/2+x,1/2+y,z
1/2-x,1/2+y,-z
1/2-x,1/2-y,-z
1/2+x,1/2-y,z
loop_
_atom_site_type_symbol
_atom_site_label
_atom_site_fract_x
_atom_site_fract_y
_atom_site_fract_z
Si Si1 0.829524 0.076532 0.066274
Si Si2 0.632575 0.284811 0.565574
Si Si3 0.942611 0.574613 0.064615
Si Si4 0.186605 0.925386 0.564601
Si Si5 0.622405 0.789109 0.433240
Si Si6 0.998567 0.715188 0.065569
Si Si7 0.196937 0.923467 0.433689
Si Si8 0.255941 0.210894 0.066776
O O1 0.015893 0.085942 0.249981
O O2 0.813116 0.000000 0.030418
O O3 0.701765 0.083435 0.011030
O O4 0.786813 0.133797 0.983687
O O5 0.500000 0.262261 0.500000
O O6 0.599163 0.362667 0.520052
O O7 0.626610 0.243091 0.500820
O O8 0.816874 0.280642 0.750003
O O9 0.924923 0.500000 0.023241
O O10 0.119991 0.576756 0.250007
O O11 0.940940 0.637332 0.020053
O O12 0.179677 0.916563 0.488943
O O13 0.121547 0.000000 0.523226
O O14 0.750000 0.750000 0.500000
O O15 0.680593 0.866204 0.483717
O O16 0.439684 0.782954 0.250008
O O17 0.000000 0.737739 0.000000
O O18 0.875017 0.756906 0.000808
O O19 0.252227 0.000000 0.469532
O O20 0.250000 0.250000 0.000000
#
# Coordination Sequence:
#
# PCOD9194588 Si02
#       8
#     8   8   8   8   8   8   8   8
#     4  10  20  34  56  86 116 146 185 233 284 339
#     4  11  23  38  56  81 115 154 194 239 285 340
#     4   9  18  33  53  78 111 152 193 231 275 330
#     4   9  18  33  53  78 111 152 193 231 275 330
#     4  12  23  37  59  85 114 150 192 239 286 338
#     4  11  23  38  56  81 115 154 194 239 285 340
#     4  10  20  34  56  86 116 146 185 233 284 339
#     4  12  23  37  59  85 114 150 192 239 286 338
#
# _framework density 17.443442000000001
#
# number of rings (size 3 to 8) (size 9 to 14) (size 15 to 20)
#    0.000    1.500    2.500    3.750    0.000    3.000 
#    0.000    0.000    0.000    0.750    0.000    0.000 
#    0.000    0.000    0.000    0.000    0.000    0.000 
#
# Total GULP energy -178753.505227 kJ/mol
# GULP energy per Si atom -5586.047038 kJ/mol
# Density = 1.740374 g / cm^3
# Si number density = 17.443442 Si / 1000 Ang^3
#
#
#
# Elastic Constant Matrix: (Units=GPa)
#
#
# Indices 1 2 3 4 5 6 
#
# 1 125.2214 64.7234 44.1124 0.0013 2.5440 0.0000
# 2 64.7234 100.0315 44.2093 -0.0147 1.9051 -0.0010
# 3 44.1124 44.2093 66.0364 -0.0052 2.9744 0.0044
# 4 0.0013 -0.0147 -0.0052 25.6659 0.0039 -0.3423
# 5 2.5440 1.9051 2.9744 0.0039 26.8734 0.0055
# 6 0.0000 -0.0010 0.0044 -0.3423 0.0055 21.9552
#
#
#
# Elastic Compliance Matrix: (Units=1/GPa)
#
#
# Indices 1 2 3 4 5 6 
#
# 1 0.012795 -0.006393 -0.004254 -0.000005 -0.000287 0.000001
# 2 -0.006393 0.017392 -0.007381 0.000009 0.000189 0.000002
# 3 -0.004254 -0.007381 0.022999 0.000001 -0.001620 -0.000005
# 4 -0.000005 0.000009 0.000001 0.038970 -0.000006 0.000608
# 5 -0.000287 0.000189 -0.001620 -0.000006 0.037405 -0.000009
# 6 0.000001 0.000002 -0.000005 0.000608 -0.000009 0.045557
#
#
# Mechanical properties :
#
#
# Convention : Reuss Voigt Hill
#
# Bulk Modulus (GPa) = 58.37961 66.37552 62.37756
# Shear Modulus (GPa) = 23.05379 24.11516 23.58447
#
# Velocity S-wave (km/s) = 3.63937 3.72220 3.68102
# Velocity P-wave (km/s) = 7.15546 7.52380 7.34194
#
# Compressibility (1/GPa) = 0.01712927
#
# Stress axis : x y z
#
# Youngs Moduli (GPa) = 78.15789 57.49802 43.47941
#
# Poissons Ratio (x) = 0.36758 0.18496
# Poissons Ratio (y) = 0.49966 0.32094
# Poissons Ratio (z) = 0.33248 0.42441
#
# Static dielectric constant tensor:
#      x y z
#    x 1.553820 0.000000 -0.002430 
#    y 0.000000 1.620440 0.000000 
#    z -0.002430 0.000000 1.579850 
# 
# From -- ./inp_files/99117.got.cif
#   From: 2010.05.17/outbox.cif.g08.bks.cpg/sg12_50_cif.got.tgz:99117.got - 2010.06.03 13:09:07.
