data_PCOD9194215
_publ_section_title
;
Structure prediction by ZEFSAII (Michael W. Deem and Ramdas Pophale) SiO2 
 PCOD9194215
Probable space group: C 2/M
;
_chemical_formula_sum "Si O2"
_cell_formula_units_Z 64
_cell_length_a 14.411521
_cell_length_b 17.251758
_cell_length_c 15.006825
_cell_angle_alpha 90.000000
_cell_angle_beta 76.018501
_cell_angle_gamma 90.000000
_cell_volume 3620.520855
_symmetry_space_group_name_H-M "C 2/M"
_symmetry_group_IT_number 12
_symmetry_cell_setting 'monoclinic'
loop_
_space_group_symop_operation_xyz
x,y,z
-x,y,-z
-x,-y,-z
x,-y,z
1/2+x,1/2+y,z
1/2-x,1/2+y,-z
1/2-x,1/2-y,-z
1/2+x,1/2-y,z
loop_
_atom_site_type_symbol
_atom_site_label
_atom_site_fract_x
_atom_site_fract_y
_atom_site_fract_z
Si Si1 0.236375 0.328349 0.797441
Si Si2 0.609505 0.408733 0.359861
Si Si3 0.227807 0.693741 0.087692
Si Si4 0.886513 0.407502 0.015390
Si Si5 0.890151 0.233378 0.519854
Si Si6 0.702896 0.273699 0.648546
Si Si7 0.914598 0.908802 0.085286
Si Si8 0.425776 0.410740 0.286627
O O1 0.307376 0.386220 0.729514
O O2 0.292974 0.255818 0.829605
O O3 0.177176 0.286192 0.732685
O O4 0.172548 0.370213 0.887616
O O5 0.610451 0.500000 0.378369
O O6 0.617168 0.356586 0.446481
O O7 0.510861 0.387261 0.332793
O O8 0.149973 0.634475 0.066415
O O9 0.321890 0.644369 0.092244
O O10 0.250000 0.750000 0.000000
O O11 0.868439 0.500000 0.016563
O O12 0.000000 0.394868 0.000000
O O13 0.816192 0.272894 0.605101
O O14 0.848745 0.247820 0.431717
O O15 0.000000 0.257123 0.500000
O O16 0.665557 0.357852 0.680363
O O17 0.953710 0.902928 0.176699
O O18 0.890978 0.000000 0.074462
O O19 0.000000 0.885774 0.000000
O O20 0.404386 0.500000 0.308976
#
# Coordination Sequence:
#
# PCOD9194215 Si02
#       8
#     8   8   8   8   8   8   8   8
#     4  10  21  37  55  82 112 146 189 230 274 328
#     4  10  21  35  57  86 113 144 182 230 286 336
#     4  10  21  34  52  77 106 144 184 226 270 317
#     4  10  22  39  56  76 107 151 195 232 269 312
#     4  10  20  36  59  82 113 148 176 225 284 335
#     4  10  20  37  55  84 114 143 184 222 277 338
#     4  10  21  35  53  79 113 149 181 223 276 328
#     4  10  20  34  55  83 113 146 182 225 275 330
#
# _framework density 17.677014
#
# number of rings (size 3 to 8) (size 9 to 14) (size 15 to 20)
#    0.000    2.000    2.500    0.750    3.500    3.750 
#    0.000    0.000    0.000    0.375    0.000    0.000 
#    0.000    0.000    0.000    0.000    0.000    0.000 
#
# Total GULP energy -178356.870858 kJ/mol
# GULP energy per Si atom -5573.652214 kJ/mol
# Density = 1.763678 g / cm^3
# Si number density = 17.677014 Si / 1000 Ang^3
#
#
#
# Elastic Constant Matrix: (Units=GPa)
#
#
# Indices 1 2 3 4 5 6 
#
# 1 68.7089 30.6861 13.3783 0.0000 1.4773 0.0000
# 2 30.6861 64.6894 22.0065 0.0000 7.5094 0.0000
# 3 13.3783 22.0065 59.8872 0.0000 9.0549 0.0000
# 4 0.0000 0.0000 0.0000 24.8496 0.0000 2.1005
# 5 1.4773 7.5094 9.0549 0.0000 29.1107 0.0000
# 6 0.0000 0.0000 0.0000 2.1005 0.0000 23.1605
#
#
#
# Elastic Compliance Matrix: (Units=1/GPa)
#
#
# Indices 1 2 3 4 5 6 
#
# 1 0.018598 -0.008590 -0.001249 0.000000 0.001661 0.000000
# 2 -0.008590 0.021833 -0.005581 0.000000 -0.003460 0.000000
# 3 -0.001249 -0.005581 0.019729 0.000000 -0.004634 0.000000
# 4 0.000000 0.000000 0.000000 0.040553 0.000000 -0.003678
# 5 0.001661 -0.003460 -0.004634 0.000000 0.036601 0.000000
# 6 0.000000 0.000000 0.000000 -0.003678 0.000000 0.043510
#
#
# Mechanical properties :
#
#
# Convention : Reuss Voigt Hill
#
# Bulk Modulus (GPa) = 34.10665 36.15858 35.13261
# Shear Modulus (GPa) = 22.57966 23.90513 23.24240
#
# Velocity S-wave (km/s) = 3.57787 3.68139 3.63000
# Velocity P-wave (km/s) = 6.03361 6.21045 6.12267
#
# Compressibility (1/GPa) = 0.02931980
#
# Stress axis : x y z
#
# Youngs Moduli (GPa) = 53.76902 45.80129 50.68807
#
# Poissons Ratio (x) = 0.39343 0.06332
# Poissons Ratio (y) = 0.46187 0.28289
# Poissons Ratio (z) = 0.06717 0.25561
#
# Static dielectric constant tensor:
#      x y z
#    x 1.593210 0.000000 0.009470 
#    y 0.000000 1.603210 0.000000 
#    z 0.009470 0.000000 1.641450 
# 
# From -- ./inp_files/215899.got.cif
#   From: 2010.05.17/outbox.cif.g08.bks.cpg/sg12_108_cif.got.tgz:215899.got - 2010.06.03 13:09:07.
