data_PCOD9194054
_publ_section_title
;
Structure prediction by ZEFSAII (Michael W. Deem and Ramdas Pophale) SiO2 
 PCOD9194054
Probable space group: C 2/M
;
_chemical_formula_sum "Si O2"
_cell_formula_units_Z 48
_cell_length_a 13.969392
_cell_length_b 10.061301
_cell_length_c 18.148496
_cell_angle_alpha 90.000000
_cell_angle_beta 109.126972
_cell_angle_gamma 90.000000
_cell_volume 2409.959624
_symmetry_space_group_name_H-M "C 2/M"
_symmetry_group_IT_number 12
_symmetry_cell_setting 'monoclinic'
loop_
_space_group_symop_operation_xyz
x,y,z
-x,y,-z
-x,-y,-z
x,-y,z
1/2+x,1/2+y,z
1/2-x,1/2+y,-z
1/2-x,1/2-y,-z
1/2+x,1/2-y,z
loop_
_atom_site_type_symbol
_atom_site_label
_atom_site_fract_x
_atom_site_fract_y
_atom_site_fract_z
Si Si1 0.198004 0.648824 0.846014
Si Si2 0.653287 0.354087 0.247325
Si Si3 0.210627 0.345424 0.381285
Si Si4 0.381034 0.152703 0.478537
Si Si5 0.489663 0.777184 0.119474
Si Si6 0.849907 0.349044 0.953291
O O1 0.228296 0.500000 0.877690
O O2 0.244566 0.660130 0.775991
O O3 0.078952 0.663959 0.832211
O O4 0.253911 0.764304 0.905180
O O5 0.653614 0.500000 0.282577
O O6 0.650289 0.234002 0.303608
O O7 0.555583 0.342596 0.169069
O O8 0.228219 0.500000 0.367299
O O9 0.313258 0.260637 0.419320
O O10 0.151364 0.340339 0.443954
O O11 0.500000 0.177676 0.500000
O O12 0.360572 0.000000 0.448541
O O13 0.578248 0.858290 0.100634
O O14 0.410536 0.768875 0.031638
O O15 0.829981 0.500000 0.973042
#
# Coordination Sequence:
#
# PCOD9194054 Si02
#       6
#     8   8   8   8   8   8
#     4  10  21  36  54  76 105 143 184 225 273 328
#     4  10  23  39  54  77 111 149 184 221 266 319
#     4  10  21  37  59  86 115 145 177 220 266 311
#     4   9  19  38  63  88 113 144 179 214 260 318
#     4  10  20  35  55  77 104 140 182 225 276 328
#     4  10  20  34  55  80 104 134 178 234 285 326
#
# _framework density 19.917345999999998
#
# number of rings (size 3 to 8) (size 9 to 14) (size 15 to 20)
#    0.000    2.167    0.000    3.000    0.000    7.667 
#    0.000    8.333    0.000    0.000    0.000    0.000 
#    0.000    0.000    0.000    0.000    0.000    0.000 
#
# Total GULP energy -133651.351882 kJ/mol
# GULP energy per Si atom -5568.806328 kJ/mol
# Density = 1.987201 g / cm^3
# Si number density = 19.917346 Si / 1000 Ang^3
#
#
#
# Elastic Constant Matrix: (Units=GPa)
#
#
# Indices 1 2 3 4 5 6 
#
# 1 101.1999 49.1636 11.2322 0.0000 7.5144 0.0000
# 2 49.1636 126.9670 57.1089 0.0000 10.5202 0.0000
# 3 11.2322 57.1089 52.8973 0.0000 9.9435 0.0000
# 4 0.0000 0.0000 0.0000 -23.0177 0.0000 4.9368
# 5 7.5144 10.5202 9.9435 0.0000 12.1062 0.0000
# 6 0.0000 0.0000 0.0000 4.9368 0.0000 7.6408
#
#
#
# Elastic Compliance Matrix: (Units=1/GPa)
#
#
# Indices 1 2 3 4 5 6 
#
# 1 0.013364 -0.007602 0.006726 0.000000 -0.007213 0.000000
# 2 -0.007602 0.019637 -0.020418 0.000000 0.004425 0.000000
# 3 0.006726 -0.020418 0.043720 0.000000 -0.022341 0.000000
# 4 0.000000 0.000000 0.000000 -0.038157 0.000000 0.024654
# 5 -0.007213 0.004425 -0.022341 0.000000 0.101584 0.000000
# 6 0.000000 0.000000 0.000000 0.024654 0.000000 0.114947
#
#
# Mechanical properties :
#
#
# Convention : Reuss Voigt Hill
#
# Bulk Modulus (GPa) = 29.29860 57.34150 43.32005
# Shear Modulus (GPa) = 16.17810 10.24983 13.21397
#
# Velocity S-wave (km/s) = 2.85311 2.27098 2.57853
# Velocity P-wave (km/s) = 5.05922 5.97735 5.53735
#
# Compressibility (1/GPa) = 0.03413132
#
# Stress axis : x y z
#
# Youngs Moduli (GPa) = 74.82965 50.92451 22.87307
#
# Poissons Ratio (x) = 0.38713 -0.15383
# Poissons Ratio (y) = 0.56886 0.46702
# Poissons Ratio (z) = -0.50327 1.03977
#
# Static dielectric constant tensor:
#      x y z
#    x 1.708340 0.000000 -0.021100 
#    y 0.000000 1.710040 0.000000 
#    z -0.021100 0.000000 1.741080 
# 
# From -- ./inp_files/308590.got.cif
#   From: 2010.05.17/outbox.cif.g08.bks.cpg/sg12_155_cif.got.tgz:308590.got - 2010.06.03 13:09:07.
