data_PCOD9194258
_publ_section_title
;
Structure prediction by ZEFSAII (Michael W. Deem and Ramdas Pophale) SiO2 
 PCOD9194258
Probable space group: C 2/M
;
_chemical_formula_sum "Si O2"
_cell_formula_units_Z 56
_cell_length_a 30.562304
_cell_length_b 8.853834
_cell_length_c 12.715218
_cell_angle_alpha 90.000000
_cell_angle_beta 105.547709
_cell_angle_gamma 90.000000
_cell_volume 3314.754301
_symmetry_space_group_name_H-M "C 2/M"
_symmetry_group_IT_number 12
_symmetry_cell_setting 'monoclinic'
loop_
_space_group_symop_operation_xyz
x,y,z
-x,y,-z
-x,-y,-z
x,-y,z
1/2+x,1/2+y,z
1/2-x,1/2+y,-z
1/2-x,1/2-y,-z
1/2+x,1/2-y,z
loop_
_atom_site_type_symbol
_atom_site_label
_atom_site_fract_x
_atom_site_fract_y
_atom_site_fract_z
Si Si1 0.048765 0.819164 0.979297
Si Si2 0.941724 0.680346 0.624818
Si Si3 0.698834 0.680108 0.348422
Si Si4 0.696460 0.179980 0.579229
Si Si5 0.454281 0.819017 0.254190
Si Si6 0.112808 0.680474 0.194912
Si Si7 0.391923 0.679749 0.392431
O O1 0.050943 0.746956 0.865664
O O2 0.052266 0.000000 0.974418
O O3 0.087347 0.754267 0.080456
O O4 0.000000 0.781485 0.000000
O O5 0.937321 0.500000 0.602330
O O6 0.916228 0.714079 0.717888
O O7 0.918838 0.767816 0.514383
O O8 0.994814 0.716511 0.672029
O O9 0.692147 0.500000 0.350816
O O10 0.691185 0.752284 0.458642
O O11 0.751481 0.708804 0.354037
O O12 0.662626 0.752730 0.246932
O O13 0.658734 0.255005 0.627706
O O14 0.689298 0.000000 0.569471
O O15 0.417984 0.749020 0.310076
O O16 0.450037 0.000000 0.248959
O O17 0.114454 0.500000 0.184206
O O18 0.390997 0.500000 0.385736
#
# Coordination Sequence:
#
# PCOD9194258 Si02
#       7
#     8   8   8   8   8   8   8
#     4  11  23  38  58  83 113 146 188 238 280 321
#     4  10  21  36  55  81 113 151 189 227 274 334
#     4  10  20  34  55  84 113 144 184 232 281 328
#     4  10  20  35  55  80 113 149 185 225 278 339
#     4  11  23  40  59  78 110 152 195 232 275 335
#     4  11  21  35  58  84 115 150 186 228 279 334
#     4  12  24  36  55  83 116 150 188 232 282 334
#
# _framework density 16.894162999999999
#
# number of rings (size 3 to 8) (size 9 to 14) (size 15 to 20)
#    0.000    1.286    2.857    3.857    0.000    5.714 
#    0.000    0.000    0.000    0.857    0.000    0.000 
#    0.000    0.000    0.000    0.000    0.000    0.000 
#
# Total GULP energy -156517.592329 kJ/mol
# GULP energy per Si atom -5589.914012 kJ/mol
# Density = 1.685571 g / cm^3
# Si number density = 16.894163 Si / 1000 Ang^3
#
#
#
# Elastic Constant Matrix: (Units=GPa)
#
#
# Indices 1 2 3 4 5 6 
#
# 1 141.8377 73.8189 71.5004 0.0000 3.2334 0.0000
# 2 73.8189 86.1494 54.7929 0.0000 -0.6046 0.0000
# 3 71.5004 54.7929 83.7082 0.0000 2.1858 0.0000
# 4 0.0000 0.0000 0.0000 28.4631 0.0000 -1.1210
# 5 3.2334 -0.6046 2.1858 0.0000 29.8036 0.0000
# 6 0.0000 0.0000 0.0000 -1.1210 0.0000 27.2335
#
#
#
# Elastic Compliance Matrix: (Units=1/GPa)
#
#
# Indices 1 2 3 4 5 6 
#
# 1 0.015141 -0.008186 -0.007542 0.000000 -0.001256 0.000000
# 2 -0.008186 0.024368 -0.009012 0.000000 0.002043 0.000000
# 3 -0.007542 -0.009012 0.024317 0.000000 -0.001148 0.000000
# 4 0.000000 0.000000 0.000000 0.035190 0.000000 0.001448
# 5 -0.001256 0.002043 -0.001148 0.000000 0.033815 0.000000
# 6 0.000000 0.000000 0.000000 0.001448 0.000000 0.036779
#
#
# Mechanical properties :
#
#
# Convention : Reuss Voigt Hill
#
# Bulk Modulus (GPa) = 69.70129 79.10219 74.40174
# Shear Modulus (GPa) = 22.33413 24.53892 23.43652
#
# Velocity S-wave (km/s) = 3.63988 3.81531 3.72863
# Velocity P-wave (km/s) = 7.68194 8.14449 7.91659
#
# Compressibility (1/GPa) = 0.01434694
#
# Stress axis : x y z
#
# Youngs Moduli (GPa) = 66.04485 41.03713 41.12331
#
# Poissons Ratio (x) = 0.33593 0.31015
# Poissons Ratio (y) = 0.54065 0.37059
# Poissons Ratio (z) = 0.49811 0.36982
#
# Static dielectric constant tensor:
#      x y z
#    x 1.571270 0.000000 0.010310 
#    y 0.000000 1.559510 0.000000 
#    z 0.010310 0.000000 1.533240 
# 
# From -- ./inp_files/181092.got.cif
#   From: 2010.05.17/outbox.cif.g08.bks.cpg/sg12_91_cif.got.tgz:181092.got - 2010.06.03 13:09:07.
