data_PCOD9194589
_publ_section_title
;
Structure prediction by ZEFSAII (Michael W. Deem and Ramdas Pophale) SiO2 
 PCOD9194589
Probable space group: C 2/M
;
_chemical_formula_sum "Si O2"
_cell_formula_units_Z 56
_cell_length_a 20.493794
_cell_length_b 14.359014
_cell_length_c 8.331609
_cell_angle_alpha 90.000000
_cell_angle_beta 98.230389
_cell_angle_gamma 90.000000
_cell_volume 2426.496284
_symmetry_space_group_name_H-M "C 2/M"
_symmetry_group_IT_number 12
_symmetry_cell_setting 'monoclinic'
loop_
_space_group_symop_operation_xyz
x,y,z
-x,y,-z
-x,-y,-z
x,-y,z
1/2+x,1/2+y,z
1/2-x,1/2+y,-z
1/2-x,1/2-y,-z
1/2+x,1/2-y,z
loop_
_atom_site_type_symbol
_atom_site_label
_atom_site_fract_x
_atom_site_fract_y
_atom_site_fract_z
Si Si1 0.980196 0.894699 0.174990
Si Si2 0.598831 0.706003 0.294926
Si Si3 0.070505 0.743430 0.615049
Si Si4 0.229136 0.604805 0.402663
Si Si5 0.644842 0.105819 0.854897
Si Si6 0.913046 0.600399 0.808765
Si Si7 0.242142 0.795177 0.250558
O O1 0.051295 0.881948 0.284210
O O2 0.934009 0.822923 0.251432
O O3 0.955978 0.000000 0.172291
O O4 0.000000 0.870549 0.000000
O O5 0.617801 0.726909 0.485174
O O6 0.558316 0.797645 0.218766
O O7 0.663140 0.694333 0.208948
O O8 0.095835 0.651066 0.708570
O O9 0.000000 0.734108 0.500000
O O10 0.256203 0.500000 0.392589
O O11 0.151690 0.598524 0.327402
O O12 0.254437 0.686803 0.295038
O O13 0.239688 0.642327 0.586190
O O14 0.711248 0.166933 0.872121
O O15 0.661124 0.000000 0.818037
O O16 0.611496 0.104926 0.017130
O O17 0.948553 0.500000 0.798878
#
# Coordination Sequence:
#
# PCOD9194589 Si02
#       7
#     8   8   8   8   8   8   8
#     4  10  22  42  65  87 116 153 192 238 288 338
#     4  10  21  37  60  87 118 152 192 240 288 345
#     4  10  22  39  61  88 114 149 196 240 286 341
#     4   9  17  31  49  73 109 148 187 228 276 338
#     4  11  22  37  57  83 118 154 193 242 293 347
#     4   9  19  35  56  81 112 154 194 234 287 342
#     4  10  20  34  56  86 116 153 193 235 292 348
#
# _framework density 23.078544000000001
#
# number of rings (size 3 to 8) (size 9 to 14) (size 15 to 20)
#    0.000    2.143    0.000    3.857    0.000    8.000 
#    0.000    5.714    0.000   17.143    0.000    0.000 
#    0.000    0.000    0.000    0.000    0.000    0.000 
#
# Total GULP energy -156309.791429 kJ/mol
# GULP energy per Si atom -5582.492551 kJ/mol
# Density = 2.302602 g / cm^3
# Si number density = 23.078544 Si / 1000 Ang^3
#
#
#
# Elastic Constant Matrix: (Units=GPa)
#
#
# Indices 1 2 3 4 5 6 
#
# 1 43.3599 8.4398 -8.2545 0.0000 -9.9945 0.0000
# 2 8.4398 142.7285 15.7989 0.0000 -22.0908 0.0000
# 3 -8.2545 15.7989 54.7477 0.0000 -13.6906 0.0000
# 4 0.0000 0.0000 0.0000 13.9650 0.0000 9.9956
# 5 -9.9945 -22.0908 -13.6906 0.0000 32.8449 0.0000
# 6 0.0000 0.0000 0.0000 9.9956 0.0000 15.6048
#
#
#
# Elastic Compliance Matrix: (Units=1/GPa)
#
#
# Indices 1 2 3 4 5 6 
#
# 1 0.026967 -0.000719 0.006927 0.000000 0.010609 0.000000
# 2 -0.000719 0.007894 -0.001243 0.000000 0.004572 0.000000
# 3 0.006927 -0.001243 0.022312 0.000000 0.010572 0.000000
# 4 0.000000 0.000000 0.000000 0.132235 0.000000 -0.084703
# 5 0.010609 0.004572 0.010572 0.000000 0.041157 0.000000
# 6 0.000000 0.000000 0.000000 -0.084703 0.000000 0.118339
#
#
# Mechanical properties :
#
#
# Convention : Reuss Voigt Hill
#
# Bulk Modulus (GPa) = 14.90275 30.31160 22.60718
# Shear Modulus (GPa) = 13.83725 27.47304 20.65514
#
# Velocity S-wave (km/s) = 2.45127 3.45398 2.99489
# Velocity P-wave (km/s) = 3.80566 5.39159 4.66649
#
# Compressibility (1/GPa) = 0.06710172
#
# Stress axis : x y z
#
# Youngs Moduli (GPa) = 37.08255 126.67619 44.81810
#
# Poissons Ratio (x) = 0.09111 -0.31043
# Poissons Ratio (y) = 0.02667 0.05571
# Poissons Ratio (z) = -0.25685 0.15747
#
# Static dielectric constant tensor:
#      x y z
#    x 1.909510 0.000000 0.017870 
#    y 0.000000 1.868550 0.000000 
#    z 0.017870 0.000000 1.914140 
# 
# From -- ./inp_files/96465.got.cif
#   From: 2010.05.17/outbox.cif.g08.bks.cpg/sg12_49_cif.got.tgz:96465.got - 2010.06.03 13:09:07.
