data_PCOD9194966
_publ_section_title
;
Structure prediction by ZEFSAII (Michael W. Deem and Ramdas Pophale) SiO2 
 PCOD9194966
Probable space group: C 2/M
;
_chemical_formula_sum "Si O2"
_cell_formula_units_Z 56
_cell_length_a 22.454278
_cell_length_b 14.550818
_cell_length_c 21.116913
_cell_angle_alpha 90.000000
_cell_angle_beta 25.895186
_cell_angle_gamma 90.000000
_cell_volume 3013.187708
_symmetry_space_group_name_H-M "C 2/M"
_symmetry_group_IT_number 12
_symmetry_cell_setting 'monoclinic'
loop_
_space_group_symop_operation_xyz
x,y,z
-x,y,-z
-x,-y,-z
x,-y,z
1/2+x,1/2+y,z
1/2-x,1/2+y,-z
1/2-x,1/2-y,-z
1/2+x,1/2-y,z
loop_
_atom_site_type_symbol
_atom_site_label
_atom_site_fract_x
_atom_site_fract_y
_atom_site_fract_z
Si Si1 0.614013 0.609057 0.293002
Si Si2 0.550909 0.392487 0.140429
Si Si3 0.153693 0.735066 0.353580
Si Si4 0.655069 0.287578 0.492925
Si Si5 0.697421 0.108458 0.005649
Si Si6 0.131670 0.106022 0.918487
Si Si7 0.076405 0.287887 0.694825
O O1 0.612155 0.500000 0.304792
O O2 0.643214 0.666491 0.328356
O O3 0.468782 0.642814 0.403772
O O4 0.730332 0.632030 0.129958
O O5 0.511571 0.500000 0.185496
O O6 0.440046 0.319471 0.269750
O O7 0.686304 0.376597 0.052763
O O8 0.587965 0.374766 0.032168
O O9 0.195888 0.745895 0.386077
O O10 0.253432 0.672507 0.217818
O O11 0.000000 0.696715 0.500000
O O12 0.790318 0.326320 0.397349
O O13 0.597218 0.214345 0.599323
O O14 0.561564 0.163464 0.151528
O O15 0.666215 0.000000 0.034537
O O16 0.178206 0.000000 0.871421
O O17 0.000000 0.115171 0.000000
#
# Coordination Sequence:
#
# PCOD9194966 Si02
#       7
#     8   8   8   8   8   8   8
#     4  10  21  40  62  85 113 150 194 240 284 337
#     4  10  20  34  59  84 106 143 190 234 283 334
#     4  10  22  37  56  83 115 150 192 227 278 343
#     4  10  23  36  54  85 115 151 190 222 287 345
#     4  10  21  36  58  86 110 144 194 237 281 334
#     4  10  21  37  58  83 111 147 189 234 285 336
#     4  11  21  37  59  83 116 149 184 238 285 329
#
# _framework density 18.584969000000001
#
# number of rings (size 3 to 8) (size 9 to 14) (size 15 to 20)
#    0.000    1.857    1.429    2.143    4.000    3.429 
#    0.000    2.857    0.000    3.000    0.000    0.000 
#    0.000    0.000    0.000    0.000    0.000    0.000 
#
# Total GULP energy -156312.865828 kJ/mol
# GULP energy per Si atom -5582.602351 kJ/mol
# Density = 1.854267 g / cm^3
# Si number density = 18.584969 Si / 1000 Ang^3
#
#
#
# Elastic Constant Matrix: (Units=GPa)
#
#
# Indices 1 2 3 4 5 6 
#
# 1 91.1848 28.2359 35.7155 0.0000 25.4106 0.0001
# 2 28.2359 51.9329 40.1705 0.0000 2.9483 0.0002
# 3 35.7155 40.1705 83.0651 0.0000 9.8145 0.0000
# 4 0.0000 0.0000 0.0000 12.7134 0.0000 -0.5882
# 5 25.4106 2.9483 9.8145 0.0000 26.1881 0.0000
# 6 0.0001 0.0002 0.0000 -0.5882 0.0000 5.9956
#
#
#
# Elastic Compliance Matrix: (Units=1/GPa)
#
#
# Indices 1 2 3 4 5 6 
#
# 1 0.018842 -0.007267 -0.002641 0.000000 -0.016475 0.000000
# 2 -0.007267 0.033688 -0.014180 0.000000 0.008572 -0.000001
# 3 -0.002641 -0.014180 0.020446 0.000000 -0.003504 0.000000
# 4 0.000000 0.000000 0.000000 0.079016 0.000000 0.007752
# 5 -0.016475 0.008572 -0.003504 0.000000 0.054519 0.000000
# 6 0.000000 -0.000001 0.000000 0.007752 0.000000 0.167549
#
#
# Mechanical properties :
#
#
# Convention : Reuss Voigt Hill
#
# Bulk Modulus (GPa) = 40.32067 48.26960 44.29514
# Shear Modulus (GPa) = 11.61432 17.11682 14.36557
#
# Velocity S-wave (km/s) = 2.50257 3.03810 2.78324
# Velocity P-wave (km/s) = 5.48570 6.19156 5.84929
#
# Compressibility (1/GPa) = 0.02480118
#
# Stress axis : x y z
#
# Youngs Moduli (GPa) = 53.07172 29.68393 48.90977
#
# Poissons Ratio (x) = 0.21570 0.12917
# Poissons Ratio (y) = 0.38565 0.69355
# Poissons Ratio (z) = 0.14016 0.42092
#
# Static dielectric constant tensor:
#      x y z
#    x 1.641160 0.000000 0.012360 
#    y 0.000000 1.639940 0.000000 
#    z 0.012360 0.000000 1.641040 
# 
# From -- ./inp_files/284523.got.cif
#   From: 2010.05.17/outbox.cif.g08.bks.cpg/sg12_143_cif.got.tgz:284523.got - 2010.06.03 13:09:07.
