data_PCOD9194824
_publ_section_title
;
Structure prediction by ZEFSAII (Michael W. Deem and Ramdas Pophale) SiO2 
 PCOD9194824
Probable space group: C 2/M
;
_chemical_formula_sum "Si O2"
_cell_formula_units_Z 56
_cell_length_a 14.795378
_cell_length_b 8.436545
_cell_length_c 19.559333
_cell_angle_alpha 90.000000
_cell_angle_beta 78.375794
_cell_angle_gamma 90.000000
_cell_volume 2391.359301
_symmetry_space_group_name_H-M "C 2/M"
_symmetry_group_IT_number 12
_symmetry_cell_setting 'monoclinic'
loop_
_space_group_symop_operation_xyz
x,y,z
-x,y,-z
-x,-y,-z
x,-y,z
1/2+x,1/2+y,z
1/2-x,1/2+y,-z
1/2-x,1/2-y,-z
1/2+x,1/2-y,z
loop_
_atom_site_type_symbol
_atom_site_label
_atom_site_fract_x
_atom_site_fract_y
_atom_site_fract_z
Si Si1 0.285852 0.314489 0.605042
Si Si2 0.284737 0.315298 0.167069
Si Si3 0.116614 0.308420 0.545431
Si Si4 0.889051 0.814851 0.873762
Si Si5 0.552345 0.189300 0.343525
Si Si6 0.555594 0.813371 0.771787
Si Si7 0.389068 0.187652 0.019299
O O1 0.284714 0.500000 0.617958
O O2 0.182335 0.266994 0.600119
O O3 0.341902 0.275688 0.526733
O O4 0.343615 0.236970 0.656752
O O5 0.261748 0.500000 0.173807
O O6 0.190535 0.219845 0.169315
O O7 0.349281 0.266248 0.220459
O O8 0.345918 0.276552 0.090465
O O9 0.122629 0.500000 0.533785
O O10 0.013086 0.268184 0.582304
O O11 0.979640 0.713528 0.842339
O O12 0.912489 0.000000 0.871454
O O13 0.853999 0.758826 0.953105
O O14 0.499195 0.252996 0.285488
O O15 0.550699 0.000000 0.337781
O O16 0.573443 0.000000 0.759894
O O17 0.367775 0.000000 0.027894
O O18 0.500000 0.206495 0.000000
#
# Coordination Sequence:
#
# PCOD9194824 Si02
#       7
#     8   8   8   8   8   8   8
#     4  10  20  34  57  89 120 150 193 245 290 342
#     4  12  25  42  65  92 123 159 202 249 304 362
#     4   9  19  37  58  83 117 156 193 234 293 353
#     4  12  25  42  65  91 122 160 202 248 304 363
#     4  10  22  39  60  83 115 158 197 238 292 355
#     4  11  24  43  62  87 121 159 206 254 302 357
#     4  11  22  39  66  94 125 158 195 248 305 359
#
# _framework density 23.417643999999999
#
# number of rings (size 3 to 8) (size 9 to 14) (size 15 to 20)
#    0.000    1.286    1.429    4.714    0.000    5.714 
#    0.000    1.429    0.000    0.000    0.000    0.000 
#    0.000    0.000    0.000    0.000    0.000    0.000 
#
# Total GULP energy -156725.864788 kJ/mol
# GULP energy per Si atom -5597.352314 kJ/mol
# Density = 2.336434 g / cm^3
# Si number density = 23.417644 Si / 1000 Ang^3
#
#
#
# Elastic Constant Matrix: (Units=GPa)
#
#
# Indices 1 2 3 4 5 6 
#
# 1 112.2845 0.8881 12.8298 0.0000 23.4206 0.0000
# 2 0.8881 39.9944 -3.2890 0.0000 9.3131 0.0000
# 3 12.8298 -3.2890 59.5864 0.0000 22.2434 0.0000
# 4 0.0000 0.0000 0.0000 22.6932 0.0000 14.8148
# 5 23.4206 9.3131 22.2434 0.0000 43.3050 0.0000
# 6 0.0000 0.0000 0.0000 14.8148 0.0000 22.1059
#
#
#
# Elastic Compliance Matrix: (Units=1/GPa)
#
#
# Indices 1 2 3 4 5 6 
#
# 1 0.010084 0.001105 0.000018 0.000000 -0.005701 0.000000
# 2 0.001105 0.027415 0.004577 0.000000 -0.008844 0.000000
# 3 0.000018 0.004577 0.021530 0.000000 -0.012053 0.000000
# 4 0.000000 0.000000 0.000000 0.078341 0.000000 -0.052502
# 5 -0.005701 -0.008844 -0.012053 0.000000 0.034268 0.000000
# 6 0.000000 0.000000 0.000000 -0.052502 0.000000 0.080422
#
#
# Mechanical properties :
#
#
# Convention : Reuss Voigt Hill
#
# Bulk Modulus (GPa) = 14.19879 25.85812 20.02845
# Shear Modulus (GPa) = 18.92952 31.04991 24.98972
#
# Velocity S-wave (km/s) = 2.84622 3.64527 3.27024
# Velocity P-wave (km/s) = 4.10826 5.36502 4.77814
#
# Compressibility (1/GPa) = 0.07042853
#
# Stress axis : x y z
#
# Youngs Moduli (GPa) = 99.16480 36.47659 46.44586
#
# Poissons Ratio (x) = -0.04031 -0.00082
# Poissons Ratio (y) = -0.10957 -0.21258
# Poissons Ratio (z) = -0.00176 -0.16695
#
# Static dielectric constant tensor:
#      x y z
#    x 1.881700 0.000000 0.022450 
#    y 0.000000 1.787020 0.000000 
#    z 0.022450 0.000000 1.961230 
# 
# From -- ./inp_files/308949.got.cif
#   From: 2010.05.17/outbox.cif.g08.bks.cpg/sg12_155_cif.got.tgz:308949.got - 2010.06.03 13:09:07.
