data_PCOD9194082
_publ_section_title
;
Structure prediction by ZEFSAII (Michael W. Deem and Ramdas Pophale) SiO2 
 PCOD9194082
Probable space group: C 2/M
;
_chemical_formula_sum "Si O2"
_cell_formula_units_Z 64
_cell_length_a 23.782197
_cell_length_b 9.879368
_cell_length_c 17.683562
_cell_angle_alpha 90.000000
_cell_angle_beta 132.420835
_cell_angle_gamma 90.000000
_cell_volume 3067.120657
_symmetry_space_group_name_H-M "C 2/M"
_symmetry_group_IT_number 12
_symmetry_cell_setting 'monoclinic'
loop_
_space_group_symop_operation_xyz
x,y,z
-x,y,-z
-x,-y,-z
x,-y,z
1/2+x,1/2+y,z
1/2-x,1/2+y,-z
1/2-x,1/2-y,-z
1/2+x,1/2-y,z
loop_
_atom_site_type_symbol
_atom_site_label
_atom_site_fract_x
_atom_site_fract_y
_atom_site_fract_z
Si Si1 0.692043 0.662124 0.690198
Si Si2 0.476642 0.149423 0.686549
Si Si3 0.695500 0.343361 0.860200
Si Si4 0.693299 0.144319 0.416252
Si Si5 0.656022 0.340400 0.990507
Si Si6 0.050098 0.842487 0.469526
Si Si7 0.855354 0.342095 0.802176
Si Si8 0.519001 0.838556 0.901737
O O1 0.698632 0.500000 0.683018
O O2 0.659401 0.677295 0.745133
O O3 0.633544 0.710670 0.573118
O O4 0.778957 0.717556 0.770707
O O5 0.385177 0.143532 0.610017
O O6 0.488126 0.259229 0.632459
O O7 0.501578 0.173829 0.795819
O O8 0.506392 0.000000 0.692000
O O9 0.725417 0.500000 0.888543
O O10 0.643815 0.331475 0.887877
O O11 0.763305 0.234938 0.927440
O O12 0.750000 0.250000 0.500000
O O13 0.669782 0.162861 0.308288
O O14 0.732536 0.000000 0.457603
O O15 0.657315 0.500000 0.011288
O O16 0.592904 0.254757 0.978678
O O17 0.000000 0.837583 0.500000
O O18 0.057383 0.000000 0.453573
O O19 0.860925 0.500000 0.830837
O O20 0.943161 0.294124 0.878983
O O21 0.531586 0.000000 0.926918
#
# Coordination Sequence:
#
# PCOD9194082 Si02
#       8
#     8   8   8   8   8   8   8   8
#     4   9  17  32  53  76 103 136 173 214 258 304
#     4   9  19  33  47  69 102 138 174 209 249 302
#     4   9  19  35  56  78 102 134 170 210 255 310
#     4   9  16  27  45  68  94 127 168 212 253 293
#     4  10  20  34  55  81 106 130 165 214 265 311
#     4  10  21  33  50  76 106 138 176 219 261 305
#     4   8  15  29  49  72  98 131 173 213 249 297
#     4   9  18  33  54  77 102 136 176 216 254 300
#
# _framework density 20.866475999999999
#
# number of rings (size 3 to 8) (size 9 to 14) (size 15 to 20)
#    0.000    2.875    0.000    2.625    1.750    2.750 
#    0.000    3.125    0.000    6.000    0.000    0.000 
#    0.000    0.000    0.000    0.000    0.000    0.000 
#
# Total GULP energy -178276.759989 kJ/mol
# GULP energy per Si atom -5571.148750 kJ/mol
# Density = 2.081898 g / cm^3
# Si number density = 20.866476 Si / 1000 Ang^3
#
#
#
# Elastic Constant Matrix: (Units=GPa)
#
#
# Indices 1 2 3 4 5 6 
#
# 1 85.8317 29.6910 16.8679 0.0000 6.7325 0.0000
# 2 29.6910 55.0175 27.5902 0.0000 7.1827 0.0000
# 3 16.8679 27.5902 68.4599 0.0000 3.6510 0.0000
# 4 0.0000 0.0000 0.0000 13.9335 0.0000 3.6734
# 5 6.7325 7.1827 3.6510 0.0000 39.6519 0.0000
# 6 0.0000 0.0000 0.0000 3.6734 0.0000 14.7601
#
#
#
# Elastic Compliance Matrix: (Units=1/GPa)
#
#
# Indices 1 2 3 4 5 6 
#
# 1 0.014383 -0.007363 -0.000520 0.000000 -0.001060 0.000000
# 2 -0.007363 0.026986 -0.008911 0.000000 -0.002818 0.000000
# 3 -0.000520 -0.008911 0.018326 0.000000 0.000015 0.000000
# 4 0.000000 0.000000 0.000000 0.076809 0.000000 -0.019116
# 5 -0.001060 -0.002818 0.000015 0.000000 0.025909 0.000000
# 6 0.000000 0.000000 0.000000 -0.019116 0.000000 0.072508
#
#
# Mechanical properties :
#
#
# Convention : Reuss Voigt Hill
#
# Bulk Modulus (GPa) = 38.30433 39.73415 39.01924
# Shear Modulus (GPa) = 18.03681 22.67977 20.35829
#
# Velocity S-wave (km/s) = 2.94324 3.30039 3.12692
# Velocity P-wave (km/s) = 5.47238 5.79715 5.63710
#
# Compressibility (1/GPa) = 0.02610671
#
# Stress axis : x y z
#
# Youngs Moduli (GPa) = 69.52638 37.05592 54.56787
#
# Poissons Ratio (x) = 0.27284 0.02838
# Poissons Ratio (y) = 0.51191 0.48628
# Poissons Ratio (z) = 0.03615 0.33022
#
# Static dielectric constant tensor:
#      x y z
#    x 1.801570 0.000000 0.011010 
#    y 0.000000 1.733660 0.000000 
#    z 0.011010 0.000000 1.779050 
# 
# From -- ./inp_files/324287.got.cif
#   From: 2010.05.17/outbox.cif.g08.bks.cpg/sg12_163_cif.got.tgz:324287.got - 2010.06.03 13:09:07.
