data_PCOD9194232
_publ_section_title
;
Structure prediction by ZEFSAII (Michael W. Deem and Ramdas Pophale) SiO2 
 PCOD9194232
Probable space group: C 2/M
;
_chemical_formula_sum "Si O2"
_cell_formula_units_Z 56
_cell_length_a 30.724741
_cell_length_b 8.782502
_cell_length_c 16.994546
_cell_angle_alpha 90.000000
_cell_angle_beta 134.317258
_cell_angle_gamma 90.000000
_cell_volume 3281.066020
_symmetry_space_group_name_H-M "C 2/M"
_symmetry_group_IT_number 12
_symmetry_cell_setting 'monoclinic'
loop_
_space_group_symop_operation_xyz
x,y,z
-x,y,-z
-x,-y,-z
x,-y,z
1/2+x,1/2+y,z
1/2-x,1/2+y,-z
1/2-x,1/2-y,-z
1/2+x,1/2-y,z
loop_
_atom_site_type_symbol
_atom_site_label
_atom_site_fract_x
_atom_site_fract_y
_atom_site_fract_z
Si Si1 0.277896 0.681442 0.157170
Si Si2 0.923964 0.818285 0.768487
Si Si3 0.155359 0.318470 0.904005
Si Si4 0.241224 0.681631 0.698562
Si Si5 0.560951 0.318020 0.899084
Si Si6 0.876474 0.318627 0.866707
Si Si7 0.695410 0.682286 0.483348
O O1 0.282836 0.500000 0.173090
O O2 0.326299 0.741657 0.154951
O O3 0.281813 0.763108 0.245696
O O4 0.211552 0.714196 0.034906
O O5 0.809109 0.751196 0.773744
O O6 0.913939 0.729122 0.836876
O O7 0.868172 0.783398 0.639910
O O8 0.921933 0.000000 0.783340
O O9 0.151794 0.500000 0.890326
O O10 0.095127 0.252738 0.867649
O O11 0.243966 0.500000 0.698313
O O12 0.201117 0.746500 0.576796
O O13 0.569262 0.500000 0.909491
O O14 0.489281 0.284492 0.813359
O O15 0.592069 0.249363 0.016265
O O16 0.871951 0.500000 0.867982
O O17 0.702228 0.500000 0.496458
O O18 0.750000 0.750000 0.500000
#
# Coordination Sequence:
#
# PCOD9194232 Si02
#       7
#     8   8   8   8   8   8   8
#     4  10  20  35  56  83 114 146 183 226 279 335
#     4  10  23  40  57  79 111 152 192 229 277 335
#     4  10  20  34  55  83 115 147 183 226 276 331
#     4  12  23  36  57  83 115 149 185 232 283 332
#     4  11  22  37  57  81 114 153 188 226 277 336
#     4  12  23  35  54  82 114 150 188 230 279 332
#     4  11  22  38  59  82 110 147 191 236 279 328
#
# _framework density 17.067623000000001
#
# number of rings (size 3 to 8) (size 9 to 14) (size 15 to 20)
#    0.000    1.143    2.857    4.714    0.000    4.571 
#    0.000    0.000    0.000    0.857    0.000    6.000 
#    0.000    0.000    0.000    0.000    0.000    0.000 
#
# Total GULP energy -156545.936011 kJ/mol
# GULP energy per Si atom -5590.926286 kJ/mol
# Density = 1.702878 g / cm^3
# Si number density = 17.067623 Si / 1000 Ang^3
#
#
#
# Elastic Constant Matrix: (Units=GPa)
#
#
# Indices 1 2 3 4 5 6 
#
# 1 124.5908 46.3424 36.3110 0.0000 -4.9309 0.0000
# 2 46.3424 66.8806 24.3944 0.0000 0.3845 0.0000
# 3 36.3110 24.3944 41.3025 0.0000 -2.9554 0.0000
# 4 0.0000 0.0000 0.0000 25.9241 0.0000 -5.8911
# 5 -4.9309 0.3845 -2.9554 0.0000 26.7382 0.0000
# 6 0.0000 0.0000 0.0000 -5.8911 0.0000 32.9089
#
#
#
# Elastic Compliance Matrix: (Units=1/GPa)
#
#
# Indices 1 2 3 4 5 6 
#
# 1 0.012433 -0.005963 -0.007296 0.000000 0.001572 0.000000
# 2 -0.005963 0.021979 -0.007903 0.000000 -0.002289 0.000000
# 3 -0.007296 -0.007903 0.035486 0.000000 0.002691 0.000000
# 4 0.000000 0.000000 0.000000 0.040210 0.000000 0.007198
# 5 0.001572 -0.002289 0.002691 0.000000 0.038020 0.000000
# 6 0.000000 0.000000 0.000000 0.007198 0.000000 0.031675
#
#
# Mechanical properties :
#
#
# Convention : Reuss Voigt Hill
#
# Bulk Modulus (GPa) = 36.26550 49.65217 42.95884
# Shear Modulus (GPa) = 21.61512 25.49597 23.55554
#
# Velocity S-wave (km/s) = 3.56257 3.86919 3.71904
# Velocity P-wave (km/s) = 6.18197 7.00824 6.60803
#
# Compressibility (1/GPa) = 0.02757441
#
# Stress axis : x y z
#
# Youngs Moduli (GPa) = 80.43305 45.49697 28.17979
#
# Poissons Ratio (x) = 0.27128 0.20560
# Poissons Ratio (y) = 0.47959 0.22272
# Poissons Ratio (z) = 0.58684 0.35958
#
# Static dielectric constant tensor:
#      x y z
#    x 1.566530 0.000000 -0.000050 
#    y 0.000000 1.567900 0.000000 
#    z -0.000050 0.000000 1.555400 
# 
# From -- ./inp_files/239013.got.cif
#   From: 2010.05.17/outbox.cif.g08.bks.cpg/sg12_120_cif.got.tgz:239013.got - 2010.06.03 13:09:07.
