data_PCOD9194431
_publ_section_title
;
Structure prediction by ZEFSAII (Michael W. Deem and Ramdas Pophale) SiO2 
 PCOD9194431
Probable space group: C 2/M
;
_chemical_formula_sum "Si O2"
_cell_formula_units_Z 32
_cell_length_a 9.659965
_cell_length_b 12.852083
_cell_length_c 9.893138
_cell_angle_alpha 90.000000
_cell_angle_beta 83.334742
_cell_angle_gamma 90.000000
_cell_volume 1219.938318
_symmetry_space_group_name_H-M "C 2/M"
_symmetry_group_IT_number 12
_symmetry_cell_setting 'monoclinic'
loop_
_space_group_symop_operation_xyz
x,y,z
-x,y,-z
-x,-y,-z
x,-y,z
1/2+x,1/2+y,z
1/2-x,1/2+y,-z
1/2-x,1/2-y,-z
1/2+x,1/2-y,z
loop_
_atom_site_type_symbol
_atom_site_label
_atom_site_fract_x
_atom_site_fract_y
_atom_site_fract_z
Si Si1 0.854848 0.341848 0.321445
Si Si2 0.588466 0.844809 0.117802
Si Si3 0.836676 0.886794 0.914087
Si Si4 0.858666 0.885928 0.424679
O O1 0.764903 0.378429 0.204002
O O2 0.849989 0.216707 0.335578
O O3 0.775922 0.382177 0.461875
O O4 0.012641 0.374063 0.265428
O O5 0.579874 0.719437 0.110230
O O6 0.500000 0.884914 0.000000
O O7 0.743971 0.876788 0.060762
O O8 0.903787 0.000000 0.900588
O O9 0.000000 0.874918 0.500000
O O10 0.865440 0.000000 0.359286
#
# Coordination Sequence:
#
# PCOD9194431 Si02
#       4
#     8   8   8   8
#     4  10  20  34  56  82 111 140 180 225 267 322
#     4   9  20  36  55  83 113 140 178 225 269 320
#     4  10  20  36  58  82 110 145 180 219 272 326
#     4  10  21  37  58  81 107 144 185 226 272 318
#
# _framework density 26.230837000000001
#
# number of rings (size 3 to 8) (size 9 to 14) (size 15 to 20)
#    0.000    2.250    0.000    2.250    0.000    9.000 
#    0.000   10.000    0.000   44.250    0.000    0.000 
#    0.000    0.000    0.000    0.000    0.000    0.000 
#
# Total GULP energy -89453.713006 kJ/mol
# GULP energy per Si atom -5590.857063 kJ/mol
# Density = 2.617113 g / cm^3
# Si number density = 26.230837 Si / 1000 Ang^3
#
#
#
# Elastic Constant Matrix: (Units=GPa)
#
#
# Indices 1 2 3 4 5 6 
#
# 1 48.3698 18.1747 45.9433 0.0000 -17.1299 0.0000
# 2 18.1747 233.4755 24.2490 0.0000 6.1077 0.0000
# 3 45.9433 24.2490 132.9564 0.0000 -55.5261 0.0000
# 4 0.0000 0.0000 0.0000 -7.5895 0.0000 19.1164
# 5 -17.1299 6.1077 -55.5261 0.0000 62.3038 0.0000
# 6 0.0000 0.0000 0.0000 19.1164 0.0000 -7.0221
#
#
#
# Elastic Compliance Matrix: (Units=1/GPa)
#
#
# Indices 1 2 3 4 5 6 
#
# 1 0.031224 -0.001256 -0.011029 0.000000 -0.001121 0.000000
# 2 -0.001256 0.004549 -0.001157 0.000000 -0.001822 0.000000
# 3 -0.011029 -0.001157 0.016445 0.000000 0.011737 0.000000
# 4 0.000000 0.000000 0.000000 0.022497 0.000000 0.061243
# 5 -0.001121 -0.001822 0.011737 0.000000 0.026381 0.000000
# 6 0.000000 0.000000 0.000000 0.061243 0.000000 0.024314
#
#
# Mechanical properties :
#
#
# Convention : Reuss Voigt Hill
#
# Bulk Modulus (GPa) = 39.46988 65.72618 52.59803
# Shear Modulus (GPa) = 31.10663 31.30075 31.20369
#
# Velocity S-wave (km/s) = 3.44740 3.45814 3.45277
# Velocity P-wave (km/s) = 5.56110 6.40751 5.99925
#
# Compressibility (1/GPa) = 0.02533577
#
# Stress axis : x y z
#
# Youngs Moduli (GPa) = 32.02617 219.84583 60.80913
#
# Poissons Ratio (x) = 0.27610 0.67065
# Poissons Ratio (y) = 0.04022 0.07033
# Poissons Ratio (z) = 0.35321 0.25425
#
# Static dielectric constant tensor:
#      x y z
#    x 2.098640 0.000000 -0.017810 
#    y 0.000000 2.006390 0.000000 
#    z -0.017810 0.000000 2.020210 
# 
# From -- ./inp_files/127199.got.cif
#   From: 2010.05.17/outbox.cif.g08.bks.cpg/sg12_64_cif.got.tgz:127199.got - 2010.06.03 13:09:07.
