data_PCOD9194918
_publ_section_title
;
Structure prediction by ZEFSAII (Michael W. Deem and Ramdas Pophale) SiO2 
 PCOD9194918
Probable space group: C 2/M
;
_chemical_formula_sum "Si O2"
_cell_formula_units_Z 32
_cell_length_a 12.826560
_cell_length_b 15.635756
_cell_length_c 19.867263
_cell_angle_alpha 90.000000
_cell_angle_beta 159.059982
_cell_angle_gamma 90.000000
_cell_volume 1424.000066
_symmetry_space_group_name_H-M "C 2/M"
_symmetry_group_IT_number 12
_symmetry_cell_setting 'monoclinic'
loop_
_space_group_symop_operation_xyz
x,y,z
-x,y,-z
-x,-y,-z
x,-y,z
1/2+x,1/2+y,z
1/2-x,1/2+y,-z
1/2-x,1/2-y,-z
1/2+x,1/2-y,z
loop_
_atom_site_type_symbol
_atom_site_label
_atom_site_fract_x
_atom_site_fract_y
_atom_site_fract_z
Si Si1 0.845880 0.000000 0.698155
Si Si2 0.128623 0.761231 0.651648
Si Si3 0.422996 0.337135 0.655813
Si Si4 0.678415 0.500000 0.037143
Si Si5 0.301627 0.311369 0.946376
O O1 0.500000 0.000000 0.500000
O O2 0.950736 0.919530 0.718130
O O3 0.965682 0.000000 0.845297
O O4 0.461200 0.728252 0.858111
O O5 0.000000 0.778953 0.500000
O O6 0.920138 0.685126 0.554339
O O7 0.067543 0.836537 0.668934
O O8 0.572813 0.258883 0.785086
O O9 0.829011 0.406243 0.119838
O O10 0.500000 0.500000 0.000000
O O11 0.500000 0.322740 0.000000
#
# Coordination Sequence:
#
# PCOD9194918 Si02
#       5
#     4   8   8   4   8
#     4  12  24  40  62  89 119 155 203 256 308 367
#     4  10  20  37  61  88 119 160 208 252 298 357
#     4  10  22  39  61  89 124 163 202 250 310 358
#     4  10  20  34  58  89 117 149 193 246 296 349
#     4   9  19  37  59  87 123 158 198 247 298 357
#
# _framework density 22.471909
#
# number of rings (size 3 to 8) (size 9 to 14) (size 15 to 20)
#    0.000    2.000    0.000    3.750    0.000    6.000 
#    0.000    6.250    0.000    0.000    0.000    2.625 
#    0.000    0.000    0.000    0.000    0.000    0.000 
#
# Total GULP energy -89269.164022 kJ/mol
# GULP energy per Si atom -5579.322751 kJ/mol
# Density = 2.242076 g / cm^3
# Si number density = 22.471909 Si / 1000 Ang^3
#
#
#
# Elastic Constant Matrix: (Units=GPa)
#
#
# Indices 1 2 3 4 5 6 
#
# 1 129.2702 38.1776 38.8417 0.0094 -40.5256 0.0017
# 2 38.1776 170.0152 58.9895 0.0703 -12.8313 0.0026
# 3 38.8417 58.9895 117.3637 0.1031 -17.0354 0.0012
# 4 0.0094 0.0703 0.1031 19.0391 0.0076 -2.3257
# 5 -40.5256 -12.8313 -17.0354 0.0076 54.0015 -0.0048
# 6 0.0017 0.0026 0.0012 -2.3257 -0.0048 18.1545
#
#
#
# Elastic Compliance Matrix: (Units=1/GPa)
#
#
# Indices 1 2 3 4 5 6 
#
# 1 0.010987 -0.001237 -0.001949 0.000007 0.007336 0.000002
# 2 -0.001237 0.007282 -0.003284 -0.000009 -0.000234 -0.000002
# 3 -0.001949 -0.003284 0.010994 -0.000048 0.001225 -0.000006
# 4 0.000007 -0.000009 -0.000048 0.053359 -0.000019 0.006836
# 5 0.007336 -0.000234 0.001225 -0.000019 0.024354 0.000003
# 6 0.000002 -0.000002 -0.000006 0.006836 0.000003 0.055958
#
#
# Mechanical properties :
#
#
# Convention : Reuss Voigt Hill
#
# Bulk Modulus (GPa) = 61.27213 76.51851 68.89532
# Shear Modulus (GPa) = 27.57617 36.94838 32.26227
#
# Velocity S-wave (km/s) = 3.50686 4.05928 3.79314
# Velocity P-wave (km/s) = 6.61231 7.48966 7.06462
#
# Compressibility (1/GPa) = 0.01632063
#
# Stress axis : x y z
#
# Youngs Moduli (GPa) = 91.01974 137.33384 90.95560
#
# Poissons Ratio (x) = 0.16989 0.17731
# Poissons Ratio (y) = 0.11259 0.29874
# Poissons Ratio (z) = 0.17744 0.45107
#
# Static dielectric constant tensor:
#      x y z
#    x 1.908630 -0.000010 -0.019850 
#    y -0.000010 1.861410 -0.000020 
#    z -0.019850 -0.000020 1.853670 
# 
# From -- ./inp_files/58257.got.cif
#   From: 2010.05.17/outbox.cif.g08.bks.cpg/sg12_30_cif.got.tgz:58257.got - 2010.06.03 13:09:07.
