data_PCOD9194600
_publ_section_title
;
Structure prediction by ZEFSAII (Michael W. Deem and Ramdas Pophale) SiO2 
 PCOD9194600
Probable space group: C 2/M
;
_chemical_formula_sum "Si O2"
_cell_formula_units_Z 56
_cell_length_a 20.807461
_cell_length_b 13.113705
_cell_length_c 19.910365
_cell_angle_alpha 90.000000
_cell_angle_beta 28.670874
_cell_angle_gamma 90.000000
_cell_volume 2606.535455
_symmetry_space_group_name_H-M "C 2/M"
_symmetry_group_IT_number 12
_symmetry_cell_setting 'monoclinic'
loop_
_space_group_symop_operation_xyz
x,y,z
-x,y,-z
-x,-y,-z
x,-y,z
1/2+x,1/2+y,z
1/2-x,1/2+y,-z
1/2-x,1/2-y,-z
1/2+x,1/2-y,z
loop_
_atom_site_type_symbol
_atom_site_label
_atom_site_fract_x
_atom_site_fract_y
_atom_site_fract_z
Si Si1 0.598321 0.269713 0.616277
Si Si2 0.064502 0.108918 0.868349
Si Si3 0.522332 0.796222 0.824180
Si Si4 0.152049 0.314971 0.349840
Si Si5 0.349564 0.187834 0.805941
Si Si6 0.750376 0.111194 0.965381
Si Si7 0.688220 0.381661 0.405979
O O1 0.750000 0.250000 0.500000
O O2 0.535418 0.278839 0.747795
O O3 0.510669 0.175180 0.667150
O O4 0.606515 0.350293 0.548292
O O5 0.999799 0.213054 0.901488
O O6 0.225039 0.128545 0.725809
O O7 0.041270 0.000000 0.853732
O O8 0.000000 0.098762 0.000000
O O9 0.401425 0.872011 0.921446
O O10 0.657189 0.857764 0.716178
O O11 0.182601 0.322097 0.242343
O O12 0.154134 0.199678 0.378574
O O13 0.000000 0.353778 0.500000
O O14 0.265759 0.127453 0.939195
O O15 0.327463 0.303209 0.852768
O O16 0.803291 0.000000 0.902912
O O17 0.669449 0.500000 0.405874
#
# Coordination Sequence:
#
# PCOD9194600 Si02
#       7
#     8   8   8   8   8   8   8
#     4   9  18  35  56  77 110 152 193 241 292 347
#     4  10  22  40  62  87 117 159 209 253 299 357
#     4   9  19  37  60  84 117 153 197 248 298 350
#     4  11  22  39  61  86 128 164 195 249 308 365
#     4  10  21  38  58  88 120 155 201 253 299 356
#     4  10  21  38  62  89 119 157 201 249 302 357
#     4  10  20  34  56  86 119 159 198 236 295 363
#
# _framework density 21.484458
#
# number of rings (size 3 to 8) (size 9 to 14) (size 15 to 20)
#    0.000    2.143    1.429    1.286    0.000    2.857 
#    0.000    8.571    0.000    4.714    0.000    0.000 
#    0.000    0.000    0.000    0.000    0.000    0.000 
#
# Total GULP energy -155898.700859 kJ/mol
# GULP energy per Si atom -5567.810745 kJ/mol
# Density = 2.143556 g / cm^3
# Si number density = 21.484458 Si / 1000 Ang^3
#
#
#
# Elastic Constant Matrix: (Units=GPa)
#
#
# Indices 1 2 3 4 5 6 
#
# 1 58.6153 -15.3971 0.7539 0.0001 3.7202 -0.0001
# 2 -15.3971 74.7230 -12.0438 0.0001 11.0940 -0.0001
# 3 0.7539 -12.0438 50.6573 0.0001 -11.1265 -0.0001
# 4 0.0001 0.0001 0.0001 33.8629 -0.0001 1.0055
# 5 3.7202 11.0940 -11.1265 -0.0001 36.5154 0.0001
# 6 -0.0001 -0.0001 -0.0001 1.0055 0.0001 9.4967
#
#
#
# Elastic Compliance Matrix: (Units=1/GPa)
#
#
# Indices 1 2 3 4 5 6 
#
# 1 0.018380 0.004263 0.000047 0.000000 -0.003153 0.000000
# 2 0.004263 0.015323 0.002638 0.000000 -0.004286 0.000000
# 3 0.000047 0.002638 0.021638 0.000000 0.005787 0.000000
# 4 0.000000 0.000000 0.000000 0.029624 0.000000 -0.003136
# 5 -0.003153 -0.004286 0.005787 0.000000 0.030772 0.000000
# 6 0.000000 0.000000 0.000000 -0.003136 0.000000 0.105632
#
#
# Mechanical properties :
#
#
# Convention : Reuss Voigt Hill
#
# Bulk Modulus (GPa) = 14.44295 14.51350 14.47822
# Shear Modulus (GPa) = 21.68720 30.02050 25.85385
#
# Velocity S-wave (km/s) = 3.18061 3.74212 3.47273
# Velocity P-wave (km/s) = 4.49727 5.04394 4.77843
#
# Compressibility (1/GPa) = 0.06923795
#
# Stress axis : x y z
#
# Youngs Moduli (GPa) = 54.40774 65.26263 46.21480
#
# Poissons Ratio (x) = -0.27822 -0.00219
# Poissons Ratio (y) = -0.23194 -0.12193
# Poissons Ratio (z) = -0.00258 -0.17218
#
# Static dielectric constant tensor:
#      x y z
#    x 1.882790 0.000000 -0.080970 
#    y 0.000000 1.752470 0.000000 
#    z -0.080970 0.000000 1.879520 
# 
# From -- ./inp_files/325137.got.cif
#   From: 2010.05.17/outbox.cif.g08.bks.cpg/sg12_163_cif.got.tgz:325137.got - 2010.06.03 13:09:07.
