data_PCOD9194519
_publ_section_title
;
Structure prediction by ZEFSAII (Michael W. Deem and Ramdas Pophale) SiO2 
 PCOD9194519
Probable space group: C 2/M
;
_chemical_formula_sum "Si O2"
_cell_formula_units_Z 52
_cell_length_a 31.268774
_cell_length_b 9.270326
_cell_length_c 13.521434
_cell_angle_alpha 90.000000
_cell_angle_beta 43.954258
_cell_angle_gamma 90.000000
_cell_volume 2720.448832
_symmetry_space_group_name_H-M "C 2/M"
_symmetry_group_IT_number 12
_symmetry_cell_setting 'monoclinic'
loop_
_space_group_symop_operation_xyz
x,y,z
-x,y,-z
-x,-y,-z
x,-y,z
1/2+x,1/2+y,z
1/2-x,1/2+y,-z
1/2-x,1/2-y,-z
1/2+x,1/2-y,z
loop_
_atom_site_type_symbol
_atom_site_label
_atom_site_fract_x
_atom_site_fract_y
_atom_site_fract_z
Si Si1 0.231363 0.170758 0.630297
Si Si2 0.042351 0.169333 0.713389
Si Si3 0.500000 0.766508 0.000000
Si Si4 0.688412 0.329075 0.141558
Si Si5 0.590312 0.673803 0.136822
Si Si6 0.875087 0.660274 0.113291
Si Si7 0.669656 0.325570 0.403387
O O1 0.250000 0.250000 0.500000
O O2 0.162161 0.220691 0.764716
O O3 0.273388 0.240118 0.645143
O O4 0.237943 0.000000 0.613764
O O5 0.027305 0.190223 0.855179
O O6 0.107261 0.226806 0.563429
O O7 0.982058 0.214580 0.750344
O O8 0.047389 0.000000 0.688690
O O9 0.557649 0.847981 0.950779
O O10 0.701001 0.500000 0.114370
O O11 0.628832 0.300593 0.171858
O O12 0.670859 0.296847 0.284187
O O13 0.750000 0.250000 0.000000
O O14 0.594555 0.500000 0.107057
O O15 0.620765 0.772858 0.002347
O O16 0.846926 0.500000 0.161599
O O17 0.676389 0.500000 0.406658
#
# Coordination Sequence:
#
# PCOD9194519 Si02
#       7
#     8   8   4   8   8   8   8
#     4  12  25  40  58  82 113 150 188 232 283 339
#     4   9  18  33  56  84 115 148 189 234 281 338
#     4  10  20  34  56  84 115 152 187 228 285 344
#     4  10  21  36  57  82 112 149 192 238 287 338
#     4   9  19  36  56  82 112 147 188 233 282 335
#     4  11  22  37  57  83 113 147 188 235 283 338
#     4  10  21  38  59  86 116 150 190 236 286 340
#
# _framework density 19.114491999999998
#
# number of rings (size 3 to 8) (size 9 to 14) (size 15 to 20)
#    0.000    1.846    0.000    4.154    0.000    7.385 
#    0.000    6.154    0.000    0.000    0.000    6.462 
#    0.000    0.000    0.000    0.000    0.000    0.000 
#
# Total GULP energy -144902.859414 kJ/mol
# GULP energy per Si atom -5573.186901 kJ/mol
# Density = 1.907099 g / cm^3
# Si number density = 19.114492 Si / 1000 Ang^3
#
#
#
# Elastic Constant Matrix: (Units=GPa)
#
#
# Indices 1 2 3 4 5 6 
#
# 1 127.2916 42.1748 32.8001 0.0000 7.9674 0.0000
# 2 42.1748 74.3991 25.7209 0.0000 2.9280 0.0000
# 3 32.8001 25.7209 93.8341 0.0000 -1.1044 0.0000
# 4 0.0000 0.0000 0.0000 24.1872 0.0000 -0.2051
# 5 7.9674 2.9280 -1.1044 0.0000 23.5091 0.0000
# 6 0.0000 0.0000 0.0000 -0.2051 0.0000 -9.1934
#
#
#
# Elastic Compliance Matrix: (Units=1/GPa)
#
#
# Indices 1 2 3 4 5 6 
#
# 1 0.010255 -0.004910 -0.002274 0.000000 -0.002971 0.000000
# 2 -0.004910 0.017298 -0.003033 0.000000 -0.000633 0.000000
# 3 -0.002274 -0.003033 0.012303 0.000000 0.001726 0.000000
# 4 0.000000 0.000000 0.000000 0.041336 0.000000 -0.000922
# 5 -0.002971 -0.000633 0.001726 0.000000 0.043703 0.000000
# 6 0.000000 0.000000 0.000000 -0.000922 0.000000 -0.108753
#
#
# Mechanical properties :
#
#
# Convention : Reuss Voigt Hill
#
# Bulk Modulus (GPa) = 51.48486 55.21292 53.34889
# Shear Modulus (GPa) = 116.14639 20.68918 68.41778
#
# Velocity S-wave (km/s) = 7.80355 3.29353 5.98927
# Velocity P-wave (km/s) = 10.40132 6.58871 8.70628
#
# Compressibility (1/GPa) = 0.01942319
#
# Stress axis : x y z
#
# Youngs Moduli (GPa) = 97.51713 57.81098 81.27812
#
# Poissons Ratio (x) = 0.28386 0.18479
# Poissons Ratio (y) = 0.47882 0.24648
# Poissons Ratio (z) = 0.22171 0.17532
#
# Static dielectric constant tensor:
#      x y z
#    x 1.694230 0.000000 0.043390 
#    y 0.000000 1.652190 0.000000 
#    z 0.043390 0.000000 1.929290 
# 
# From -- ./inp_files/249600.got.cif
#   From: 2010.05.17/outbox.cif.g08.bks.cpg/sg12_125_cif.got.tgz:249600.got - 2010.06.03 13:09:07.
