data_PCOD9194753
_publ_section_title
;
Structure prediction by ZEFSAII (Michael W. Deem and Ramdas Pophale) SiO2 
 PCOD9194753
Probable space group: C 2/M
;
_chemical_formula_sum "Si O2"
_cell_formula_units_Z 64
_cell_length_a 15.608087
_cell_length_b 7.617619
_cell_length_c 20.874220
_cell_angle_alpha 90.000000
_cell_angle_beta 90.542354
_cell_angle_gamma 90.000000
_cell_volume 2481.759675
_symmetry_space_group_name_H-M "C 2/M"
_symmetry_group_IT_number 12
_symmetry_cell_setting 'monoclinic'
loop_
_space_group_symop_operation_xyz
x,y,z
-x,y,-z
-x,-y,-z
x,-y,z
1/2+x,1/2+y,z
1/2-x,1/2+y,-z
1/2-x,1/2-y,-z
1/2+x,1/2-y,z
loop_
_atom_site_type_symbol
_atom_site_label
_atom_site_fract_x
_atom_site_fract_y
_atom_site_fract_z
Si Si1 0.241415 0.302834 0.909605
Si Si2 0.665239 0.207559 0.538817
Si Si3 0.422106 0.298415 0.344278
Si Si4 0.435786 0.214947 0.056613
Si Si5 0.347371 0.791467 0.715282
Si Si6 0.578595 0.208336 0.152855
Si Si7 0.912056 0.700943 0.585754
Si Si8 0.663432 0.707364 0.777436
O O1 0.257183 0.500000 0.931170
O O2 0.334428 0.227516 0.890297
O O3 0.186702 0.302832 0.842693
O O4 0.163426 0.223423 0.951979
O O5 0.750000 0.250000 0.500000
O O6 0.657892 0.295702 0.607759
O O7 0.596444 0.273840 0.485487
O O8 0.659072 0.000000 0.550941
O O9 0.447981 0.500000 0.335976
O O10 0.492971 0.201160 0.385833
O O11 0.406171 0.224651 0.273393
O O12 0.491690 0.274594 0.118879
O O13 0.431378 0.000000 0.056670
O O14 0.500000 0.264746 0.000000
O O15 0.400670 0.718183 0.776410
O O16 0.361887 0.714193 0.645093
O O17 0.250411 0.780478 0.737061
O O18 0.368693 0.000000 0.710743
O O19 0.567574 0.000000 0.159083
O O20 0.881703 0.500000 0.578048
O O21 0.650171 0.500000 0.791103
#
# Coordination Sequence:
#
# PCOD9194753 Si02
#       8
#     8   8   8   8   8   8   8   8
#     4  10  20  34  57  87 115 146 192 246 288 332
#     4  11  23  39  58  79 106 145 187 231 281 335
#     4  11  23  37  55  81 111 144 182 229 281 333
#     4   9  19  35  56  84 117 154 196 234 277 346
#     4   8  15  31  55  76  98 137 185 222 263 331
#     4   9  18  35  58  81 112 157 195 230 287 349
#     4  10  21  36  55  79 109 143 181 226 277 334
#     4   9  19  37  57  78 109 147 184 225 281 340
#
# _framework density 25.788153000000001
#
# number of rings (size 3 to 8) (size 9 to 14) (size 15 to 20)
#    0.000    2.375    0.000    3.000    1.750    6.000 
#    0.000    3.750    0.000    2.625    0.000    0.000 
#    0.000    0.000    0.000    0.000    0.000    0.000 
#
# Total GULP energy -178640.707743 kJ/mol
# GULP energy per Si atom -5582.522117 kJ/mol
# Density = 2.572946 g / cm^3
# Si number density = 25.788153 Si / 1000 Ang^3
#
#
#
# Elastic Constant Matrix: (Units=GPa)
#
#
# Indices 1 2 3 4 5 6 
#
# 1 95.6550 5.7080 -13.7535 0.0000 -7.9711 0.0000
# 2 5.7080 67.9277 10.9539 0.0000 6.1485 0.0000
# 3 -13.7535 10.9539 67.1769 0.0000 1.7738 0.0000
# 4 0.0000 0.0000 0.0000 12.6065 0.0000 -5.3336
# 5 -7.9711 6.1485 1.7738 0.0000 48.1177 0.0000
# 6 0.0000 0.0000 0.0000 -5.3336 0.0000 17.0802
#
#
#
# Elastic Compliance Matrix: (Units=1/GPa)
#
#
# Indices 1 2 3 4 5 6 
#
# 1 0.011058 -0.001501 0.002458 0.000000 0.001933 0.000000
# 2 -0.001501 0.015488 -0.002777 0.000000 -0.002125 0.000000
# 3 0.002458 -0.002777 0.015837 0.000000 0.000178 0.000000
# 4 0.000000 0.000000 0.000000 0.091399 0.000000 0.028541
# 5 0.001933 -0.002125 0.000178 0.000000 0.021368 0.000000
# 6 0.000000 0.000000 0.000000 0.028541 0.000000 0.067460
#
#
# Mechanical properties :
#
#
# Convention : Reuss Voigt Hill
#
# Bulk Modulus (GPa) = 25.81016 26.28627 26.04821
# Shear Modulus (GPa) = 20.90625 30.75098 25.82862
#
# Velocity S-wave (km/s) = 2.85035 3.45693 3.16819
# Velocity P-wave (km/s) = 4.56760 5.11362 4.84830
#
# Compressibility (1/GPa) = 0.03874444
#
# Stress axis : x y z
#
# Youngs Moduli (GPa) = 90.43042 64.56726 63.14217
#
# Poissons Ratio (x) = 0.09688 -0.15518
# Poissons Ratio (y) = 0.13569 0.17532
# Poissons Ratio (z) = -0.22225 0.17927
#
# Static dielectric constant tensor:
#      x y z
#    x 2.163110 0.000000 -0.003650 
#    y 0.000000 1.979770 0.000000 
#    z -0.003650 0.000000 2.109920 
# 
# From -- ./inp_files/338865.got.cif
#   From: 2010.05.17/outbox.cif.g08.bks.cpg/sg12_170_cif.got.tgz:338865.got - 2010.06.03 13:09:07.
