data_PCOD9194094
_publ_section_title
;
Structure prediction by ZEFSAII (Michael W. Deem and Ramdas Pophale) SiO2 
 PCOD9194094
Probable space group: C 2/M
;
_chemical_formula_sum "Si O2"
_cell_formula_units_Z 56
_cell_length_a 19.216728
_cell_length_b 7.880826
_cell_length_c 25.506497
_cell_angle_alpha 90.000000
_cell_angle_beta 42.450146
_cell_angle_gamma 90.000000
_cell_volume 2607.189475
_symmetry_space_group_name_H-M "C 2/M"
_symmetry_group_IT_number 12
_symmetry_cell_setting 'monoclinic'
loop_
_space_group_symop_operation_xyz
x,y,z
-x,y,-z
-x,-y,-z
x,-y,z
1/2+x,1/2+y,z
1/2-x,1/2+y,-z
1/2-x,1/2-y,-z
1/2+x,1/2-y,z
loop_
_atom_site_type_symbol
_atom_site_label
_atom_site_fract_x
_atom_site_fract_y
_atom_site_fract_z
Si Si1 0.287597 0.703476 0.762945
Si Si2 0.741009 0.299476 0.676516
Si Si3 0.586018 0.207787 0.492698
Si Si4 0.056775 0.298877 0.917383
Si Si5 0.367374 0.796054 0.421431
Si Si6 0.516058 0.700446 0.828779
Si Si7 0.537670 0.797881 0.250840
O O1 0.285355 0.500000 0.759938
O O2 0.304628 0.775251 0.695009
O O3 0.173221 0.767070 0.843580
O O4 0.372226 0.753584 0.758523
O O5 0.728369 0.500000 0.674841
O O6 0.805026 0.232201 0.591830
O O7 0.628292 0.224962 0.749722
O O8 0.500000 0.264782 0.500000
O O9 0.571658 0.261286 0.560227
O O10 0.586147 0.000000 0.492309
O O11 0.068449 0.500000 0.918959
O O12 0.993633 0.272979 0.898601
O O13 0.000000 0.227163 0.000000
O O14 0.250000 0.750000 0.500000
O O15 0.429905 0.730398 0.336299
O O16 0.370819 0.000000 0.416684
O O17 0.525842 0.500000 0.831001
O O18 0.446179 0.731403 0.816949
O O19 0.531322 0.000000 0.250682
#
# Coordination Sequence:
#
# PCOD9194094 Si02
#       7
#     8   8   8   8   8   8   8
#     4  10  20  34  55  81 108 139 176 220 268 318
#     4   9  17  31  51  73 100 136 176 218 265 318
#     4   9  16  28  47  69  94 128 172 216 257 304
#     4   9  19  38  62  86 112 140 172 214 266 324
#     4  10  21  35  52  74 102 140 182 226 273 318
#     4  10  20  34  55  81 108 140 179 220 262 315
#     4  11  22  36  54  77 109 147 185 223 268 322
#
# _framework density 21.479067000000001
#
# number of rings (size 3 to 8) (size 9 to 14) (size 15 to 20)
#    0.000    2.286    0.000    3.000    0.000    6.000 
#    0.000    1.429    0.000    1.714    0.000    0.000 
#    0.000    0.000    0.000    0.000    0.000    0.000 
#
# Total GULP energy -156282.367783 kJ/mol
# GULP energy per Si atom -5581.513135 kJ/mol
# Density = 2.143018 g / cm^3
# Si number density = 21.479067 Si / 1000 Ang^3
#
#
#
# Elastic Constant Matrix: (Units=GPa)
#
#
# Indices 1 2 3 4 5 6 
#
# 1 79.6270 -20.0927 15.6518 -0.0001 19.3489 -0.0002
# 2 -20.0927 25.0415 2.5426 -0.0001 -4.5515 -0.0004
# 3 15.6518 2.5426 98.1157 0.0000 30.2228 0.0000
# 4 -0.0001 -0.0001 0.0000 13.7697 0.0001 3.3789
# 5 19.3489 -4.5515 30.2228 0.0001 30.5557 -0.0002
# 6 -0.0002 -0.0004 0.0000 3.3789 -0.0002 20.8450
#
#
#
# Elastic Compliance Matrix: (Units=1/GPa)
#
#
# Indices 1 2 3 4 5 6 
#
# 1 0.018121 0.012919 -0.000408 0.000000 -0.009147 0.000000
# 2 0.012919 0.051518 -0.004659 0.000000 0.004102 0.000001
# 3 -0.000408 -0.004659 0.015118 0.000000 -0.015389 0.000000
# 4 0.000000 0.000000 0.000000 0.075631 0.000000 -0.012260
# 5 -0.009147 0.004102 -0.015389 0.000000 0.054352 0.000001
# 6 0.000000 0.000001 0.000000 -0.012260 0.000001 0.049961
#
#
# Mechanical properties :
#
#
# Convention : Reuss Voigt Hill
#
# Bulk Modulus (GPa) = 9.95408 22.10973 16.03190
# Shear Modulus (GPa) = 17.69999 26.67958 22.18979
#
# Velocity S-wave (km/s) = 2.87376 3.52820 3.21766
# Velocity P-wave (km/s) = 3.95672 5.18782 4.61352
#
# Compressibility (1/GPa) = 0.10046136
#
# Stress axis : x y z
#
# Youngs Moduli (GPa) = 55.18337 19.41052 66.14517
#
# Poissons Ratio (x) = -0.25077 0.02698
# Poissons Ratio (y) = -0.71292 0.30820
# Poissons Ratio (z) = 0.02251 0.09044
#
# Static dielectric constant tensor:
#      x y z
#    x 1.818990 0.000000 -0.010560 
#    y 0.000000 1.761460 0.000000 
#    z -0.010560 0.000000 1.810610 
# 
# From -- ./inp_files/342262.got.cif
#   From: 2010.05.17/outbox.cif.g08.bks.cpg/sg12_172_cif.got.tgz:342262.got - 2010.06.03 13:09:07.
