data_PCOD9194211
_publ_section_title
;
Structure prediction by ZEFSAII (Michael W. Deem and Ramdas Pophale) SiO2 
 PCOD9194211
Probable space group: C 2/M
;
_chemical_formula_sum "Si O2"
_cell_formula_units_Z 60
_cell_length_a 8.305138
_cell_length_b 12.459147
_cell_length_c 30.699100
_cell_angle_alpha 90.000000
_cell_angle_beta 110.306397
_cell_angle_gamma 90.000000
_cell_volume 2979.163093
_symmetry_space_group_name_H-M "C 2/M"
_symmetry_group_IT_number 12
_symmetry_cell_setting 'monoclinic'
loop_
_space_group_symop_operation_xyz
x,y,z
-x,y,-z
-x,-y,-z
x,-y,z
1/2+x,1/2+y,z
1/2-x,1/2+y,-z
1/2-x,1/2-y,-z
1/2+x,1/2-y,z
loop_
_atom_site_type_symbol
_atom_site_label
_atom_site_fract_x
_atom_site_fract_y
_atom_site_fract_z
Si Si1 0.093774 0.679877 0.316433
Si Si2 0.988621 0.122733 0.947198
Si Si3 0.121590 0.288924 0.891839
Si Si4 0.253920 0.879473 0.837925
Si Si5 0.126931 0.880303 0.728497
Si Si6 0.863215 0.500000 0.337032
Si Si7 0.918092 0.808451 0.534072
Si Si8 0.267456 0.823152 0.400650
O O1 0.240085 0.633992 0.298505
O O2 0.178491 0.720107 0.369485
O O3 0.010426 0.785947 0.287504
O O4 0.948109 0.593920 0.313324
O O5 0.792047 0.141549 0.914060
O O6 0.097347 0.210079 0.930881
O O7 0.041542 0.000000 0.942908
O O8 0.000000 0.139689 0.000000
O O9 0.145946 0.210263 0.852959
O O10 0.951045 0.357972 0.869139
O O11 0.225005 0.871577 0.783592
O O12 0.202993 0.000000 0.846449
O O13 0.045279 0.000000 0.718961
O O14 0.802759 0.407256 0.366430
O O15 0.750000 0.750000 0.500000
O O16 0.855591 0.865344 0.572266
O O17 0.000000 0.867947 0.500000
O O18 0.055941 0.719288 0.561985
#
# Coordination Sequence:
#
# PCOD9194211 Si02
#       8
#     8   8   8   8   8   4   8   8
#     4  12  23  41  62  90 122 155 194 244 290 345
#     4  10  20  34  55  83 112 147 195 245 292 347
#     4  10  20  36  57  79 115 154 191 237 297 349
#     4  10  21  38  57  83 114 154 194 238 287 349
#     4  11  24  39  62  89 120 154 199 244 291 346
#     4  12  24  38  66  91 124 154 194 238 296 340
#     4   9  19  38  67  86 120 159 191 239 280 340
#     4  11  21  41  62  91 121 156 194 238 287 343
#
# _framework density 20.139883999999999
#
# number of rings (size 3 to 8) (size 9 to 14) (size 15 to 20)
#    0.000    1.467    3.333    2.000    0.933    0.000 
#    0.000    3.333    1.467    6.400    0.000    0.000 
#    0.000    0.000    0.000    0.000    0.000    0.000 
#
# Total GULP energy -167006.034779 kJ/mol
# GULP energy per Si atom -5566.867826 kJ/mol
# Density = 2.009405 g / cm^3
# Si number density = 20.139884 Si / 1000 Ang^3
#
#
#
# Elastic Constant Matrix: (Units=GPa)
#
#
# Indices 1 2 3 4 5 6 
#
# 1 21.3910 -0.0078 -3.2164 0.0000 -6.5162 0.0000
# 2 -0.0078 90.8220 18.4566 0.0000 1.8925 0.0000
# 3 -3.2164 18.4566 75.3835 0.0000 -10.5367 0.0000
# 4 0.0000 0.0000 0.0000 -0.8869 0.0000 -11.8651
# 5 -6.5162 1.8925 -10.5367 0.0000 27.1466 0.0000
# 6 0.0000 0.0000 0.0000 -11.8651 0.0000 15.0407
#
#
#
# Elastic Compliance Matrix: (Units=1/GPa)
#
#
# Indices 1 2 3 4 5 6 
#
# 1 0.051767 -0.001206 0.004497 0.000000 0.014255 0.000000
# 2 -0.001206 0.011721 -0.003252 0.000000 -0.002369 0.000000
# 3 0.004497 -0.003252 0.015264 0.000000 0.007231 0.000000
# 4 0.000000 0.000000 0.000000 -0.097590 0.000000 -0.076986
# 5 0.014255 -0.002369 0.007231 0.000000 0.043231 0.000000
# 6 0.000000 0.000000 0.000000 -0.076986 0.000000 0.005755
#
#
# Mechanical properties :
#
#
# Convention : Reuss Voigt Hill
#
# Bulk Modulus (GPa) = 12.68587 24.22902 18.45745
# Shear Modulus (GPa) = 88.73604 19.75102 54.24353
#
# Velocity S-wave (km/s) = 6.64496 3.13500 5.19537
# Velocity P-wave (km/s) = 8.07382 5.01605 6.72114
#
# Compressibility (1/GPa) = 0.07882786
#
# Stress axis : x y z
#
# Youngs Moduli (GPa) = 19.31741 85.31893 65.51225
#
# Poissons Ratio (x) = 0.10293 -0.29459
# Poissons Ratio (y) = 0.02330 0.21306
# Poissons Ratio (z) = -0.08686 0.27748
#
# Static dielectric constant tensor:
#      x y z
#    x 1.727900 0.000000 -0.002390 
#    y 0.000000 1.689350 0.000000 
#    z -0.002390 0.000000 1.706780 
# 
# From -- ./inp_files/372188.got.cif
#   From: 2010.05.17/outbox.cif.g08.bks.cpg/sg12_187_cif.got.tgz:372188.got - 2010.06.03 13:09:07.
