data_PCOD9194503
_publ_section_title
;
Structure prediction by ZEFSAII (Michael W. Deem and Ramdas Pophale) SiO2 
 PCOD9194503
Probable space group: C 2/M
;
_chemical_formula_sum "Si O2"
_cell_formula_units_Z 32
_cell_length_a 13.153871
_cell_length_b 14.159650
_cell_length_c 16.253236
_cell_angle_alpha 90.000000
_cell_angle_beta 27.091269
_cell_angle_gamma 90.000000
_cell_volume 1378.630185
_symmetry_space_group_name_H-M "C 2/M"
_symmetry_group_IT_number 12
_symmetry_cell_setting 'monoclinic'
loop_
_space_group_symop_operation_xyz
x,y,z
-x,y,-z
-x,-y,-z
x,-y,z
1/2+x,1/2+y,z
1/2-x,1/2+y,-z
1/2-x,1/2-y,-z
1/2+x,1/2-y,z
loop_
_atom_site_type_symbol
_atom_site_label
_atom_site_fract_x
_atom_site_fract_y
_atom_site_fract_z
Si Si1 0.550322 0.889010 0.080601
Si Si2 0.052798 0.887585 0.732141
Si Si3 0.725464 0.231379 0.285602
Si Si4 0.995017 0.611004 0.315520
O O1 0.363676 0.826038 0.172834
O O2 0.517566 0.874653 0.202561
O O3 0.521602 0.000000 0.083582
O O4 0.806390 0.861178 0.881057
O O5 0.124315 0.834554 0.763315
O O6 0.242826 0.868497 0.527573
O O7 0.050498 0.000000 0.749900
O O8 0.500000 0.250728 0.500000
O O9 0.656863 0.174147 0.254156
O O10 0.038544 0.500000 0.301607
#
# Coordination Sequence:
#
# PCOD9194503 Si02
#       4
#     8   8   8   8
#     4  10  21  37  57  81 112 150 185 222 276 335
#     4   9  18  34  56  82 111 142 183 233 276 322
#     4  10  20  34  56  84 113 143 183 232 277 325
#     4   9  19  37  60  83 108 143 187 232 277 325
#
# _framework density 23.211445999999999
#
# number of rings (size 3 to 8) (size 9 to 14) (size 15 to 20)
#    0.000    2.500    0.000    1.500    0.000    8.500 
#    0.000    8.750    0.000    3.000    0.000   12.250 
#    0.000    0.000    0.000    0.000    0.000    0.000 
#
# Total GULP energy -89696.501842 kJ/mol
# GULP energy per Si atom -5606.031365 kJ/mol
# Density = 2.315862 g / cm^3
# Si number density = 23.211446 Si / 1000 Ang^3
#
#
#
# Elastic Constant Matrix: (Units=GPa)
#
#
# Indices 1 2 3 4 5 6 
#
# 1 136.6820 74.6216 84.0695 -0.0085 -14.9796 -0.0026
# 2 74.6216 134.1749 87.4614 -0.0325 -38.1357 -0.0077
# 3 84.0695 87.4614 117.3051 -0.0447 -32.1665 0.0016
# 4 -0.0085 -0.0325 -0.0447 35.3910 0.0136 -24.9407
# 5 -14.9796 -38.1357 -32.1665 0.0136 56.6921 0.0093
# 6 -0.0026 -0.0077 0.0016 -24.9407 0.0093 30.2826
#
#
#
# Elastic Compliance Matrix: (Units=1/GPa)
#
#
# Indices 1 2 3 4 5 6 
#
# 1 0.013908 -0.003076 -0.008567 -0.000018 -0.003255 -0.000013
# 2 -0.003076 0.016117 -0.008363 0.000008 0.005284 0.000009
# 3 -0.008567 -0.008363 0.022189 0.000030 0.004700 0.000019
# 4 -0.000018 0.000008 0.000030 0.067341 -0.000008 0.055461
# 5 -0.003255 0.005284 0.004700 -0.000008 0.023000 -0.000013
# 6 -0.000013 0.000009 0.000019 0.055461 -0.000013 0.078700
#
#
# Mechanical properties :
#
#
# Convention : Reuss Voigt Hill
#
# Bulk Modulus (GPa) = 81.95489 97.82967 89.89228
# Shear Modulus (GPa) = 18.84418 33.94044 26.39231
#
# Velocity S-wave (km/s) = 2.85239 3.82806 3.37566
# Velocity P-wave (km/s) = 6.79947 7.85986 7.34881
#
# Compressibility (1/GPa) = 0.01220183
#
# Stress axis : x y z
#
# Youngs Moduli (GPa) = 71.90141 62.04620 45.06775
#
# Poissons Ratio (x) = 0.19085 0.38608
# Poissons Ratio (y) = 0.22116 0.37692
# Poissons Ratio (z) = 0.61595 0.51892
#
# Static dielectric constant tensor:
#      x y z
#    x 1.815170 0.000000 0.025910 
#    y 0.000000 1.855210 0.000010 
#    z 0.025910 0.000010 1.843780 
# 
# From -- ./inp_files/45236.got.cif
#   From: 2010.05.17/outbox.cif.g08.bks.cpg/sg12_23_cif.got.tgz:45236.got - 2010.06.03 13:09:07.
