data_PCOD9194822
_publ_section_title
;
Structure prediction by ZEFSAII (Michael W. Deem and Ramdas Pophale) SiO2 
 PCOD9194822
Probable space group: C 2/M
;
_chemical_formula_sum "Si O2"
_cell_formula_units_Z 40
_cell_length_a 4.932134
_cell_length_b 24.735336
_cell_length_c 17.772088
_cell_angle_alpha 90.000000
_cell_angle_beta 70.316056
_cell_angle_gamma 90.000000
_cell_volume 2041.462610
_symmetry_space_group_name_H-M "C 2/M"
_symmetry_group_IT_number 12
_symmetry_cell_setting 'monoclinic'
loop_
_space_group_symop_operation_xyz
x,y,z
-x,y,-z
-x,-y,-z
x,-y,z
1/2+x,1/2+y,z
1/2-x,1/2+y,-z
1/2-x,1/2-y,-z
1/2+x,1/2-y,z
loop_
_atom_site_type_symbol
_atom_site_label
_atom_site_fract_x
_atom_site_fract_y
_atom_site_fract_z
Si Si1 0.195157 0.285723 0.812321
Si Si2 0.724448 0.563363 0.809659
Si Si3 0.818191 0.109237 0.721575
Si Si4 0.691587 0.562120 0.556487
Si Si5 0.817044 0.364044 0.946661
O O1 0.508571 0.266561 0.808482
O O2 0.228308 0.328699 0.741805
O O3 0.013096 0.316940 0.892850
O O4 0.670153 0.500000 0.821536
O O5 0.473640 0.590946 0.784431
O O6 0.761060 0.591923 0.886861
O O7 0.027842 0.574520 0.739423
O O8 0.036545 0.097032 0.634327
O O9 0.500000 0.560307 0.500000
O O10 0.725253 0.500000 0.582101
O O11 0.000000 0.582335 0.500000
O O12 0.500000 0.344257 0.000000
O O13 0.000000 0.386072 0.000000
#
# Coordination Sequence:
#
# PCOD9194822 Si02
#       5
#     8   8   8   8   8
#     4  11  23  40  61  82 107 149 197 242 291 332
#     4  11  22  37  59  84 115 157 192 225 280 346
#     4  11  22  39  60  85 118 150 193 238 274 337
#     4  10  20  34  57  89 120 149 179 219 278 337
#     4  11  23  38  56  84 117 146 189 242 291 343
#
# _framework density 19.593796999999999
#
# number of rings (size 3 to 8) (size 9 to 14) (size 15 to 20)
#    0.000    1.200    0.000    9.000    0.000    4.800 
#    0.000    0.000    0.000    3.600    0.000    0.000 
#    0.000    0.000    0.000    0.000    0.000    0.000 
#
# Total GULP energy -111831.409546 kJ/mol
# GULP energy per Si atom -5591.570477 kJ/mol
# Density = 1.954920 g / cm^3
# Si number density = 19.593797 Si / 1000 Ang^3
#
#
#
# Elastic Constant Matrix: (Units=GPa)
#
#
# Indices 1 2 3 4 5 6 
#
# 1 85.4618 0.4077 9.2542 0.0000 -7.5074 0.0000
# 2 0.4077 66.7064 25.1096 0.0000 -5.5671 0.0000
# 3 9.2542 25.1096 88.0974 0.0000 -21.3664 0.0000
# 4 0.0000 0.0000 0.0000 8.0626 0.0000 0.1499
# 5 -7.5074 -5.5671 -21.3664 0.0000 39.9599 0.0000
# 6 0.0000 0.0000 0.0000 0.1499 0.0000 28.7113
#
#
#
# Elastic Compliance Matrix: (Units=1/GPa)
#
#
# Indices 1 2 3 4 5 6 
#
# 1 0.011959 0.000432 -0.000942 0.000000 0.001803 0.000000
# 2 0.000432 0.016811 -0.004882 0.000000 -0.000187 0.000000
# 3 -0.000942 -0.004882 0.014516 0.000000 0.006905 0.000000
# 4 0.000000 0.000000 0.000000 0.124041 0.000000 -0.000648
# 5 0.001803 -0.000187 0.006905 0.000000 0.029030 0.000000
# 6 0.000000 0.000000 0.000000 -0.000648 0.000000 0.034833
#
#
# Mechanical properties :
#
#
# Convention : Reuss Voigt Hill
#
# Bulk Modulus (GPa) = 30.76757 34.42317 32.59537
# Shear Modulus (GPa) = 19.77786 29.04638 24.41212
#
# Velocity S-wave (km/s) = 3.18054 3.85441 3.53358
# Velocity P-wave (km/s) = 5.40598 6.11679 5.77234
#
# Compressibility (1/GPa) = 0.03250175
#
# Stress axis : x y z
#
# Youngs Moduli (GPa) = 83.61559 59.48655 68.88899
#
# Poissons Ratio (x) = -0.02570 0.06490
# Poissons Ratio (y) = -0.03612 0.33633
# Poissons Ratio (z) = 0.07877 0.29042
#
# Static dielectric constant tensor:
#      x y z
#    x 1.680910 0.000000 -0.005910 
#    y 0.000000 1.663990 0.000000 
#    z -0.005910 0.000000 1.686550 
# 
# From -- ./inp_files/191511.got.cif
#   From: 2010.05.17/outbox.cif.g08.bks.cpg/sg12_96_cif.got.tgz:191511.got - 2010.06.03 13:09:07.
