data_PCOD9194006
_publ_section_title
;
Structure prediction by ZEFSAII (Michael W. Deem and Ramdas Pophale) SiO2 
 PCOD9194006
Probable space group: C 2/M
;
_chemical_formula_sum "Si O2"
_cell_formula_units_Z 46
_cell_length_a 20.325314
_cell_length_b 19.300662
_cell_length_c 18.936183
_cell_angle_alpha 90.000000
_cell_angle_beta 17.408421
_cell_angle_gamma 90.000000
_cell_volume 2222.470346
_symmetry_space_group_name_H-M "C 2/M"
_symmetry_group_IT_number 12
_symmetry_cell_setting 'monoclinic'
loop_
_space_group_symop_operation_xyz
x,y,z
-x,y,-z
-x,-y,-z
x,-y,z
1/2+x,1/2+y,z
1/2-x,1/2+y,-z
1/2-x,1/2-y,-z
1/2+x,1/2-y,z
loop_
_atom_site_type_symbol
_atom_site_label
_atom_site_fract_x
_atom_site_fract_y
_atom_site_fract_z
Si Si1 0.500000 0.500000 0.000000
Si Si2 0.000000 0.765540 0.000000
Si Si3 0.796133 0.383397 0.757944
Si Si4 0.447982 0.203858 0.201705
Si Si5 0.802265 0.422556 0.004879
Si Si6 0.897021 0.422075 0.435852
Si Si7 0.443748 0.335434 0.290688
O O1 0.390020 0.439997 0.062247
O O2 0.806217 0.812558 0.165312
O O3 0.907474 0.725073 0.162569
O O4 0.000000 0.405016 0.500000
O O5 0.913191 0.385431 0.713373
O O6 0.610867 0.138099 0.033601
O O7 0.546116 0.267681 0.148091
O O8 0.226918 0.187508 0.472922
O O9 0.753457 0.500000 0.082596
O O10 0.001566 0.429855 0.745357
O O11 0.602951 0.390445 0.164170
O O12 0.849267 0.500000 0.513698
O O13 0.688347 0.373508 0.637610
#
# Coordination Sequence:
#
# PCOD9194006 Si02
#       7
#     2   4   8   8   8   8   8
#     4  10  22  36  48  74 118 168 200 230 278 326
#     4  11  24  39  59  86 115 160 198 250 299 356
#     4  11  22  37  54  80 121 163 204 236 279 348
#     4  10  22  39  60  87 118 151 198 243 296 353
#     4  10  21  38  61  87 114 149 193 252 299 350
#     4  10  20  34  54  87 120 152 197 240 283 344
#     4  10  20  38  62  88 116 156 193 241 296 353
#
# _framework density 20.697687999999999
#
# number of rings (size 3 to 8) (size 9 to 14) (size 15 to 20)
#    0.000    1.739    0.870    3.391    0.000    6.261 
#    0.000    0.435    0.000    1.043    0.000    0.000 
#    0.000    0.000    0.000    0.000    0.000    0.000 
#
# Total GULP energy -128103.337837 kJ/mol
# GULP energy per Si atom -5569.710341 kJ/mol
# Density = 2.065058 g / cm^3
# Si number density = 20.697688 Si / 1000 Ang^3
#
#
#
# Elastic Constant Matrix: (Units=GPa)
#
#
# Indices 1 2 3 4 5 6 
#
# 1 107.2664 60.9689 24.3233 0.0380 -3.3016 0.0648
# 2 60.9689 153.2026 36.0289 0.0027 -15.9738 -0.0419
# 3 24.3233 36.0289 34.6180 -0.0474 0.2845 -0.0498
# 4 0.0380 0.0027 -0.0474 2.1399 -0.0529 1.8714
# 5 -3.3016 -15.9738 0.2845 -0.0529 27.2131 -0.0773
# 6 0.0648 -0.0419 -0.0498 1.8714 -0.0773 -32.3075
#
#
#
# Elastic Compliance Matrix: (Units=1/GPa)
#
#
# Indices 1 2 3 4 5 6 
#
# 1 0.012643 -0.004004 -0.004710 -0.000359 -0.000768 0.000019
# 2 -0.004004 0.010704 -0.008375 0.000036 0.005885 -0.000021
# 3 -0.004710 -0.008375 0.040963 0.000855 -0.005914 0.000002
# 4 -0.000359 0.000036 0.000855 0.444821 0.000906 0.025761
# 5 -0.000768 0.005885 -0.005914 0.000906 0.040172 -0.000044
# 6 0.000019 -0.000021 0.000002 0.025761 -0.000044 -0.029460
#
#
# Mechanical properties :
#
#
# Convention : Reuss Voigt Hill
#
# Bulk Modulus (GPa) = 33.18889 59.74769 46.46829
# Shear Modulus (GPa) = 8.86423 10.99350 9.92886
#
# Velocity S-wave (km/s) = 2.07172 2.30716 2.19260
# Velocity P-wave (km/s) = 4.66825 6.00224 5.37677
#
# Compressibility (1/GPa) = 0.03013056
#
# Stress axis : x y z
#
# Youngs Moduli (GPa) = 79.09630 93.42452 24.41237
#
# Poissons Ratio (x) = 0.37404 0.11499
# Poissons Ratio (y) = 0.31667 0.20446
# Poissons Ratio (z) = 0.37258 0.78247
#
# Static dielectric constant tensor:
#      x y z
#    x 1.846380 -0.000070 0.067270 
#    y -0.000070 1.827000 0.000040 
#    z 0.067270 0.000040 1.802570 
# 
# From -- ./inp_files/279192.got.cif
#   From: 2010.05.17/outbox.cif.g08.bks.cpg/sg12_140_cif.got.tgz:279192.got - 2010.06.03 13:09:07.
