data_PCOD9194513
_publ_section_title
;
Structure prediction by ZEFSAII (Michael W. Deem and Ramdas Pophale) SiO2 
 PCOD9194513
Probable space group: C 2/M
;
_chemical_formula_sum "Si O2"
_cell_formula_units_Z 64
_cell_length_a 17.142213
_cell_length_b 13.905081
_cell_length_c 19.214026
_cell_angle_alpha 90.000000
_cell_angle_beta 43.503840
_cell_angle_gamma 90.000000
_cell_volume 3152.838011
_symmetry_space_group_name_H-M "C 2/M"
_symmetry_group_IT_number 12
_symmetry_cell_setting 'monoclinic'
loop_
_space_group_symop_operation_xyz
x,y,z
-x,y,-z
-x,-y,-z
x,-y,z
1/2+x,1/2+y,z
1/2-x,1/2+y,-z
1/2-x,1/2-y,-z
1/2+x,1/2-y,z
loop_
_atom_site_type_symbol
_atom_site_label
_atom_site_fract_x
_atom_site_fract_y
_atom_site_fract_z
Si Si1 0.844038 0.392785 0.765769
Si Si2 0.876718 0.610280 0.580172
Si Si3 0.566848 0.712556 0.212335
Si Si4 0.782591 0.386472 0.131143
Si Si5 0.038412 0.718849 0.083336
Si Si6 0.697582 0.728509 0.609700
Si Si7 0.833612 0.609854 0.256358
Si Si8 0.397731 0.394502 0.117784
O O1 0.878799 0.500000 0.765229
O O2 0.846652 0.388068 0.680579
O O3 0.914039 0.310175 0.756307
O O4 0.710243 0.378536 0.861984
O O5 0.890157 0.500000 0.547711
O O6 0.781501 0.656830 0.595069
O O7 0.000000 0.659027 0.500000
O O8 0.658893 0.637181 0.180469
O O9 0.597908 0.736393 0.112261
O O10 0.432780 0.690651 0.306804
O O11 0.810732 0.500000 0.104571
O O12 0.778754 0.366068 0.216549
O O13 0.877399 0.319898 0.031047
O O14 0.966563 0.627374 0.155561
O O15 0.940858 0.800181 0.130528
O O16 0.750000 0.750000 0.500000
O O17 0.697496 0.822436 0.659334
O O18 0.808344 0.500000 0.288839
O O19 0.381188 0.500000 0.165327
O O20 0.500000 0.406990 0.000000
#
# Coordination Sequence:
#
# PCOD9194513 Si02
#       8
#     8   8   8   8   8   8   8   8
#     4  10  20  36  58  82 113 152 193 241 294 350
#     4  10  21  39  64  88 109 142 190 242 297 359
#     4  11  23  37  56  87 124 159 196 246 305 363
#     4  11  23  39  59  84 120 167 211 250 297 362
#     4  11  21  36  60  88 122 163 208 256 303 354
#     4  11  24  40  63  91 120 155 193 250 317 371
#     4  10  22  40  62  87 117 160 211 254 293 353
#     4  10  20  34  56  84 114 153 200 250 299 346
#
# _framework density 20.299171000000001
#
# number of rings (size 3 to 8) (size 9 to 14) (size 15 to 20)
#    0.000    1.500    0.000    6.375    0.000    5.000 
#    0.000    1.250    0.000    1.875    0.000    0.000 
#    0.000    0.000    0.000    0.000    0.000    0.000 
#
# Total GULP energy -178449.219553 kJ/mol
# GULP energy per Si atom -5576.538111 kJ/mol
# Density = 2.025297 g / cm^3
# Si number density = 20.299171 Si / 1000 Ang^3
#
#
#
# Elastic Constant Matrix: (Units=GPa)
#
#
# Indices 1 2 3 4 5 6 
#
# 1 92.1080 44.6094 23.2918 0.0000 -9.0017 0.0000
# 2 44.6094 99.5371 27.6569 0.0000 2.3328 0.0000
# 3 23.2918 27.6569 82.3371 0.0000 -0.3786 0.0000
# 4 0.0000 0.0000 0.0000 20.8896 0.0000 -3.8659
# 5 -9.0017 2.3328 -0.3786 0.0000 39.4842 0.0000
# 6 0.0000 0.0000 0.0000 -3.8659 0.0000 17.7710
#
#
#
# Elastic Compliance Matrix: (Units=1/GPa)
#
#
# Indices 1 2 3 4 5 6 
#
# 1 0.014697 -0.006091 -0.002095 0.000000 0.003691 0.000000
# 2 -0.006091 0.013624 -0.002863 0.000000 -0.002221 0.000000
# 3 -0.002095 -0.002863 0.013699 0.000000 -0.000177 0.000000
# 4 0.000000 0.000000 0.000000 0.049879 0.000000 0.010851
# 5 0.003691 -0.002221 -0.000177 0.000000 0.026298 0.000000
# 6 0.000000 0.000000 0.000000 0.010851 0.000000 0.058632
#
#
# Mechanical properties :
#
#
# Convention : Reuss Voigt Hill
#
# Bulk Modulus (GPa) = 50.19710 51.67761 50.93736
# Shear Modulus (GPa) = 24.32291 27.52388 25.92340
#
# Velocity S-wave (km/s) = 3.46529 3.68627 3.57748
# Velocity P-wave (km/s) = 6.38696 6.60540 6.49710
#
# Compressibility (1/GPa) = 0.01992147
#
# Stress axis : x y z
#
# Youngs Moduli (GPa) = 68.03964 73.39912 72.99955
#
# Poissons Ratio (x) = 0.44710 0.15290
# Poissons Ratio (y) = 0.41446 0.20903
# Poissons Ratio (z) = 0.14251 0.21017
#
# Static dielectric constant tensor:
#      x y z
#    x 1.738270 0.000000 0.033260 
#    y 0.000000 1.846980 0.000000 
#    z 0.033260 0.000000 1.744090 
# 
# From -- ./inp_files/270640.got.cif
#   From: 2010.05.17/outbox.cif.g08.bks.cpg/sg12_136_cif.got.tgz:270640.got - 2010.06.03 13:09:07.
