data_PCOD9194369
_publ_section_title
;
Structure prediction by ZEFSAII (Michael W. Deem and Ramdas Pophale) SiO2 
 PCOD9194369
Probable space group: C 2/M
;
_chemical_formula_sum "Si O2"
_cell_formula_units_Z 48
_cell_length_a 22.107075
_cell_length_b 7.960931
_cell_length_c 21.559459
_cell_angle_alpha 90.000000
_cell_angle_beta 33.680590
_cell_angle_gamma 90.000000
_cell_volume 2104.183185
_symmetry_space_group_name_H-M "C 2/M"
_symmetry_group_IT_number 12
_symmetry_cell_setting 'monoclinic'
loop_
_space_group_symop_operation_xyz
x,y,z
-x,y,-z
-x,-y,-z
x,-y,z
1/2+x,1/2+y,z
1/2-x,1/2+y,-z
1/2-x,1/2-y,-z
1/2+x,1/2-y,z
loop_
_atom_site_type_symbol
_atom_site_label
_atom_site_fract_x
_atom_site_fract_y
_atom_site_fract_z
Si Si1 0.951298 0.200130 0.168237
Si Si2 0.144440 0.299861 0.628830
Si Si3 0.171916 0.696507 0.844621
Si Si4 0.914838 0.201731 0.623343
Si Si5 0.922108 0.700316 0.759781
Si Si6 0.684109 0.306281 0.972946
O O1 0.859374 0.243708 0.296697
O O2 0.919524 0.268986 0.128167
O O3 0.960834 0.000000 0.155208
O O4 0.068517 0.270645 0.092157
O O5 0.138719 0.500000 0.632390
O O6 0.250000 0.250000 0.500000
O O7 0.032427 0.228669 0.694929
O O8 0.170089 0.500000 0.863630
O O9 0.289115 0.734439 0.713412
O O10 0.170221 0.799294 0.909737
O O11 0.930147 0.272199 0.679130
O O12 0.000000 0.266047 0.500000
O O13 0.928124 0.000000 0.616371
O O14 0.918444 0.500000 0.773659
O O15 0.803922 0.770044 0.883081
O O16 0.687447 0.500000 0.990298
#
# Coordination Sequence:
#
# PCOD9194369 Si02
#       6
#     8   8   8   8   8   8
#     4  11  23  38  59  86 117 157 196 233 287 344
#     4  11  25  43  61  84 115 152 195 241 287 340
#     4  10  20  34  55  87 122 154 190 237 287 339
#     4   9  19  34  54  82 113 149 189 233 286 336
#     4   9  20  39  60  83 111 147 191 238 284 336
#     4   9  19  38  61  86 118 152 189 237 290 345
#
# _framework density 22.811703000000001
#
# number of rings (size 3 to 8) (size 9 to 14) (size 15 to 20)
#    0.000    2.167    0.000    2.000    2.333    6.333 
#    0.000    0.000    0.000    0.000    0.000    0.000 
#    0.000    0.000    0.000    0.000    0.000    0.000 
#
# Total GULP energy -134078.761364 kJ/mol
# GULP energy per Si atom -5586.615057 kJ/mol
# Density = 2.275978 g / cm^3
# Si number density = 22.811703 Si / 1000 Ang^3
#
#
#
# Elastic Constant Matrix: (Units=GPa)
#
#
# Indices 1 2 3 4 5 6 
#
# 1 86.3928 1.7632 21.9861 -0.0008 -15.6241 0.0001
# 2 1.7632 39.7982 11.5819 -0.0039 -3.0100 0.0010
# 3 21.9861 11.5819 131.8636 -0.0005 0.6735 0.0004
# 4 -0.0008 -0.0039 -0.0005 24.0815 0.0005 2.2024
# 5 -15.6241 -3.0100 0.6735 0.0005 31.9212 -0.0001
# 6 0.0001 0.0010 0.0004 2.2024 -0.0001 22.3816
#
#
#
# Elastic Compliance Matrix: (Units=1/GPa)
#
#
# Indices 1 2 3 4 5 6 
#
# 1 0.013352 0.000583 -0.002311 0.000000 0.006639 0.000000
# 2 0.000583 0.026009 -0.002396 0.000004 0.002789 -0.000002
# 3 -0.002311 -0.002396 0.008187 0.000000 -0.001530 0.000000
# 4 0.000000 0.000004 0.000000 0.041903 0.000000 -0.004123
# 5 0.006639 0.002789 -0.001530 0.000000 0.034872 0.000000
# 6 0.000000 -0.000002 0.000000 -0.004123 0.000000 0.045085
#
#
# Mechanical properties :
#
#
# Convention : Reuss Voigt Hill
#
# Bulk Modulus (GPa) = 25.44519 36.52410 30.98465
# Shear Modulus (GPa) = 26.21142 30.52507 28.36825
#
# Velocity S-wave (km/s) = 3.39342 3.66202 3.53027
# Velocity P-wave (km/s) = 5.15096 5.82464 5.49812
#
# Compressibility (1/GPa) = 0.03930015
#
# Stress axis : x y z
#
# Youngs Moduli (GPa) = 74.89505 38.44814 122.14140
#
# Poissons Ratio (x) = -0.02242 0.28231
# Poissons Ratio (y) = -0.04368 0.29264
# Poissons Ratio (z) = 0.17311 0.09212
#
# Static dielectric constant tensor:
#      x y z
#    x 1.862250 0.000000 -0.046980 
#    y 0.000000 1.827180 0.000000 
#    z -0.046980 0.000000 1.901540 
# 
# From -- ./inp_files/348742.got.cif
#   From: 2010.05.17/outbox.cif.g08.bks.cpg/sg12_175_cif.got.tgz:348742.got - 2010.06.03 13:09:07.
