data_PCOD9194041
_publ_section_title
;
Structure prediction by ZEFSAII (Michael W. Deem and Ramdas Pophale) SiO2 
 PCOD9194041
Probable space group: C 2/M
;
_chemical_formula_sum "Si O2"
_cell_formula_units_Z 48
_cell_length_a 24.293840
_cell_length_b 26.166707
_cell_length_c 12.867088
_cell_angle_alpha 90.000000
_cell_angle_beta 160.739847
_cell_angle_gamma 90.000000
_cell_volume 2698.065237
_symmetry_space_group_name_H-M "C 2/M"
_symmetry_group_IT_number 12
_symmetry_cell_setting 'monoclinic'
loop_
_space_group_symop_operation_xyz
x,y,z
-x,y,-z
-x,-y,-z
x,-y,z
1/2+x,1/2+y,z
1/2-x,1/2+y,-z
1/2-x,1/2-y,-z
1/2+x,1/2-y,z
loop_
_atom_site_type_symbol
_atom_site_label
_atom_site_fract_x
_atom_site_fract_y
_atom_site_fract_z
Si Si1 0.622361 0.193559 0.621870
Si Si2 0.307970 0.559512 0.615940
Si Si3 0.000492 0.806441 0.378131
Si Si4 0.999847 0.500000 0.375468
Si Si5 0.124380 0.000000 0.624533
Si Si6 0.571861 0.403596 0.381599
Si Si7 0.309738 0.903596 0.381598
O O1 0.500000 0.181294 0.500000
O O2 0.575789 0.250000 0.500001
O O3 0.613282 0.149864 0.518668
O O4 0.809746 0.194718 0.000000
O O5 0.258479 0.500000 0.516959
O O6 0.313027 0.586795 0.513640
O O7 0.200613 0.586796 0.513640
O O8 0.500000 0.559362 0.000000
O O9 0.094615 0.850136 0.481333
O O10 0.000000 0.818706 0.500000
O O11 0.000000 0.500000 0.500000
O O12 0.093209 0.450186 0.498377
O O13 0.811662 0.500000 0.000000
O O14 0.094832 0.950186 0.501623
O O15 0.000000 0.000000 0.500000
O O16 0.380512 0.404901 0.000000
#
# Coordination Sequence:
#
# PCOD9194041 Si02
#       7
#     8   8   8   4   4   8   8
#     4  10  20  34  55  79 107 140 179 222 270 323
#     4   9  16  32  59  80 104 144 184 220 259 318
#     4  10  20  34  55  79 107 140 179 222 270 323
#     4  12  24  35  52  79 111 142 174 222 275 326
#     4  12  24  35  52  79 111 142 174 222 275 326
#     4  10  20  36  57  81 107 142 184 222 264 320
#     4  10  20  36  57  81 107 142 184 222 264 320
#
# _framework density 17.790527000000001
#
# number of rings (size 3 to 8) (size 9 to 14) (size 15 to 20)
#    0.000    1.833    1.667    4.500    0.000    5.333 
#    0.000    2.500    0.000    0.000    0.000    0.000 
#    0.000    0.000    0.000    0.000    0.000    0.000 
#
# Total GULP energy -134024.178695 kJ/mol
# GULP energy per Si atom -5584.340779 kJ/mol
# Density = 1.775003 g / cm^3
# Si number density = 17.790527 Si / 1000 Ang^3
#
#
#
# Elastic Constant Matrix: (Units=GPa)
#
#
# Indices 1 2 3 4 5 6 
#
# 1 193.1553 127.4948 28.2154 0.0000 -11.9377 0.0000
# 2 127.4948 166.6893 30.3213 0.0000 -8.5407 0.0000
# 3 28.2154 30.3213 24.1853 0.0000 -2.9135 0.0000
# 4 0.0000 0.0000 0.0000 20.1590 0.0000 -2.1514
# 5 -11.9377 -8.5407 -2.9135 0.0000 15.3519 0.0000
# 6 0.0000 0.0000 0.0000 -2.1514 0.0000 44.6341
#
#
#
# Elastic Compliance Matrix: (Units=1/GPa)
#
#
# Indices 1 2 3 4 5 6 
#
# 1 0.010802 -0.007594 -0.002639 0.000000 0.003674 0.000000
# 2 -0.007594 0.013207 -0.007701 0.000000 -0.000019 0.000000
# 3 -0.002639 -0.007701 0.054565 0.000000 0.004019 0.000000
# 4 0.000000 0.000000 0.000000 0.049862 0.000000 0.002403
# 5 0.003674 -0.000019 0.004019 0.000000 0.068748 0.000000
# 6 0.000000 0.000000 0.000000 0.002403 0.000000 0.022520
#
#
# Mechanical properties :
#
#
# Convention : Reuss Voigt Hill
#
# Bulk Modulus (GPa) = 23.41553 84.01031 53.71292
# Shear Modulus (GPa) = 18.53161 29.22890 23.88025
#
# Velocity S-wave (km/s) = 3.23097 4.05773 3.66772
# Velocity P-wave (km/s) = 5.20666 8.32334 6.94216
#
# Compressibility (1/GPa) = 0.04270669
#
# Stress axis : x y z
#
# Youngs Moduli (GPa) = 92.57314 75.71481 18.32664
#
# Poissons Ratio (x) = 0.57498 0.04836
# Poissons Ratio (y) = 0.70300 0.14114
# Poissons Ratio (z) = 0.24430 0.58310
#
# Static dielectric constant tensor:
#      x y z
#    x 1.595400 0.000000 0.000800 
#    y 0.000000 1.588320 0.000000 
#    z 0.000800 0.000000 1.604530 
# 
# From -- ./inp_files/178617.got.cif
#   From: 2010.05.17/outbox.cif.g08.bks.cpg/sg12_90_cif.got.tgz:178617.got - 2010.06.03 13:09:07.
