data_PCOD9194091
_publ_section_title
;
Structure prediction by ZEFSAII (Michael W. Deem and Ramdas Pophale) SiO2 
 PCOD9194091
Probable space group: C 2/M
;
_chemical_formula_sum "Si O2"
_cell_formula_units_Z 64
_cell_length_a 27.439478
_cell_length_b 14.080076
_cell_length_c 15.568021
_cell_angle_alpha 90.000000
_cell_angle_beta 146.297615
_cell_angle_gamma 90.000000
_cell_volume 3337.433240
_symmetry_space_group_name_H-M "C 2/M"
_symmetry_group_IT_number 12
_symmetry_cell_setting 'monoclinic'
loop_
_space_group_symop_operation_xyz
x,y,z
-x,y,-z
-x,-y,-z
x,-y,z
1/2+x,1/2+y,z
1/2-x,1/2+y,-z
1/2-x,1/2-y,-z
1/2+x,1/2-y,z
loop_
_atom_site_type_symbol
_atom_site_label
_atom_site_fract_x
_atom_site_fract_y
_atom_site_fract_z
Si Si1 0.580160 0.608366 0.323338
Si Si2 0.082820 0.107166 0.800790
Si Si3 0.921516 0.393873 0.814928
Si Si4 0.102301 0.195423 0.172972
Si Si5 0.750778 0.889384 0.719165
Si Si6 0.588515 0.820679 0.385344
Si Si7 0.715283 0.112928 0.855354
Si Si8 0.041313 0.703962 0.653429
O O1 0.609115 0.500000 0.389026
O O2 0.476797 0.611711 0.199890
O O3 0.603625 0.628018 0.258544
O O4 0.610927 0.707610 0.412268
O O5 0.046775 0.184362 0.682130
O O6 0.074562 0.000000 0.756016
O O7 0.184800 0.126899 0.968209
O O8 0.882525 0.500000 0.753935
O O9 0.864340 0.302447 0.757903
O O10 0.949452 0.360648 0.760082
O O11 0.000000 0.398888 0.000000
O O12 0.159609 0.156603 0.180094
O O13 0.000000 0.201828 0.000000
O O14 0.678192 0.873443 0.539867
O O15 0.713267 0.851158 0.753954
O O16 0.767077 0.000000 0.756665
O O17 0.519089 0.837216 0.359412
O O18 0.639662 0.163308 0.798058
O O19 0.697273 0.000000 0.830354
O O20 0.000000 0.684192 0.500000
#
# Coordination Sequence:
#
# PCOD9194091 Si02
#       8
#     8   8   8   8   8   8   8   8
#     4   9  18  33  54  79 110 145 186 230 279 335
#     4   9  19  36  57  82 113 152 193 237 289 339
#     4   9  19  37  59  82 112 150 188 227 276 337
#     4  10  20  34  55  81 107 141 186 230 276 339
#     4  11  22  35  55  83 116 148 184 238 293 340
#     4  10  21  37  56  84 115 150 190 233 287 344
#     4  10  21  36  56  84 117 152 193 242 291 339
#     4  11  21  37  60  85 115 153 195 240 287 342
#
# _framework density 19.176413
#
# number of rings (size 3 to 8) (size 9 to 14) (size 15 to 20)
#    0.000    2.125    1.250    1.875    0.000    6.500 
#    0.000    1.875    0.000    2.250    0.000    0.000 
#    0.000    0.000    0.000    0.000    0.000    0.000 
#
# Total GULP energy -178225.580314 kJ/mol
# GULP energy per Si atom -5569.549385 kJ/mol
# Density = 1.913277 g / cm^3
# Si number density = 19.176413 Si / 1000 Ang^3
#
#
#
# Elastic Constant Matrix: (Units=GPa)
#
#
# Indices 1 2 3 4 5 6 
#
# 1 64.4899 28.1178 10.1643 0.0000 -1.7687 0.0000
# 2 28.1178 87.2546 0.1858 0.0000 6.8737 0.0000
# 3 10.1643 0.1858 21.2862 0.0000 -1.0244 0.0000
# 4 0.0000 0.0000 0.0000 19.1081 0.0000 3.6634
# 5 -1.7687 6.8737 -1.0244 0.0000 27.0111 0.0000
# 6 0.0000 0.0000 0.0000 3.6634 0.0000 13.3458
#
#
#
# Elastic Compliance Matrix: (Units=1/GPa)
#
#
# Indices 1 2 3 4 5 6 
#
# 1 0.019932 -0.006611 -0.009333 0.000000 0.002633 0.000000
# 2 -0.006611 0.013889 0.002850 0.000000 -0.003859 0.000000
# 3 -0.009333 0.002850 0.051440 0.000000 0.000615 0.000000
# 4 0.000000 0.000000 0.000000 0.055241 0.000000 -0.015163
# 5 0.002633 -0.003859 0.000615 0.000000 0.038200 0.000000
# 6 0.000000 0.000000 0.000000 -0.015163 0.000000 0.079092
#
#
# Mechanical properties :
#
#
# Convention : Reuss Voigt Hill
#
# Bulk Modulus (GPa) = 16.92830 27.77405 22.35117
# Shear Modulus (GPa) = 16.46511 20.86387 18.66449
#
# Velocity S-wave (km/s) = 2.93339 3.30206 3.12317
# Velocity P-wave (km/s) = 4.50775 5.39008 4.96854
#
# Compressibility (1/GPa) = 0.05907269
#
# Stress axis : x y z
#
# Youngs Moduli (GPa) = 50.17121 71.99984 19.44009
#
# Poissons Ratio (x) = 0.47596 0.18144
# Poissons Ratio (y) = 0.33166 -0.05540
# Poissons Ratio (z) = 0.46825 -0.20517
#
# Static dielectric constant tensor:
#      x y z
#    x 1.657730 0.000000 -0.012880 
#    y 0.000000 1.691700 0.000000 
#    z -0.012880 0.000000 1.687200 
# 
# From -- ./inp_files/240735.got.cif
#   From: 2010.05.17/outbox.cif.g08.bks.cpg/sg12_121_cif.got.tgz:240735.got - 2010.06.03 13:09:07.
