data_PCOD9194470
_publ_section_title
;
Structure prediction by ZEFSAII (Michael W. Deem and Ramdas Pophale) SiO2 
 PCOD9194470
Probable space group: C 2/M
;
_chemical_formula_sum "Si O2"
_cell_formula_units_Z 60
_cell_length_a 14.836965
_cell_length_b 17.711125
_cell_length_c 13.303618
_cell_angle_alpha 90.000000
_cell_angle_beta 74.424742
_cell_angle_gamma 90.000000
_cell_volume 3367.541067
_symmetry_space_group_name_H-M "C 2/M"
_symmetry_group_IT_number 12
_symmetry_cell_setting 'monoclinic'
loop_
_space_group_symop_operation_xyz
x,y,z
-x,y,-z
-x,-y,-z
x,-y,z
1/2+x,1/2+y,z
1/2-x,1/2+y,-z
1/2-x,1/2-y,-z
1/2+x,1/2-y,z
loop_
_atom_site_type_symbol
_atom_site_label
_atom_site_fract_x
_atom_site_fract_y
_atom_site_fract_z
Si Si1 0.953357 0.411590 0.373598
Si Si2 0.671462 0.417465 0.202833
Si Si3 0.397941 0.357731 0.575191
Si Si4 0.608679 0.083317 0.837193
Si Si5 0.765699 0.338119 0.521584
Si Si6 0.362670 0.191090 0.680108
Si Si7 0.157581 0.237667 0.095691
Si Si8 0.000000 0.702392 0.000000
O O1 0.960182 0.500000 0.402278
O O2 0.933492 0.410969 0.260713
O O3 0.863974 0.370689 0.450604
O O4 0.048457 0.364253 0.359914
O O5 0.656373 0.500000 0.161989
O O6 0.615165 0.408320 0.322645
O O7 0.779955 0.410705 0.202251
O O8 0.653103 0.347971 0.135651
O O9 0.500000 0.365046 0.500000
O O10 0.319702 0.375495 0.513845
O O11 0.385400 0.271804 0.620920
O O12 0.586347 0.000000 0.885266
O O13 0.568681 0.148629 0.917149
O O14 0.750000 0.250000 0.500000
O O15 0.776855 0.341982 0.639214
O O16 0.342121 0.209790 0.803318
O O17 0.250000 0.250000 0.000000
O O18 0.065621 0.253389 0.057465
#
# Coordination Sequence:
#
# PCOD9194470 Si02
#       8
#     8   8   8   8   8   8   8   4
#     4  11  21  36  59  90 123 154 190 238 305 368
#     4  10  21  40  61  84 119 155 195 250 298 345
#     4  10  20  36  57  86 113 155 208 237 278 343
#     4  10  20  35  60  91 120 150 192 249 311 356
#     4  10  20  34  56  83 118 160 192 234 286 354
#     4  10  21  37  55  83 122 154 190 243 298 355
#     4  11  23  40  60  90 116 153 203 247 299 359
#     4  12  21  38  65  88 116 156 206 250 297 364
#
# _framework density 17.817156000000001
#
# number of rings (size 3 to 8) (size 9 to 14) (size 15 to 20)
#    0.000    1.600    4.000    2.200    0.000    1.333 
#    4.800    1.000    0.000    0.000    0.000    0.000 
#    0.000    0.000    0.000    0.000    0.000    0.000 
#
# Total GULP energy -167307.359801 kJ/mol
# GULP energy per Si atom -5576.911993 kJ/mol
# Density = 1.777660 g / cm^3
# Si number density = 17.817156 Si / 1000 Ang^3
#
#
#
# Elastic Constant Matrix: (Units=GPa)
#
#
# Indices 1 2 3 4 5 6 
#
# 1 93.6907 35.1343 64.4999 0.0000 12.3414 0.0000
# 2 35.1343 91.8303 36.1560 0.0000 6.9894 0.0000
# 3 64.4999 36.1560 109.8009 0.0000 3.4147 0.0000
# 4 0.0000 0.0000 0.0000 23.7656 0.0000 -4.9566
# 5 12.3414 6.9894 3.4147 0.0000 38.1621 0.0000
# 6 0.0000 0.0000 0.0000 -4.9566 0.0000 22.4595
#
#
#
# Elastic Compliance Matrix: (Units=1/GPa)
#
#
# Indices 1 2 3 4 5 6 
#
# 1 0.019577 -0.003048 -0.010346 0.000000 -0.004847 0.000000
# 2 -0.003048 0.013129 -0.002496 0.000000 -0.001196 0.000000
# 3 -0.010346 -0.002496 0.015933 0.000000 0.002377 0.000000
# 4 0.000000 0.000000 0.000000 0.044108 0.000000 0.009734
# 5 -0.004847 -0.001196 0.002377 0.000000 0.027778 0.000000
# 6 0.000000 0.000000 0.000000 0.009734 0.000000 0.046673
#
#
# Mechanical properties :
#
#
# Convention : Reuss Voigt Hill
#
# Bulk Modulus (GPa) = 59.31042 62.98914 61.14978
# Shear Modulus (GPa) = 24.43825 27.51289 25.97557
#
# Velocity S-wave (km/s) = 3.70755 3.93387 3.82238
# Velocity P-wave (km/s) = 7.18947 7.48756 7.34003
#
# Compressibility (1/GPa) = 0.01686044
#
# Stress axis : x y z
#
# Youngs Moduli (GPa) = 51.07944 76.16484 62.76401
#
# Poissons Ratio (x) = 0.23214 0.64935
# Poissons Ratio (y) = 0.15569 0.15664
# Poissons Ratio (z) = 0.52846 0.19009
#
# Static dielectric constant tensor:
#      x y z
#    x 1.603720 0.000000 0.021010 
#    y 0.000000 1.622060 0.000000 
#    z 0.021010 0.000000 1.619210 
# 
# From -- ./inp_files/146116.got.cif
#   From: 2010.05.17/outbox.cif.g08.bks.cpg/sg12_74_cif.got.tgz:146116.got - 2010.06.03 13:09:07.
