data_PCOD9194373
_publ_section_title
;
Structure prediction by ZEFSAII (Michael W. Deem and Ramdas Pophale) SiO2 
 PCOD9194373
Probable space group: C 2/M
;
_chemical_formula_sum "Si O2"
_cell_formula_units_Z 58
_cell_length_a 29.190547
_cell_length_b 7.521269
_cell_length_c 27.200516
_cell_angle_alpha 90.000000
_cell_angle_beta 25.720510
_cell_angle_gamma 90.000000
_cell_volume 2591.682684
_symmetry_space_group_name_H-M "C 2/M"
_symmetry_group_IT_number 12
_symmetry_cell_setting 'monoclinic'
loop_
_space_group_symop_operation_xyz
x,y,z
-x,y,-z
-x,-y,-z
x,-y,z
1/2+x,1/2+y,z
1/2-x,1/2+y,-z
1/2-x,1/2-y,-z
1/2+x,1/2-y,z
loop_
_atom_site_type_symbol
_atom_site_label
_atom_site_fract_x
_atom_site_fract_y
_atom_site_fract_z
Si Si1 0.500000 0.500000 0.000000
Si Si2 0.840918 0.292200 0.527833
Si Si3 0.324969 0.712901 0.881705
Si Si4 0.612537 0.283951 0.731235
Si Si5 0.254702 0.710428 0.843730
Si Si6 0.524064 0.794392 0.047614
Si Si7 0.974074 0.714890 0.580202
Si Si8 0.936255 0.784658 0.331578
O O1 0.540692 0.658163 0.922808
O O2 0.834733 0.500000 0.546676
O O3 0.723073 0.219255 0.647358
O O4 0.870017 0.277397 0.442315
O O5 0.936584 0.217887 0.468084
O O6 0.332682 0.500000 0.869096
O O7 0.280217 0.783362 0.873360
O O8 0.443377 0.777292 0.777039
O O9 0.250000 0.750000 0.000000
O O10 0.611203 0.500000 0.732489
O O11 0.516347 0.219322 0.857464
O O12 0.603545 0.226439 0.683293
O O13 0.235518 0.500000 0.867578
O O14 0.357607 0.735029 0.711035
O O15 0.144443 0.779338 0.928983
O O16 0.517618 0.000000 0.038799
O O17 0.976387 0.500000 0.578311
O O18 0.000000 0.774880 0.500000
O O19 0.934623 0.000000 0.333743
#
# Coordination Sequence:
#
# PCOD9194373 Si02
#       8
#     2   8   8   8   8   8   8   8
#     4  12  26  48  72  94 134 176 214 284 338 376
#     4  10  21  37  58  89 130 170 220 275 329 398
#     4  10  20  34  55  87 124 165 209 264 320 387
#     4  10  21  39  61  93 133 175 221 275 331 394
#     4  10  22  41  63  92 129 161 211 271 322 391
#     4  11  25  45  70 101 130 172 225 273 336 402
#     4  10  22  39  60  90 122 167 220 270 331 398
#     4  10  20  35  58  87 127 173 219 262 328 400
#
# _framework density 22.379283999999998
#
# number of rings (size 3 to 8) (size 9 to 14) (size 15 to 20)
#    0.000    1.793    2.069    1.448    0.966    3.586 
#    2.483    0.000    0.000    0.000    0.000    0.000 
#    0.000    0.000    0.000    0.000    0.000    0.000 
#
# Total GULP energy -161835.655515 kJ/mol
# GULP energy per Si atom -5580.539845 kJ/mol
# Density = 2.232835 g / cm^3
# Si number density = 22.379284 Si / 1000 Ang^3
#
#
#
# Elastic Constant Matrix: (Units=GPa)
#
#
# Indices 1 2 3 4 5 6 
#
# 1 87.9659 5.5594 48.3307 -0.0077 6.1708 0.0033
# 2 5.5594 84.5696 -6.1364 -0.0515 -7.0814 -0.0052
# 3 48.3307 -6.1364 105.2793 -0.0071 -3.3390 -0.0090
# 4 -0.0077 -0.0515 -0.0071 24.4715 0.0077 19.0359
# 5 6.1708 -7.0814 -3.3390 0.0077 40.5313 -0.0008
# 6 0.0033 -0.0052 -0.0090 19.0359 -0.0008 7.3389
#
#
#
# Elastic Compliance Matrix: (Units=1/GPa)
#
#
# Indices 1 2 3 4 5 6 
#
# 1 0.015833 -0.001865 -0.007483 -0.000014 -0.003353 0.000018
# 2 -0.001865 0.012282 0.001653 -0.000015 0.002566 0.000052
# 3 -0.007483 0.001653 0.013110 0.000012 0.002508 -0.000010
# 4 -0.000014 -0.000015 0.000012 -0.040153 0.000010 0.104152
# 5 -0.003353 0.002566 0.002508 0.000010 0.025838 -0.000017
# 6 0.000018 0.000052 -0.000010 0.104152 -0.000017 -0.133892
#
#
# Mechanical properties :
#
#
# Convention : Reuss Voigt Hill
#
# Bulk Modulus (GPa) = 38.70698 41.48024 40.09361
# Shear Modulus (GPa) = -60.25388 29.80575 -15.22407
#
# Velocity S-wave (km/s) = -5.19446 3.65340 -2.61104
# Velocity P-wave (km/s) = 4.31776 6.03091 2.97731
#
# Compressibility (1/GPa) = 0.02583513
#
# Stress axis : x y z
#
# Youngs Moduli (GPa) = 63.16085 81.42023 76.27864
#
# Poissons Ratio (x) = 0.15181 0.57082
# Poissons Ratio (y) = 0.11776 -0.12610
# Poissons Ratio (z) = 0.47265 -0.13460
#
# Static dielectric constant tensor:
#      x y z
#    x 1.886990 0.000000 -0.022360 
#    y 0.000000 1.837210 0.000020 
#    z -0.022360 0.000020 1.803130 
# 
# From -- ./inp_files/351415.got.cif
#   From: 2010.05.17/outbox.cif.g08.bks.cpg/sg12_176_cif.got.tgz:351415.got - 2010.06.03 13:09:07.
