data_PCOD9194501
_publ_section_title
;
Structure prediction by ZEFSAII (Michael W. Deem and Ramdas Pophale) SiO2 
 PCOD9194501
Probable space group: C 2/M
;
_chemical_formula_sum "Si O2"
_cell_formula_units_Z 36
_cell_length_a 9.318511
_cell_length_b 9.579759
_cell_length_c 20.327812
_cell_angle_alpha 90.000000
_cell_angle_beta 107.418335
_cell_angle_gamma 90.000000
_cell_volume 1731.433959
_symmetry_space_group_name_H-M "C 2/M"
_symmetry_group_IT_number 12
_symmetry_cell_setting 'monoclinic'
loop_
_space_group_symop_operation_xyz
x,y,z
-x,y,-z
-x,-y,-z
x,-y,z
1/2+x,1/2+y,z
1/2-x,1/2+y,-z
1/2-x,1/2-y,-z
1/2+x,1/2-y,z
loop_
_atom_site_type_symbol
_atom_site_label
_atom_site_fract_x
_atom_site_fract_y
_atom_site_fract_z
Si Si1 0.800419 0.653247 0.097085
Si Si2 0.500000 0.213034 0.000000
Si Si3 0.469132 0.835955 0.765399
Si Si4 0.302433 0.837490 0.318051
Si Si5 0.172147 0.840640 0.545665
O O1 0.773405 0.500000 0.121099
O O2 0.636673 0.710739 0.056931
O O3 0.908545 0.722280 0.165738
O O4 0.901643 0.644976 0.044779
O O5 0.546793 0.834466 0.704602
O O6 0.326380 0.736417 0.742863
O O7 0.432665 0.000000 0.776280
O O8 0.317268 0.744598 0.385154
O O9 0.266823 0.000000 0.327782
O O10 0.250000 0.750000 0.500000
O O11 0.000000 0.851174 0.500000
O O12 0.232261 0.000000 0.560233
#
# Coordination Sequence:
#
# PCOD9194501 Si02
#       5
#     8   4   8   8   8
#     4  10  20  36  56  81 113 149 190 237 290 345
#     4  10  20  34  56  84 112 146 190 238 290 346
#     4  10  22  39  59  84 117 155 195 241 292 347
#     4  11  23  39  60  87 117 153 196 240 289 344
#     4  11  24  41  63  91 121 155 194 237 287 343
#
# _framework density 20.792016
#
# number of rings (size 3 to 8) (size 9 to 14) (size 15 to 20)
#    0.000    1.556    0.000    4.667    0.000    7.111 
#    0.000    5.556    0.000    0.000    0.000    0.000 
#    0.000    0.000    0.000    0.000    0.000    0.000 
#
# Total GULP energy -100378.873221 kJ/mol
# GULP energy per Si atom -5576.604068 kJ/mol
# Density = 2.074469 g / cm^3
# Si number density = 20.792016 Si / 1000 Ang^3
#
#
#
# Elastic Constant Matrix: (Units=GPa)
#
#
# Indices 1 2 3 4 5 6 
#
# 1 86.8960 32.5372 1.6975 0.0000 11.0136 0.0000
# 2 32.5372 110.1415 16.8516 0.0000 9.9265 0.0000
# 3 1.6975 16.8516 79.9308 0.0000 10.6130 0.0000
# 4 0.0000 0.0000 0.0000 27.9345 0.0000 4.0530
# 5 11.0136 9.9265 10.6130 0.0000 41.3191 0.0000
# 6 0.0000 0.0000 0.0000 4.0530 0.0000 15.0987
#
#
#
# Elastic Compliance Matrix: (Units=1/GPa)
#
#
# Indices 1 2 3 4 5 6 
#
# 1 0.013276 -0.003802 0.000899 0.000000 -0.002856 0.000000
# 2 -0.003802 0.010603 -0.002020 0.000000 -0.001015 0.000000
# 3 0.000899 -0.002020 0.013340 0.000000 -0.003181 0.000000
# 4 0.000000 0.000000 0.000000 0.037249 0.000000 -0.009999
# 5 -0.002856 -0.001015 -0.003181 0.000000 0.026024 0.000000
# 6 0.000000 0.000000 0.000000 -0.009999 0.000000 0.068915
#
#
# Mechanical properties :
#
#
# Convention : Reuss Voigt Hill
#
# Bulk Modulus (GPa) = 36.53260 42.12678 39.32969
# Shear Modulus (GPa) = 26.54257 31.92926 29.23591
#
# Velocity S-wave (km/s) = 3.57680 3.92299 3.75388
# Velocity P-wave (km/s) = 5.88783 6.38943 6.14375
#
# Compressibility (1/GPa) = 0.02737282
#
# Stress axis : x y z
#
# Youngs Moduli (GPa) = 75.32343 94.31371 74.96299
#
# Poissons Ratio (x) = 0.35858 -0.06738
# Poissons Ratio (y) = 0.28638 0.15142
# Poissons Ratio (z) = -0.06771 0.19050
#
# Static dielectric constant tensor:
#      x y z
#    x 1.730250 0.000000 0.016460 
#    y 0.000000 1.745060 0.000000 
#    z 0.016460 0.000000 1.782090 
# 
# From -- ./inp_files/331839.got.cif
#   From: 2010.05.17/outbox.cif.g08.bks.cpg/sg12_166_cif.got.tgz:331839.got - 2010.06.03 13:09:07.
