data_PCOD9194134
_publ_section_title
;
Structure prediction by ZEFSAII (Michael W. Deem and Ramdas Pophale) SiO2 
 PCOD9194134
Probable space group: C 2/M
;
_chemical_formula_sum "Si O2"
_cell_formula_units_Z 40
_cell_length_a 18.085423
_cell_length_b 14.002101
_cell_length_c 15.830512
_cell_angle_alpha 90.000000
_cell_angle_beta 29.006565
_cell_angle_gamma 90.000000
_cell_volume 1943.917493
_symmetry_space_group_name_H-M "C 2/M"
_symmetry_group_IT_number 12
_symmetry_cell_setting 'monoclinic'
loop_
_space_group_symop_operation_xyz
x,y,z
-x,y,-z
-x,-y,-z
x,-y,z
1/2+x,1/2+y,z
1/2-x,1/2+y,-z
1/2-x,1/2-y,-z
1/2+x,1/2-y,z
loop_
_atom_site_type_symbol
_atom_site_label
_atom_site_fract_x
_atom_site_fract_y
_atom_site_fract_z
Si Si1 0.180806 0.108877 0.453026
Si Si2 0.510286 0.771010 0.305319
Si Si3 0.955754 0.389441 0.887402
Si Si4 0.258506 0.714923 0.776432
Si Si5 0.841629 0.607450 0.603984
O O1 0.090410 0.176467 0.608048
O O2 0.361455 0.112177 0.288800
O O3 0.164530 0.153223 0.375202
O O4 0.127879 0.000000 0.508890
O O5 0.584369 0.821793 0.151426
O O6 0.630711 0.739162 0.256148
O O7 0.396047 0.848704 0.461126
O O8 0.907460 0.500000 0.925048
O O9 0.879431 0.344026 0.046228
O O10 0.229958 0.817093 0.760276
O O11 0.784188 0.500000 0.655066
O O12 0.000000 0.605892 0.500000
#
# Coordination Sequence:
#
# PCOD9194134 Si02
#       5
#     8   8   8   8   8
#     4  10  21  37  57  79 107 146 182 216 266 325
#     4  10  20  35  55  80 108 138 181 227 265 312
#     4  11  22  36  55  80 112 145 176 218 274 325
#     4  10  20  34  55  82 109 139 180 225 265 314
#     4   8  15  30  52  75 101 137 177 215 257 309
#
# _framework density 20.577005
#
# number of rings (size 3 to 8) (size 9 to 14) (size 15 to 20)
#    0.000    2.200    0.000    4.800    0.000    4.800 
#    0.000    1.000    0.000   10.800    0.000    0.000 
#    0.000    0.000    0.000    0.000    0.000    0.000 
#
# Total GULP energy -111613.833429 kJ/mol
# GULP energy per Si atom -5580.691671 kJ/mol
# Density = 2.053017 g / cm^3
# Si number density = 20.577005 Si / 1000 Ang^3
#
#
#
# Elastic Constant Matrix: (Units=GPa)
#
#
# Indices 1 2 3 4 5 6 
#
# 1 51.4833 11.8689 1.3905 0.0000 6.4603 0.0000
# 2 11.8689 185.1468 45.3499 0.0000 11.2649 0.0000
# 3 1.3905 45.3499 57.8467 0.0000 18.3248 0.0000
# 4 0.0000 0.0000 0.0000 27.5825 0.0000 -7.0658
# 5 6.4603 11.2649 18.3248 0.0000 22.3020 0.0000
# 6 0.0000 0.0000 0.0000 -7.0658 0.0000 10.4583
#
#
#
# Elastic Compliance Matrix: (Units=1/GPa)
#
#
# Indices 1 2 3 4 5 6 
#
# 1 0.020703 -0.001655 0.003291 0.000000 -0.007866 0.000000
# 2 -0.001655 0.006843 -0.005924 0.000000 0.001890 0.000000
# 3 0.003291 -0.005924 0.028668 0.000000 -0.021517 0.000000
# 4 0.000000 0.000000 0.000000 0.043843 0.000000 0.029621
# 5 -0.007866 0.001890 -0.021517 0.000000 0.063842 0.000000
# 6 0.000000 0.000000 0.000000 0.029621 0.000000 0.115630
#
#
# Mechanical properties :
#
#
# Convention : Reuss Voigt Hill
#
# Bulk Modulus (GPa) = 20.99063 45.74394 33.36728
# Shear Modulus (GPa) = 16.44819 27.79307 22.12063
#
# Velocity S-wave (km/s) = 2.83034 3.67916 3.28230
# Velocity P-wave (km/s) = 4.57212 6.35036 5.53315
#
# Compressibility (1/GPa) = 0.04764031
#
# Stress axis : x y z
#
# Youngs Moduli (GPa) = 48.30126 146.13087 34.88181
#
# Poissons Ratio (x) = 0.24182 -0.11481
# Poissons Ratio (y) = 0.07993 0.20663
# Poissons Ratio (z) = -0.15898 0.86566
#
# Static dielectric constant tensor:
#      x y z
#    x 1.769380 0.000000 -0.024200 
#    y 0.000000 1.735270 0.000000 
#    z -0.024200 0.000000 1.737610 
# 
# From -- ./inp_files/72828.got.cif
#   From: 2010.05.17/outbox.cif.g08.bks.cpg/sg12_37_cif.got.tgz:72828.got - 2010.06.03 13:09:07.
