data_PCOD9194204
_publ_section_title
;
Structure prediction by ZEFSAII (Michael W. Deem and Ramdas Pophale) SiO2 
 PCOD9194204
Probable space group: C 2/M
;
_chemical_formula_sum "Si O2"
_cell_formula_units_Z 50
_cell_length_a 8.127996
_cell_length_b 28.162524
_cell_length_c 11.844832
_cell_angle_alpha 90.000000
_cell_angle_beta 72.609674
_cell_angle_gamma 90.000000
_cell_volume 2587.406716
_symmetry_space_group_name_H-M "C 2/M"
_symmetry_group_IT_number 12
_symmetry_cell_setting 'monoclinic'
loop_
_space_group_symop_operation_xyz
x,y,z
-x,y,-z
-x,-y,-z
x,-y,z
1/2+x,1/2+y,z
1/2-x,1/2+y,-z
1/2-x,1/2-y,-z
1/2+x,1/2-y,z
loop_
_atom_site_type_symbol
_atom_site_label
_atom_site_fract_x
_atom_site_fract_y
_atom_site_fract_z
Si Si1 0.500000 0.500000 0.000000
Si Si2 0.125992 0.184908 0.867219
Si Si3 0.373888 0.120346 0.133622
Si Si4 0.510522 0.586371 0.815555
Si Si5 0.002523 0.718610 0.863987
Si Si6 0.443399 0.943603 0.330061
Si Si7 0.722103 0.555683 0.578377
O O1 0.536799 0.542318 0.895504
O O2 0.314929 0.201642 0.864887
O O3 0.126314 0.132663 0.815959
O O4 0.052111 0.229248 0.809874
O O5 0.000000 0.179278 0.000000
O O6 0.186849 0.102892 0.134640
O O7 0.370931 0.174239 0.181309
O O8 0.443763 0.085370 0.215177
O O9 0.500000 0.119932 0.000000
O O10 0.554394 0.573165 0.677513
O O11 0.000000 0.724581 0.000000
O O12 0.620167 0.938801 0.364592
O O13 0.292101 0.925360 0.444962
O O14 0.421114 0.000000 0.311921
O O15 0.700168 0.500000 0.563744
#
# Coordination Sequence:
#
# PCOD9194204 Si02
#       7
#     2   8   8   8   8   8   8
#     4  12  28  36  54  84 128 158 194 244 278 356
#     4  11  19  34  57  80 113 149 190 237 290 347
#     4  11  24  37  54  87 120 150 191 241 293 341
#     4  12  24  37  57  83 118 163 191 237 293 340
#     4  10  20  34  55  83 111 147 190 240 286 348
#     4   9  20  37  59  81 110 151 198 243 285 343
#     4   9  19  38  59  79 107 155 202 237 282 344
#
# _framework density 19.324368
#
# number of rings (size 3 to 8) (size 9 to 14) (size 15 to 20)
#    0.000    1.600    1.600    6.720    3.360    0.960 
#    0.000    1.600    0.000    0.960    0.000    0.000 
#    0.000    0.000    0.000    0.000    0.000    0.000 
#
# Total GULP energy -139212.990829 kJ/mol
# GULP energy per Si atom -5568.519633 kJ/mol
# Density = 1.928038 g / cm^3
# Si number density = 19.324368 Si / 1000 Ang^3
#
#
#
# Elastic Constant Matrix: (Units=GPa)
#
#
# Indices 1 2 3 4 5 6 
#
# 1 63.1182 28.0717 6.4219 0.0000 -6.4423 0.0000
# 2 28.0717 140.2959 32.5703 0.0000 4.7366 0.0000
# 3 6.4219 32.5703 72.7706 0.0000 -11.2265 0.0000
# 4 0.0000 0.0000 0.0000 15.1482 0.0000 -3.1443
# 5 -6.4423 4.7366 -11.2265 0.0000 26.4113 0.0000
# 6 0.0000 0.0000 0.0000 -3.1443 0.0000 14.2714
#
#
#
# Elastic Compliance Matrix: (Units=1/GPa)
#
#
# Indices 1 2 3 4 5 6 
#
# 1 0.018114 -0.004066 0.001087 0.000000 0.005609 0.000000
# 2 -0.004066 0.009119 -0.004418 0.000000 -0.004505 0.000000
# 3 0.001087 -0.004418 0.016894 0.000000 0.008238 0.000000
# 4 0.000000 0.000000 0.000000 0.069178 0.000000 0.015241
# 5 0.005609 -0.004505 0.008238 0.000000 0.043541 0.000000
# 6 0.000000 0.000000 0.000000 0.015241 0.000000 0.073428
#
#
# Mechanical properties :
#
#
# Convention : Reuss Voigt Hill
#
# Bulk Modulus (GPa) = 34.09136 45.59025 39.84081
# Shear Modulus (GPa) = 19.61977 25.10757 22.36367
#
# Velocity S-wave (km/s) = 3.18981 3.60845 3.40557
# Velocity P-wave (km/s) = 5.58986 6.40348 6.01045
#
# Compressibility (1/GPa) = 0.02933294
#
# Stress axis : x y z
#
# Youngs Moduli (GPa) = 55.20706 109.66086 59.19231
#
# Poissons Ratio (x) = 0.44588 -0.06433
# Poissons Ratio (y) = 0.22447 0.26149
# Poissons Ratio (z) = -0.06000 0.48444
#
# Static dielectric constant tensor:
#      x y z
#    x 1.738190 0.000000 -0.006100 
#    y 0.000000 1.718660 0.000000 
#    z -0.006100 0.000000 1.674860 
# 
# From -- ./inp_files/123573.got.cif
#   From: 2010.05.17/outbox.cif.g08.bks.cpg/sg12_62_cif.got.tgz:123573.got - 2010.06.03 13:09:07.
