data_PCOD9194267
_publ_section_title
;
Structure prediction by ZEFSAII (Michael W. Deem and Ramdas Pophale) SiO2 
 PCOD9194267
Probable space group: C 2/M
;
_chemical_formula_sum "Si O2"
_cell_formula_units_Z 56
_cell_length_a 20.674151
_cell_length_b 9.158283
_cell_length_c 28.903807
_cell_angle_alpha 90.000000
_cell_angle_beta 149.758200
_cell_angle_gamma 90.000000
_cell_volume 2756.296449
_symmetry_space_group_name_H-M "C 2/M"
_symmetry_group_IT_number 12
_symmetry_cell_setting 'monoclinic'
loop_
_space_group_symop_operation_xyz
x,y,z
-x,y,-z
-x,-y,-z
x,-y,z
1/2+x,1/2+y,z
1/2-x,1/2+y,-z
1/2-x,1/2-y,-z
1/2+x,1/2-y,z
loop_
_atom_site_type_symbol
_atom_site_label
_atom_site_fract_x
_atom_site_fract_y
_atom_site_fract_z
Si Si1 0.232963 0.171834 0.564057
Si Si2 0.444706 0.170713 0.618176
Si Si3 0.048068 0.167915 0.870741
Si Si4 0.150240 0.328674 0.603409
Si Si5 0.725111 0.831322 0.913249
Si Si6 0.246489 0.327386 0.822216
Si Si7 0.684062 0.827020 0.224172
O O1 0.362701 0.192800 0.614434
O O2 0.119111 0.228663 0.460223
O O3 0.226801 0.263417 0.607128
O O4 0.218684 0.000000 0.565270
O O5 0.594419 0.195349 0.719320
O O6 0.427394 0.000000 0.593675
O O7 0.113262 0.231833 0.865040
O O8 0.933226 0.266754 0.817943
O O9 0.007750 0.000000 0.839953
O O10 0.158078 0.172436 0.978330
O O11 0.176442 0.500000 0.625898
O O12 0.191135 0.241946 0.674214
O O13 0.000000 0.310684 0.500000
O O14 0.770252 0.787414 0.890164
O O15 0.679586 0.000000 0.881744
O O16 0.274146 0.500000 0.833060
O O17 0.323206 0.235928 0.831969
O O18 0.688464 0.000000 0.227169
#
# Coordination Sequence:
#
# PCOD9194267 Si02
#       7
#     8   8   8   8   8   8   8
#     4  10  20  34  55  84 114 152 198 246 297 352
#     4   9  19  35  55  81 116 155 194 241 297 357
#     4  10  21  40  64  93 125 159 202 249 304 366
#     4  11  24  41  60  83 116 158 201 248 305 363
#     4   9  20  39  66  94 123 160 200 250 306 363
#     4  10  21  39  61  86 119 159 200 246 304 362
#     4  12  26  41  60  88 123 161 206 255 302 358
#
# _framework density 20.317117
#
# number of rings (size 3 to 8) (size 9 to 14) (size 15 to 20)
#    0.000    1.857    0.000    3.429    2.000    7.429 
#    0.000    2.857    0.000    0.000    0.000    0.000 
#    0.000    0.000    0.000    0.000    0.000    0.000 
#
# Total GULP energy -156585.818258 kJ/mol
# GULP energy per Si atom -5592.350652 kJ/mol
# Density = 2.027087 g / cm^3
# Si number density = 20.317117 Si / 1000 Ang^3
#
#
#
# Elastic Constant Matrix: (Units=GPa)
#
#
# Indices 1 2 3 4 5 6 
#
# 1 88.4868 61.8354 16.0353 0.0000 -21.0399 0.0000
# 2 61.8354 113.5120 22.5661 0.0000 -6.7240 0.0001
# 3 16.0353 22.5661 18.7308 0.0002 -2.9208 0.0000
# 4 0.0000 0.0000 0.0002 21.4977 0.0000 -3.9858
# 5 -21.0399 -6.7240 -2.9208 0.0000 29.1227 0.0000
# 6 0.0000 0.0001 0.0000 -3.9858 0.0000 36.0658
#
#
#
# Elastic Compliance Matrix: (Units=1/GPa)
#
#
# Indices 1 2 3 4 5 6 
#
# 1 0.022861 -0.010755 -0.004496 0.000000 0.013582 0.000000
# 2 -0.010755 0.016692 -0.011696 0.000000 -0.005089 0.000000
# 3 -0.004496 -0.011696 0.071519 -0.000001 0.001224 0.000000
# 4 0.000000 0.000000 -0.000001 0.047490 0.000000 0.005248
# 5 0.013582 -0.005089 0.001224 0.000000 0.043098 0.000000
# 6 0.000000 0.000000 0.000000 0.005248 0.000000 0.028307
#
#
# Mechanical properties :
#
#
# Convention : Reuss Voigt Hill
#
# Bulk Modulus (GPa) = 17.48936 46.84480 32.16708
# Shear Modulus (GPa) = 16.50595 25.35675 20.93135
#
# Velocity S-wave (km/s) = 2.85338 3.53661 3.21321
# Velocity P-wave (km/s) = 4.41391 6.30743 5.44363
#
# Compressibility (1/GPa) = 0.05717764
#
# Stress axis : x y z
#
# Youngs Moduli (GPa) = 43.74225 59.90799 13.98229
#
# Poissons Ratio (x) = 0.64432 0.06286
# Poissons Ratio (y) = 0.47046 0.16354
# Poissons Ratio (z) = 0.19666 0.70070
#
# Static dielectric constant tensor:
#      x y z
#    x 1.719270 0.000000 -0.005460 
#    y 0.000000 1.679770 0.000000 
#    z -0.005460 0.000000 1.735390 
# 
# From -- ./inp_files/380739.got.cif
#   From: 2010.05.17/outbox.cif.g08.bks.cpg/sg12_191_cif.got.tgz:380739.got - 2010.06.03 13:09:07.
