data_PCOD9194337
_publ_section_title
;
Structure prediction by ZEFSAII (Michael W. Deem and Ramdas Pophale) SiO2 
 PCOD9194337
Probable space group: C 2/M
;
_chemical_formula_sum "Si O2"
_cell_formula_units_Z 64
_cell_length_a 22.600078
_cell_length_b 14.363926
_cell_length_c 14.319853
_cell_angle_alpha 90.000000
_cell_angle_beta 40.884302
_cell_angle_gamma 90.000000
_cell_volume 3042.661703
_symmetry_space_group_name_H-M "C 2/M"
_symmetry_group_IT_number 12
_symmetry_cell_setting 'monoclinic'
loop_
_space_group_symop_operation_xyz
x,y,z
-x,y,-z
-x,-y,-z
x,-y,z
1/2+x,1/2+y,z
1/2-x,1/2+y,-z
1/2-x,1/2-y,-z
1/2+x,1/2-y,z
loop_
_atom_site_type_symbol
_atom_site_label
_atom_site_fract_x
_atom_site_fract_y
_atom_site_fract_z
Si Si1 0.375332 0.387846 0.007455
Si Si2 0.752301 0.104193 0.766465
Si Si3 0.420039 0.606597 0.241553
Si Si4 0.903593 0.390929 0.716228
Si Si5 0.219163 0.786077 0.712325
Si Si6 0.574725 0.800757 0.511501
Si Si7 0.269375 0.387264 0.957166
Si Si8 0.556454 0.599002 0.564822
O O1 0.369580 0.500000 0.016344
O O2 0.478630 0.363188 0.907189
O O3 0.307856 0.346228 0.163974
O O4 0.348120 0.358133 0.934753
O O5 0.701812 0.179557 0.763378
O O6 0.851399 0.095020 0.603682
O O7 0.712137 0.000000 0.817939
O O8 0.766472 0.143732 0.853922
O O9 0.405131 0.500000 0.224947
O O10 0.344202 0.674104 0.292621
O O11 0.421493 0.602189 0.351872
O O12 0.891443 0.500000 0.709110
O O13 0.904131 0.334420 0.618908
O O14 0.823755 0.362358 0.880055
O O15 0.003337 0.373260 0.638553
O O16 0.325887 0.794385 0.562211
O O17 0.523044 0.701330 0.578826
O O18 0.274502 0.500000 0.945694
O O19 0.505518 0.500000 0.608805
#
# Coordination Sequence:
#
# PCOD9194337 Si02
#       8
#     8   8   8   8   8   8   8   8
#     4  10  20  36  57  88 120 148 189 240 290 348
#     4   9  20  38  59  85 117 155 195 237 288 346
#     4  10  22  39  60  86 117 152 193 243 295 345
#     4  10  20  36  56  83 122 153 187 238 285 338
#     4  11  21  35  60  89 116 152 191 242 293 346
#     4  10  20  34  55  86 114 152 191 232 285 348
#     4   9  18  36  60  83 117 157 190 230 287 348
#     4   9  20  41  58  79 116 153 193 246 288 336
#
# _framework density 21.034213999999999
#
# number of rings (size 3 to 8) (size 9 to 14) (size 15 to 20)
#    0.000    2.250    1.250    1.500    0.000    6.000 
#    9.000    1.250    0.000    3.000    0.000    0.000 
#    0.000    0.000    0.000    0.000    0.000    0.000 
#
# Total GULP energy -178583.169445 kJ/mol
# GULP energy per Si atom -5580.724045 kJ/mol
# Density = 2.098634 g / cm^3
# Si number density = 21.034214 Si / 1000 Ang^3
#
#
#
# Elastic Constant Matrix: (Units=GPa)
#
#
# Indices 1 2 3 4 5 6 
#
# 1 78.9480 30.9469 21.6372 0.0000 -10.1442 0.0000
# 2 30.9469 79.2737 2.1141 0.0000 -4.1896 0.0000
# 3 21.6372 2.1141 65.8951 0.0000 -6.0349 0.0000
# 4 0.0000 0.0000 0.0000 13.4322 0.0000 12.8268
# 5 -10.1442 -4.1896 -6.0349 0.0000 31.1469 0.0000
# 6 0.0000 0.0000 0.0000 12.8268 0.0000 27.2531
#
#
#
# Elastic Compliance Matrix: (Units=1/GPa)
#
#
# Indices 1 2 3 4 5 6 
#
# 1 0.016995 -0.006304 -0.005038 0.000000 0.003711 0.000000
# 2 -0.006304 0.015048 0.001613 0.000000 0.000283 0.000000
# 3 -0.005038 0.001613 0.016949 0.000000 0.001860 0.000000
# 4 0.000000 0.000000 0.000000 0.135223 0.000000 -0.063643
# 5 0.003711 0.000283 0.001860 0.000000 0.033713 0.000000
# 6 0.000000 0.000000 0.000000 -0.063643 0.000000 0.066647
#
#
# Mechanical properties :
#
#
# Convention : Reuss Voigt Hill
#
# Bulk Modulus (GPa) = 33.86075 37.05703 35.45889
# Shear Modulus (GPa) = 15.92976 25.66103 20.79539
#
# Velocity S-wave (km/s) = 2.75494 3.49659 3.14769
# Velocity P-wave (km/s) = 5.12372 5.82729 5.48679
#
# Compressibility (1/GPa) = 0.02953272
#
# Stress axis : x y z
#
# Youngs Moduli (GPa) = 58.83914 66.45615 59.00175
#
# Poissons Ratio (x) = 0.41895 0.29728
# Poissons Ratio (y) = 0.37093 -0.09518
# Poissons Ratio (z) = 0.29646 -0.10721
#
# Static dielectric constant tensor:
#      x y z
#    x 1.777000 0.000000 -0.005370 
#    y 0.000000 1.860000 0.000000 
#    z -0.005370 0.000000 1.748190 
# 
# From -- ./inp_files/240682.got.cif
#   From: 2010.05.17/outbox.cif.g08.bks.cpg/sg12_121_cif.got.tgz:240682.got - 2010.06.03 13:09:07.
