data_PCOD9194165
_publ_section_title
;
Structure prediction by ZEFSAII (Michael W. Deem and Ramdas Pophale) SiO2 
 PCOD9194165
Probable space group: C 2/M
;
_chemical_formula_sum "Si O2"
_cell_formula_units_Z 64
_cell_length_a 31.473002
_cell_length_b 7.504261
_cell_length_c 13.522615
_cell_angle_alpha 90.000000
_cell_angle_beta 121.671460
_cell_angle_gamma 90.000000
_cell_volume 2718.150309
_symmetry_space_group_name_H-M "C 2/M"
_symmetry_group_IT_number 12
_symmetry_cell_setting 'monoclinic'
loop_
_space_group_symop_operation_xyz
x,y,z
-x,y,-z
-x,-y,-z
x,-y,z
1/2+x,1/2+y,z
1/2-x,1/2+y,-z
1/2-x,1/2-y,-z
1/2+x,1/2-y,z
loop_
_atom_site_type_symbol
_atom_site_label
_atom_site_fract_x
_atom_site_fract_y
_atom_site_fract_z
Si Si1 0.028802 0.784528 0.938388
Si Si2 0.572499 0.701159 0.683418
Si Si3 0.863287 0.290579 0.544767
Si Si4 0.795848 0.712565 0.630299
Si Si5 0.623413 0.207600 0.946596
Si Si6 0.168599 0.796301 0.701562
Si Si7 0.478862 0.284994 0.672916
Si Si8 0.276855 0.780690 0.830440
O O1 0.085640 0.723810 0.992987
O O2 0.999364 0.724804 0.804400
O O3 0.029187 0.000000 0.940145
O O4 0.000000 0.721979 0.000000
O O5 0.564556 0.500000 0.633782
O O6 0.597294 0.695321 0.823154
O O7 0.616474 0.788173 0.673096
O O8 0.517920 0.780783 0.637676
O O9 0.852119 0.500000 0.525510
O O10 0.844558 0.224630 0.628743
O O11 0.832968 0.201450 0.418979
O O12 0.921490 0.263718 0.595861
O O13 0.800008 0.500000 0.646632
O O14 0.750000 0.750000 0.500000
O O15 0.787539 0.781054 0.730944
O O16 0.626833 0.000000 0.923080
O O17 0.677741 0.273396 0.043889
O O18 0.221931 0.718977 0.796438
O O19 0.167252 0.000000 0.737136
O O20 0.482091 0.500000 0.674242
O O21 0.275858 0.000000 0.828705
#
# Coordination Sequence:
#
# PCOD9194165 Si02
#       8
#     8   8   8   8   8   8   8   8
#     4   9  19  36  55  78 108 143 186 231 267 312
#     4   9  20  39  60  81 106 141 186 232 270 315
#     4  11  23  35  53  84 115 141 178 227 274 321
#     4  10  20  36  55  77 110 145 178 221 267 319
#     4  10  20  34  55  82 112 145 178 220 275 329
#     4  10  20  38  62  79 103 147 189 223 268 325
#     4   9  19  36  55  76 107 143 182 223 268 324
#     4   9  19  35  55  81 111 144 180 217 266 329
#
# _framework density 23.545423
#
# number of rings (size 3 to 8) (size 9 to 14) (size 15 to 20)
#    0.000    2.375    1.250    1.500    1.750    4.250 
#    0.000    5.000    0.000    0.000    0.000    0.000 
#    0.000    0.000    0.000    0.000    0.000    0.000 
#
# Total GULP energy -178720.455584 kJ/mol
# GULP energy per Si atom -5585.014237 kJ/mol
# Density = 2.349183 g / cm^3
# Si number density = 23.545423 Si / 1000 Ang^3
#
#
#
# Elastic Constant Matrix: (Units=GPa)
#
#
# Indices 1 2 3 4 5 6 
#
# 1 142.6168 0.6040 16.4741 0.0000 13.5118 0.0000
# 2 0.6040 70.4222 -4.6524 0.0000 -1.5877 0.0000
# 3 16.4741 -4.6524 44.7407 0.0000 12.9894 0.0000
# 4 0.0000 0.0000 0.0000 5.7373 0.0000 -3.0778
# 5 13.5118 -1.5877 12.9894 0.0000 42.8284 0.0000
# 6 0.0000 0.0000 0.0000 -3.0778 0.0000 4.6488
#
#
#
# Elastic Compliance Matrix: (Units=1/GPa)
#
#
# Indices 1 2 3 4 5 6 
#
# 1 0.007434 -0.000252 -0.002281 0.000000 -0.001663 0.000000
# 2 -0.000252 0.014307 0.001539 0.000000 0.000143 0.000000
# 3 -0.002281 0.001539 0.025358 0.000000 -0.006914 0.000000
# 4 0.000000 0.000000 0.000000 0.270300 0.000000 0.178957
# 5 -0.001663 0.000143 -0.006914 0.000000 0.025976 0.000000
# 6 0.000000 0.000000 0.000000 0.178957 0.000000 0.333590
#
#
# Mechanical properties :
#
#
# Convention : Reuss Voigt Hill
#
# Bulk Modulus (GPa) = 22.16708 31.40347 26.78528
# Shear Modulus (GPa) = 7.20471 26.99983 17.10227
#
# Velocity S-wave (km/s) = 1.75116 3.38999 2.69802
# Velocity P-wave (km/s) = 3.67747 5.35622 4.59417
#
# Compressibility (1/GPa) = 0.04511193
#
# Stress axis : x y z
#
# Youngs Moduli (GPa) = 134.51963 69.89522 39.43495
#
# Poissons Ratio (x) = 0.01761 0.08994
# Poissons Ratio (y) = 0.03389 -0.06069
# Poissons Ratio (z) = 0.30679 -0.10756
#
# Static dielectric constant tensor:
#      x y z
#    x 1.943860 0.000000 -0.007670 
#    y 0.000000 1.966160 0.000000 
#    z -0.007670 0.000000 1.848620 
# 
# From -- ./inp_files/249165.got.cif
#   From: 2010.05.17/outbox.cif.g08.bks.cpg/sg12_125_cif.got.tgz:249165.got - 2010.06.03 13:09:07.
