data_PCOD9194255
_publ_section_title
;
Structure prediction by ZEFSAII (Michael W. Deem and Ramdas Pophale) SiO2 
 PCOD9194255
Probable space group: C 2/M
;
_chemical_formula_sum "Si O2"
_cell_formula_units_Z 56
_cell_length_a 19.988026
_cell_length_b 19.138089
_cell_length_c 21.962435
_cell_angle_alpha 90.000000
_cell_angle_beta 160.347206
_cell_angle_gamma 90.000000
_cell_volume 2825.536814
_symmetry_space_group_name_H-M "C 2/M"
_symmetry_group_IT_number 12
_symmetry_cell_setting 'monoclinic'
loop_
_space_group_symop_operation_xyz
x,y,z
-x,y,-z
-x,-y,-z
x,-y,z
1/2+x,1/2+y,z
1/2-x,1/2+y,-z
1/2-x,1/2-y,-z
1/2+x,1/2-y,z
loop_
_atom_site_type_symbol
_atom_site_label
_atom_site_fract_x
_atom_site_fract_y
_atom_site_fract_z
Si Si1 0.779986 0.130828 0.025560
Si Si2 0.661801 0.254275 0.008295
Si Si3 0.778765 0.917555 0.573856
Si Si4 0.732518 0.715186 0.637216
Si Si5 0.843288 0.419090 0.663992
Si Si6 0.193735 0.268863 0.740859
Si Si7 0.428871 0.920580 0.369209
O O1 0.776200 0.192357 0.072616
O O2 0.995303 0.096512 0.212727
O O3 0.752746 0.171164 0.938220
O O4 0.584265 0.085268 0.869756
O O5 0.671567 0.243888 0.088412
O O6 0.436643 0.250897 0.790552
O O7 0.730080 0.889667 0.464532
O O8 0.614691 0.901744 0.484608
O O9 0.758175 0.000000 0.547869
O O10 0.758565 0.634050 0.641964
O O11 0.724860 0.732633 0.702478
O O12 0.533996 0.747513 0.438802
O O13 0.783764 0.500000 0.621869
O O14 0.213043 0.352960 0.753952
O O15 0.500000 0.923416 0.500000
O O16 0.357531 0.000000 0.292238
#
# Coordination Sequence:
#
# PCOD9194255 Si02
#       7
#     8   8   8   8   8   8   8
#     4  10  20  34  55  84 112 144 183 232 282 329
#     4  10  21  34  54  83 113 142 187 234 274 334
#     4  10  20  35  58  82 110 148 183 223 279 337
#     4  10  21  36  57  83 110 149 190 233 281 326
#     4  10  21  38  58  83 115 147 187 237 285 334
#     4  11  20  37  59  79 111 153 188 228 282 332
#     4  10  20  35  56  82 112 147 184 223 275 337
#
# _framework density 19.819241999999999
#
# number of rings (size 3 to 8) (size 9 to 14) (size 15 to 20)
#    0.000    1.857    1.429    3.429    0.000    0.000 
#    0.000    7.857    0.000   10.286    0.000    0.000 
#    0.000    0.000    0.000    0.000    0.000    0.000 
#
# Total GULP energy -156078.674249 kJ/mol
# GULP energy per Si atom -5574.238366 kJ/mol
# Density = 1.977413 g / cm^3
# Si number density = 19.819242 Si / 1000 Ang^3
#
#
#
# Elastic Constant Matrix: (Units=GPa)
#
#
# Indices 1 2 3 4 5 6 
#
# 1 72.1841 27.7937 7.3518 -0.0125 0.4690 -0.0042
# 2 27.7937 79.6172 6.9482 -0.0198 8.9399 -0.0107
# 3 7.3518 6.9482 57.4692 -0.0485 -3.4176 0.0042
# 4 -0.0125 -0.0198 -0.0485 1.2595 -0.0109 11.1182
# 5 0.4690 8.9399 -3.4176 -0.0109 22.6504 0.0138
# 6 -0.0042 -0.0107 0.0042 11.1182 0.0138 21.3644
#
#
#
# Elastic Compliance Matrix: (Units=1/GPa)
#
#
# Indices 1 2 3 4 5 6 
#
# 1 0.016179 -0.005732 -0.001274 -0.000011 0.001735 0.000005
# 2 -0.005732 0.015385 -0.001494 0.000006 -0.006179 0.000008
# 3 -0.001274 -0.001494 0.017942 -0.000206 0.003323 0.000101
# 4 -0.000011 0.000006 -0.000206 -0.220916 -0.000210 0.114966
# 5 0.001735 -0.006179 0.003323 -0.000210 0.047054 0.000075
# 6 0.000005 0.000008 0.000101 0.114966 0.000075 -0.013023
#
#
# Mechanical properties :
#
#
# Convention : Reuss Voigt Hill
#
# Bulk Modulus (GPa) = 30.76291 32.60644 31.68467
# Shear Modulus (GPa) = -45.64351 20.19998 -12.72177
#
# Velocity S-wave (km/s) = -4.80415 3.19597 -2.53630
# Velocity P-wave (km/s) = 3.90099 5.48695 2.72845
#
# Compressibility (1/GPa) = 0.03250668
#
# Stress axis : x y z
#
# Youngs Moduli (GPa) = 61.80933 64.99750 55.73619
#
# Poissons Ratio (x) = 0.37254 0.07098
# Poissons Ratio (y) = 0.35426 0.08329
# Poissons Ratio (z) = 0.07872 0.09713
#
# Static dielectric constant tensor:
#      x y z
#    x 1.758170 -0.000020 0.059350 
#    y -0.000020 1.718080 -0.000070 
#    z 0.059350 -0.000070 1.848250 
# 
# From -- ./inp_files/87284.got.cif
#   From: 2010.05.17/outbox.cif.g08.bks.cpg/sg12_44_cif.got.tgz:87284.got - 2010.06.03 13:09:07.
