data_PCOD9194658
_publ_section_title
;
Structure prediction by ZEFSAII (Michael W. Deem and Ramdas Pophale) SiO2 
 PCOD9194658
Probable space group: C 2/M
;
_chemical_formula_sum "Si O2"
_cell_formula_units_Z 64
_cell_length_a 11.211691
_cell_length_b 19.690780
_cell_length_c 23.156121
_cell_angle_alpha 90.000000
_cell_angle_beta 43.824714
_cell_angle_gamma 90.000000
_cell_volume 3539.900464
_symmetry_space_group_name_H-M "C 2/M"
_symmetry_group_IT_number 12
_symmetry_cell_setting 'monoclinic'
loop_
_space_group_symop_operation_xyz
x,y,z
-x,y,-z
-x,-y,-z
x,-y,z
1/2+x,1/2+y,z
1/2-x,1/2+y,-z
1/2-x,1/2-y,-z
1/2+x,1/2-y,z
loop_
_atom_site_type_symbol
_atom_site_label
_atom_site_fract_x
_atom_site_fract_y
_atom_site_fract_z
Si Si1 0.984641 0.424262 0.675107
Si Si2 0.588113 0.297322 0.907807
Si Si3 0.761665 0.577015 0.098509
Si Si4 0.053346 0.350589 0.192997
Si Si5 0.392309 0.619006 0.212772
Si Si6 0.379517 0.779600 0.407310
Si Si7 0.737458 0.246820 0.683054
Si Si8 0.037925 0.645604 0.072398
O O1 0.055148 0.500000 0.641938
O O2 0.967413 0.404764 0.748909
O O3 0.786411 0.421171 0.723772
O O4 0.087471 0.361489 0.609589
O O5 0.796639 0.296939 0.841642
O O6 0.565596 0.354380 0.866768
O O7 0.509074 0.225409 0.915390
O O8 0.500000 0.313210 0.000000
O O9 0.807307 0.500000 0.067593
O O10 0.559330 0.581903 0.177056
O O11 0.868168 0.602932 0.116019
O O12 0.826684 0.626412 0.024610
O O13 0.869255 0.314638 0.251996
O O14 0.104258 0.374727 0.111934
O O15 0.355125 0.685576 0.262879
O O16 0.250000 0.750000 0.500000
O O17 0.299520 0.759656 0.372686
O O18 0.568186 0.750830 0.360229
#
# Coordination Sequence:
#
# PCOD9194658 Si02
#       8
#     8   8   8   8   8   8   8   8
#     4   9  20  38  59  85 110 148 183 219 278 340
#     4  11  20  32  51  80 107 140 196 248 300 319
#     4  11  23  35  46  69 106 157 194 223 280 336
#     4  10  21  33  53  80 109 143 185 240 281 332
#     4  10  20  34  57  78 108 142 186 244 274 330
#     4  10  21  38  63  92 117 146 177 232 283 353
#     4  10  20  34  60  89 115 139 185 228 295 337
#     4  11  21  32  50  70 108 147 189 241 284 332
#
# _framework density 18.079604
#
# number of rings (size 3 to 8) (size 9 to 14) (size 15 to 20)
#    0.000    1.750    2.500    3.750    1.750    2.000 
#    0.000    0.000    0.000   16.875    0.000    0.000 
#    0.000    0.000    0.000    0.000    0.000    0.000 
#
# Total GULP energy -178331.755640 kJ/mol
# GULP energy per Si atom -5572.867364 kJ/mol
# Density = 1.803845 g / cm^3
# Si number density = 18.079604 Si / 1000 Ang^3
#
#
#
# Elastic Constant Matrix: (Units=GPa)
#
#
# Indices 1 2 3 4 5 6 
#
# 1 68.7208 8.3675 14.5862 0.0004 -7.7078 0.0000
# 2 8.3675 53.0724 11.6145 -0.0017 -7.3595 0.0006
# 3 14.5862 11.6145 54.4590 -0.0037 0.4090 0.0013
# 4 0.0004 -0.0017 -0.0037 8.6239 0.0011 -3.9500
# 5 -7.7078 -7.3595 0.4090 0.0011 31.5187 -0.0001
# 6 0.0000 0.0006 0.0013 -3.9500 -0.0001 6.1886
#
#
#
# Elastic Compliance Matrix: (Units=1/GPa)
#
#
# Indices 1 2 3 4 5 6 
#
# 1 0.015965 -0.001115 -0.004066 -0.000004 0.003697 -0.000001
# 2 -0.001115 0.020555 -0.004120 0.000002 0.004580 0.000000
# 3 -0.004066 -0.004120 0.020347 0.000009 -0.002220 0.000002
# 4 -0.000004 0.000002 0.000009 0.163861 -0.000006 0.104587
# 5 0.003697 0.004580 -0.002220 -0.000006 0.033729 -0.000003
# 6 -0.000001 0.000000 0.000002 0.104587 -0.000003 0.228341
#
#
# Mechanical properties :
#
#
# Convention : Reuss Voigt Hill
#
# Bulk Modulus (GPa) = 26.13298 27.26541 26.69920
# Shear Modulus (GPa) = 9.72471 18.71185 14.21828
#
# Velocity S-wave (km/s) = 2.32175 3.22059 2.80737
# Velocity P-wave (km/s) = 4.65544 5.37987 5.03071
#
# Compressibility (1/GPa) = 0.03826582
#
# Stress axis : x y z
#
# Youngs Moduli (GPa) = 62.63694 48.65095 49.14789
#
# Poissons Ratio (x) = 0.05423 0.19984
# Poissons Ratio (y) = 0.06982 0.20247
# Poissons Ratio (z) = 0.25469 0.20042
#
# Static dielectric constant tensor:
#      x y z
#    x 1.678270 0.000000 0.006210 
#    y 0.000000 1.630720 0.000000 
#    z 0.006210 0.000000 1.634600 
# 
# From -- ./inp_files/336668.got.cif
#   From: 2010.05.17/outbox.cif.g08.bks.cpg/sg12_169_cif.got.tgz:336668.got - 2010.06.03 13:09:07.
