data_PCOD9194949
_publ_section_title
;
Structure prediction by ZEFSAII (Michael W. Deem and Ramdas Pophale) SiO2 
 PCOD9194949
Probable space group: C 2/M
;
_chemical_formula_sum "Si O2"
_cell_formula_units_Z 64
_cell_length_a 19.121426
_cell_length_b 29.780311
_cell_length_c 12.704583
_cell_angle_alpha 90.000000
_cell_angle_beta 29.078246
_cell_angle_gamma 90.000000
_cell_volume 3516.004323
_symmetry_space_group_name_H-M "C 2/M"
_symmetry_group_IT_number 12
_symmetry_cell_setting 'monoclinic'
loop_
_space_group_symop_operation_xyz
x,y,z
-x,y,-z
-x,-y,-z
x,-y,z
1/2+x,1/2+y,z
1/2-x,1/2+y,-z
1/2-x,1/2-y,-z
1/2+x,1/2-y,z
loop_
_atom_site_type_symbol
_atom_site_label
_atom_site_fract_x
_atom_site_fract_y
_atom_site_fract_z
Si Si1 0.347545 0.128482 0.756164
Si Si2 0.343008 0.208993 0.927266
Si Si3 0.459932 0.355980 0.931638
Si Si4 0.864042 0.815879 0.617645
Si Si5 0.436589 0.408236 0.408049
Si Si6 0.107252 0.768526 0.636395
Si Si7 0.755871 0.946534 0.948518
Si Si8 0.146326 0.446449 0.861008
O O1 0.500000 0.123296 0.500000
O O2 0.355757 0.170276 0.824810
O O3 0.211987 0.139950 0.859120
O O4 0.310135 0.083991 0.872505
O O5 0.493672 0.229492 0.763684
O O6 0.250000 0.250000 0.000000
O O7 0.264196 0.187554 0.131770
O O8 0.525464 0.390419 0.758730
O O9 0.524319 0.307649 0.810654
O O10 0.500000 0.364620 0.000000
O O11 0.909839 0.864943 0.517129
O O12 0.841948 0.788622 0.541260
O O13 0.000000 0.795689 0.500000
O O14 0.573399 0.435232 0.273176
O O15 0.287388 0.434680 0.608048
O O16 0.250000 0.750000 0.500000
O O17 0.683484 0.932741 0.932356
O O18 0.736458 0.000000 0.988678
O O19 0.131808 0.500000 0.884367
O O20 0.000000 0.427975 0.000000
#
# Coordination Sequence:
#
# PCOD9194949 Si02
#       8
#     8   8   8   8   8   8   8   8
#     4  11  25  41  64  94 120 164 211 253 310 372
#     4  12  23  39  63  87 119 165 208 249 303 363
#     4  10  23  42  60  84 123 162 205 260 302 360
#     4  11  21  39  61  84 118 155 202 257 293 355
#     4  10  20  39  63  89 116 159 206 247 306 361
#     4  11  26  39  58  86 118 160 205 258 302 354
#     4  10  21  41  67  93 122 161 207 254 305 372
#     4  10  20  34  58  92 127 154 188 247 311 368
#
# _framework density 18.202480000000001
#
# number of rings (size 3 to 8) (size 9 to 14) (size 15 to 20)
#    0.000    1.375    2.500    3.750    5.250    2.250 
#    6.750    0.000    0.000    9.375    0.000    0.000 
#    0.000    0.000    0.000    0.000    0.000    0.000 
#
# Total GULP energy -178666.413012 kJ/mol
# GULP energy per Si atom -5583.325407 kJ/mol
# Density = 1.816105 g / cm^3
# Si number density = 18.202480 Si / 1000 Ang^3
#
#
#
# Elastic Constant Matrix: (Units=GPa)
#
#
# Indices 1 2 3 4 5 6 
#
# 1 164.7863 53.4240 75.6199 0.0002 -16.9322 0.0007
# 2 53.4240 80.5906 40.5490 0.0003 -2.7684 0.0001
# 3 75.6199 40.5490 141.8430 0.0009 -13.0409 0.0002
# 4 0.0002 0.0003 0.0009 18.8980 -0.0002 -6.1473
# 5 -16.9322 -2.7684 -13.0409 -0.0002 37.5217 -0.0003
# 6 0.0007 0.0001 0.0002 -6.1473 -0.0003 18.7912
#
#
#
# Elastic Compliance Matrix: (Units=1/GPa)
#
#
# Indices 1 2 3 4 5 6 
#
# 1 0.009362 -0.004353 -0.003500 0.000000 0.002687 0.000000
# 2 -0.004353 0.016522 -0.002553 0.000000 -0.001632 0.000000
# 3 -0.003500 -0.002553 0.009796 0.000000 0.001637 0.000000
# 4 0.000000 0.000000 0.000000 0.059217 0.000000 0.019372
# 5 0.002687 -0.001632 0.001637 0.000000 0.028312 0.000000
# 6 0.000000 0.000000 0.000000 0.019372 0.000000 0.059554
#
#
# Mechanical properties :
#
#
# Convention : Reuss Voigt Hill
#
# Bulk Modulus (GPa) = 67.25075 80.71174 73.98125
# Shear Modulus (GPa) = 23.97734 29.55064 26.76399
#
# Velocity S-wave (km/s) = 3.63334 4.03356 3.83867
# Velocity P-wave (km/s) = 7.39105 8.13205 7.77039
#
# Compressibility (1/GPa) = 0.01486972
#
# Stress axis : x y z
#
# Youngs Moduli (GPa) = 106.81827 60.52451 102.08249
#
# Poissons Ratio (x) = 0.26345 0.35724
# Poissons Ratio (y) = 0.46496 0.26059
# Poissons Ratio (z) = 0.37381 0.15450
#
# Static dielectric constant tensor:
#      x y z
#    x 1.639270 0.000000 -0.010220 
#    y 0.000000 1.631200 0.000000 
#    z -0.010220 0.000000 1.636570 
# 
# From -- ./inp_files/161187.got.cif
#   From: 2010.05.17/outbox.cif.g08.bks.cpg/sg12_81_cif.got.tgz:161187.got - 2010.06.03 13:09:07.
