data_PCOD9194024
_publ_section_title
;
Structure prediction by ZEFSAII (Michael W. Deem and Ramdas Pophale) SiO2 
 PCOD9194024
Probable space group: C 2/M
;
_chemical_formula_sum "Si O2"
_cell_formula_units_Z 44
_cell_length_a 8.994157
_cell_length_b 13.013610
_cell_length_c 20.428504
_cell_angle_alpha 90.000000
_cell_angle_beta 88.175397
_cell_angle_gamma 90.000000
_cell_volume 2389.871576
_symmetry_space_group_name_H-M "C 2/M"
_symmetry_group_IT_number 12
_symmetry_cell_setting 'monoclinic'
loop_
_space_group_symop_operation_xyz
x,y,z
-x,y,-z
-x,-y,-z
x,-y,z
1/2+x,1/2+y,z
1/2-x,1/2+y,-z
1/2-x,1/2-y,-z
1/2+x,1/2-y,z
loop_
_atom_site_type_symbol
_atom_site_label
_atom_site_fract_x
_atom_site_fract_y
_atom_site_fract_z
Si Si1 0.224647 0.687554 0.394268
Si Si2 0.755415 0.121188 0.926069
Si Si3 0.000000 0.750013 0.000000
Si Si4 0.265310 0.379123 0.769156
Si Si5 0.332286 0.614733 0.524653
Si Si6 0.519682 0.752362 0.696242
O O1 0.235653 0.621547 0.459742
O O2 0.223022 0.804171 0.422111
O O3 0.370644 0.680031 0.347727
O O4 0.079435 0.679268 0.351921
O O5 0.896699 0.178239 0.956102
O O6 0.760775 0.130343 0.847614
O O7 0.754208 0.000000 0.942903
O O8 0.609988 0.178288 0.956261
O O9 0.270956 0.500000 0.752426
O O10 0.406525 0.317860 0.738581
O O11 0.121961 0.324053 0.739641
O O12 0.500000 0.643504 0.500000
O O13 0.335113 0.500000 0.550772
#
# Coordination Sequence:
#
# PCOD9194024 Si02
#       6
#     8   8   4   8   8   8
#     4  10  20  36  54  79 108 134 178 233 275 333
#     4  10  20  36  57  86 118 150 189 230 273 327
#     4  10  20  34  60  88 118 152 186 228 280 324
#     4  10  22  39  59  82 114 152 189 229 276 325
#     4  10  20  34  55  78 103 139 175 224 290 339
#     4  10  21  37  57  79 110 147 186 232 275 330
#
# _framework density 18.41103
#
# number of rings (size 3 to 8) (size 9 to 14) (size 15 to 20)
#    0.000    2.000    1.818    1.636    0.000    4.364 
#    0.000    3.636    0.000   15.273    0.000    0.000 
#    0.000    0.000    0.000    0.000    0.000    0.000 
#
# Total GULP energy -122831.380764 kJ/mol
# GULP energy per Si atom -5583.244580 kJ/mol
# Density = 1.836913 g / cm^3
# Si number density = 18.411030 Si / 1000 Ang^3
#
#
#
# Elastic Constant Matrix: (Units=GPa)
#
#
# Indices 1 2 3 4 5 6 
#
# 1 128.8599 61.3997 54.4518 0.0000 5.0341 0.0000
# 2 61.3997 112.7646 56.1063 0.0000 -2.4768 0.0000
# 3 54.4518 56.1063 89.1547 0.0000 7.8154 0.0000
# 4 0.0000 0.0000 0.0000 -84.6398 0.0000 -15.2838
# 5 5.0341 -2.4768 7.8154 0.0000 24.3024 0.0000
# 6 0.0000 0.0000 0.0000 -15.2838 0.0000 15.4144
#
#
#
# Elastic Compliance Matrix: (Units=1/GPa)
#
#
# Indices 1 2 3 4 5 6 
#
# 1 0.011663 -0.004224 -0.004338 0.000000 -0.001451 0.000000
# 2 -0.004224 0.014838 -0.007169 0.000000 0.004693 0.000000
# 3 -0.004338 -0.007169 0.018895 0.000000 -0.005909 0.000000
# 4 0.000000 0.000000 0.000000 -0.010021 0.000000 -0.009936
# 5 -0.001451 0.004693 -0.005909 0.000000 0.043827 0.000000
# 6 0.000000 0.000000 0.000000 -0.009936 0.000000 0.055023
#
#
# Mechanical properties :
#
#
# Convention : Reuss Voigt Hill
#
# Bulk Modulus (GPa) = 71.76538 74.96609 73.36573
# Shear Modulus (GPa) = 29.35431 1.60349 15.47890
#
# Velocity S-wave (km/s) = 3.99731 0.93425 2.90270
# Velocity P-wave (km/s) = 7.76974 6.47844 7.15329
#
# Compressibility (1/GPa) = 0.01393430
#
# Stress axis : x y z
#
# Youngs Moduli (GPa) = 85.74400 67.39359 52.92269
#
# Poissons Ratio (x) = 0.28467 0.22956
# Poissons Ratio (y) = 0.36218 0.37943
# Poissons Ratio (z) = 0.37192 0.48318
#
# Static dielectric constant tensor:
#      x y z
#    x 1.636710 0.000000 0.008770 
#    y 0.000000 1.604950 0.000000 
#    z 0.008770 0.000000 1.621360 
# 
# From -- ./inp_files/255354.got.cif
#   From: 2010.05.17/outbox.cif.g08.bks.cpg/sg12_128_cif.got.tgz:255354.got - 2010.06.03 13:09:07.
