data_PCOD9194057
_publ_section_title
;
Structure prediction by ZEFSAII (Michael W. Deem and Ramdas Pophale) SiO2 
 PCOD9194057
Probable space group: C 2/M
;
_chemical_formula_sum "Si O2"
_cell_formula_units_Z 64
_cell_length_a 28.495938
_cell_length_b 13.338068
_cell_length_c 7.808792
_cell_angle_alpha 90.000000
_cell_angle_beta 74.490212
_cell_angle_gamma 90.000000
_cell_volume 2859.892268
_symmetry_space_group_name_H-M "C 2/M"
_symmetry_group_IT_number 12
_symmetry_cell_setting 'monoclinic'
loop_
_space_group_symop_operation_xyz
x,y,z
-x,y,-z
-x,-y,-z
x,-y,z
1/2+x,1/2+y,z
1/2-x,1/2+y,-z
1/2-x,1/2-y,-z
1/2+x,1/2-y,z
loop_
_atom_site_type_symbol
_atom_site_label
_atom_site_fract_x
_atom_site_fract_y
_atom_site_fract_z
Si Si1 0.405129 0.391125 0.368450
Si Si2 0.752926 0.311879 0.275168
Si Si3 0.615071 0.609684 0.211571
Si Si4 0.333421 0.233791 0.421883
Si Si5 0.990689 0.829452 0.814594
Si Si6 0.473138 0.111185 0.710737
Si Si7 0.755749 0.393083 0.917288
Si Si8 0.637621 0.169749 0.236501
O O1 0.398492 0.500000 0.294283
O O2 0.385465 0.393289 0.581241
O O3 0.375394 0.303680 0.303093
O O4 0.461837 0.366716 0.330639
O O5 0.709419 0.303350 0.454014
O O6 0.803599 0.334860 0.319840
O O7 0.758808 0.201054 0.184686
O O8 0.738788 0.380237 0.129266
O O9 0.632668 0.500000 0.133094
O O10 0.559434 0.624888 0.204139
O O11 0.639536 0.717740 0.153159
O O12 0.356170 0.178105 0.563247
O O13 0.988859 0.708966 0.799829
O O14 0.000000 0.859325 0.000000
O O15 0.500000 0.119124 0.500000
O O16 0.414782 0.122892 0.747543
O O17 0.484311 0.000000 0.768952
O O18 0.741324 0.500000 0.857847
O O19 0.814489 0.386323 0.871987
#
# Coordination Sequence:
#
# PCOD9194057 Si02
#       8
#     8   8   8   8   8   8   8   8
#     4  10  20  34  55  80 105 139 181 220 263 315
#     4   9  20  37  55  80 108 137 176 219 267 321
#     4   9  18  34  55  76 104 144 182 216 257 308
#     4   9  18  35  57  78 107 136 171 226 270 305
#     4  11  22  34  50  76 113 145 173 216 265 314
#     4  10  20  36  58  79 102 140 185 221 257 306
#     4  10  20  36  56  77 108 145 175 210 264 323
#     4   9  18  34  55  81 109 136 175 220 263 313
#
# _framework density 22.378467000000001
#
# number of rings (size 3 to 8) (size 9 to 14) (size 15 to 20)
#    0.000    2.375    0.000    3.375    0.000    5.250 
#    0.000   11.875    0.000    3.750    0.000    0.000 
#    0.000    0.000    0.000    0.000    0.000    0.000 
#
# Total GULP energy -178643.713669 kJ/mol
# GULP energy per Si atom -5582.616052 kJ/mol
# Density = 2.232753 g / cm^3
# Si number density = 22.378467 Si / 1000 Ang^3
#
#
#
# Elastic Constant Matrix: (Units=GPa)
#
#
# Indices 1 2 3 4 5 6 
#
# 1 67.9113 -6.6975 6.3188 0.0000 -6.2434 0.0000
# 2 -6.6975 97.6506 0.1561 0.0000 -1.0261 0.0000
# 3 6.3188 0.1561 28.2884 0.0000 2.4614 0.0000
# 4 0.0000 0.0000 0.0000 8.1416 0.0000 -1.0922
# 5 -6.2434 -1.0261 2.4614 0.0000 28.4185 0.0000
# 6 0.0000 0.0000 0.0000 -1.0922 0.0000 -1.1505
#
#
#
# Elastic Compliance Matrix: (Units=1/GPa)
#
#
# Indices 1 2 3 4 5 6 
#
# 1 0.015537 0.001111 -0.003806 0.000000 0.003783 0.000000
# 2 0.001111 0.010324 -0.000362 0.000000 0.000648 0.000000
# 3 -0.003806 -0.000362 0.036552 0.000000 -0.004015 0.000000
# 4 0.000000 0.000000 0.000000 0.108951 0.000000 -0.103427
# 5 0.003783 0.000648 -0.004015 0.000000 0.036391 0.000000
# 6 0.000000 0.000000 0.000000 -0.103427 0.000000 -0.770980
#
#
# Mechanical properties :
#
#
# Convention : Reuss Voigt Hill
#
# Bulk Modulus (GPa) = 17.76184 21.48948 19.62566
# Shear Modulus (GPa) = -9.28769 20.02010 5.36620
#
# Velocity S-wave (km/s) = -2.03943 2.99426 1.55021
# Velocity P-wave (km/s) = 1.55194 4.64518 3.46311
#
# Compressibility (1/GPa) = 0.05630048
#
# Stress axis : x y z
#
# Youngs Moduli (GPa) = 64.36410 96.85972 27.35859
#
# Poissons Ratio (x) = -0.10765 0.10412
# Poissons Ratio (y) = -0.07154 0.00989
# Poissons Ratio (z) = 0.24495 0.03503
#
# Static dielectric constant tensor:
#      x y z
#    x 1.830170 0.000000 -0.036310 
#    y 0.000000 1.871480 0.000000 
#    z -0.036310 0.000000 1.851660 
# 
# From -- ./inp_files/104589.got.cif
#   From: 2010.05.17/outbox.cif.g08.bks.cpg/sg12_53_cif.got.tgz:104589.got - 2010.06.03 13:09:07.
