data_PCOD9194914
_publ_section_title
;
Structure prediction by ZEFSAII (Michael W. Deem and Ramdas Pophale) SiO2 
 PCOD9194914
Probable space group: C 2/M
;
_chemical_formula_sum "Si O2"
_cell_formula_units_Z 56
_cell_length_a 16.153232
_cell_length_b 21.080448
_cell_length_c 12.322422
_cell_angle_alpha 90.000000
_cell_angle_beta 144.819914
_cell_angle_gamma 90.000000
_cell_volume 2417.517392
_symmetry_space_group_name_H-M "C 2/M"
_symmetry_group_IT_number 12
_symmetry_cell_setting 'monoclinic'
loop_
_space_group_symop_operation_xyz
x,y,z
-x,y,-z
-x,-y,-z
x,-y,z
1/2+x,1/2+y,z
1/2-x,1/2+y,-z
1/2-x,1/2-y,-z
1/2+x,1/2-y,z
loop_
_atom_site_type_symbol
_atom_site_label
_atom_site_fract_x
_atom_site_fract_y
_atom_site_fract_z
Si Si1 0.772277 0.928308 0.064208
Si Si2 0.129101 0.801203 0.954215
Si Si3 0.843237 0.317056 0.381274
Si Si4 0.420866 0.567178 0.566182
Si Si5 0.096736 0.889674 0.207474
Si Si6 0.733628 0.813473 0.316433
Si Si7 0.064462 0.668665 0.907762
O O1 0.912020 0.933799 0.290684
O O2 0.759396 0.000000 0.002765
O O3 0.825502 0.864106 0.061063
O O4 0.618373 0.901544 0.935640
O O5 0.241775 0.802471 0.171087
O O6 0.112472 0.730567 0.888889
O O7 0.974750 0.821137 0.840175
O O8 0.761051 0.375444 0.350928
O O9 0.823822 0.251210 0.425852
O O10 0.000000 0.329283 0.500000
O O11 0.352470 0.500000 0.462947
O O12 0.417216 0.571433 0.695854
O O13 0.342724 0.628830 0.441372
O O14 0.000000 0.912878 0.000000
O O15 0.605542 0.825627 0.263846
O O16 0.647568 0.818169 0.110132
#
# Coordination Sequence:
#
# PCOD9194914 Si02
#       7
#     8   8   8   8   8   8   8
#     4  10  22  38  58  85 116 155 200 239 288 347
#     4   9  18  37  59  83 118 150 192 245 291 344
#     4  10  20  34  58  89 115 140 190 247 295 342
#     4  10  23  39  56  86 120 153 196 240 284 347
#     4   9  18  38  61  82 116 151 187 236 296 351
#     4  10  22  37  57  85 117 153 193 240 297 344
#     4  10  20  38  60  84 115 160 199 238 291 350
#
# _framework density 23.164259999999999
#
# number of rings (size 3 to 8) (size 9 to 14) (size 15 to 20)
#    0.000    2.286    1.429    0.429    4.000    3.143 
#    0.000    5.000    0.000    0.857    0.000    0.000 
#    0.000    0.000    0.000    0.000    0.000    0.000 
#
# Total GULP energy -155909.142317 kJ/mol
# GULP energy per Si atom -5568.183654 kJ/mol
# Density = 2.311154 g / cm^3
# Si number density = 23.164260 Si / 1000 Ang^3
#
#
#
# Elastic Constant Matrix: (Units=GPa)
#
#
# Indices 1 2 3 4 5 6 
#
# 1 74.4380 32.7711 23.7130 0.0000 25.0296 0.0000
# 2 32.7711 137.0038 31.8069 0.0000 16.6751 0.0000
# 3 23.7130 31.8069 62.4006 0.0000 17.9599 0.0000
# 4 0.0000 0.0000 0.0000 6.8487 0.0000 -8.2331
# 5 25.0296 16.6751 17.9599 0.0000 45.4075 0.0000
# 6 0.0000 0.0000 0.0000 -8.2331 0.0000 12.8931
#
#
#
# Elastic Compliance Matrix: (Units=1/GPa)
#
#
# Indices 1 2 3 4 5 6 
#
# 1 0.018285 -0.002647 -0.003361 0.000000 -0.007778 0.000000
# 2 -0.002647 0.008759 -0.003332 0.000000 -0.000440 0.000000
# 3 -0.003361 -0.003332 0.020443 0.000000 -0.005009 0.000000
# 4 0.000000 0.000000 0.000000 0.628441 0.000000 0.401302
# 5 -0.007778 -0.000440 -0.005009 0.000000 0.028453 0.000000
# 6 0.000000 0.000000 0.000000 0.401302 0.000000 0.333819
#
#
# Mechanical properties :
#
#
# Convention : Reuss Voigt Hill
#
# Bulk Modulus (GPa) = 34.71338 50.04715 42.38027
# Shear Modulus (GPa) = 4.68831 25.39995 15.04413
#
# Velocity S-wave (km/s) = 1.42420 3.31496 2.55120
# Velocity P-wave (km/s) = 4.20984 6.02529 5.19745
#
# Compressibility (1/GPa) = 0.02880733
#
# Stress axis : x y z
#
# Youngs Moduli (GPa) = 54.68907 114.16348 48.91632
#
# Poissons Ratio (x) = 0.30218 0.16440
# Poissons Ratio (y) = 0.14475 0.16301
# Poissons Ratio (z) = 0.18380 0.38045
#
# Static dielectric constant tensor:
#      x y z
#    x 2.138480 0.000000 0.010730 
#    y 0.000000 1.986510 0.000000 
#    z 0.010730 0.000000 1.887300 
# 
# From -- ./inp_files/227652.got.cif
#   From: 2010.05.17/outbox.cif.g08.bks.cpg/sg12_114_cif.got.tgz:227652.got - 2010.06.03 13:09:07.
