data_PCOD9194526
_publ_section_title
;
Structure prediction by ZEFSAII (Michael W. Deem and Ramdas Pophale) SiO2 
 PCOD9194526
Probable space group: C 2/M
;
_chemical_formula_sum "Si O2"
_cell_formula_units_Z 64
_cell_length_a 15.954877
_cell_length_b 23.376592
_cell_length_c 9.405417
_cell_angle_alpha 90.000000
_cell_angle_beta 102.374428
_cell_angle_gamma 90.000000
_cell_volume 3426.447999
_symmetry_space_group_name_H-M "C 2/M"
_symmetry_group_IT_number 12
_symmetry_cell_setting 'monoclinic'
loop_
_space_group_symop_operation_xyz
x,y,z
-x,y,-z
-x,-y,-z
x,-y,z
1/2+x,1/2+y,z
1/2-x,1/2+y,-z
1/2-x,1/2-y,-z
1/2+x,1/2-y,z
loop_
_atom_site_type_symbol
_atom_site_label
_atom_site_fract_x
_atom_site_fract_y
_atom_site_fract_z
Si Si1 0.663139 0.644453 0.775319
Si Si2 0.455815 0.933815 0.138365
Si Si3 0.400194 0.559971 0.488600
Si Si4 0.750462 0.931690 0.950798
Si Si5 0.029731 0.670698 0.347604
Si Si6 0.339911 0.373354 0.712917
Si Si7 0.231434 0.312085 0.431258
Si Si8 0.498273 0.287594 0.831779
O O1 0.628905 0.606997 0.632502
O O2 0.727688 0.685363 0.712031
O O3 0.583136 0.676565 0.818743
O O4 0.711306 0.602511 0.901091
O O5 0.352884 0.927020 0.089256
O O6 0.492807 0.885475 0.256334
O O7 0.472693 0.000000 0.190229
O O8 0.500000 0.926549 0.000000
O O9 0.500000 0.555397 0.500000
O O10 0.355218 0.500000 0.440899
O O11 0.387710 0.576113 0.647219
O O12 0.791868 0.898999 0.830982
O O13 0.771356 0.000000 0.959937
O O14 0.132599 0.671641 0.382145
O O15 0.001759 0.728919 0.257125
O O16 0.000000 0.672634 0.500000
O O17 0.273915 0.351630 0.568615
O O18 0.411832 0.324858 0.770099
O O19 0.250000 0.250000 0.500000
O O20 0.500000 0.275320 0.000000
#
# Coordination Sequence:
#
# PCOD9194526 Si02
#       8
#     8   8   8   8   8   8   8   8
#     4  11  23  38  62  91 126 171 214 268 314 380
#     4  10  23  46  72  97 130 169 210 266 328 388
#     4  10  20  34  56  84 119 166 212 255 307 369
#     4  11  23  42  65  95 132 170 218 270 322 380
#     4  12  25  43  69  97 127 169 217 266 324 389
#     4  11  22  40  61  89 134 165 214 262 320 376
#     4  11  23  41  64  93 127 167 214 266 323 386
#     4  12  24  41  60  92 133 171 214 260 321 383
#
# _framework density 18.678235999999998
#
# number of rings (size 3 to 8) (size 9 to 14) (size 15 to 20)
#    0.000    1.000    3.750    3.375    1.750    0.250 
#    0.000    5.625    0.000    0.000    0.000    0.000 
#    0.000    0.000    0.000    0.000    0.000    0.000 
#
# Total GULP energy -178539.180199 kJ/mol
# GULP energy per Si atom -5579.349381 kJ/mol
# Density = 1.863572 g / cm^3
# Si number density = 18.678236 Si / 1000 Ang^3
#
#
#
# Elastic Constant Matrix: (Units=GPa)
#
#
# Indices 1 2 3 4 5 6 
#
# 1 120.0943 63.0771 62.5599 0.0000 -5.0135 0.0000
# 2 63.0771 137.7145 74.8237 0.0000 -2.8086 0.0000
# 3 62.5599 74.8237 144.2029 0.0000 -19.2092 0.0000
# 4 0.0000 0.0000 0.0000 49.4464 0.0000 -5.4398
# 5 -5.0135 -2.8086 -19.2092 0.0000 38.1829 0.0000
# 6 0.0000 0.0000 0.0000 -5.4398 0.0000 52.8660
#
#
#
# Elastic Compliance Matrix: (Units=1/GPa)
#
#
# Indices 1 2 3 4 5 6 
#
# 1 0.011985 -0.003683 -0.003338 0.000000 -0.000377 0.000000
# 2 -0.003683 0.011393 -0.004573 0.000000 -0.001946 0.000000
# 3 -0.003338 -0.004573 0.011418 0.000000 0.004969 0.000000
# 4 0.000000 0.000000 0.000000 0.020455 0.000000 0.002105
# 5 -0.000377 -0.001946 0.004969 0.000000 0.028497 0.000000
# 6 0.000000 0.000000 0.000000 0.002105 0.000000 0.019132
#
#
# Mechanical properties :
#
#
# Convention : Reuss Voigt Hill
#
# Bulk Modulus (GPa) = 86.15901 89.21478 87.68689
# Shear Modulus (GPa) = 38.47956 41.53581 40.00768
#
# Velocity S-wave (km/s) = 4.54379 4.72079 4.63313
# Velocity P-wave (km/s) = 8.58814 8.80807 8.69880
#
# Compressibility (1/GPa) = 0.01160645
#
# Stress axis : x y z
#
# Youngs Moduli (GPa) = 83.44038 87.77008 87.58179
#
# Poissons Ratio (x) = 0.32327 0.29239
# Poissons Ratio (y) = 0.30732 0.40053
# Poissons Ratio (z) = 0.27856 0.40139
#
# Static dielectric constant tensor:
#      x y z
#    x 1.668210 0.000000 -0.025920 
#    y 0.000000 1.794150 0.000000 
#    z -0.025920 0.000000 1.608250 
# 
# From -- ./inp_files/65890.got.cif
#   From: 2010.05.17/outbox.cif.g08.bks.cpg/sg12_33_cif.got.tgz:65890.got - 2010.06.03 13:09:07.
