data_PCOD9194499
_publ_section_title
;
Structure prediction by ZEFSAII (Michael W. Deem and Ramdas Pophale) SiO2 
 PCOD9194499
Probable space group: C 2/M
;
_chemical_formula_sum "Si O2"
_cell_formula_units_Z 44
_cell_length_a 9.781502
_cell_length_b 7.517756
_cell_length_c 27.658213
_cell_angle_alpha 90.000000
_cell_angle_beta 58.555347
_cell_angle_gamma 90.000000
_cell_volume 1735.163817
_symmetry_space_group_name_H-M "C 2/M"
_symmetry_group_IT_number 12
_symmetry_cell_setting 'monoclinic'
loop_
_space_group_symop_operation_xyz
x,y,z
-x,y,-z
-x,-y,-z
x,-y,z
1/2+x,1/2+y,z
1/2-x,1/2+y,-z
1/2-x,1/2-y,-z
1/2+x,1/2-y,z
loop_
_atom_site_type_symbol
_atom_site_label
_atom_site_fract_x
_atom_site_fract_y
_atom_site_fract_z
Si Si1 0.000000 0.750805 0.000000
Si Si2 0.356593 0.279471 0.923593
Si Si3 0.976589 0.203087 0.727219
Si Si4 0.511934 0.206271 0.385221
Si Si5 0.335987 0.295285 0.550955
Si Si6 0.625731 0.284482 0.796010
O O1 0.070709 0.701319 0.040090
O O2 0.820165 0.800246 0.052389
O O3 0.343960 0.500000 0.930307
O O4 0.480311 0.239683 0.858226
O O5 0.795851 0.210439 0.780962
O O6 0.968748 0.285013 0.675688
O O7 0.087452 0.280099 0.748746
O O8 0.027681 0.000000 0.710161
O O9 0.643807 0.293982 0.394702
O O10 0.335895 0.284049 0.429879
O O11 0.516134 0.000000 0.397695
O O12 0.500000 0.214782 0.500000
O O13 0.331063 0.500000 0.535931
O O14 0.636936 0.500000 0.792805
#
# Coordination Sequence:
#
# PCOD9194499 Si02
#       6
#     4   8   8   8   8   8
#     4  10  20  34  56  84 112 146 186 226 280 340
#     4  10  20  36  56  81 113 147 185 231 281 336
#     4  11  23  39  59  84 113 149 192 238 289 342
#     4  11  23  38  60  88 117 153 194 236 286 341
#     4  10  22  40  61  88 121 155 193 237 284 337
#     4  10  22  39  59  84 115 150 191 238 287 341
#
# _framework density 25.357837
#
# number of rings (size 3 to 8) (size 9 to 14) (size 15 to 20)
#    0.000    1.636    0.000    4.364    0.000    6.182 
#    0.000    4.545    0.000    0.000    0.000    0.000 
#    0.000    0.000    0.000    0.000    0.000    0.000 
#
# Total GULP energy -122740.830549 kJ/mol
# GULP energy per Si atom -5579.128661 kJ/mol
# Density = 2.530012 g / cm^3
# Si number density = 25.357837 Si / 1000 Ang^3
#
#
#
# Elastic Constant Matrix: (Units=GPa)
#
#
# Indices 1 2 3 4 5 6 
#
# 1 147.8783 -3.7936 -2.1315 0.0000 -9.9512 0.0000
# 2 -3.7936 94.6278 5.4660 0.0000 5.9804 0.0000
# 3 -2.1315 5.4660 88.3841 0.0000 -3.9061 0.0000
# 4 0.0000 0.0000 0.0000 114.5112 0.0000 36.3854
# 5 -9.9512 5.9804 -3.9061 0.0000 47.3766 0.0000
# 6 0.0000 0.0000 0.0000 36.3854 0.0000 11.7235
#
#
#
# Elastic Compliance Matrix: (Units=1/GPa)
#
#
# Indices 1 2 3 4 5 6 
#
# 1 0.006867 0.000172 0.000219 0.000000 0.001439 0.000000
# 2 0.000172 0.010703 -0.000718 0.000000 -0.001374 0.000000
# 3 0.000219 -0.000718 0.011412 0.000000 0.001077 0.000000
# 4 0.000000 0.000000 0.000000 0.631231 0.000000 -1.959112
# 5 0.001439 -0.001374 0.001077 0.000000 0.021672 0.000000
# 6 0.000000 0.000000 0.000000 -1.959112 0.000000 6.165667
#
#
# Mechanical properties :
#
#
# Convention : Reuss Voigt Hill
#
# Bulk Modulus (GPa) = 35.30472 36.66354 35.98413
# Shear Modulus (GPa) = 0.72911 56.81221 28.77066
#
# Velocity S-wave (km/s) = 0.53680 4.73844 3.37202
# Velocity P-wave (km/s) = 3.78643 6.66536 5.42052
#
# Compressibility (1/GPa) = 0.02832482
#
# Stress axis : x y z
#
# Youngs Moduli (GPa) = 145.63067 93.43208 87.63032
#
# Poissons Ratio (x) = -0.01605 -0.01915
# Poissons Ratio (y) = -0.02501 0.06296
# Poissons Ratio (z) = -0.03183 0.06713
#
# Static dielectric constant tensor:
#      x y z
#    x 1.930880 0.000000 -0.015660 
#    y 0.000000 2.029800 0.000000 
#    z -0.015660 0.000000 2.032500 
# 
# From -- ./inp_files/371815.got.cif
#   From: 2010.05.17/outbox.cif.g08.bks.cpg/sg12_186_cif.got.tgz:371815.got - 2010.06.03 13:09:07.
