data_PCOD9194159
_publ_section_title
;
Structure prediction by ZEFSAII (Michael W. Deem and Ramdas Pophale) SiO2 
 PCOD9194159
Probable space group: C 2/M
;
_chemical_formula_sum "Si O2"
_cell_formula_units_Z 56
_cell_length_a 29.109836
_cell_length_b 18.246994
_cell_length_c 9.203340
_cell_angle_alpha 90.000000
_cell_angle_beta 36.852582
_cell_angle_gamma 90.000000
_cell_volume 2931.924275
_symmetry_space_group_name_H-M "C 2/M"
_symmetry_group_IT_number 12
_symmetry_cell_setting 'monoclinic'
loop_
_space_group_symop_operation_xyz
x,y,z
-x,y,-z
-x,-y,-z
x,-y,z
1/2+x,1/2+y,z
1/2-x,1/2+y,-z
1/2-x,1/2-y,-z
1/2+x,1/2-y,z
loop_
_atom_site_type_symbol
_atom_site_label
_atom_site_fract_x
_atom_site_fract_y
_atom_site_fract_z
Si Si1 0.645565 0.412665 0.776294
Si Si2 0.137383 0.834322 0.489007
Si Si3 0.573480 0.182565 0.727047
Si Si4 0.554695 0.086143 0.495031
Si Si5 0.002361 0.085948 0.666018
Si Si6 0.679372 0.913566 0.665398
Si Si7 0.791409 0.585635 0.071187
O O1 0.642569 0.500000 0.754658
O O2 0.630218 0.370134 0.666801
O O3 0.732715 0.397086 0.602856
O O4 0.579848 0.394743 0.057319
O O5 0.125715 0.748140 0.535712
O O6 0.219660 0.861936 0.224731
O O7 0.069389 0.866240 0.564151
O O8 0.545886 0.133373 0.661662
O O9 0.621524 0.133463 0.717722
O O10 0.500000 0.212899 0.000000
O O11 0.500000 0.108514 0.500000
O O12 0.539056 0.000000 0.564692
O O13 0.641018 0.092880 0.215580
O O14 0.000000 0.094251 0.500000
O O15 0.017033 0.000000 0.662890
O O16 0.677002 0.899833 0.845324
O O17 0.664853 0.000000 0.679831
O O18 0.765692 0.500000 0.137077
#
# Coordination Sequence:
#
# PCOD9194159 Si02
#       7
#     8   8   8   8   8   8   8
#     4   9  18  35  59  82 107 146 191 232 280 335
#     4  11  22  37  56  82 118 153 186 223 274 343
#     4  12  25  37  55  85 118 153 189 228 280 337
#     4  10  22  41  63  84 109 146 192 240 287 334
#     4  10  20  34  55  82 111 146 189 238 283 324
#     4   9  19  37  59  82 107 139 188 244 284 324
#     4   9  19  38  64  88 110 144 189 234 283 337
#
# _framework density 19.100083999999999
#
# number of rings (size 3 to 8) (size 9 to 14) (size 15 to 20)
#    0.000    2.000    0.000    4.714    0.000    8.000 
#    0.000    5.714    0.000    0.000    0.000    0.000 
#    0.000    0.000    0.000    0.000    0.000    0.000 
#
# Total GULP energy -156424.222249 kJ/mol
# GULP energy per Si atom -5586.579366 kJ/mol
# Density = 1.905661 g / cm^3
# Si number density = 19.100084 Si / 1000 Ang^3
#
#
#
# Elastic Constant Matrix: (Units=GPa)
#
#
# Indices 1 2 3 4 5 6 
#
# 1 52.2545 31.4013 3.2232 0.0000 -11.5634 0.0000
# 2 31.4013 44.2949 11.5110 0.0000 -7.8649 0.0000
# 3 3.2232 11.5110 49.4635 0.0000 0.3662 0.0000
# 4 0.0000 0.0000 0.0000 9.2575 0.0000 -25.0050
# 5 -11.5634 -7.8649 0.3662 0.0000 16.7260 0.0000
# 6 0.0000 0.0000 0.0000 -25.0050 0.0000 -555.9067
#
#
#
# Elastic Compliance Matrix: (Units=1/GPa)
#
#
# Indices 1 2 3 4 5 6 
#
# 1 0.036619 -0.024333 0.003174 0.000000 0.013804 0.000000
# 2 -0.024333 0.042599 -0.008353 0.000000 0.003391 0.000000
# 3 0.003174 -0.008353 0.021970 0.000000 -0.002214 0.000000
# 4 0.000000 0.000000 0.000000 0.096318 0.000000 -0.004332
# 5 0.013804 0.003391 -0.002214 0.000000 0.070974 0.000000
# 6 0.000000 0.000000 0.000000 -0.004332 0.000000 -0.001604
#
#
# Mechanical properties :
#
#
# Convention : Reuss Voigt Hill
#
# Bulk Modulus (GPa) = 23.71678 26.47597 25.09637
# Shear Modulus (GPa) = 14.70784 -99.32614 -42.30915
#
# Velocity S-wave (km/s) = 2.77797 -7.21913 -4.71162
# Velocity P-wave (km/s) = 4.76797 7.45628 4.05355
#
# Compressibility (1/GPa) = 0.04216424
#
# Stress axis : x y z
#
# Youngs Moduli (GPa) = 27.30847 23.47471 45.51590
#
# Poissons Ratio (x) = 0.57122 -0.14448
# Poissons Ratio (y) = 0.66451 0.38019
# Poissons Ratio (z) = -0.08669 0.19608
#
# Static dielectric constant tensor:
#      x y z
#    x 1.626120 0.000000 -0.013160 
#    y 0.000000 1.651690 0.000000 
#    z -0.013160 0.000000 1.673300 
# 
# From -- ./inp_files/105918.got.cif
#   From: 2010.05.17/outbox.cif.g08.bks.cpg/sg12_53_cif.got.tgz:105918.got - 2010.06.03 13:09:07.
