data_PCOD9194286
_publ_section_title
;
Structure prediction by ZEFSAII (Michael W. Deem and Ramdas Pophale) SiO2 
 PCOD9194286
Probable space group: C 2/M
;
_chemical_formula_sum "Si O2"
_cell_formula_units_Z 58
_cell_length_a 24.192348
_cell_length_b 7.728104
_cell_length_c 13.519797
_cell_angle_alpha 90.000000
_cell_angle_beta 88.158280
_cell_angle_gamma 90.000000
_cell_volume 2526.368778
_symmetry_space_group_name_H-M "C 2/M"
_symmetry_group_IT_number 12
_symmetry_cell_setting 'monoclinic'
loop_
_space_group_symop_operation_xyz
x,y,z
-x,y,-z
-x,-y,-z
x,-y,z
1/2+x,1/2+y,z
1/2-x,1/2+y,-z
1/2-x,1/2-y,-z
1/2+x,1/2-y,z
loop_
_atom_site_type_symbol
_atom_site_label
_atom_site_fract_x
_atom_site_fract_y
_atom_site_fract_z
Si Si1 0.000000 0.000000 0.500000
Si Si2 0.001634 0.788330 0.886003
Si Si3 0.717357 0.707019 0.713886
Si Si4 0.783786 0.293667 0.900742
Si Si5 0.908835 0.211019 0.276513
Si Si6 0.924136 0.309911 0.490885
Si Si7 0.610400 0.297751 0.204837
Si Si8 0.176527 0.793246 0.395535
O O1 0.043383 0.847368 0.461652
O O2 0.948185 0.725875 0.827283
O O3 0.056891 0.742155 0.822744
O O4 0.999356 0.000000 0.887964
O O5 0.000000 0.730545 0.000000
O O6 0.713215 0.500000 0.721670
O O7 0.749098 0.774440 0.809045
O O8 0.654673 0.769521 0.719447
O O9 0.759686 0.743785 0.622571
O O10 0.788450 0.500000 0.892221
O O11 0.845311 0.219937 0.886611
O O12 0.750000 0.250000 0.000000
O O13 0.935407 0.286752 0.373937
O O14 0.911450 0.000000 0.287834
O O15 0.939065 0.500000 0.525337
O O16 0.858758 0.280700 0.512380
O O17 0.601816 0.500000 0.225506
O O18 0.641838 0.227549 0.300386
O O19 0.174551 0.000000 0.400051
#
# Coordination Sequence:
#
# PCOD9194286 Si02
#       8
#     2   8   8   8   8   8   8   8
#     4  12  26  48  68  98 142 172 222 272 328 386
#     4   9  19  34  60  90 119 166 219 264 324 398
#     4   9  20  37  60  90 124 170 219 273 326 398
#     4  10  20  34  55  84 117 156 211 266 328 384
#     4  10  21  40  64  92 133 172 218 275 335 391
#     4  12  26  43  70 102 133 177 222 272 331 394
#     4   9  19  34  58  86 118 158 205 258 322 388
#     4  10  20  38  63  93 131 170 214 271 335 389
#
# _framework density 22.957851000000002
#
# number of rings (size 3 to 8) (size 9 to 14) (size 15 to 20)
#    0.000    2.069    1.379    1.034    3.862    2.207 
#    0.000    0.690    0.000    0.828    0.000    0.000 
#    0.000    0.000    0.000    0.000    0.000    0.000 
#
# Total GULP energy -161781.230426 kJ/mol
# GULP energy per Si atom -5578.663118 kJ/mol
# Density = 2.290560 g / cm^3
# Si number density = 22.957851 Si / 1000 Ang^3
#
#
#
# Elastic Constant Matrix: (Units=GPa)
#
#
# Indices 1 2 3 4 5 6 
#
# 1 152.9104 24.9872 39.2690 0.0000 -24.2358 0.0000
# 2 24.9872 88.8665 2.7432 0.0000 0.2542 0.0000
# 3 39.2690 2.7432 106.0809 0.0000 -28.7361 0.0000
# 4 0.0000 0.0000 0.0000 39.2299 0.0000 -27.7489
# 5 -24.2358 0.2542 -28.7361 0.0000 32.4766 0.0000
# 6 0.0000 0.0000 0.0000 -27.7489 0.0000 31.3459
#
#
#
# Elastic Compliance Matrix: (Units=1/GPa)
#
#
# Indices 1 2 3 4 5 6 
#
# 1 0.008057 -0.002226 -0.001699 0.000000 0.004527 0.000000
# 2 -0.002226 0.011882 0.000055 0.000000 -0.001706 0.000000
# 3 -0.001699 0.000055 0.012772 0.000000 0.010033 0.000000
# 4 0.000000 0.000000 0.000000 0.068188 0.000000 0.060364
# 5 0.004527 -0.001706 0.010033 0.000000 0.043060 0.000000
# 6 0.000000 0.000000 0.000000 0.060364 0.000000 0.085339
#
#
# Mechanical properties :
#
#
# Convention : Reuss Voigt Hill
#
# Bulk Modulus (GPa) = 40.04638 53.53963 46.79301
# Shear Modulus (GPa) = 20.37795 39.33436 29.85616
#
# Velocity S-wave (km/s) = 2.98254 4.14373 3.61013
# Velocity P-wave (km/s) = 5.41682 6.80187 6.14847
#
# Compressibility (1/GPa) = 0.02497105
#
# Stress axis : x y z
#
# Youngs Moduli (GPa) = 124.11053 84.16138 78.29651
#
# Poissons Ratio (x) = 0.18735 0.13301
# Poissons Ratio (y) = 0.27628 -0.00428
# Poissons Ratio (z) = 0.21083 -0.00460
#
# Static dielectric constant tensor:
#      x y z
#    x 1.904360 0.000000 0.011900 
#    y 0.000000 1.836520 0.000000 
#    z 0.011900 0.000000 1.868890 
# 
# From -- ./inp_files/237575.got.cif
#   From: 2010.05.17/outbox.cif.g08.bks.cpg/sg12_119_cif.got.tgz:237575.got - 2010.06.03 13:09:07.
