data_PCOD9194605
_publ_section_title
;
Structure prediction by ZEFSAII (Michael W. Deem and Ramdas Pophale) SiO2 
 PCOD9194605
Probable space group: C 2/M
;
_chemical_formula_sum "Si O2"
_cell_formula_units_Z 48
_cell_length_a 27.417164
_cell_length_b 19.323666
_cell_length_c 9.327349
_cell_angle_alpha 90.000000
_cell_angle_beta 29.666381
_cell_angle_gamma 90.000000
_cell_volume 2445.854653
_symmetry_space_group_name_H-M "C 2/M"
_symmetry_group_IT_number 12
_symmetry_cell_setting 'monoclinic'
loop_
_space_group_symop_operation_xyz
x,y,z
-x,y,-z
-x,-y,-z
x,-y,z
1/2+x,1/2+y,z
1/2-x,1/2+y,-z
1/2-x,1/2-y,-z
1/2+x,1/2-y,z
loop_
_atom_site_type_symbol
_atom_site_label
_atom_site_fract_x
_atom_site_fract_y
_atom_site_fract_z
Si Si1 0.309518 0.318395 0.308963
Si Si2 0.822314 0.682987 0.835128
Si Si3 0.991525 0.216076 0.367195
Si Si4 0.842082 0.862960 0.546161
Si Si5 0.722947 0.080705 0.304757
Si Si6 0.097081 0.000000 0.166849
Si Si7 0.539864 0.500000 0.739175
O O1 0.250000 0.250000 0.500000
O O2 0.344928 0.351224 0.368526
O O3 0.239168 0.373001 0.405071
O O4 0.400874 0.292179 0.977928
O O5 0.932219 0.713526 0.561447
O O6 0.821150 0.628837 0.706142
O O7 0.750000 0.750000 0.000000
O O8 0.768355 0.647317 0.109133
O O9 0.917275 0.187602 0.436231
O O10 0.000000 0.178805 0.500000
O O11 0.889691 0.935500 0.465198
O O12 0.684578 0.000000 0.421818
O O13 0.835038 0.064788 0.972451
O O14 0.000000 0.000000 0.500000
O O15 0.059278 0.000000 0.101644
O O16 0.500000 0.500000 0.000000
#
# Coordination Sequence:
#
# PCOD9194605 Si02
#       7
#     8   8   8   8   8   4   4
#     4  12  23  40  63  93 126 167 213 264 326 382
#     4  10  21  40  61  89 122 169 215 253 307 384
#     4  11  22  40  62  88 124 165 214 258 309 374
#     4  11  23  35  58  91 128 162 202 256 318 383
#     4  10  23  39  62  92 130 167 207 264 323 389
#     4  10  20  34  56  86 122 159 195 239 317 380
#     4  12  22  32  50  86 131 161 191 249 326 384
#
# _framework density 19.625041
#
# number of rings (size 3 to 8) (size 9 to 14) (size 15 to 20)
#    0.500    0.667    0.000    9.500    2.333    2.667 
#    0.000    0.000    0.000    2.500    0.000    0.000 
#    0.000    0.000    0.000    0.000    0.000    0.000 
#
# Total GULP energy -133636.616945 kJ/mol
# GULP energy per Si atom -5568.192373 kJ/mol
# Density = 1.958037 g / cm^3
# Si number density = 19.625041 Si / 1000 Ang^3
#
#
#
# Elastic Constant Matrix: (Units=GPa)
#
#
# Indices 1 2 3 4 5 6 
#
# 1 90.8219 20.0138 24.8906 0.0000 10.1212 0.0000
# 2 20.0138 99.9964 28.4178 0.0000 -15.5323 0.0000
# 3 24.8906 28.4178 83.9713 0.0000 13.9618 0.0000
# 4 0.0000 0.0000 0.0000 35.5656 0.0000 -13.7693
# 5 10.1212 -15.5323 13.9618 0.0000 23.8575 0.0000
# 6 0.0000 0.0000 0.0000 -13.7693 0.0000 93.1307
#
#
#
# Elastic Compliance Matrix: (Units=1/GPa)
#
#
# Indices 1 2 3 4 5 6 
#
# 1 0.012882 -0.003110 -0.001685 0.000000 -0.006504 0.000000
# 2 -0.003110 0.014771 -0.006531 0.000000 0.014758 0.000000
# 3 -0.001685 -0.006531 0.016846 0.000000 -0.013395 0.000000
# 4 0.000000 0.000000 0.000000 0.029824 0.000000 0.004409
# 5 -0.006504 0.014758 -0.013395 0.000000 0.062122 0.000000
# 6 0.000000 0.000000 0.000000 0.004409 0.000000 0.011390
#
#
# Mechanical properties :
#
#
# Convention : Reuss Voigt Hill
#
# Bulk Modulus (GPa) = 45.77014 46.82602 46.29808
# Shear Modulus (GPa) = 28.12656 43.94192 36.03424
#
# Velocity S-wave (km/s) = 3.78987 4.73702 4.28966
# Velocity P-wave (km/s) = 6.52102 7.33698 6.94100
#
# Compressibility (1/GPa) = 0.02184831
#
# Stress axis : x y z
#
# Youngs Moduli (GPa) = 77.62558 67.70010 59.36259
#
# Poissons Ratio (x) = 0.21053 0.10001
# Poissons Ratio (y) = 0.24140 0.38769
# Poissons Ratio (z) = 0.13078 0.44214
#
# Static dielectric constant tensor:
#      x y z
#    x 1.958750 0.000000 -0.000690 
#    y 0.000000 2.092980 0.000000 
#    z -0.000690 0.000000 1.694140 
# 
# From -- ./inp_files/106527.got.cif
#   From: 2010.05.17/outbox.cif.g08.bks.cpg/sg12_54_cif.got.tgz:106527.got - 2010.06.03 13:09:07.
