data_PCOD9194796
_publ_section_title
;
Structure prediction by ZEFSAII (Michael W. Deem and Ramdas Pophale) SiO2 
 PCOD9194796
Probable space group: C 2/M
;
_chemical_formula_sum "Si O2"
_cell_formula_units_Z 44
_cell_length_a 19.678974
_cell_length_b 9.901356
_cell_length_c 13.124300
_cell_angle_alpha 90.000000
_cell_angle_beta 67.368144
_cell_angle_gamma 90.000000
_cell_volume 2360.333054
_symmetry_space_group_name_H-M "C 2/M"
_symmetry_group_IT_number 12
_symmetry_cell_setting 'monoclinic'
loop_
_space_group_symop_operation_xyz
x,y,z
-x,y,-z
-x,-y,-z
x,-y,z
1/2+x,1/2+y,z
1/2-x,1/2+y,-z
1/2-x,1/2-y,-z
1/2+x,1/2-y,z
loop_
_atom_site_type_symbol
_atom_site_label
_atom_site_fract_x
_atom_site_fract_y
_atom_site_fract_z
Si Si1 0.558567 0.339419 0.674339
Si Si2 0.850678 0.652132 0.705817
Si Si3 0.273131 0.657208 0.394097
Si Si4 0.000000 0.715871 0.500000
Si Si5 0.185709 0.159678 0.084617
Si Si6 0.531167 0.659731 0.085750
O O1 0.548655 0.500000 0.673098
O O2 0.640423 0.313976 0.669914
O O3 0.540599 0.288142 0.571761
O O4 0.503730 0.281695 0.791195
O O5 0.841777 0.500000 0.754659
O O6 0.782680 0.675865 0.667225
O O7 0.843016 0.767801 0.795517
O O8 0.928547 0.652915 0.599654
O O9 0.267317 0.500000 0.426751
O O10 0.250000 0.750000 0.500000
O O11 0.118263 0.165692 0.044303
O O12 0.203302 0.000000 0.090762
O O13 0.250000 0.250000 0.000000
O O14 0.510583 0.500000 0.098081
O O15 0.500000 0.719894 0.000000
#
# Coordination Sequence:
#
# PCOD9194796 Si02
#       6
#     8   8   8   4   8   8
#     4  10  20  34  57  88 119 157 203 255 304 360
#     4  11  24  40  61  90 126 166 204 249 309 372
#     4  10  21  37  57  84 119 157 199 245 295 357
#     4  12  20  36  62  88 129 162 205 252 305 370
#     4  11  24  42  65  91 121 159 204 257 311 366
#     4   9  19  36  60  87 114 152 204 252 301 358
#
# _framework density 18.641435999999999
#
# number of rings (size 3 to 8) (size 9 to 14) (size 15 to 20)
#    0.000    1.636    3.636    1.091    2.545    1.455 
#    0.000    0.000    0.000    2.182    0.000    0.000 
#    0.000    0.000    0.000    0.000    0.000    0.000 
#
# Total GULP energy -122487.322792 kJ/mol
# GULP energy per Si atom -5567.605581 kJ/mol
# Density = 1.859901 g / cm^3
# Si number density = 18.641436 Si / 1000 Ang^3
#
#
#
# Elastic Constant Matrix: (Units=GPa)
#
#
# Indices 1 2 3 4 5 6 
#
# 1 100.1621 54.6456 44.5698 0.0000 7.2661 0.0000
# 2 54.6456 73.6764 48.8834 0.0000 -3.1059 0.0000
# 3 44.5698 48.8834 97.9788 0.0000 -1.6225 0.0000
# 4 0.0000 0.0000 0.0000 43.2729 0.0000 -12.4928
# 5 7.2661 -3.1059 -1.6225 0.0000 31.3185 0.0000
# 6 0.0000 0.0000 0.0000 -12.4928 0.0000 29.0421
#
#
#
# Elastic Compliance Matrix: (Units=1/GPa)
#
#
# Indices 1 2 3 4 5 6 
#
# 1 0.017962 -0.012066 -0.002241 0.000000 -0.005480 0.000000
# 2 -0.012066 0.028464 -0.008627 0.000000 0.005175 0.000000
# 3 -0.002241 -0.008627 0.015538 0.000000 0.000469 0.000000
# 4 0.000000 0.000000 0.000000 0.026386 0.000000 0.011350
# 5 -0.005480 0.005175 0.000469 0.000000 0.033739 0.000000
# 6 0.000000 0.000000 0.000000 0.011350 0.000000 0.039315
#
#
# Mechanical properties :
#
#
# Convention : Reuss Voigt Hill
#
# Bulk Modulus (GPa) = 62.13092 63.11278 62.62185
# Shear Modulus (GPa) = 23.51425 28.97458 26.24441
#
# Velocity S-wave (km/s) = 3.55547 3.94675 3.75621
# Velocity P-wave (km/s) = 7.08921 7.39586 7.24416
#
# Compressibility (1/GPa) = 0.01609505
#
# Stress axis : x y z
#
# Youngs Moduli (GPa) = 55.67447 35.13194 64.35925
#
# Poissons Ratio (x) = 0.42390 0.14426
# Poissons Ratio (y) = 0.67176 0.55522
# Poissons Ratio (z) = 0.12479 0.30308
#
# Static dielectric constant tensor:
#      x y z
#    x 1.629890 0.000000 -0.032290 
#    y 0.000000 1.636990 0.000000 
#    z -0.032290 0.000000 1.657070 
# 
# From -- ./inp_files/163130.got.cif
#   From: 2010.05.17/outbox.cif.g08.bks.cpg/sg12_82_cif.got.tgz:163130.got - 2010.06.03 13:09:07.
