data_PCOD9194436
_publ_section_title
;
Structure prediction by ZEFSAII (Michael W. Deem and Ramdas Pophale) SiO2 
 PCOD9194436
Probable space group: C 2/M
;
_chemical_formula_sum "Si O2"
_cell_formula_units_Z 56
_cell_length_a 28.115539
_cell_length_b 17.086693
_cell_length_c 5.392734
_cell_angle_alpha 90.000000
_cell_angle_beta 80.083511
_cell_angle_gamma 90.000000
_cell_volume 2551.972722
_symmetry_space_group_name_H-M "C 2/M"
_symmetry_group_IT_number 12
_symmetry_cell_setting 'monoclinic'
loop_
_space_group_symop_operation_xyz
x,y,z
-x,y,-z
-x,-y,-z
x,-y,z
1/2+x,1/2+y,z
1/2-x,1/2+y,-z
1/2-x,1/2-y,-z
1/2+x,1/2-y,z
loop_
_atom_site_type_symbol
_atom_site_label
_atom_site_fract_x
_atom_site_fract_y
_atom_site_fract_z
Si Si1 0.866517 0.912732 0.469146
Si Si2 0.701470 0.297324 0.234894
Si Si3 0.295524 0.150870 0.457175
Si Si4 0.974092 0.904649 0.270481
Si Si5 0.944398 0.404837 0.550638
Si Si6 0.112442 0.405466 0.901776
Si Si7 0.278253 0.416835 0.165384
O O1 0.844025 0.854343 0.685541
O O2 0.917668 0.884572 0.323136
O O3 0.825185 0.918292 0.297843
O O4 0.874118 0.000000 0.567150
O O5 0.686168 0.214638 0.360361
O O6 0.747793 0.320668 0.357289
O O7 0.719482 0.329619 0.954866
O O8 0.335627 0.129345 0.219903
O O9 0.272186 0.082451 0.641828
O O10 0.000000 0.878661 0.500000
O O11 0.976882 0.000000 0.264038
O O12 0.000000 0.875548 0.000000
O O13 0.945511 0.500000 0.564820
O O14 0.920390 0.385621 0.308447
O O15 0.000000 0.377613 0.500000
O O16 0.912895 0.379422 0.818748
O O17 0.117189 0.500000 0.908568
O O18 0.279535 0.500000 0.014260
#
# Coordination Sequence:
#
# PCOD9194436 Si02
#       7
#     8   8   8   8   8   8   8
#     4   9  19  34  53  82 110 144 193 240 293 351
#     4  10  21  37  56  75 111 158 191 235 294 360
#     4  10  22  37  52  81 115 151 198 238 292 357
#     4   9  18  31  52  81 113 145 184 240 296 344
#     4   9  18  34  57  86 118 151 190 238 294 348
#     4  10  20  34  57  88 117 151 194 245 291 339
#     4  10  20  34  56  82 112 149 194 247 295 352
#
# _framework density 21.943807
#
# number of rings (size 3 to 8) (size 9 to 14) (size 15 to 20)
#    0.000    2.429    0.000    1.714    4.000    3.429 
#    0.000    0.000    0.000    2.571    0.000    0.000 
#    0.000    0.000    0.000    0.000    0.000    0.143 
#
# Total GULP energy -156014.493585 kJ/mol
# GULP energy per Si atom -5571.946199 kJ/mol
# Density = 2.189386 g / cm^3
# Si number density = 21.943807 Si / 1000 Ang^3
#
#
#
# Elastic Constant Matrix: (Units=GPa)
#
#
# Indices 1 2 3 4 5 6 
#
# 1 87.1160 14.9000 41.3792 0.0000 -33.9472 0.0000
# 2 14.9000 40.7696 21.3287 0.0000 -5.7444 0.0000
# 3 41.3792 21.3287 134.9346 0.0000 -27.9370 0.0000
# 4 0.0000 0.0000 0.0000 22.9011 0.0000 -4.3201
# 5 -33.9472 -5.7444 -27.9370 0.0000 39.0114 0.0000
# 6 0.0000 0.0000 0.0000 -4.3201 0.0000 9.7438
#
#
#
# Elastic Compliance Matrix: (Units=1/GPa)
#
#
# Indices 1 2 3 4 5 6 
#
# 1 0.018658 -0.003669 -0.002221 0.000000 0.014105 0.000000
# 2 -0.003669 0.027499 -0.003574 0.000000 -0.001703 0.000000
# 3 -0.002221 -0.003574 0.009566 0.000000 0.004391 0.000000
# 4 0.000000 0.000000 0.000000 0.047652 0.000000 0.021127
# 5 0.014105 -0.001703 0.004391 0.000000 0.040801 0.000000
# 6 0.000000 0.000000 0.000000 0.021127 0.000000 0.111997
#
#
# Mechanical properties :
#
#
# Convention : Reuss Voigt Hill
#
# Bulk Modulus (GPa) = 27.17867 46.44845 36.81356
# Shear Modulus (GPa) = 17.39935 26.67874 22.03904
#
# Velocity S-wave (km/s) = 2.81891 3.49058 3.17257
# Velocity P-wave (km/s) = 4.79661 6.12033 5.49845
#
# Compressibility (1/GPa) = 0.03679356
#
# Stress axis : x y z
#
# Youngs Moduli (GPa) = 53.59619 36.36505 104.53306
#
# Poissons Ratio (x) = 0.13344 0.23221
# Poissons Ratio (y) = 0.19667 0.37361
# Poissons Ratio (z) = 0.11906 0.12997
#
# Static dielectric constant tensor:
#      x y z
#    x 1.780750 0.000000 0.011600 
#    y 0.000000 1.856210 0.000000 
#    z 0.011600 0.000000 2.001900 
# 
# From -- ./inp_files/28758.got.cif
#   From: 2010.05.17/outbox.cif.g08.bks.cpg/sg12_15_cif.got.tgz:28758.got - 2010.06.03 13:09:07.
