data_PCOD9194141
_publ_section_title
;
Structure prediction by ZEFSAII (Michael W. Deem and Ramdas Pophale) SiO2 
 PCOD9194141
Probable space group: C 2/M
;
_chemical_formula_sum "Si O2"
_cell_formula_units_Z 64
_cell_length_a 16.269438
_cell_length_b 8.903937
_cell_length_c 19.048399
_cell_angle_alpha 90.000000
_cell_angle_beta 90.113959
_cell_angle_gamma 90.000000
_cell_volume 2759.384689
_symmetry_space_group_name_H-M "C 2/M"
_symmetry_group_IT_number 12
_symmetry_cell_setting 'monoclinic'
loop_
_space_group_symop_operation_xyz
x,y,z
-x,y,-z
-x,-y,-z
x,-y,z
1/2+x,1/2+y,z
1/2-x,1/2+y,-z
1/2-x,1/2-y,-z
1/2+x,1/2-y,z
loop_
_atom_site_type_symbol
_atom_site_label
_atom_site_fract_x
_atom_site_fract_y
_atom_site_fract_z
Si Si1 0.762243 0.321383 0.703638
Si Si2 0.585156 0.329716 0.455292
Si Si3 0.662317 0.673968 0.081818
Si Si4 0.419004 0.180188 0.039934
Si Si5 0.007403 0.327793 0.666213
Si Si6 0.176368 0.325024 0.578086
Si Si7 0.580089 0.320943 0.220279
Si Si8 0.169675 0.323696 0.827296
O O1 0.765054 0.500000 0.698239
O O2 0.744049 0.248395 0.628200
O O3 0.844518 0.255607 0.738115
O O4 0.691499 0.269559 0.758443
O O5 0.500000 0.334847 0.500000
O O6 0.604083 0.500000 0.433387
O O7 0.560708 0.228251 0.389524
O O8 0.653546 0.263433 0.507345
O O9 0.648870 0.500000 0.062090
O O10 0.653555 0.774898 0.013542
O O11 0.593964 0.722201 0.139485
O O12 0.747678 0.680658 0.124310
O O13 0.423628 0.000000 0.044829
O O14 0.500000 0.237345 0.000000
O O15 0.399370 0.233279 0.118623
O O16 0.992861 0.500000 0.684483
O O17 0.998972 0.232465 0.736956
O O18 0.093254 0.316368 0.625500
O O19 0.192143 0.500000 0.563582
O O20 0.588582 0.500000 0.224042
O O21 0.155661 0.500000 0.808076
#
# Coordination Sequence:
#
# PCOD9194141 Si02
#       8
#     8   8   8   8   8   8   8   8
#     4  11  22  36  56  81 107 139 183 226 267 320
#     4   9  17  31  52  78 108 142 181 223 266 316
#     4   9  19  35  55  76 100 136 177 215 258 313
#     4  10  21  35  53  79 109 138 170 214 265 314
#     4  10  20  34  55  82 109 142 183 222 265 320
#     4  10  20  35  55  79 110 145 180 222 270 318
#     4  10  21  38  57  79 110 143 176 220 274 323
#     4   9  19  37  56  75 103 139 177 215 263 319
#
# _framework density 23.193577000000001
#
# number of rings (size 3 to 8) (size 9 to 14) (size 15 to 20)
#    0.000    2.250    0.000    3.750    0.000    7.250 
#    0.000    4.375    0.000    0.000    0.000    0.000 
#    0.000    0.000    0.000    0.000    0.000    0.000 
#
# Total GULP energy -179010.089302 kJ/mol
# GULP energy per Si atom -5594.065291 kJ/mol
# Density = 2.314079 g / cm^3
# Si number density = 23.193577 Si / 1000 Ang^3
#
#
#
# Elastic Constant Matrix: (Units=GPa)
#
#
# Indices 1 2 3 4 5 6 
#
# 1 67.1581 -0.0773 7.3864 0.0000 -5.0317 0.0000
# 2 -0.0773 62.9163 20.0299 0.0000 5.5143 0.0000
# 3 7.3864 20.0299 100.9501 0.0000 -0.7342 0.0000
# 4 0.0000 0.0000 0.0000 32.0132 0.0000 -3.4542
# 5 -5.0317 5.5143 -0.7342 0.0000 42.7186 0.0000
# 6 0.0000 0.0000 0.0000 -3.4542 0.0000 13.9042
#
#
#
# Elastic Compliance Matrix: (Units=1/GPa)
#
#
# Indices 1 2 3 4 5 6 
#
# 1 0.015146 0.000230 -0.001141 0.000000 0.001735 0.000000
# 2 0.000230 0.017188 -0.003444 0.000000 -0.002251 0.000000
# 3 -0.001141 -0.003444 0.010676 0.000000 0.000494 0.000000
# 4 0.000000 0.000000 0.000000 0.032097 0.000000 0.007974
# 5 0.001735 -0.002251 0.000494 0.000000 0.023912 0.000000
# 6 0.000000 0.000000 0.000000 0.007974 0.000000 0.073902
#
#
# Mechanical properties :
#
#
# Convention : Reuss Voigt Hill
#
# Bulk Modulus (GPa) = 29.15413 31.74472 30.44942
# Shear Modulus (GPa) = 25.89804 31.30625 28.60214
#
# Velocity S-wave (km/s) = 3.34519 3.67792 3.51549
# Velocity P-wave (km/s) = 5.24572 5.63496 5.44382
#
# Compressibility (1/GPa) = 0.03430046
#
# Stress axis : x y z
#
# Youngs Moduli (GPa) = 66.02405 58.18031 93.66612
#
# Poissons Ratio (x) = -0.01337 0.10689
# Poissons Ratio (y) = -0.01518 0.32254
# Poissons Ratio (z) = 0.07535 0.20034
#
# Static dielectric constant tensor:
#      x y z
#    x 1.999790 0.000000 -0.059280 
#    y 0.000000 1.768010 0.000000 
#    z -0.059280 0.000000 1.848940 
# 
# From -- ./inp_files/314101.got.cif
#   From: 2010.05.17/outbox.cif.g08.bks.cpg/sg12_158_cif.got.tgz:314101.got - 2010.06.03 13:09:07.
