data_PCOD9194279
_publ_section_title
;
Structure prediction by ZEFSAII (Michael W. Deem and Ramdas Pophale) SiO2 
 PCOD9194279
Probable space group: C 2/M
;
_chemical_formula_sum "Si O2"
_cell_formula_units_Z 64
_cell_length_a 11.673141
_cell_length_b 25.426609
_cell_length_c 22.540015
_cell_angle_alpha 90.000000
_cell_angle_beta 28.897577
_cell_angle_gamma 90.000000
_cell_volume 3232.943163
_symmetry_space_group_name_H-M "C 2/M"
_symmetry_group_IT_number 12
_symmetry_cell_setting 'monoclinic'
loop_
_space_group_symop_operation_xyz
x,y,z
-x,y,-z
-x,-y,-z
x,-y,z
1/2+x,1/2+y,z
1/2-x,1/2+y,-z
1/2-x,1/2-y,-z
1/2+x,1/2-y,z
loop_
_atom_site_type_symbol
_atom_site_label
_atom_site_fract_x
_atom_site_fract_y
_atom_site_fract_z
Si Si1 0.057286 0.822057 0.593764
Si Si2 0.922247 0.295178 0.653049
Si Si3 0.758156 0.940467 0.854596
Si Si4 0.363084 0.110815 0.209190
Si Si5 0.705426 0.191648 0.994460
Si Si6 0.508061 0.335887 0.756988
Si Si7 0.876156 0.160471 0.119588
Si Si8 0.717944 0.059520 0.143230
O O1 0.333227 0.826925 0.453359
O O2 0.040946 0.823726 0.673002
O O3 0.979680 0.764144 0.608630
O O4 0.870949 0.864864 0.654387
O O5 0.739910 0.319046 0.688246
O O6 0.791864 0.295529 0.776138
O O7 0.718999 0.930772 0.802671
O O8 0.946210 0.897560 0.790053
O O9 0.824565 0.000000 0.838424
O O10 0.500000 0.929774 0.000000
O O11 0.553665 0.083267 0.165445
O O12 0.475104 0.161158 0.122388
O O13 0.779890 0.191757 0.891900
O O14 0.908688 0.155903 0.932611
O O15 0.750000 0.250000 0.000000
O O16 0.725166 0.107005 0.186743
O O17 0.000000 0.171638 0.000000
O O18 0.644620 0.000000 0.191809
O O19 0.000000 0.056715 0.000000
#
# Coordination Sequence:
#
# PCOD9194279 Si02
#       8
#     8   8   8   8   8   8   8   8
#     4  10  23  38  61  82 119 158 196 234 283 342
#     4  10  22  41  58  87 114 159 200 229 279 355
#     4  10  20  34  55  84 117 150 191 242 299 342
#     4  11  19  36  54  86 118 150 190 241 291 340
#     4  11  21  33  52  85 121 147 185 231 293 343
#     4  10  21  38  59  83 116 154 193 241 283 343
#     4  10  20  36  58  85 115 145 190 239 286 334
#     4  10  20  36  59  84 117 155 193 237 295 351
#
# _framework density 19.796202999999998
#
# number of rings (size 3 to 8) (size 9 to 14) (size 15 to 20)
#    0.000    1.750    3.750    2.250    1.750    1.000 
#    0.000    4.375    0.000   11.250    0.000    0.000 
#    0.000    0.000    0.000    0.000    0.000    0.000 
#
# Total GULP energy -178336.087589 kJ/mol
# GULP energy per Si atom -5573.002737 kJ/mol
# Density = 1.975115 g / cm^3
# Si number density = 19.796203 Si / 1000 Ang^3
#
#
#
# Elastic Constant Matrix: (Units=GPa)
#
#
# Indices 1 2 3 4 5 6 
#
# 1 73.8285 32.2518 26.5798 0.0323 -17.9163 -0.0022
# 2 32.2518 90.0001 12.2066 0.0037 -17.5102 0.0137
# 3 26.5798 12.2066 85.7145 -0.0657 -19.0757 -0.0201
# 4 0.0323 0.0037 -0.0657 15.2057 -0.0848 -1.5283
# 5 -17.9163 -17.5102 -19.0757 -0.0848 27.9556 0.0122
# 6 -0.0022 0.0137 -0.0201 -1.5283 0.0122 23.9770
#
#
#
# Elastic Compliance Matrix: (Units=1/GPa)
#
#
# Indices 1 2 3 4 5 6 
#
# 1 0.018538 -0.004921 -0.003643 -0.000019 0.006313 -0.000003
# 2 -0.004921 0.013959 0.000922 0.000045 0.006219 -0.000008
# 3 -0.003643 0.000922 0.014472 0.000117 0.008118 0.000015
# 4 -0.000019 0.000045 0.000117 0.066191 0.000295 0.004219
# 5 0.006313 0.006219 0.008118 0.000295 0.049252 -0.000002
# 6 -0.000003 -0.000008 0.000015 0.004219 -0.000002 0.041976
#
#
# Mechanical properties :
#
#
# Convention : Reuss Voigt Hill
#
# Bulk Modulus (GPa) = 31.55990 43.51328 37.53659
# Shear Modulus (GPa) = 21.71705 25.32798 23.52252
#
# Velocity S-wave (km/s) = 3.31574 3.58080 3.45082
# Velocity P-wave (km/s) = 5.53497 6.25496 5.90595
#
# Compressibility (1/GPa) = 0.03168578
#
# Stress axis : x y z
#
# Youngs Moduli (GPa) = 53.94301 71.63597 69.10015
#
# Poissons Ratio (x) = 0.35251 0.25173
# Poissons Ratio (y) = 0.26545 -0.06372
# Poissons Ratio (z) = 0.19651 -0.06606
#
# Static dielectric constant tensor:
#      x y z
#    x 1.736880 -0.000030 0.025310 
#    y -0.000030 1.715120 0.000020 
#    z 0.025310 0.000020 1.749090 
# 
# From -- ./inp_files/337096.got.cif
#   From: 2010.05.17/outbox.cif.g08.bks.cpg/sg12_169_cif.got.tgz:337096.got - 2010.06.03 13:09:07.
