data_PCOD9194268
_publ_section_title
;
Structure prediction by ZEFSAII (Michael W. Deem and Ramdas Pophale) SiO2 
 PCOD9194268
Probable space group: C 2/M
;
_chemical_formula_sum "Si O2"
_cell_formula_units_Z 48
_cell_length_a 24.449109
_cell_length_b 16.710460
_cell_length_c 18.016381
_cell_angle_alpha 90.000000
_cell_angle_beta 21.058495
_cell_angle_gamma 90.000000
_cell_volume 2644.852505
_symmetry_space_group_name_H-M "C 2/M"
_symmetry_group_IT_number 12
_symmetry_cell_setting 'monoclinic'
loop_
_space_group_symop_operation_xyz
x,y,z
-x,y,-z
-x,-y,-z
x,-y,z
1/2+x,1/2+y,z
1/2-x,1/2+y,-z
1/2-x,1/2-y,-z
1/2+x,1/2-y,z
loop_
_atom_site_type_symbol
_atom_site_label
_atom_site_fract_x
_atom_site_fract_y
_atom_site_fract_z
Si Si1 0.798498 0.819548 0.881743
Si Si2 0.916286 0.905693 0.868931
Si Si3 0.568719 0.094764 0.065819
Si Si4 0.240463 0.832535 0.467055
Si Si5 0.338596 0.189550 0.715900
Si Si6 0.333082 0.214369 0.187552
O O1 0.894118 0.879971 0.810862
O O2 0.874973 0.769323 0.718783
O O3 0.750000 0.750000 0.000000
O O4 0.657255 0.865421 0.022887
O O5 0.081221 0.874804 0.685240
O O6 0.904434 0.000000 0.891621
O O7 0.784621 0.862123 0.083121
O O8 0.389791 0.115407 0.296398
O O9 0.593377 0.000000 0.031188
O O10 0.632604 0.140320 0.911740
O O11 0.250000 0.750000 0.500000
O O12 0.250142 0.812952 0.367165
O O13 0.500000 0.147328 0.500000
O O14 0.260653 0.220332 0.739462
O O15 0.500000 0.245503 0.000000
#
# Coordination Sequence:
#
# PCOD9194268 Si02
#       6
#     8   8   8   8   8   8
#     4   9  18  35  55  79 107 141 182 218 259 318
#     4  11  22  35  54  82 113 141 175 226 276 313
#     4  10  20  34  55  84 115 143 175 221 276 326
#     4  11  21  36  58  81 108 144 184 222 265 324
#     4  10  20  36  56  76 103 143 189 223 260 319
#     4   9  19  35  56  79 105 141 181 222 267 321
#
# _framework density 18.148461000000001
#
# number of rings (size 3 to 8) (size 9 to 14) (size 15 to 20)
#    0.000    2.000    0.000    6.000    0.000    5.333 
#    0.000    0.000    0.000   11.000    0.000    0.000 
#    0.000    0.000    0.000    0.000    0.000    0.000 
#
# Total GULP energy -133893.002266 kJ/mol
# GULP energy per Si atom -5578.875094 kJ/mol
# Density = 1.810715 g / cm^3
# Si number density = 18.148461 Si / 1000 Ang^3
#
#
#
# Elastic Constant Matrix: (Units=GPa)
#
#
# Indices 1 2 3 4 5 6 
#
# 1 100.0233 46.5802 37.8352 -0.0005 -17.8282 0.0002
# 2 46.5802 110.1827 48.8262 -0.0007 -13.0051 0.0004
# 3 37.8352 48.8262 122.0197 -0.0016 -7.5457 0.0008
# 4 -0.0005 -0.0007 -0.0016 17.0914 0.0007 -9.9933
# 5 -17.8282 -13.0051 -7.5457 0.0007 17.2838 -0.0002
# 6 0.0002 0.0004 0.0008 -9.9933 -0.0002 15.7877
#
#
#
# Elastic Compliance Matrix: (Units=1/GPa)
#
#
# Indices 1 2 3 4 5 6 
#
# 1 0.014666 -0.003851 -0.002313 0.000000 0.011220 0.000000
# 2 -0.003851 0.012815 -0.003683 0.000000 0.004063 0.000000
# 3 -0.002313 -0.003683 0.010347 0.000001 -0.000640 0.000000
# 4 0.000000 0.000000 0.000001 0.092887 -0.000003 0.058796
# 5 0.011220 0.004063 -0.000640 -0.000003 0.072210 -0.000001
# 6 0.000000 0.000000 0.000000 0.058796 -0.000001 0.100557
#
#
# Mechanical properties :
#
#
# Convention : Reuss Voigt Hill
#
# Bulk Modulus (GPa) = 55.14156 66.52321 60.83238
# Shear Modulus (GPa) = 15.18746 23.29817 19.24282
#
# Velocity S-wave (km/s) = 2.89597 3.58684 3.25976
# Velocity P-wave (km/s) = 6.45227 7.34088 6.91087
#
# Compressibility (1/GPa) = 0.01813514
#
# Stress axis : x y z
#
# Youngs Moduli (GPa) = 68.18631 78.03176 96.64989
#
# Poissons Ratio (x) = 0.30048 0.22352
# Poissons Ratio (y) = 0.26257 0.35594
# Poissons Ratio (z) = 0.15769 0.28737
#
# Static dielectric constant tensor:
#      x y z
#    x 1.677360 0.000000 -0.003570 
#    y 0.000000 1.592340 0.000000 
#    z -0.003570 0.000000 1.646370 
# 
# From -- ./inp_files/61735.got.cif
#   From: 2010.05.17/outbox.cif.g08.bks.cpg/sg12_31_cif.got.tgz:61735.got - 2010.06.03 13:09:07.
