data_PCOD9194419
_publ_section_title
;
Structure prediction by ZEFSAII (Michael W. Deem and Ramdas Pophale) SiO2 
 PCOD9194419
Probable space group: C 2/M
;
_chemical_formula_sum "Si O2"
_cell_formula_units_Z 48
_cell_length_a 28.032308
_cell_length_b 22.619412
_cell_length_c 12.504285
_cell_angle_alpha 90.000000
_cell_angle_beta 160.645812
_cell_angle_gamma 90.000000
_cell_volume 2627.607639
_symmetry_space_group_name_H-M "C 2/M"
_symmetry_group_IT_number 12
_symmetry_cell_setting 'monoclinic'
loop_
_space_group_symop_operation_xyz
x,y,z
-x,y,-z
-x,-y,-z
x,-y,z
1/2+x,1/2+y,z
1/2-x,1/2+y,-z
1/2-x,1/2-y,-z
1/2+x,1/2-y,z
loop_
_atom_site_type_symbol
_atom_site_label
_atom_site_fract_x
_atom_site_fract_y
_atom_site_fract_z
Si Si1 0.315743 0.881302 0.909125
Si Si2 0.609834 0.000000 0.827722
Si Si3 0.735840 0.110806 0.780711
Si Si4 0.170853 0.000000 0.878467
Si Si5 0.019329 0.428862 0.916560
Si Si6 0.964772 0.707200 0.548585
Si Si7 0.464979 0.346967 0.554339
O O1 0.172209 0.875983 0.676631
O O2 0.404212 0.937624 0.143408
O O3 0.336347 0.898756 0.828370
O O4 0.400969 0.820305 0.104333
O O5 0.500000 0.000000 0.500000
O O6 0.766407 0.000000 0.107073
O O7 0.622408 0.093042 0.448953
O O8 0.669878 0.167005 0.703604
O O9 0.766428 0.056009 0.924595
O O10 0.895125 0.131255 0.085268
O O11 0.000000 0.000000 0.500000
O O12 0.029714 0.500000 0.928623
O O13 0.000000 0.414384 0.000000
O O14 0.943928 0.776549 0.519070
O O15 0.000000 0.696196 0.500000
O O16 0.500000 0.358701 0.500000
#
# Coordination Sequence:
#
# PCOD9194419 Si02
#       7
#     8   4   8   4   8   8   8
#     4  11  21  35  56  84 113 148 192 239 281 335
#     4  12  20  30  50  79 110 141 180 224 276 337
#     4  11  21  36  57  84 116 153 192 237 288 342
#     4  12  22  32  50  83 124 153 172 220 294 351
#     4  10  21  42  64  82 106 145 202 251 290 338
#     4  10  20  34  56  81 117 163 204 224 261 338
#     4  11  22  36  54  86 126 162 185 222 279 348
#
# _framework density 18.267568000000001
#
# number of rings (size 3 to 8) (size 9 to 14) (size 15 to 20)
#    0.000    1.167    1.667    8.000    0.000    2.667 
#    0.000    0.833    0.000   18.000    0.000    0.000 
#    0.000    0.000    0.000    0.000    0.000    0.000 
#
# Total GULP energy -133775.426837 kJ/mol
# GULP energy per Si atom -5573.976118 kJ/mol
# Density = 1.822599 g / cm^3
# Si number density = 18.267568 Si / 1000 Ang^3
#
#
#
# Elastic Constant Matrix: (Units=GPa)
#
#
# Indices 1 2 3 4 5 6 
#
# 1 122.0997 47.4373 44.6754 0.0000 10.1329 0.0000
# 2 47.4373 104.4636 27.0883 0.0000 0.1392 0.0000
# 3 44.6754 27.0883 86.4297 0.0000 18.4649 0.0000
# 4 0.0000 0.0000 0.0000 25.9570 0.0000 13.4766
# 5 10.1329 0.1392 18.4649 0.0000 29.4802 0.0000
# 6 0.0000 0.0000 0.0000 13.4766 0.0000 45.1709
#
#
#
# Elastic Compliance Matrix: (Units=1/GPa)
#
#
# Indices 1 2 3 4 5 6 
#
# 1 0.011481 -0.004068 -0.004411 0.000000 -0.001164 0.000000
# 2 -0.004068 0.011999 -0.002245 0.000000 0.002748 0.000000
# 3 -0.004411 -0.002245 0.016425 0.000000 -0.008761 0.000000
# 4 0.000000 0.000000 0.000000 0.045587 0.000000 -0.013601
# 5 -0.001164 0.002748 -0.008761 0.000000 0.039796 0.000000
# 6 0.000000 0.000000 0.000000 -0.013601 0.000000 0.026196
#
#
# Mechanical properties :
#
#
# Convention : Reuss Voigt Hill
#
# Bulk Modulus (GPa) = 54.17826 61.26610 57.72218
# Shear Modulus (GPa) = 27.92000 33.04110 30.48055
#
# Velocity S-wave (km/s) = 3.91371 4.25753 4.08923
# Velocity P-wave (km/s) = 7.08134 7.60130 7.34592
#
# Compressibility (1/GPa) = 0.01845759
#
# Stress axis : x y z
#
# Youngs Moduli (GPa) = 87.09964 83.34354 60.88184
#
# Poissons Ratio (x) = 0.33907 0.26853
# Poissons Ratio (y) = 0.35435 0.13666
# Poissons Ratio (z) = 0.38417 0.18707
#
# Static dielectric constant tensor:
#      x y z
#    x 1.694700 0.000000 0.039100 
#    y 0.000000 1.659710 0.000000 
#    z 0.039100 0.000000 1.681410 
# 
# From -- ./inp_files/185047.got.cif
#   From: 2010.05.17/outbox.cif.g08.bks.cpg/sg12_93_cif.got.tgz:185047.got - 2010.06.03 13:09:07.
