data_PCOD9194093
_publ_section_title
;
Structure prediction by ZEFSAII (Michael W. Deem and Ramdas Pophale) SiO2 
 PCOD9194093
Probable space group: C 2/M
;
_chemical_formula_sum "Si O2"
_cell_formula_units_Z 48
_cell_length_a 32.728327
_cell_length_b 9.753235
_cell_length_c 7.645786
_cell_angle_alpha 90.000000
_cell_angle_beta 114.905961
_cell_angle_gamma 90.000000
_cell_volume 2213.614637
_symmetry_space_group_name_H-M "C 2/M"
_symmetry_group_IT_number 12
_symmetry_cell_setting 'monoclinic'
loop_
_space_group_symop_operation_xyz
x,y,z
-x,y,-z
-x,-y,-z
x,-y,z
1/2+x,1/2+y,z
1/2-x,1/2+y,-z
1/2-x,1/2-y,-z
1/2+x,1/2-y,z
loop_
_atom_site_type_symbol
_atom_site_label
_atom_site_fract_x
_atom_site_fract_y
_atom_site_fract_z
Si Si1 0.149310 0.339724 0.768254
Si Si2 0.479297 0.153887 0.634119
Si Si3 0.079187 0.349455 0.927880
Si Si4 0.794246 0.660677 0.776590
Si Si5 0.688211 0.336831 0.530119
Si Si6 0.946776 0.152698 0.846172
O O1 0.154313 0.500000 0.724706
O O2 0.100997 0.324587 0.778170
O O3 0.158955 0.239674 0.625279
O O4 0.183166 0.314028 0.993732
O O5 0.500000 0.222724 0.500000
O O6 0.525329 0.137168 0.826449
O O7 0.445927 0.245213 0.681964
O O8 0.462759 0.000000 0.565208
O O9 0.096362 0.500000 0.018181
O O10 0.084342 0.220946 0.062949
O O11 0.801683 0.500000 0.745350
O O12 0.740462 0.680265 0.684972
O O13 0.813543 0.758422 0.659259
O O14 0.679134 0.500000 0.499887
O O15 0.932530 0.000000 0.777754
O O16 0.000000 0.144270 0.000000
#
# Coordination Sequence:
#
# PCOD9194093 Si02
#       6
#     8   8   8   8   8   8
#     4  10  20  35  55  78 107 142 178 218 265 313
#     4   9  17  31  51  73  96 126 167 209 247 294
#     4   9  18  33  51  72  97 129 168 208 250 299
#     4   9  19  36  56  78 104 140 182 218 258 312
#     4  10  20  34  55  81 108 138 175 220 265 313
#     4   9  17  30  49  70  94 126 161 200 246 295
#
# _framework density 21.683990000000001
#
# number of rings (size 3 to 8) (size 9 to 14) (size 15 to 20)
#    0.000    2.667    0.000    1.500    0.000    4.333 
#    3.000    0.000    0.000    0.000    0.000    0.000 
#    0.000    0.000    0.000    0.000    0.000    0.000 
#
# Total GULP energy -133884.908902 kJ/mol
# GULP energy per Si atom -5578.537871 kJ/mol
# Density = 2.163464 g / cm^3
# Si number density = 21.683990 Si / 1000 Ang^3
#
#
#
# Elastic Constant Matrix: (Units=GPa)
#
#
# Indices 1 2 3 4 5 6 
#
# 1 97.4865 58.2788 36.5849 0.0000 -9.8909 0.0000
# 2 58.2788 136.3501 47.5600 0.0000 -50.6001 0.0000
# 3 36.5849 47.5600 47.2394 0.0000 -26.7869 0.0000
# 4 0.0000 0.0000 0.0000 8.0830 0.0000 -10.7789
# 5 -9.8909 -50.6001 -26.7869 0.0000 49.6805 0.0000
# 6 0.0000 0.0000 0.0000 -10.7789 0.0000 13.3843
#
#
#
# Elastic Compliance Matrix: (Units=1/GPa)
#
#
# Indices 1 2 3 4 5 6 
#
# 1 0.018452 -0.007374 -0.013024 0.000000 -0.010859 0.000000
# 2 -0.007374 0.016782 -0.003350 0.000000 0.013819 0.000000
# 3 -0.013024 -0.003350 0.044973 0.000000 0.018244 0.000000
# 4 0.000000 0.000000 0.000000 -1.673482 0.000000 -1.347715
# 5 -0.010859 0.013819 0.018244 0.000000 0.041878 0.000000
# 6 0.000000 0.000000 0.000000 -1.347715 0.000000 -1.010648
#
#
# Mechanical properties :
#
#
# Convention : Reuss Voigt Hill
#
# Bulk Modulus (GPa) = 30.56946 62.88036 46.72491
# Shear Modulus (GPa) = -1.99709 23.47307 10.73799
#
# Velocity S-wave (km/s) = -0.96073 3.29372 2.22773
# Velocity P-wave (km/s) = 3.59133 6.59744 5.31149
#
# Compressibility (1/GPa) = 0.03271239
#
# Stress axis : x y z
#
# Youngs Moduli (GPa) = 54.19550 59.58658 22.23564
#
# Poissons Ratio (x) = 0.43936 0.28959
# Poissons Ratio (y) = 0.39961 0.07449
# Poissons Ratio (z) = 0.70584 0.19961
#
# Static dielectric constant tensor:
#      x y z
#    x 1.834000 0.000000 0.081680 
#    y 0.000000 1.766480 0.000000 
#    z 0.081680 0.000000 1.817280 
# 
# From -- ./inp_files/108649.got.cif
#   From: 2010.05.17/outbox.cif.g08.bks.cpg/sg12_55_cif.got.tgz:108649.got - 2010.06.03 13:09:07.
