data_PCOD9194015
_publ_section_title
;
Structure prediction by ZEFSAII (Michael W. Deem and Ramdas Pophale) SiO2 
 PCOD9194015
Probable space group: C 2/M
;
_chemical_formula_sum "Si O2"
_cell_formula_units_Z 64
_cell_length_a 9.080982
_cell_length_b 28.302199
_cell_length_c 14.648416
_cell_angle_alpha 90.000000
_cell_angle_beta 108.262641
_cell_angle_gamma 90.000000
_cell_volume 3575.181473
_symmetry_space_group_name_H-M "C 2/M"
_symmetry_group_IT_number 12
_symmetry_cell_setting 'monoclinic'
loop_
_space_group_symop_operation_xyz
x,y,z
-x,y,-z
-x,-y,-z
x,-y,z
1/2+x,1/2+y,z
1/2-x,1/2+y,-z
1/2-x,1/2-y,-z
1/2+x,1/2-y,z
loop_
_atom_site_type_symbol
_atom_site_label
_atom_site_fract_x
_atom_site_fract_y
_atom_site_fract_z
Si Si1 0.877103 0.050271 0.892124
Si Si2 0.817557 0.552070 0.979436
Si Si3 0.346100 0.848384 0.910605
Si Si4 0.940593 0.672512 0.200754
Si Si5 0.897041 0.152299 0.888381
Si Si6 0.418250 0.285500 0.203900
Si Si7 0.014919 0.685569 0.406934
Si Si8 0.864590 0.787156 0.404845
O O1 0.908133 0.099375 0.850437
O O2 0.883232 0.000000 0.844497
O O3 0.719923 0.053918 0.920404
O O4 0.000000 0.049059 0.000000
O O5 0.757888 0.500000 0.935640
O O6 0.768027 0.601981 0.925164
O O7 0.000000 0.551807 0.000000
O O8 0.418229 0.851319 0.823857
O O9 0.227661 0.804895 0.882790
O O10 0.500000 0.838731 0.000000
O O11 0.780892 0.660104 0.121008
O O12 0.948408 0.729715 0.203384
O O13 0.945813 0.658466 0.307283
O O14 0.939864 0.189164 0.818657
O O15 0.000000 0.156870 0.000000
O O16 0.390319 0.301177 0.303568
O O17 0.191030 0.701873 0.410139
O O18 0.000000 0.658952 0.500000
O O19 0.903352 0.731085 0.404328
O O20 0.000000 0.805401 0.500000
#
# Coordination Sequence:
#
# PCOD9194015 Si02
#       8
#     8   8   8   8   8   8   8   8
#     4   9  17  32  51  71  93 124 170 219 262 297
#     4   9  17  30  51  71  91 124 166 213 264 295
#     4  11  20  34  49  68 104 138 171 208 241 293
#     4  11  23  34  48  71 103 140 176 210 240 292
#     4  11  22  34  49  72 102 144 179 206 245 292
#     4  11  23  34  48  71 103 138 180 206 242 293
#     4  10  20  34  55  75  95 127 169 219 270 300
#     4  10  20  34  55  75  95 127 168 221 268 301
#
# _framework density 17.901188999999999
#
# number of rings (size 3 to 8) (size 9 to 14) (size 15 to 20)
#    0.000    1.750    1.250    6.000    7.000    3.000 
#    0.000    0.000    0.000    0.000    0.000    0.000 
#    0.000    6.000    0.000    0.000    0.000    0.000 
#
# Total GULP energy -178145.788688 kJ/mol
# GULP energy per Si atom -5567.055896 kJ/mol
# Density = 1.786045 g / cm^3
# Si number density = 17.901189 Si / 1000 Ang^3
#
#
#
# Elastic Constant Matrix: (Units=GPa)
#
#
# Indices 1 2 3 4 5 6 
#
# 1 73.3706 -3.8154 1.0578 0.0000 -1.8911 0.0000
# 2 -3.8154 75.8409 20.9315 0.0000 -4.2983 0.0000
# 3 1.0578 20.9315 67.9410 0.0000 -3.9153 0.0000
# 4 0.0000 0.0000 0.0000 1.4888 0.0000 -4.2186
# 5 -1.8911 -4.2983 -3.9153 0.0000 26.7295 0.0000
# 6 0.0000 0.0000 0.0000 -4.2186 0.0000 19.2704
#
#
#
# Elastic Compliance Matrix: (Units=1/GPa)
#
#
# Indices 1 2 3 4 5 6 
#
# 1 0.013707 0.000865 -0.000419 0.000000 0.001047 0.000000
# 2 0.000865 0.014541 -0.004392 0.000000 0.001756 0.000000
# 3 -0.000419 -0.004392 0.016172 0.000000 0.001633 0.000000
# 4 0.000000 0.000000 0.000000 1.768950 0.000000 0.387251
# 5 0.001047 0.001756 0.001633 0.000000 0.038008 0.000000
# 6 0.000000 0.000000 0.000000 0.387251 0.000000 0.136668
#
#
# Mechanical properties :
#
#
# Convention : Reuss Voigt Hill
#
# Bulk Modulus (GPa) = 27.37698 28.16670 27.77184
# Shear Modulus (GPa) = 2.48990 22.76298 12.62644
#
# Velocity S-wave (km/s) = 1.18065 3.56981 2.65871
# Velocity P-wave (km/s) = 4.14550 5.72364 4.99726
#
# Compressibility (1/GPa) = 0.03652704
#
# Stress axis : x y z
#
# Youngs Moduli (GPa) = 72.95304 68.77257 61.83374
#
# Poissons Ratio (x) = -0.05947 0.02594
# Poissons Ratio (y) = -0.06308 0.27157
# Poissons Ratio (z) = 0.03060 0.30205
#
# Static dielectric constant tensor:
#      x y z
#    x 1.743270 0.000000 -0.015120 
#    y 0.000000 1.656610 0.000000 
#    z -0.015120 0.000000 1.676700 
# 
# From -- ./inp_files/200614.got.cif
#   From: 2010.05.17/outbox.cif.g08.bks.cpg/sg12_101_cif.got.tgz:200614.got - 2010.06.03 13:09:07.
