data_PCOD9194026
_publ_section_title
;
Structure prediction by ZEFSAII (Michael W. Deem and Ramdas Pophale) SiO2 
 PCOD9194026
Probable space group: C 2/M
;
_chemical_formula_sum "Si O2"
_cell_formula_units_Z 48
_cell_length_a 8.765049
_cell_length_b 12.926506
_cell_length_c 25.005992
_cell_angle_alpha 90.000000
_cell_angle_beta 62.866487
_cell_angle_gamma 90.000000
_cell_volume 2521.409243
_symmetry_space_group_name_H-M "C 2/M"
_symmetry_group_IT_number 12
_symmetry_cell_setting 'monoclinic'
loop_
_space_group_symop_operation_xyz
x,y,z
-x,y,-z
-x,-y,-z
x,-y,z
1/2+x,1/2+y,z
1/2-x,1/2+y,-z
1/2-x,1/2-y,-z
1/2+x,1/2-y,z
loop_
_atom_site_type_symbol
_atom_site_label
_atom_site_fract_x
_atom_site_fract_y
_atom_site_fract_z
Si Si1 0.139289 0.885214 0.023313
Si Si2 0.223724 0.755672 0.181760
Si Si3 0.231628 0.619256 0.393571
Si Si4 0.436380 0.705840 0.455734
Si Si5 0.408844 0.814730 0.902834
Si Si6 0.376087 0.620618 0.250598
O O1 0.128488 0.802552 0.071541
O O2 0.101829 0.000000 0.048183
O O3 0.320054 0.880312 0.963331
O O4 0.000000 0.856478 0.000000
O O5 0.389628 0.821666 0.137850
O O6 0.181133 0.677263 0.140002
O O7 0.266708 0.688648 0.226809
O O8 0.064251 0.829787 0.217523
O O9 0.174198 0.500000 0.411698
O O10 0.388195 0.643293 0.409857
O O11 0.301776 0.628691 0.322211
O O12 0.075392 0.701828 0.424748
O O13 0.500000 0.649144 0.500000
O O14 0.250000 0.750000 0.500000
O O15 0.377797 0.500000 0.235260
#
# Coordination Sequence:
#
# PCOD9194026 Si02
#       6
#     8   8   8   8   8   8
#     4  10  20  34  55  78 105 141 178 218 280 348
#     4  10  21  37  58  80 113 144 182 241 279 326
#     4  10  20  37  59  82 116 154 190 233 278 327
#     4   9  19  34  56  87 118 150 189 228 273 330
#     4  10  20  36  54  80 108 138 176 227 280 335
#     4  10  22  39  60  84 110 150 193 231 281 331
#
# _framework density 19.036973
#
# number of rings (size 3 to 8) (size 9 to 14) (size 15 to 20)
#    0.000    2.167    1.667    1.000    0.000    7.333 
#    0.000    5.833    0.000   18.000    0.000    0.000 
#    0.000    0.000    0.000    0.000    0.000    0.000 
#
# Total GULP energy -133813.456029 kJ/mol
# GULP energy per Si atom -5575.560668 kJ/mol
# Density = 1.899364 g / cm^3
# Si number density = 19.036973 Si / 1000 Ang^3
#
#
#
# Elastic Constant Matrix: (Units=GPa)
#
#
# Indices 1 2 3 4 5 6 
#
# 1 70.3506 12.2911 16.7828 0.0000 10.9174 0.0000
# 2 12.2911 58.7775 20.9521 0.0000 11.2076 0.0000
# 3 16.7828 20.9521 67.7585 0.0000 7.2912 0.0000
# 4 0.0000 0.0000 0.0000 -134.0461 0.0000 15.6475
# 5 10.9174 11.2076 7.2912 0.0000 30.4220 0.0000
# 6 0.0000 0.0000 0.0000 15.6475 0.0000 14.5058
#
#
#
# Elastic Compliance Matrix: (Units=1/GPa)
#
#
# Indices 1 2 3 4 5 6 
#
# 1 0.015870 -0.001392 -0.003021 0.000000 -0.004459 0.000000
# 2 -0.001392 0.020286 -0.005315 0.000000 -0.005700 0.000000
# 3 -0.003021 -0.005315 0.017268 0.000000 -0.001097 0.000000
# 4 0.000000 0.000000 0.000000 -0.006626 0.000000 0.007147
# 5 -0.004459 -0.005700 -0.001097 0.000000 0.036834 0.000000
# 6 0.000000 0.000000 0.000000 0.007147 0.000000 0.061228
#
#
# Mechanical properties :
#
#
# Convention : Reuss Voigt Hill
#
# Bulk Modulus (GPa) = 29.43800 32.99317 31.21558
# Shear Modulus (GPa) = 28.46780 -8.03296 10.21742
#
# Velocity S-wave (km/s) = 3.87123 -2.05641 2.31922
# Velocity P-wave (km/s) = 5.95643 3.42495 4.85846
#
# Compressibility (1/GPa) = 0.03396970
#
# Stress axis : x y z
#
# Youngs Moduli (GPa) = 63.01124 49.29573 57.91114
#
# Poissons Ratio (x) = 0.06861 0.17493
# Poissons Ratio (y) = 0.08769 0.30777
# Poissons Ratio (z) = 0.19034 0.26199
#
# Static dielectric constant tensor:
#      x y z
#    x 1.681520 0.000000 0.015310 
#    y 0.000000 1.664010 0.000000 
#    z 0.015310 0.000000 1.676510 
# 
# From -- ./inp_files/299778.got.cif
#   From: 2010.05.17/outbox.cif.g08.bks.cpg/sg12_150_cif.got.tgz:299778.got - 2010.06.03 13:09:07.
