data_PCOD9194973
_publ_section_title
;
Structure prediction by ZEFSAII (Michael W. Deem and Ramdas Pophale) SiO2 
 PCOD9194973
Probable space group: C 2/M
;
_chemical_formula_sum "Si O2"
_cell_formula_units_Z 34
_cell_length_a 14.248488
_cell_length_b 7.958612
_cell_length_c 15.126434
_cell_angle_alpha 90.000000
_cell_angle_beta 55.025504
_cell_angle_gamma 90.000000
_cell_volume 1405.537663
_symmetry_space_group_name_H-M "C 2/M"
_symmetry_group_IT_number 12
_symmetry_cell_setting 'monoclinic'
loop_
_space_group_symop_operation_xyz
x,y,z
-x,y,-z
-x,-y,-z
x,-y,z
1/2+x,1/2+y,z
1/2-x,1/2+y,-z
1/2-x,1/2-y,-z
1/2+x,1/2-y,z
loop_
_atom_site_type_symbol
_atom_site_label
_atom_site_fract_x
_atom_site_fract_y
_atom_site_fract_z
Si Si1 0.000000 0.000000 0.000000
Si Si2 0.354492 0.301594 0.338515
Si Si3 0.601517 0.810395 0.158263
Si Si4 0.335494 0.814213 0.083765
Si Si5 0.383369 0.700281 0.521990
O O1 0.905290 0.849546 0.076323
O O2 0.339228 0.500000 0.350519
O O3 0.475312 0.264060 0.229529
O O4 0.368148 0.230802 0.430981
O O5 0.236388 0.230933 0.363457
O O6 0.698222 0.710318 0.159914
O O7 0.599656 0.000000 0.192973
O O8 0.637670 0.814920 0.036180
O O9 0.367359 0.000000 0.102738
O O10 0.500000 0.768985 0.500000
O O11 0.397097 0.500000 0.506768
#
# Coordination Sequence:
#
# PCOD9194973 Si02
#       5
#     2   8   8   8   8
#     4  12  22  40  60  94 120 160 190 264 296 350
#     4  10  20  34  59  85 113 152 198 244 304 363
#     4  10  20  39  61  85 113 163 202 243 296 365
#     4  10  22  39  62  86 124 159 202 244 300 356
#     4   9  19  38  57  80 114 152 194 246 300 360
#
# _framework density 24.190031000000001
#
# number of rings (size 3 to 8) (size 9 to 14) (size 15 to 20)
#    0.000    2.118    1.176    1.765    3.294    1.412 
#    4.235    0.000    0.000    0.000    0.000    0.000 
#    0.000    0.000    0.000    0.000    0.000    0.000 
#
# Total GULP energy -94738.663622 kJ/mol
# GULP energy per Si atom -5572.862566 kJ/mol
# Density = 2.413497 g / cm^3
# Si number density = 24.190031 Si / 1000 Ang^3
#
#
#
# Elastic Constant Matrix: (Units=GPa)
#
#
# Indices 1 2 3 4 5 6 
#
# 1 144.4856 48.1479 59.5996 0.0000 -52.3714 0.0000
# 2 48.1479 134.6182 -3.5735 0.0000 -3.8662 0.0000
# 3 59.5996 -3.5735 51.7785 0.0000 -30.6680 0.0000
# 4 0.0000 0.0000 0.0000 18.9850 0.0000 -16.6049
# 5 -52.3714 -3.8662 -30.6680 0.0000 41.1554 0.0000
# 6 0.0000 0.0000 0.0000 -16.6049 0.0000 21.5777
#
#
#
# Elastic Compliance Matrix: (Units=1/GPa)
#
#
# Indices 1 2 3 4 5 6 
#
# 1 0.021743 -0.007829 -0.017212 0.000000 0.014107 0.000000
# 2 -0.007829 0.010348 0.007877 0.000000 -0.003120 0.000000
# 3 -0.017212 0.007877 0.048572 0.000000 0.015032 0.000000
# 4 0.000000 0.000000 0.000000 0.161111 0.000000 0.123981
# 5 0.014107 -0.003120 0.015032 0.000000 0.053158 0.000000
# 6 0.000000 0.000000 0.000000 0.123981 0.000000 0.141752
#
#
# Mechanical properties :
#
#
# Convention : Reuss Voigt Hill
#
# Bulk Modulus (GPa) = 21.58144 59.91448 40.74796
# Shear Modulus (GPa) = 10.27840 31.45749 20.86795
#
# Velocity S-wave (km/s) = 2.06355 3.61006 2.94031
# Velocity P-wave (km/s) = 3.82344 6.49606 5.32998
#
# Compressibility (1/GPa) = 0.04633611
#
# Stress axis : x y z
#
# Youngs Moduli (GPa) = 45.99128 96.63813 20.58808
#
# Poissons Ratio (x) = 0.75653 0.35436
# Poissons Ratio (y) = 0.36004 -0.16218
# Poissons Ratio (z) = 0.79161 -0.76124
#
# Static dielectric constant tensor:
#      x y z
#    x 1.981610 0.000000 0.021850 
#    y 0.000000 1.920770 0.000000 
#    z 0.021850 0.000000 1.997550 
# 
# From -- ./inp_files/266900.got.cif
#   From: 2010.05.17/outbox.cif.g08.bks.cpg/sg12_134_cif.got.tgz:266900.got - 2010.06.03 13:09:07.
