data_PCOD9194058
_publ_section_title
;
Structure prediction by ZEFSAII (Michael W. Deem and Ramdas Pophale) SiO2 
 PCOD9194058
Probable space group: C 2/M
;
_chemical_formula_sum "Si O2"
_cell_formula_units_Z 64
_cell_length_a 28.207948
_cell_length_b 14.216820
_cell_length_c 11.266453
_cell_angle_alpha 90.000000
_cell_angle_beta 41.489639
_cell_angle_gamma 90.000000
_cell_volume 2993.208407
_symmetry_space_group_name_H-M "C 2/M"
_symmetry_group_IT_number 12
_symmetry_cell_setting 'monoclinic'
loop_
_space_group_symop_operation_xyz
x,y,z
-x,y,-z
-x,-y,-z
x,-y,z
1/2+x,1/2+y,z
1/2-x,1/2+y,-z
1/2-x,1/2-y,-z
1/2+x,1/2-y,z
loop_
_atom_site_type_symbol
_atom_site_label
_atom_site_fract_x
_atom_site_fract_y
_atom_site_fract_z
Si Si1 0.414365 0.189974 0.422766
Si Si2 0.414533 0.106044 0.170502
Si Si3 0.403948 0.602147 0.429661
Si Si4 0.544837 0.180727 0.306094
Si Si5 0.254006 0.391038 0.836484
Si Si6 0.171925 0.605731 0.215402
Si Si7 0.857549 0.738654 0.075201
Si Si8 0.416878 0.392126 0.134544
O O1 0.395231 0.162136 0.326034
O O2 0.440790 0.297851 0.380044
O O3 0.483794 0.133111 0.339186
O O4 0.349734 0.170961 0.634294
O O5 0.386930 0.157656 0.106650
O O6 0.387351 0.000000 0.230315
O O7 0.500000 0.104666 0.000000
O O8 0.440641 0.500000 0.376870
O O9 0.335440 0.604787 0.642869
O O10 0.382902 0.606508 0.329770
O O11 0.500000 0.223235 0.500000
O O12 0.603084 0.112743 0.256870
O O13 0.592706 0.246824 0.134067
O O14 0.226107 0.500000 0.869041
O O15 0.215469 0.308246 0.834826
O O16 0.238178 0.371138 0.005119
O O17 0.180310 0.500000 0.244762
O O18 0.870115 0.830876 0.131698
O O19 0.422997 0.500000 0.081682
O O20 0.500000 0.357532 0.000000
#
# Coordination Sequence:
#
# PCOD9194058 Si02
#       8
#     8   8   8   8   8   8   8   8
#     4  11  19  33  52  77 110 138 179 222 265 314
#     4  11  21  30  47  80 115 144 167 210 274 324
#     4  10  21  37  56  78 103 139 187 226 264 310
#     4   9  19  31  51  77 105 139 174 212 254 315
#     4   9  20  37  55  77 104 142 186 220 258 319
#     4   9  19  34  54  79 108 144 178 211 258 322
#     4  11  18  34  55  74 110 140 176 219 264 312
#     4  10  20  34  55  80 106 137 177 221 266 317
#
# _framework density 21.381739
#
# number of rings (size 3 to 8) (size 9 to 14) (size 15 to 20)
#    0.000    2.000    2.500    1.875    0.000    4.250 
#    0.000    0.000    0.000   11.250    0.000    0.000 
#    0.000    0.000    0.000    0.000    0.000    0.000 
#
# Total GULP energy -178303.270095 kJ/mol
# GULP energy per Si atom -5571.977190 kJ/mol
# Density = 2.133307 g / cm^3
# Si number density = 21.381739 Si / 1000 Ang^3
#
#
#
# Elastic Constant Matrix: (Units=GPa)
#
#
# Indices 1 2 3 4 5 6 
#
# 1 21.2445 11.5074 3.8057 0.0000 10.8602 0.0000
# 2 11.5074 110.4443 9.8459 0.0000 5.5925 0.0000
# 3 3.8057 9.8459 89.3443 0.0000 18.2228 0.0000
# 4 0.0000 0.0000 0.0000 19.0170 0.0000 2.6211
# 5 10.8602 5.5925 18.2228 0.0000 23.4233 0.0000
# 6 0.0000 0.0000 0.0000 2.6211 0.0000 20.1505
#
#
#
# Elastic Compliance Matrix: (Units=1/GPa)
#
#
# Indices 1 2 3 4 5 6 
#
# 1 0.066074 -0.005625 0.004493 0.000000 -0.032788 0.000000
# 2 -0.005625 0.009678 -0.001055 0.000000 0.001118 0.000000
# 3 0.004493 -0.001055 0.013658 0.000000 -0.012457 0.000000
# 4 0.000000 0.000000 0.000000 0.053544 0.000000 -0.006965
# 5 -0.032788 0.001118 -0.012457 0.000000 0.067319 0.000000
# 6 0.000000 0.000000 0.000000 -0.006965 0.000000 0.050532
#
#
# Mechanical properties :
#
#
# Convention : Reuss Voigt Hill
#
# Bulk Modulus (GPa) = 11.75963 30.15012 20.95488
# Shear Modulus (GPa) = 17.03430 25.57643 21.30537
#
# Velocity S-wave (km/s) = 2.82561 3.46234 3.16005
# Velocity P-wave (km/s) = 4.01960 5.48773 4.81001
#
# Compressibility (1/GPa) = 0.08503667
#
# Stress axis : x y z
#
# Youngs Moduli (GPa) = 15.13450 103.32895 73.21552
#
# Poissons Ratio (x) = 0.58120 -0.32894
# Poissons Ratio (y) = 0.08513 0.07724
# Poissons Ratio (z) = -0.06800 0.10901
#
# Static dielectric constant tensor:
#      x y z
#    x 1.762920 0.000000 -0.011070 
#    y 0.000000 1.830800 0.000000 
#    z -0.011070 0.000000 1.802820 
# 
# From -- ./inp_files/189437.got.cif
#   From: 2010.05.17/outbox.cif.g08.bks.cpg/sg12_95_cif.got.tgz:189437.got - 2010.06.03 13:09:07.
