data_PCOD9194666
_publ_section_title
;
Structure prediction by ZEFSAII (Michael W. Deem and Ramdas Pophale) SiO2 
 PCOD9194666
Probable space group: C 2/M
;
_chemical_formula_sum "Si O2"
_cell_formula_units_Z 40
_cell_length_a 11.929451
_cell_length_b 22.997995
_cell_length_c 9.194821
_cell_angle_alpha 90.000000
_cell_angle_beta 55.223569
_cell_angle_gamma 90.000000
_cell_volume 2072.048427
_symmetry_space_group_name_H-M "C 2/M"
_symmetry_group_IT_number 12
_symmetry_cell_setting 'monoclinic'
loop_
_space_group_symop_operation_xyz
x,y,z
-x,y,-z
-x,-y,-z
x,-y,z
1/2+x,1/2+y,z
1/2-x,1/2+y,-z
1/2-x,1/2-y,-z
1/2+x,1/2-y,z
loop_
_atom_site_type_symbol
_atom_site_label
_atom_site_fract_x
_atom_site_fract_y
_atom_site_fract_z
Si Si1 0.347407 0.879432 0.645998
Si Si2 0.425709 0.790432 0.827226
Si Si3 0.163847 0.828483 0.196846
Si Si4 0.269532 0.184634 0.426247
Si Si5 0.872796 0.067204 0.988682
O O1 0.500000 0.901835 0.500000
O O2 0.371452 0.819670 0.718411
O O3 0.267478 0.861256 0.559708
O O4 0.260791 0.920519 0.814325
O O5 0.434030 0.721664 0.794206
O O6 0.573583 0.816520 0.745688
O O7 0.312823 0.806472 0.029672
O O8 0.171089 0.829063 0.365063
O O9 0.132064 0.889038 0.143107
O O10 0.250000 0.250000 0.500000
O O11 0.880076 0.000000 0.939720
O O12 0.000000 0.080616 0.000000
#
# Coordination Sequence:
#
# PCOD9194666 Si02
#       5
#     8   8   8   8   8
#     4   9  19  37  57  84 119 147 183 233 290 338
#     4   9  19  33  51  82 118 148 179 220 284 353
#     4  10  20  34  57  80 112 153 185 226 281 344
#     4  11  20  31  52  88 121 141 174 231 285 350
#     4  10  23  42  60  79 108 154 204 237 270 328
#
# _framework density 19.304566999999999
#
# number of rings (size 3 to 8) (size 9 to 14) (size 15 to 20)
#    0.000    2.200    2.000    0.600    2.800    0.400 
#    0.000    1.000    0.000   18.000    0.000    0.000 
#    0.000    0.000    0.000    0.000    0.000    0.000 
#
# Total GULP energy -111660.698147 kJ/mol
# GULP energy per Si atom -5583.034907 kJ/mol
# Density = 1.926063 g / cm^3
# Si number density = 19.304567 Si / 1000 Ang^3
#
#
#
# Elastic Constant Matrix: (Units=GPa)
#
#
# Indices 1 2 3 4 5 6 
#
# 1 67.6826 45.5501 30.6754 0.0000 27.6973 0.0000
# 2 45.5501 79.3924 15.2200 0.0000 28.0987 0.0000
# 3 30.6754 15.2200 50.9442 0.0000 16.2905 0.0000
# 4 0.0000 0.0000 0.0000 14.8367 0.0000 -0.7504
# 5 27.6973 28.0987 16.2905 0.0000 43.0957 0.0000
# 6 0.0000 0.0000 0.0000 -0.7504 0.0000 18.5459
#
#
#
# Elastic Compliance Matrix: (Units=1/GPa)
#
#
# Indices 1 2 3 4 5 6 
#
# 1 0.033216 -0.013932 -0.013555 0.000000 -0.007140 0.000000
# 2 -0.013932 0.022345 0.003991 0.000000 -0.007124 0.000000
# 3 -0.013555 0.003991 0.028034 0.000000 -0.004487 0.000000
# 4 0.000000 0.000000 0.000000 0.067539 0.000000 0.002733
# 5 -0.007140 -0.007124 -0.004487 0.000000 0.034134 0.000000
# 6 0.000000 0.000000 0.000000 0.002733 0.000000 0.054031
#
#
# Mechanical properties :
#
#
# Convention : Reuss Voigt Hill
#
# Bulk Modulus (GPa) = 27.31974 42.32336 34.82155
# Shear Modulus (GPa) = 16.75084 22.40056 19.57570
#
# Velocity S-wave (km/s) = 2.94889 3.41012 3.18786
# Velocity P-wave (km/s) = 5.07714 6.12184 5.62380
#
# Compressibility (1/GPa) = 0.03660357
#
# Stress axis : x y z
#
# Youngs Moduli (GPa) = 30.10560 44.75291 35.67089
#
# Poissons Ratio (x) = 0.62348 0.48353
# Poissons Ratio (y) = 0.41942 -0.14236
# Poissons Ratio (z) = 0.40809 -0.17861
#
# Static dielectric constant tensor:
#      x y z
#    x 1.693030 0.000000 -0.020880 
#    y 0.000000 1.637980 0.000000 
#    z -0.020880 0.000000 1.720210 
# 
# From -- ./inp_files/48514.got.cif
#   From: 2010.05.17/outbox.cif.g08.bks.cpg/sg12_25_cif.got.tgz:48514.got - 2010.06.03 13:09:07.
