data_PCOD9194341
_publ_section_title
;
Structure prediction by ZEFSAII (Michael W. Deem and Ramdas Pophale) SiO2 
 PCOD9194341
Probable space group: C 2/M
;
_chemical_formula_sum "Si O2"
_cell_formula_units_Z 40
_cell_length_a 8.951125
_cell_length_b 24.042726
_cell_length_c 8.279635
_cell_angle_alpha 90.000000
_cell_angle_beta 112.919788
_cell_angle_gamma 90.000000
_cell_volume 1641.179867
_symmetry_space_group_name_H-M "C 2/M"
_symmetry_group_IT_number 12
_symmetry_cell_setting 'monoclinic'
loop_
_space_group_symop_operation_xyz
x,y,z
-x,y,-z
-x,-y,-z
x,-y,z
1/2+x,1/2+y,z
1/2-x,1/2+y,-z
1/2-x,1/2-y,-z
1/2+x,1/2-y,z
loop_
_atom_site_type_symbol
_atom_site_label
_atom_site_fract_x
_atom_site_fract_y
_atom_site_fract_z
Si Si1 0.806026 0.500000 0.903773
Si Si2 0.670742 0.000000 0.469008
Si Si3 0.382819 0.880604 0.587485
Si Si4 0.304048 0.305647 0.259798
Si Si5 0.885044 0.195483 0.804852
Si Si6 0.303270 0.885944 0.069494
O O1 0.783474 0.500000 0.702779
O O2 0.746213 0.443741 0.965645
O O3 0.000000 0.500000 0.000000
O O4 0.500000 0.000000 0.500000
O O5 0.709146 0.935300 0.517105
O O6 0.500000 0.856480 0.500000
O O7 0.258765 0.838734 0.612500
O O8 0.516174 0.895937 0.783281
O O9 0.251040 0.242310 0.262063
O O10 0.491486 0.308809 0.290922
O O11 0.211813 0.337130 0.071071
O O12 0.809172 0.137854 0.834840
O O13 0.000000 0.215572 0.000000
#
# Coordination Sequence:
#
# PCOD9194341 Si02
#       6
#     4   4   8   8   8   8
#     4  12  18  32  58  89 113 149 188 233 276 329
#     4  10  20  34  55  86 118 150 187 226 275 335
#     4  11  21  35  57  85 114 150 191 234 280 334
#     4  11  20  37  58  82 111 148 191 234 287 335
#     4  10  21  35  58  84 112 147 188 237 287 337
#     4  11  20  35  56  84 114 145 188 234 277 330
#
# _framework density 24.372710000000001
#
# number of rings (size 3 to 8) (size 9 to 14) (size 15 to 20)
#    0.000    1.200    4.000    5.400    0.000    0.000 
#    0.000   10.500    0.000    0.000    0.000    5.600 
#    0.000    0.000    0.000    0.000    0.000    0.000 
#
# Total GULP energy -111658.379948 kJ/mol
# GULP energy per Si atom -5582.918997 kJ/mol
# Density = 2.431724 g / cm^3
# Si number density = 24.372710 Si / 1000 Ang^3
#
#
#
# Elastic Constant Matrix: (Units=GPa)
#
#
# Indices 1 2 3 4 5 6 
#
# 1 123.8248 75.8584 59.7797 0.0000 -54.2442 0.0000
# 2 75.8584 177.8057 64.6700 0.0000 -43.7949 0.0000
# 3 59.7797 64.6700 92.6610 0.0000 -28.2341 0.0000
# 4 0.0000 0.0000 0.0000 19.3044 0.0000 -17.4912
# 5 -54.2442 -43.7949 -28.2341 0.0000 62.6570 0.0000
# 6 0.0000 0.0000 0.0000 -17.4912 0.0000 35.4065
#
#
#
# Elastic Compliance Matrix: (Units=1/GPa)
#
#
# Indices 1 2 3 4 5 6 
#
# 1 0.017076 -0.002532 -0.006125 0.000000 0.010253 0.000000
# 2 -0.002532 0.008576 -0.003702 0.000000 0.002135 0.000000
# 3 -0.006125 -0.003702 0.017298 0.000000 -0.000095 0.000000
# 4 0.000000 0.000000 0.000000 0.093778 0.000000 0.046327
# 5 0.010253 0.002135 -0.000095 0.000000 0.026286 0.000000
# 6 0.000000 0.000000 0.000000 0.046327 0.000000 0.051130
#
#
# Mechanical properties :
#
#
# Convention : Reuss Voigt Hill
#
# Bulk Modulus (GPa) = 54.84639 88.32307 71.58473
# Shear Modulus (GPa) = 20.41328 36.40581 28.40955
#
# Velocity S-wave (km/s) = 2.89718 3.86905 3.41784
# Velocity P-wave (km/s) = 5.80892 7.50177 6.70896
#
# Compressibility (1/GPa) = 0.01823274
#
# Stress axis : x y z
#
# Youngs Moduli (GPa) = 58.56262 116.59784 57.80981
#
# Poissons Ratio (x) = 0.29522 0.35409
# Poissons Ratio (y) = 0.14828 0.21400
# Poissons Ratio (z) = 0.35870 0.43163
#
# Static dielectric constant tensor:
#      x y z
#    x 1.908650 0.000000 0.044660 
#    y 0.000000 1.906820 0.000000 
#    z 0.044660 0.000000 2.081010 
# 
# From -- ./inp_files/40470.got.cif
#   From: 2010.05.17/outbox.cif.g08.bks.cpg/sg12_21_cif.got.tgz:40470.got - 2010.06.03 13:09:07.
