data_PCOD9194493
_publ_section_title
;
Structure prediction by ZEFSAII (Michael W. Deem and Ramdas Pophale) SiO2 
 PCOD9194493
Probable space group: C 2/M
;
_chemical_formula_sum "Si O2"
_cell_formula_units_Z 64
_cell_length_a 22.173479
_cell_length_b 12.479583
_cell_length_c 22.548451
_cell_angle_alpha 90.000000
_cell_angle_beta 33.798495
_cell_angle_gamma 90.000000
_cell_volume 3470.876983
_symmetry_space_group_name_H-M "C 2/M"
_symmetry_group_IT_number 12
_symmetry_cell_setting 'monoclinic'
loop_
_space_group_symop_operation_xyz
x,y,z
-x,y,-z
-x,-y,-z
x,-y,z
1/2+x,1/2+y,z
1/2-x,1/2+y,-z
1/2-x,1/2-y,-z
1/2+x,1/2-y,z
loop_
_atom_site_type_symbol
_atom_site_label
_atom_site_fract_x
_atom_site_fract_y
_atom_site_fract_z
Si Si1 0.834541 0.299811 0.477467
Si Si2 0.625508 0.711013 0.150763
Si Si3 0.056638 0.621364 0.724955
Si Si4 0.520104 0.626111 0.916402
Si Si5 0.291329 0.621517 0.036640
Si Si6 0.794588 0.242407 0.311054
Si Si7 0.876532 0.875799 0.623539
Si Si8 0.509957 0.379222 0.352667
O O1 0.750000 0.250000 0.500000
O O2 0.903522 0.374222 0.376642
O O3 0.766454 0.334587 0.590943
O O4 0.915057 0.207330 0.435224
O O5 0.542875 0.796128 0.189022
O O6 0.686524 0.643815 0.050969
O O7 0.556613 0.634645 0.249014
O O8 0.706766 0.785810 0.122011
O O9 0.028193 0.500000 0.763393
O O10 0.148302 0.667430 0.694176
O O11 0.549319 0.500000 0.896172
O O12 0.405648 0.633878 0.976023
O O13 0.613466 0.685685 0.803305
O O14 0.500000 0.665674 0.000000
O O15 0.251603 0.500000 0.078747
O O16 0.706733 0.297542 0.340115
O O17 0.893381 0.859358 0.679893
O O18 0.000000 0.861176 0.500000
O O19 0.846007 0.000000 0.637600
O O20 0.469391 0.500000 0.396367
#
# Coordination Sequence:
#
# PCOD9194493 Si02
#       8
#     8   8   8   8   8   8   8   8
#     4   9  20  33  51  83 112 144 182 222 276 332
#     4  10  20  35  56  85 110 145 183 228 286 334
#     4  10  20  35  54  84 118 147 176 224 287 344
#     4  10  23  41  60  82 107 146 197 238 280 328
#     4  10  20  37  59  80 107 144 191 237 279 333
#     4  11  20  37  60  82 111 148 189 234 278 332
#     4  10  20  34  56  84 111 147 184 220 271 332
#     4  10  20  35  55  83 116 146 184 228 276 338
#
# _framework density 18.439143999999999
#
# number of rings (size 3 to 8) (size 9 to 14) (size 15 to 20)
#    0.000    2.000    2.500    1.125    1.750    2.500 
#    0.000    0.000    0.000    1.875    0.000    0.000 
#    0.000    0.000    0.000    0.000    0.000    0.000 
#
# Total GULP energy -178338.090991 kJ/mol
# GULP energy per Si atom -5573.065343 kJ/mol
# Density = 1.839718 g / cm^3
# Si number density = 18.439144 Si / 1000 Ang^3
#
#
#
# Elastic Constant Matrix: (Units=GPa)
#
#
# Indices 1 2 3 4 5 6 
#
# 1 75.8838 33.2049 12.5437 0.0000 -2.8031 0.0000
# 2 33.2049 57.4593 11.6035 0.0000 1.7518 0.0000
# 3 12.5437 11.6035 58.3658 0.0000 9.2790 0.0000
# 4 0.0000 0.0000 0.0000 6.3127 0.0000 -1.5487
# 5 -2.8031 1.7518 9.2790 0.0000 27.1992 0.0000
# 6 0.0000 0.0000 0.0000 -1.5487 0.0000 24.3251
#
#
#
# Elastic Compliance Matrix: (Units=1/GPa)
#
#
# Indices 1 2 3 4 5 6 
#
# 1 0.018112 -0.010080 -0.002420 0.000000 0.003341 0.000000
# 2 -0.010080 0.023741 -0.002268 0.000000 -0.001794 0.000000
# 3 -0.002420 -0.002268 0.019160 0.000000 -0.006640 0.000000
# 4 0.000000 0.000000 0.000000 0.160925 0.000000 0.010246
# 5 0.003341 -0.001794 -0.006640 0.000000 0.039491 0.000000
# 6 0.000000 0.000000 0.000000 0.010246 0.000000 0.041762
#
#
# Mechanical properties :
#
#
# Convention : Reuss Voigt Hill
#
# Bulk Modulus (GPa) = 31.76903 34.04591 32.90747
# Shear Modulus (GPa) = 14.56792 20.52452 17.54622
#
# Velocity S-wave (km/s) = 2.81384 3.33993 3.08811
# Velocity P-wave (km/s) = 5.27479 5.77733 5.53177
#
# Compressibility (1/GPa) = 0.03147719
#
# Stress axis : x y z
#
# Youngs Moduli (GPa) = 55.21129 42.12035 52.19219
#
# Poissons Ratio (x) = 0.42457 0.12630
# Poissons Ratio (y) = 0.55653 0.11839
# Poissons Ratio (z) = 0.13360 0.09555
#
# Static dielectric constant tensor:
#      x y z
#    x 1.642950 0.000000 0.016750 
#    y 0.000000 1.618860 0.000000 
#    z 0.016750 0.000000 1.670690 
# 
# From -- ./inp_files/321265.got.cif
#   From: 2010.05.17/outbox.cif.g08.bks.cpg/sg12_161_cif.got.tgz:321265.got - 2010.06.03 13:09:07.
