data_PCOD9194686
_publ_section_title
;
Structure prediction by ZEFSAII (Michael W. Deem and Ramdas Pophale) SiO2 
 PCOD9194686
Probable space group: C 2/M
;
_chemical_formula_sum "Si O2"
_cell_formula_units_Z 56
_cell_length_a 9.212271
_cell_length_b 14.234747
_cell_length_c 20.337726
_cell_angle_alpha 90.000000
_cell_angle_beta 89.728423
_cell_angle_gamma 90.000000
_cell_volume 2666.944459
_symmetry_space_group_name_H-M "C 2/M"
_symmetry_group_IT_number 12
_symmetry_cell_setting 'monoclinic'
loop_
_space_group_symop_operation_xyz
x,y,z
-x,y,-z
-x,-y,-z
x,-y,z
1/2+x,1/2+y,z
1/2-x,1/2+y,-z
1/2-x,1/2-y,-z
1/2+x,1/2-y,z
loop_
_atom_site_type_symbol
_atom_site_label
_atom_site_fract_x
_atom_site_fract_y
_atom_site_fract_z
Si Si1 0.650635 0.108221 0.478297
Si Si2 0.587813 0.228352 0.742721
Si Si3 0.914731 0.107182 0.568733
Si Si4 0.212041 0.611668 0.948809
Si Si5 0.622506 0.111671 0.092444
Si Si6 0.662001 0.290149 0.168566
Si Si7 0.348199 0.215141 0.650941
O O1 0.500000 0.152637 0.500000
O O2 0.751660 0.109545 0.541081
O O3 0.701442 0.161484 0.414002
O O4 0.628851 0.000000 0.459353
O O5 0.480755 0.295170 0.785703
O O6 0.694855 0.175344 0.792914
O O7 0.478534 0.172591 0.694660
O O8 0.708623 0.275523 0.696689
O O9 0.914627 0.185390 0.624873
O O10 0.000000 0.125973 0.500000
O O11 0.952803 0.000000 0.589032
O O12 0.229536 0.500000 0.944101
O O13 0.330090 0.659849 0.901846
O O14 0.047029 0.632105 0.924293
O O15 0.212897 0.635343 0.026109
O O16 0.671883 0.179216 0.150856
O O17 0.635040 0.000000 0.105032
#
# Coordination Sequence:
#
# PCOD9194686 Si02
#       7
#     8   8   8   8   8   8   8
#     4  10  20  34  57  84 104 130 175 227 282 335
#     4  10  24  35  55  77 110 152 202 212 264 333
#     4  10  20  34  57  84 106 134 175 227 289 338
#     4   9  18  34  60  89 112 142 186 233 287 344
#     4   9  18  34  60  89 112 142 186 233 287 343
#     4  11  19  40  55  81 114 154 183 240 271 325
#     4  11  20  39  53  76 111 148 177 232 265 327
#
# _framework density 20.997812
#
# number of rings (size 3 to 8) (size 9 to 14) (size 15 to 20)
#    0.000    2.000    1.429    3.857    0.000    0.000 
#    0.000    9.286    0.000    1.714    0.000    0.000 
#    0.000    0.000    0.000    0.000    0.000    0.000 
#
# Total GULP energy -156053.904427 kJ/mol
# GULP energy per Si atom -5573.353730 kJ/mol
# Density = 2.095002 g / cm^3
# Si number density = 20.997812 Si / 1000 Ang^3
#
#
#
# Elastic Constant Matrix: (Units=GPa)
#
#
# Indices 1 2 3 4 5 6 
#
# 1 68.8771 -4.8343 15.5426 0.0000 -14.2947 0.0000
# 2 -4.8343 59.2679 27.1524 0.0000 -6.8517 0.0000
# 3 15.5426 27.1524 92.6600 0.0000 -26.0452 0.0000
# 4 0.0000 0.0000 0.0000 -8.3508 0.0000 -2.7980
# 5 -14.2947 -6.8517 -26.0452 0.0000 44.1236 0.0000
# 6 0.0000 0.0000 0.0000 -2.7980 0.0000 10.3541
#
#
#
# Elastic Compliance Matrix: (Units=1/GPa)
#
#
# Indices 1 2 3 4 5 6 
#
# 1 0.016142 0.002888 -0.002347 0.000000 0.004292 0.000000
# 2 0.002888 0.020012 -0.006249 0.000000 0.000355 0.000000
# 3 -0.002347 -0.006249 0.015023 0.000000 0.007137 0.000000
# 4 0.000000 0.000000 0.000000 -0.109806 0.000000 -0.029673
# 5 0.004292 0.000355 0.007137 0.000000 0.028322 0.000000
# 6 0.000000 0.000000 0.000000 -0.029673 0.000000 0.088561
#
#
# Mechanical properties :
#
#
# Convention : Reuss Voigt Hill
#
# Bulk Modulus (GPa) = 25.15042 32.94738 29.04890
# Shear Modulus (GPa) = 60.29614 21.42165 40.85890
#
# Velocity S-wave (km/s) = 5.36449 3.19750 4.41598
# Velocity P-wave (km/s) = 7.09747 5.41820 6.31391
#
# Compressibility (1/GPa) = 0.03976077
#
# Stress axis : x y z
#
# Youngs Moduli (GPa) = 61.95064 49.97007 66.56407
#
# Poissons Ratio (x) = -0.14433 0.15626
# Poissons Ratio (y) = -0.17893 0.41596
# Poissons Ratio (z) = 0.14543 0.31226
#
# Static dielectric constant tensor:
#      x y z
#    x 1.809540 0.000000 0.015870 
#    y 0.000000 1.760580 0.000000 
#    z 0.015870 0.000000 1.650260 
# 
# From -- ./inp_files/300173.got.cif
#   From: 2010.05.17/outbox.cif.g08.bks.cpg/sg12_151_cif.got.tgz:300173.got - 2010.06.03 13:09:07.
