data_PCOD9194530
_publ_section_title
;
Structure prediction by ZEFSAII (Michael W. Deem and Ramdas Pophale) SiO2 
 PCOD9194530
Probable space group: C 2/M
;
_chemical_formula_sum "Si O2"
_cell_formula_units_Z 56
_cell_length_a 24.019277
_cell_length_b 20.567123
_cell_length_c 5.126662
_cell_angle_alpha 90.000000
_cell_angle_beta 117.089170
_cell_angle_gamma 90.000000
_cell_volume 2254.779076
_symmetry_space_group_name_H-M "C 2/M"
_symmetry_group_IT_number 12
_symmetry_cell_setting 'monoclinic'
loop_
_space_group_symop_operation_xyz
x,y,z
-x,y,-z
-x,-y,-z
x,-y,z
1/2+x,1/2+y,z
1/2-x,1/2+y,-z
1/2-x,1/2-y,-z
1/2+x,1/2-y,z
loop_
_atom_site_type_symbol
_atom_site_label
_atom_site_fract_x
_atom_site_fract_y
_atom_site_fract_z
Si Si1 0.324582 0.195399 0.869475
Si Si2 0.088732 0.778976 0.215236
Si Si3 0.566009 0.160454 0.503929
Si Si4 0.406321 0.500000 0.207764
Si Si5 0.337426 0.073461 0.517762
Si Si6 0.411974 0.359798 0.265874
Si Si7 0.676925 0.500000 0.471835
Si Si8 0.228106 0.116590 0.900925
O O1 0.340826 0.255704 0.717892
O O2 0.331141 0.128926 0.720173
O O3 0.258927 0.183648 0.868964
O O4 0.380419 0.193099 0.199735
O O5 0.060444 0.711670 0.256589
O O6 0.082340 0.831076 0.432353
O O7 0.062855 0.810584 0.896787
O O8 0.500000 0.152573 0.500000
O O9 0.597608 0.093080 0.483947
O O10 0.349591 0.500000 0.875267
O O11 0.438582 0.430569 0.250947
O O12 0.380978 0.500000 0.449545
O O13 0.337527 0.000000 0.615113
O O14 0.280173 0.083680 0.195329
O O15 0.336544 0.369427 0.088839
O O16 0.712711 0.565431 0.635692
#
# Coordination Sequence:
#
# PCOD9194530 Si02
#       8
#     8   8   8   4   8   8   4   8
#     4  10  23  39  58  93 124 170 216 264 320 379
#     4  11  23  43  61  94 127 163 217 263 315 386
#     4  10  23  47  68  88 122 164 220 281 337 388
#     4  10  22  38  58  94 121 169 210 248 294 362
#     4  10  22  38  60  95 132 171 224 269 317 370
#     4  11  23  39  63  92 133 169 215 250 309 377
#     4  10  20  34  56  84 123 174 230 235 290 360
#     4  10  22  34  57  89 131 181 210 260 300 376
#
# _framework density 24.836134000000001
#
# number of rings (size 3 to 8) (size 9 to 14) (size 15 to 20)
#    0.000    1.714    2.143    1.714    7.000    4.286 
#    0.000    0.714    0.000    0.000    0.000    3.000 
#    0.000    0.000    0.000    0.000    0.000    0.000 
#
# Total GULP energy -156605.336042 kJ/mol
# GULP energy per Si atom -5593.047716 kJ/mol
# Density = 2.477961 g / cm^3
# Si number density = 24.836134 Si / 1000 Ang^3
#
#
#
# Elastic Constant Matrix: (Units=GPa)
#
#
# Indices 1 2 3 4 5 6 
#
# 1 83.3921 21.1579 37.2071 0.0000 17.7122 0.0000
# 2 21.1579 127.2872 44.1442 0.0000 -2.4280 0.0000
# 3 37.2071 44.1442 95.3911 0.0000 -2.7702 0.0000
# 4 0.0000 0.0000 0.0000 32.6934 0.0000 -24.0533
# 5 17.7122 -2.4280 -2.7702 0.0000 40.1297 0.0000
# 6 0.0000 0.0000 0.0000 -24.0533 0.0000 15.2261
#
#
#
# Elastic Compliance Matrix: (Units=1/GPa)
#
#
# Indices 1 2 3 4 5 6 
#
# 1 0.016702 -0.000700 -0.006419 0.000000 -0.007857 0.000000
# 2 -0.000700 0.009390 -0.004055 0.000000 0.000597 0.000000
# 3 -0.006419 -0.004055 0.014969 0.000000 0.003621 0.000000
# 4 0.000000 0.000000 0.000000 -0.188512 0.000000 -0.297800
# 5 -0.007857 0.000597 0.003621 0.000000 0.028673 0.000000
# 6 0.000000 0.000000 0.000000 -0.297800 0.000000 -0.404772
#
#
# Mechanical properties :
#
#
# Convention : Reuss Voigt Hill
#
# Bulk Modulus (GPa) = 53.43921 56.78764 55.11343
# Shear Modulus (GPa) = -10.10175 31.18057 10.53941
#
# Velocity S-wave (km/s) = -2.01896 3.54708 2.06223
# Velocity P-wave (km/s) = 4.01603 6.30002 5.28293
#
# Compressibility (1/GPa) = 0.01871285
#
# Stress axis : x y z
#
# Youngs Moduli (GPa) = 59.87352 106.49202 66.80668
#
# Poissons Ratio (x) = 0.07455 0.42882
# Poissons Ratio (y) = 0.04191 0.27091
# Poissons Ratio (z) = 0.38431 0.43185
#
# Static dielectric constant tensor:
#      x y z
#    x 2.041880 0.000000 -0.006860 
#    y 0.000000 1.993010 0.000000 
#    z -0.006860 0.000000 1.984470 
# 
# From -- ./inp_files/29250.got.cif
#   From: 2010.05.17/outbox.cif.g08.bks.cpg/sg12_15_cif.got.tgz:29250.got - 2010.06.03 13:09:07.
