data_PCOD9194089
_publ_section_title
;
Structure prediction by ZEFSAII (Michael W. Deem and Ramdas Pophale) SiO2 
 PCOD9194089
Probable space group: C 2/M
;
_chemical_formula_sum "Si O2"
_cell_formula_units_Z 48
_cell_length_a 9.119848
_cell_length_b 10.088329
_cell_length_c 28.032598
_cell_angle_alpha 90.000000
_cell_angle_beta 65.842385
_cell_angle_gamma 90.000000
_cell_volume 2353.241306
_symmetry_space_group_name_H-M "C 2/M"
_symmetry_group_IT_number 12
_symmetry_cell_setting 'monoclinic'
loop_
_space_group_symop_operation_xyz
x,y,z
-x,y,-z
-x,-y,-z
x,-y,z
1/2+x,1/2+y,z
1/2-x,1/2+y,-z
1/2-x,1/2-y,-z
1/2+x,1/2-y,z
loop_
_atom_site_type_symbol
_atom_site_label
_atom_site_fract_x
_atom_site_fract_y
_atom_site_fract_z
Si Si1 0.711230 0.655990 0.388458
Si Si2 0.391417 0.651392 0.967687
Si Si3 0.868893 0.148605 0.142818
Si Si4 0.979997 0.253633 0.786683
Si Si5 0.340121 0.656233 0.449981
Si Si6 0.686672 0.352054 0.283341
O O1 0.769129 0.500000 0.382388
O O2 0.530855 0.654690 0.433374
O O3 0.810551 0.764155 0.404644
O O4 0.697979 0.701920 0.335260
O O5 0.337173 0.500000 0.962394
O O6 0.501321 0.710013 0.910306
O O7 0.500000 0.641701 0.000000
O O8 0.250000 0.750000 0.000000
O O9 0.942436 0.150783 0.186346
O O10 0.689918 0.205281 0.168095
O O11 0.851428 0.000000 0.127387
O O12 0.927407 0.214760 0.740321
O O13 0.130790 0.352185 0.761139
O O14 0.287591 0.500000 0.456570
O O15 0.250000 0.750000 0.500000
O O16 0.624690 0.500000 0.297409
#
# Coordination Sequence:
#
# PCOD9194089 Si02
#       6
#     8   8   8   8   8   8
#     4  10  22  39  58  83 115 148 184 229 278 329
#     4  10  21  37  56  80 111 146 185 231 281 333
#     4  10  20  35  54  78 109 142 180 227 276 327
#     4  10  20  34  55  81 107 140 182 222 272 329
#     4  11  23  39  60  86 115 149 189 232 279 330
#     4  10  20  36  56  79 109 143 180 223 272 326
#
# _framework density 20.397397999999999
#
# number of rings (size 3 to 8) (size 9 to 14) (size 15 to 20)
#    0.000    1.833    0.000    4.000    0.000    3.667 
#    0.000    8.333    0.000    0.000    0.000    0.000 
#    0.000    0.000    0.000    0.000    0.000    0.000 
#
# Total GULP energy -133674.605841 kJ/mol
# GULP energy per Si atom -5569.775243 kJ/mol
# Density = 2.035097 g / cm^3
# Si number density = 20.397398 Si / 1000 Ang^3
#
#
#
# Elastic Constant Matrix: (Units=GPa)
#
#
# Indices 1 2 3 4 5 6 
#
# 1 86.0380 27.0045 1.3050 0.0000 -2.7557 0.0000
# 2 27.0045 71.3247 6.3821 0.0000 1.1504 0.0000
# 3 1.3050 6.3821 74.6442 0.0000 -0.3448 0.0000
# 4 0.0000 0.0000 0.0000 23.2876 0.0000 1.7464
# 5 -2.7557 1.1504 -0.3448 0.0000 42.0823 0.0000
# 6 0.0000 0.0000 0.0000 1.7464 0.0000 9.0925
#
#
#
# Elastic Compliance Matrix: (Units=1/GPa)
#
#
# Indices 1 2 3 4 5 6 
#
# 1 0.013236 -0.005046 0.000205 0.000000 0.001006 0.000000
# 2 -0.005046 0.016059 -0.001288 0.000000 -0.000780 0.000000
# 3 0.000205 -0.001288 0.013504 0.000000 0.000159 0.000000
# 4 0.000000 0.000000 0.000000 0.043569 0.000000 -0.008368
# 5 0.001006 -0.000780 0.000159 0.000000 0.023851 0.000000
# 6 0.000000 0.000000 0.000000 -0.008368 0.000000 0.111588
#
#
# Mechanical properties :
#
#
# Convention : Reuss Voigt Hill
#
# Bulk Modulus (GPa) = 32.74448 33.48779 33.11614
# Shear Modulus (GPa) = 20.47119 28.04681 24.25900
#
# Velocity S-wave (km/s) = 3.17143 3.71215 3.45239
# Velocity P-wave (km/s) = 5.43127 5.90142 5.67122
#
# Compressibility (1/GPa) = 0.03053949
#
# Stress axis : x y z
#
# Youngs Moduli (GPa) = 75.55388 62.27176 74.05096
#
# Poissons Ratio (x) = 0.31421 -0.01516
# Poissons Ratio (y) = 0.38122 0.09541
# Poissons Ratio (z) = -0.01546 0.08023
#
# Static dielectric constant tensor:
#      x y z
#    x 1.713730 0.000000 -0.002900 
#    y 0.000000 1.756370 0.000000 
#    z -0.002900 0.000000 1.815080 
# 
# From -- ./inp_files/332226.got.cif
#   From: 2010.05.17/outbox.cif.g08.bks.cpg/sg12_167_cif.got.tgz:332226.got - 2010.06.03 13:09:07.
