data_PCOD9194835
_publ_section_title
;
Structure prediction by ZEFSAII (Michael W. Deem and Ramdas Pophale) SiO2 
 PCOD9194835
Probable space group: C 2/M
;
_chemical_formula_sum "Si O2"
_cell_formula_units_Z 64
_cell_length_a 18.461142
_cell_length_b 14.036765
_cell_length_c 16.482729
_cell_angle_alpha 90.000000
_cell_angle_beta 134.703416
_cell_angle_gamma 90.000000
_cell_volume 3035.821157
_symmetry_space_group_name_H-M "C 2/M"
_symmetry_group_IT_number 12
_symmetry_cell_setting 'monoclinic'
loop_
_space_group_symop_operation_xyz
x,y,z
-x,y,-z
-x,-y,-z
x,-y,z
1/2+x,1/2+y,z
1/2-x,1/2+y,-z
1/2-x,1/2-y,-z
1/2+x,1/2-y,z
loop_
_atom_site_type_symbol
_atom_site_label
_atom_site_fract_x
_atom_site_fract_y
_atom_site_fract_z
Si Si1 0.758457 0.891308 0.931217
Si Si2 0.316950 0.208328 0.712636
Si Si3 0.903017 0.392400 0.480265
Si Si4 0.311109 0.603724 0.785774
Si Si5 0.989967 0.392426 0.088232
Si Si6 0.101506 0.245954 0.865266
Si Si7 0.392095 0.269765 0.606804
Si Si8 0.610516 0.612220 0.548621
O O1 0.802664 0.893625 0.875500
O O2 0.666856 0.815636 0.859576
O O3 0.729156 0.000000 0.928172
O O4 0.837355 0.846368 0.057425
O O5 0.361371 0.298998 0.795895
O O6 0.398552 0.124534 0.785058
O O7 0.313384 0.244665 0.616971
O O8 0.207363 0.172288 0.657651
O O9 0.913821 0.500000 0.520924
O O10 0.800615 0.390780 0.344970
O O11 0.899023 0.317916 0.549629
O O12 0.000000 0.372808 0.500000
O O13 0.355546 0.500000 0.796981
O O14 0.954704 0.500000 0.077043
O O15 0.919633 0.312697 0.073164
O O16 0.000000 0.380885 0.000000
O O17 0.997612 0.221679 0.738971
O O18 0.384609 0.361929 0.543234
O O19 0.500000 0.638037 0.500000
O O20 0.625442 0.500000 0.573847
#
# Coordination Sequence:
#
# PCOD9194835 Si02
#       8
#     8   8   8   8   8   8   8   8
#     4  10  21  39  61  91 124 158 204 254 311 373
#     4  11  23  40  63  89 123 164 207 257 318 369
#     4  10  20  34  57  90 119 152 195 247 310 367
#     4  10  21  36  59  86 116 153 197 251 306 365
#     4  10  21  39  61  88 120 158 211 260 302 361
#     4  10  22  37  62  89 120 164 199 256 313 363
#     4  11  23  39  60  89 123 161 203 261 309 365
#     4  11  25  42  60  86 124 169 210 252 306 378
#
# _framework density 21.081610999999999
#
# number of rings (size 3 to 8) (size 9 to 14) (size 15 to 20)
#    0.000    1.625    1.250    3.000    1.750    5.000 
#    0.000    1.875    0.000    6.750    0.000    0.000 
#    0.000    0.000    0.000    0.000    0.000    0.000 
#
# Total GULP energy -178642.316654 kJ/mol
# GULP energy per Si atom -5582.572395 kJ/mol
# Density = 2.103363 g / cm^3
# Si number density = 21.081611 Si / 1000 Ang^3
#
#
#
# Elastic Constant Matrix: (Units=GPa)
#
#
# Indices 1 2 3 4 5 6 
#
# 1 53.6820 11.1330 -7.5623 0.0000 0.1832 0.0000
# 2 11.1330 88.5295 -1.4489 0.0000 -11.5342 0.0000
# 3 -7.5623 -1.4489 25.7286 0.0000 -4.3695 0.0000
# 4 0.0000 0.0000 0.0000 8.9377 0.0000 -0.3648
# 5 0.1832 -11.5342 -4.3695 0.0000 27.0894 0.0000
# 6 0.0000 0.0000 0.0000 -0.3648 0.0000 12.2252
#
#
#
# Elastic Compliance Matrix: (Units=1/GPa)
#
#
# Indices 1 2 3 4 5 6 
#
# 1 0.019937 -0.002448 0.005678 0.000000 -0.000261 0.000000
# 2 -0.002448 0.012323 0.000893 0.000000 0.005407 0.000000
# 3 0.005678 0.000893 0.041789 0.000000 0.007082 0.000000
# 4 0.000000 0.000000 0.000000 0.112022 0.000000 0.003343
# 5 -0.000261 0.005407 0.007082 0.000000 0.040361 0.000000
# 6 0.000000 0.000000 0.000000 0.003343 0.000000 0.081898
#
#
# Mechanical properties :
#
#
# Convention : Reuss Voigt Hill
#
# Bulk Modulus (GPa) = 12.15178 19.13154 15.64166
# Shear Modulus (GPa) = 15.26640 20.70501 17.98571
#
# Velocity S-wave (km/s) = 2.69394 3.13730 2.92404
# Velocity P-wave (km/s) = 3.93104 4.71363 4.34001
#
# Compressibility (1/GPa) = 0.08229244
#
# Stress axis : x y z
#
# Youngs Moduli (GPa) = 50.15887 81.15128 23.92965
#
# Poissons Ratio (x) = 0.19868 -0.13586
# Poissons Ratio (y) = 0.12280 -0.02136
# Poissons Ratio (z) = -0.28478 -0.07244
#
# Static dielectric constant tensor:
#      x y z
#    x 1.779810 0.000000 0.033050 
#    y 0.000000 1.757930 0.000000 
#    z 0.033050 0.000000 1.755630 
# 
# From -- ./inp_files/225749.got.cif
#   From: 2010.05.17/outbox.cif.g08.bks.cpg/sg12_113_cif.got.tgz:225749.got - 2010.06.03 13:09:07.
