data_PCOD9194727
_publ_section_title
;
Structure prediction by ZEFSAII (Michael W. Deem and Ramdas Pophale) SiO2 
 PCOD9194727
Probable space group: C 2/M
;
_chemical_formula_sum "Si O2"
_cell_formula_units_Z 48
_cell_length_a 20.394754
_cell_length_b 8.964873
_cell_length_c 21.412515
_cell_angle_alpha 90.000000
_cell_angle_beta 41.037383
_cell_angle_gamma 90.000000
_cell_volume 2570.389637
_symmetry_space_group_name_H-M "C 2/M"
_symmetry_group_IT_number 12
_symmetry_cell_setting 'monoclinic'
loop_
_space_group_symop_operation_xyz
x,y,z
-x,y,-z
-x,-y,-z
x,-y,z
1/2+x,1/2+y,z
1/2-x,1/2+y,-z
1/2-x,1/2-y,-z
1/2+x,1/2-y,z
loop_
_atom_site_type_symbol
_atom_site_label
_atom_site_fract_x
_atom_site_fract_y
_atom_site_fract_z
Si Si1 0.406056 0.322228 0.375249
Si Si2 0.521735 0.822226 0.098907
Si Si3 0.804286 0.177253 0.241336
Si Si4 0.302144 0.678144 0.099340
Si Si5 0.763460 0.822308 0.589507
Si Si6 0.597591 0.178746 0.183453
O O1 0.404846 0.500000 0.366758
O O2 0.331443 0.246820 0.378814
O O3 0.358623 0.290239 0.477236
O O4 0.515303 0.257732 0.285423
O O5 0.415439 0.742467 0.170339
O O6 0.570470 0.787022 0.131328
O O7 0.508388 0.000000 0.103950
O O8 0.598321 0.763521 0.992060
O O9 0.774891 0.206943 0.190917
O O10 0.735065 0.252802 0.343050
O O11 0.805956 0.000000 0.250006
O O12 0.319490 0.500000 0.080170
O O13 0.209261 0.722475 0.122498
O O14 0.750310 0.000000 0.602687
O O15 0.589501 0.000000 0.197467
#
# Coordination Sequence:
#
# PCOD9194727 Si02
#       6
#     8   8   8   8   8   8
#     4  10  20  34  57  86 112 143 183 227 277 331
#     4  11  22  36  58  85 110 145 191 236 280 326
#     4  11  22  37  58  83 112 149 190 230 275 329
#     4  10  23  40  56  79 114 153 190 228 274 331
#     4  10  20  35  56  84 114 143 182 230 277 328
#     4  10  21  38  58  82 114 149 186 230 277 328
#
# _framework density 18.674212000000001
#
# number of rings (size 3 to 8) (size 9 to 14) (size 15 to 20)
#    0.000    1.667    1.667    3.000    0.000    6.667 
#    0.000    0.833    0.000    5.000    0.000    0.000 
#    0.000    0.000    0.000    0.000    0.000    0.000 
#
# Total GULP energy -134109.691080 kJ/mol
# GULP energy per Si atom -5587.903795 kJ/mol
# Density = 1.863171 g / cm^3
# Si number density = 18.674212 Si / 1000 Ang^3
#
#
#
# Elastic Constant Matrix: (Units=GPa)
#
#
# Indices 1 2 3 4 5 6 
#
# 1 34.3471 9.4191 -13.5053 0.0000 9.7534 0.0000
# 2 9.4191 29.8175 21.2258 0.0000 11.0138 0.0000
# 3 -13.5053 21.2258 70.4356 0.0000 12.1557 0.0000
# 4 0.0000 0.0000 0.0000 37.4564 0.0000 2.1573
# 5 9.7534 11.0138 12.1557 0.0000 21.6438 0.0000
# 6 0.0000 0.0000 0.0000 2.1573 0.0000 23.0487
#
#
#
# Elastic Compliance Matrix: (Units=1/GPa)
#
#
# Indices 1 2 3 4 5 6 
#
# 1 0.048987 -0.021211 0.019635 0.000000 -0.022308 0.000000
# 2 -0.021211 0.057595 -0.019948 0.000000 -0.008546 0.000000
# 3 0.019635 -0.019948 0.026298 0.000000 -0.013466 0.000000
# 4 0.000000 0.000000 0.000000 0.026842 0.000000 -0.002512
# 5 -0.022308 -0.008546 -0.013466 0.000000 0.068167 0.000000
# 6 0.000000 0.000000 0.000000 -0.002512 0.000000 0.043621
#
#
# Mechanical properties :
#
#
# Convention : Reuss Voigt Hill
#
# Bulk Modulus (GPa) = 11.13225 18.76436 14.94831
# Shear Modulus (GPa) = 14.51362 24.26048 19.38705
#
# Velocity S-wave (km/s) = 2.79086 3.60827 3.22556
# Velocity P-wave (km/s) = 4.04468 5.23733 4.67916
#
# Compressibility (1/GPa) = 0.08982911
#
# Stress axis : x y z
#
# Youngs Moduli (GPa) = 20.41375 17.36258 38.02629
#
# Poissons Ratio (x) = 0.36828 -0.74663
# Poissons Ratio (y) = 0.43300 0.75857
# Poissons Ratio (z) = -0.40082 0.34636
#
# Static dielectric constant tensor:
#      x y z
#    x 1.633990 0.000000 0.024090 
#    y 0.000000 1.621700 0.000000 
#    z 0.024090 0.000000 1.638400 
# 
# From -- ./inp_files/229847.got.cif
#   From: 2010.05.17/outbox.cif.g08.bks.cpg/sg12_115_cif.got.tgz:229847.got - 2010.06.03 13:09:07.
