data_PCOD9194423
_publ_section_title
;
Structure prediction by ZEFSAII (Michael W. Deem and Ramdas Pophale) SiO2 
 PCOD9194423
Probable space group: C 2/M
;
_chemical_formula_sum "Si O2"
_cell_formula_units_Z 52
_cell_length_a 8.232480
_cell_length_b 19.799745
_cell_length_c 20.632680
_cell_angle_alpha 90.000000
_cell_angle_beta 53.311387
_cell_angle_gamma 90.000000
_cell_volume 2696.889206
_symmetry_space_group_name_H-M "C 2/M"
_symmetry_group_IT_number 12
_symmetry_cell_setting 'monoclinic'
loop_
_space_group_symop_operation_xyz
x,y,z
-x,y,-z
-x,-y,-z
x,-y,z
1/2+x,1/2+y,z
1/2-x,1/2+y,-z
1/2-x,1/2-y,-z
1/2+x,1/2-y,z
loop_
_atom_site_type_symbol
_atom_site_label
_atom_site_fract_x
_atom_site_fract_y
_atom_site_fract_z
Si Si1 0.830906 0.576740 0.338979
Si Si2 0.129181 0.162711 0.734077
Si Si3 0.332906 0.825319 0.905904
Si Si4 0.785105 0.076384 0.168577
Si Si5 0.000000 0.287919 0.000000
Si Si6 0.741810 0.306338 0.266853
Si Si7 0.456802 0.919234 0.582577
O O1 0.746988 0.500000 0.353136
O O2 0.719053 0.636044 0.327046
O O3 0.057099 0.574189 0.253297
O O4 0.869492 0.594222 0.405060
O O5 0.921016 0.181411 0.749839
O O6 0.099965 0.127581 0.810783
O O7 0.267393 0.229488 0.707009
O O8 0.251524 0.111354 0.659718
O O9 0.230786 0.890912 0.898468
O O10 0.533740 0.812104 0.816306
O O11 0.179006 0.762847 0.935132
O O12 0.406777 0.829189 0.962422
O O13 0.863617 0.000000 0.150450
O O14 0.500000 0.894339 0.500000
O O15 0.436547 0.000000 0.585484
#
# Coordination Sequence:
#
# PCOD9194423 Si02
#       7
#     8   8   8   8   4   8   8
#     4   8  16  32  53  76 103 135 174 217 259 311
#     4  11  20  32  53  80 106 135 179 223 260 311
#     4  10  20  35  55  79 107 138 174 217 266 318
#     4   9  18  34  54  75 102 138 177 217 262 307
#     4  10  20  34  56  82 106 138 176 214 264 328
#     4  11  21  34  55  81 107 136 175 225 269 304
#     4   9  18  35  56  77 107 145 177 211 264 322
#
# _framework density 19.281475
#
# number of rings (size 3 to 8) (size 9 to 14) (size 15 to 20)
#    0.000    2.308    0.000    6.000    0.000    2.462 
#    0.000    4.615    0.000    2.769    0.000    0.000 
#    0.000    0.000    0.000    0.000    0.000    0.000 
#
# Total GULP energy -145051.799042 kJ/mol
# GULP energy per Si atom -5578.915348 kJ/mol
# Density = 1.923759 g / cm^3
# Si number density = 19.281475 Si / 1000 Ang^3
#
#
#
# Elastic Constant Matrix: (Units=GPa)
#
#
# Indices 1 2 3 4 5 6 
#
# 1 125.5814 69.6446 30.9902 0.0000 32.3957 0.0000
# 2 69.6446 97.5515 22.5979 0.0000 36.7356 0.0000
# 3 30.9902 22.5979 50.4816 0.0000 29.1973 0.0000
# 4 0.0000 0.0000 0.0000 18.8261 0.0000 10.7836
# 5 32.3957 36.7356 29.1973 0.0000 30.4391 0.0000
# 6 0.0000 0.0000 0.0000 10.7836 0.0000 29.7454
#
#
#
# Elastic Compliance Matrix: (Units=1/GPa)
#
#
# Indices 1 2 3 4 5 6 
#
# 1 0.014099 -0.009326 -0.005192 0.000000 0.001230 0.000000
# 2 -0.009326 0.027857 0.015630 0.000000 -0.038686 0.000000
# 3 -0.005192 0.015630 0.053263 0.000000 -0.064428 0.000000
# 4 0.000000 0.000000 0.000000 0.067039 0.000000 -0.024304
# 5 0.001230 -0.038686 -0.064428 0.000000 0.140031 0.000000
# 6 0.000000 0.000000 0.000000 -0.024304 0.000000 0.042429
#
#
# Mechanical properties :
#
#
# Convention : Reuss Voigt Hill
#
# Bulk Modulus (GPa) = 10.26241 57.78665 34.02453
# Shear Modulus (GPa) = 13.33423 25.82756 19.58089
#
# Velocity S-wave (km/s) = 2.63260 3.66389 3.19019
# Velocity P-wave (km/s) = 3.81769 6.92343 5.59056
#
# Compressibility (1/GPa) = 0.09744301
#
# Stress axis : x y z
#
# Youngs Moduli (GPa) = 70.92744 35.89807 18.77471
#
# Poissons Ratio (x) = 0.33479 0.09748
# Poissons Ratio (y) = 0.66148 -0.29345
# Poissons Ratio (z) = 0.36825 -0.56110
#
# Static dielectric constant tensor:
#      x y z
#    x 1.686120 0.000000 0.015100 
#    y 0.000000 1.688020 0.000000 
#    z 0.015100 0.000000 1.685990 
# 
# From -- ./inp_files/301069.got.cif
#   From: 2010.05.17/outbox.cif.g08.bks.cpg/sg12_151_cif.got.tgz:301069.got - 2010.06.03 13:09:07.
