data_PCOD9194252
_publ_section_title
;
Structure prediction by ZEFSAII (Michael W. Deem and Ramdas Pophale) SiO2 
 PCOD9194252
Probable space group: C 2/M
;
_chemical_formula_sum "Si O2"
_cell_formula_units_Z 52
_cell_length_a 13.692162
_cell_length_b 9.756930
_cell_length_c 20.288691
_cell_angle_alpha 90.000000
_cell_angle_beta 108.388503
_cell_angle_gamma 90.000000
_cell_volume 2572.039851
_symmetry_space_group_name_H-M "C 2/M"
_symmetry_group_IT_number 12
_symmetry_cell_setting 'monoclinic'
loop_
_space_group_symop_operation_xyz
x,y,z
-x,y,-z
-x,-y,-z
x,-y,z
1/2+x,1/2+y,z
1/2-x,1/2+y,-z
1/2-x,1/2-y,-z
1/2+x,1/2-y,z
loop_
_atom_site_type_symbol
_atom_site_label
_atom_site_fract_x
_atom_site_fract_y
_atom_site_fract_z
Si Si1 0.157393 0.228296 0.548476
Si Si2 0.237195 0.159562 0.775903
Si Si3 0.906767 0.157080 0.028135
Si Si4 0.468552 0.661116 0.356344
Si Si5 0.732223 0.500000 0.476492
Si Si6 0.860315 0.342615 0.675359
Si Si7 0.298649 0.842692 0.105128
O O1 0.064162 0.222132 0.580019
O O2 0.188267 0.378630 0.531931
O O3 0.255434 0.168242 0.610897
O O4 0.154568 0.121341 0.488352
O O5 0.132493 0.173128 0.711734
O O6 0.328777 0.190166 0.743732
O O7 0.230775 0.260806 0.835595
O O8 0.246820 0.000000 0.798846
O O9 0.885873 0.259564 0.083770
O O10 0.925769 0.000000 0.054890
O O11 0.802734 0.155553 0.962594
O O12 0.000000 0.197756 0.000000
O O13 0.490681 0.500000 0.365512
O O14 0.558436 0.741636 0.338979
O O15 0.895841 0.500000 0.679299
O O16 0.328356 0.000000 0.124711
#
# Coordination Sequence:
#
# PCOD9194252 Si02
#       7
#     8   8   8   8   4   8   8
#     4  10  20  40  57  81 111 146 180 224 277 328
#     4   9  20  39  57  75 109 151 182 222 275 328
#     4   9  19  36  56  78 112 151 181 218 272 325
#     4  10  21  38  58  80 109 144 184 227 277 332
#     4  10  20  36  64  78 110 148 182 220 272 332
#     4  10  21  38  58  81 111 144 183 229 278 327
#     4  10  20  34  55  84 110 140 186 230 267 318
#
# _framework density 20.217417000000001
#
# number of rings (size 3 to 8) (size 9 to 14) (size 15 to 20)
#    0.000    2.308    1.538    1.385    2.154    3.385 
#    2.769    9.231    0.000    0.000    0.000    0.000 
#    0.000    0.000    0.000    0.000    0.000    0.000 
#
# Total GULP energy -144754.367215 kJ/mol
# GULP energy per Si atom -5567.475662 kJ/mol
# Density = 2.017140 g / cm^3
# Si number density = 20.217417 Si / 1000 Ang^3
#
#
#
# Elastic Constant Matrix: (Units=GPa)
#
#
# Indices 1 2 3 4 5 6 
#
# 1 100.7477 53.5329 25.7211 0.0000 -44.1535 0.0000
# 2 53.5329 144.0048 73.4269 0.0000 -35.1934 0.0000
# 3 25.7211 73.4269 80.4160 0.0000 -33.5504 0.0000
# 4 0.0000 0.0000 0.0000 42.5923 0.0000 -5.4043
# 5 -44.1535 -35.1934 -33.5504 0.0000 30.8252 0.0000
# 6 0.0000 0.0000 0.0000 -5.4043 0.0000 19.7568
#
#
#
# Elastic Compliance Matrix: (Units=1/GPa)
#
#
# Indices 1 2 3 4 5 6 
#
# 1 0.049215 -0.013644 0.035956 0.000000 0.094053 0.000000
# 2 -0.013644 0.016988 -0.020533 0.000000 -0.022496 0.000000
# 3 0.035956 -0.020533 0.057502 0.000000 0.090646 0.000000
# 4 0.000000 0.000000 0.000000 0.024323 0.000000 0.006653
# 5 0.094053 -0.022496 0.090646 0.000000 0.240137 0.000000
# 6 0.000000 0.000000 0.000000 0.006653 0.000000 0.052436
#
#
# Mechanical properties :
#
#
# Convention : Reuss Voigt Hill
#
# Bulk Modulus (GPa) = 7.85768 70.05893 38.95831
# Shear Modulus (GPa) = 10.42833 30.13403 20.28118
#
# Velocity S-wave (km/s) = 2.27361 3.86489 3.17070
# Velocity P-wave (km/s) = 3.28442 7.39219 5.71978
#
# Compressibility (1/GPa) = 0.12726399
#
# Stress axis : x y z
#
# Youngs Moduli (GPa) = 20.31887 58.86467 17.39076
#
# Poissons Ratio (x) = 0.80313 -0.62531
# Poissons Ratio (y) = 0.27722 0.35709
# Poissons Ratio (z) = -0.73059 1.20869
#
# Static dielectric constant tensor:
#      x y z
#    x 1.732950 0.000000 0.038470 
#    y 0.000000 1.671460 0.000000 
#    z 0.038470 0.000000 1.754520 
# 
# From -- ./inp_files/308456.got.cif
#   From: 2010.05.17/outbox.cif.g08.bks.cpg/sg12_155_cif.got.tgz:308456.got - 2010.06.03 13:09:07.
