data_PCOD9194299
_publ_section_title
;
Structure prediction by ZEFSAII (Michael W. Deem and Ramdas Pophale) SiO2 
 PCOD9194299
Probable space group: C 2/M
;
_chemical_formula_sum "Si O2"
_cell_formula_units_Z 64
_cell_length_a 14.872367
_cell_length_b 27.388475
_cell_length_c 13.224856
_cell_angle_alpha 90.000000
_cell_angle_beta 39.495839
_cell_angle_gamma 90.000000
_cell_volume 3426.187755
_symmetry_space_group_name_H-M "C 2/M"
_symmetry_group_IT_number 12
_symmetry_cell_setting 'monoclinic'
loop_
_space_group_symop_operation_xyz
x,y,z
-x,y,-z
-x,-y,-z
x,-y,z
1/2+x,1/2+y,z
1/2-x,1/2+y,-z
1/2-x,1/2-y,-z
1/2+x,1/2-y,z
loop_
_atom_site_type_symbol
_atom_site_label
_atom_site_fract_x
_atom_site_fract_y
_atom_site_fract_z
Si Si1 0.429443 0.815905 0.171162
Si Si2 0.934877 0.205306 0.168784
Si Si3 0.576677 0.558511 0.828497
Si Si4 0.089942 0.627678 0.202667
Si Si5 0.107468 0.123385 0.140053
Si Si6 0.605087 0.055513 0.503141
Si Si7 0.852614 0.821619 0.686246
Si Si8 0.649490 0.209728 0.315895
O O1 0.434742 0.760692 0.208900
O O2 0.516119 0.849741 0.169264
O O3 0.270280 0.833032 0.287624
O O4 0.500000 0.815040 0.000000
O O5 0.770636 0.193403 0.289824
O O6 0.028355 0.169302 0.154538
O O7 0.000000 0.205049 0.000000
O O8 0.569064 0.500000 0.837816
O O9 0.497132 0.579731 0.799664
O O10 0.741767 0.571991 0.671912
O O11 0.500000 0.576407 0.000000
O O12 0.131598 0.671122 0.242938
O O13 0.976726 0.591066 0.349833
O O14 0.242680 0.607678 0.037849
O O15 0.136883 0.142001 0.228106
O O16 0.500000 0.053306 0.500000
O O17 0.621607 0.000000 0.529332
O O18 0.817754 0.765236 0.749279
O O19 0.000000 0.821601 0.500000
O O20 0.500000 0.211985 0.500000
#
# Coordination Sequence:
#
# PCOD9194299 Si02
#       8
#     8   8   8   8   8   8   8   8
#     4  10  21  38  56  81 118 162 201 238 282 334
#     4  10  20  34  55  84 122 155 192 240 287 344
#     4  10  23  42  64  90 120 149 183 233 295 357
#     4  12  23  35  61  88 115 156 200 238 286 348
#     4  12  23  35  60  88 114 155 201 238 289 347
#     4  10  23  42  63  90 121 149 181 234 299 355
#     4  10  23  40  55  80 120 161 201 246 284 330
#     4  10  22  36  53  85 123 155 193 239 290 346
#
# _framework density 18.679652999999998
#
# number of rings (size 3 to 8) (size 9 to 14) (size 15 to 20)
#    0.000    1.500    2.500    2.250    5.250    2.500 
#    0.000    3.750    0.000    1.500    0.000    0.000 
#    0.000    0.000    0.000    0.000    0.000    0.000 
#
# Total GULP energy -178556.475654 kJ/mol
# GULP energy per Si atom -5579.889864 kJ/mol
# Density = 1.863714 g / cm^3
# Si number density = 18.679653 Si / 1000 Ang^3
#
#
#
# Elastic Constant Matrix: (Units=GPa)
#
#
# Indices 1 2 3 4 5 6 
#
# 1 87.7377 25.0128 31.0914 0.0000 -31.3492 0.0000
# 2 25.0128 52.9666 30.1591 0.0000 -2.4190 0.0000
# 3 31.0914 30.1591 86.3926 0.0000 -30.4403 0.0000
# 4 0.0000 0.0000 0.0000 38.0067 0.0000 1.7341
# 5 -31.3492 -2.4190 -30.4403 0.0000 38.9613 0.0000
# 6 0.0000 0.0000 0.0000 1.7341 0.0000 23.3437
#
#
#
# Elastic Compliance Matrix: (Units=1/GPa)
#
#
# Indices 1 2 3 4 5 6 
#
# 1 0.019326 -0.009692 0.002339 0.000000 0.016776 0.000000
# 2 -0.009692 0.029828 -0.012446 0.000000 -0.015671 0.000000
# 3 0.002339 -0.012446 0.021345 0.000000 0.017786 0.000000
# 4 0.000000 0.000000 0.000000 0.026401 0.000000 -0.001961
# 5 0.016776 -0.015671 0.017786 0.000000 0.052088 0.000000
# 6 0.000000 0.000000 0.000000 -0.001961 0.000000 0.042984
#
#
# Mechanical properties :
#
#
# Convention : Reuss Voigt Hill
#
# Bulk Modulus (GPa) = 32.36171 44.40263 38.38217
# Shear Modulus (GPa) = 20.67219 29.45126 25.06173
#
# Velocity S-wave (km/s) = 3.33027 3.97501 3.66684
# Velocity P-wave (km/s) = 5.67008 6.69999 6.20643
#
# Compressibility (1/GPa) = 0.03090072
#
# Stress axis : x y z
#
# Youngs Moduli (GPa) = 51.74394 33.52535 46.84918
#
# Poissons Ratio (x) = 0.32494 -0.10960
# Poissons Ratio (y) = 0.50152 0.58310
# Poissons Ratio (z) = -0.12105 0.41727
#
# Static dielectric constant tensor:
#      x y z
#    x 1.644990 0.000000 -0.039980 
#    y 0.000000 1.678650 0.000000 
#    z -0.039980 0.000000 1.685890 
# 
# From -- ./inp_files/149723.got.cif
#   From: 2010.05.17/outbox.cif.g08.bks.cpg/sg12_75_cif.got.tgz:149723.got - 2010.06.03 13:09:07.
