data_PCOD9194492
_publ_section_title
;
Structure prediction by ZEFSAII (Michael W. Deem and Ramdas Pophale) SiO2 
 PCOD9194492
Probable space group: C 2/M
;
_chemical_formula_sum "Si O2"
_cell_formula_units_Z 56
_cell_length_a 21.879289
_cell_length_b 8.292295
_cell_length_c 15.822159
_cell_angle_alpha 90.000000
_cell_angle_beta 86.477635
_cell_angle_gamma 90.000000
_cell_volume 2865.183809
_symmetry_space_group_name_H-M "C 2/M"
_symmetry_group_IT_number 12
_symmetry_cell_setting 'monoclinic'
loop_
_space_group_symop_operation_xyz
x,y,z
-x,y,-z
-x,-y,-z
x,-y,z
1/2+x,1/2+y,z
1/2-x,1/2+y,-z
1/2-x,1/2-y,-z
1/2+x,1/2-y,z
loop_
_atom_site_type_symbol
_atom_site_label
_atom_site_fract_x
_atom_site_fract_y
_atom_site_fract_z
Si Si1 0.297837 0.310926 0.872551
Si Si2 0.996192 0.189510 0.728802
Si Si3 0.555483 0.806854 0.556131
Si Si4 0.363171 0.188156 0.704780
Si Si5 0.169278 0.194045 0.940581
Si Si6 0.031916 0.803607 0.910843
Si Si7 0.684862 0.194119 0.470678
O O1 0.309886 0.500000 0.857245
O O2 0.325149 0.213212 0.792982
O O3 0.225899 0.278998 0.890649
O O4 0.327832 0.265116 0.959994
O O5 0.926472 0.217550 0.707288
O O6 0.038657 0.267790 0.653879
O O7 0.004574 0.252685 0.823931
O O8 0.009980 0.000000 0.728983
O O9 0.500000 0.745790 0.500000
O O10 0.623042 0.747272 0.523674
O O11 0.556460 0.000000 0.545509
O O12 0.324924 0.240820 0.626315
O O13 0.378998 0.000000 0.691828
O O14 0.103568 0.236092 0.909222
O O15 0.177926 0.000000 0.933985
O O16 0.026427 0.000000 0.912489
O O17 0.000000 0.745599 0.000000
O O18 0.750000 0.250000 0.500000
O O19 0.685036 0.000000 0.475571
#
# Coordination Sequence:
#
# PCOD9194492 Si02
#       7
#     8   8   8   8   8   8   8
#     4  10  20  34  56  84 111 145 194 243 283 335
#     4  11  22  35  59  92 115 144 197 250 288 336
#     4  10  20  41  64  82 115 158 196 234 293 363
#     4  11  22  39  59  81 113 153 191 229 290 360
#     4   9  18  35  56  78 112 155 191 231 289 348
#     4   9  18  34  55  80 115 153 188 231 286 343
#     4  10  23  41  62  86 115 153 192 239 295 355
#
# _framework density 19.544993000000002
#
# number of rings (size 3 to 8) (size 9 to 14) (size 15 to 20)
#    0.000    2.000    1.429    2.143    0.000    6.000 
#    0.000    5.714    0.000    3.000    0.000    0.000 
#    0.000    0.000    0.000    0.000    0.000    0.000 
#
# Total GULP energy -156332.431015 kJ/mol
# GULP energy per Si atom -5583.301108 kJ/mol
# Density = 1.950051 g / cm^3
# Si number density = 19.544993 Si / 1000 Ang^3
#
#
#
# Elastic Constant Matrix: (Units=GPa)
#
#
# Indices 1 2 3 4 5 6 
#
# 1 112.7175 11.1063 58.9936 0.0000 13.4508 0.0000
# 2 11.1063 6.7846 9.4976 0.0000 -0.0867 0.0000
# 3 58.9936 9.4976 100.3027 0.0000 -6.4185 0.0000
# 4 0.0000 0.0000 0.0000 26.2972 0.0000 -3.3638
# 5 13.4508 -0.0867 -6.4185 0.0000 27.5973 0.0000
# 6 0.0000 0.0000 0.0000 -3.3638 0.0000 26.4308
#
#
#
# Elastic Compliance Matrix: (Units=1/GPa)
#
#
# Indices 1 2 3 4 5 6 
#
# 1 0.015995 -0.014129 -0.008701 0.000000 -0.009864 0.000000
# 2 -0.014129 0.182684 -0.008640 0.000000 0.005451 0.000000
# 3 -0.008701 -0.008640 0.016419 0.000000 0.008032 0.000000
# 4 0.000000 0.000000 0.000000 0.038656 0.000000 0.004920
# 5 -0.009864 0.005451 0.008032 0.000000 0.042928 0.000000
# 6 0.000000 0.000000 0.000000 0.004920 0.000000 0.038461
#
#
# Mechanical properties :
#
#
# Convention : Reuss Voigt Hill
#
# Bulk Modulus (GPa) = 6.57204 42.11110 24.34157
# Shear Modulus (GPa) = 11.14078 25.41222 18.27650
#
# Velocity S-wave (km/s) = 2.39007 3.60973 3.06126
# Velocity P-wave (km/s) = 3.31458 6.24228 4.99762
#
# Compressibility (1/GPa) = 0.15215978
#
# Stress axis : x y z
#
# Youngs Moduli (GPa) = 62.52085 5.47393 60.90415
#
# Poissons Ratio (x) = 0.07734 0.52991
# Poissons Ratio (y) = 0.88335 0.52618
# Poissons Ratio (z) = 0.54397 0.04729
#
# Static dielectric constant tensor:
#      x y z
#    x 1.658850 0.000000 0.002110 
#    y 0.000000 1.688370 0.000000 
#    z 0.002110 0.000000 1.679210 
# 
# From -- ./inp_files/230967.got.cif
#   From: 2010.05.17/outbox.cif.g08.bks.cpg/sg12_116_cif.got.tgz:230967.got - 2010.06.03 13:09:07.
