data_PCOD9194859
_publ_section_title
;
Structure prediction by ZEFSAII (Michael W. Deem and Ramdas Pophale) SiO2 
 PCOD9194859
Probable space group: C 2/M
;
_chemical_formula_sum "Si O2"
_cell_formula_units_Z 64
_cell_length_a 25.573348
_cell_length_b 17.003403
_cell_length_c 15.311497
_cell_angle_alpha 90.000000
_cell_angle_beta 151.221674
_cell_angle_gamma 90.000000
_cell_volume 3205.288731
_symmetry_space_group_name_H-M "C 2/M"
_symmetry_group_IT_number 12
_symmetry_cell_setting 'monoclinic'
loop_
_space_group_symop_operation_xyz
x,y,z
-x,y,-z
-x,-y,-z
x,-y,z
1/2+x,1/2+y,z
1/2-x,1/2+y,-z
1/2-x,1/2-y,-z
1/2+x,1/2-y,z
loop_
_atom_site_type_symbol
_atom_site_label
_atom_site_fract_x
_atom_site_fract_y
_atom_site_fract_z
Si Si1 0.376431 0.912258 0.854359
Si Si2 0.657271 0.409605 0.436299
Si Si3 0.082733 0.243624 0.039479
Si Si4 0.764880 0.587766 0.135718
Si Si5 0.044265 0.171514 0.800098
Si Si6 0.435918 0.792802 0.315322
Si Si7 0.316694 0.407902 0.724286
Si Si8 0.899016 0.585990 0.513663
O O1 0.283972 0.903360 0.644943
O O2 0.363085 0.830239 0.886551
O O3 0.357716 0.000000 0.867372
O O4 0.500000 0.914444 0.000000
O O5 0.626420 0.500000 0.402277
O O6 0.577855 0.360936 0.381758
O O7 0.638996 0.391218 0.307545
O O8 0.147330 0.164336 0.162200
O O9 0.042618 0.226459 0.883472
O O10 0.000000 0.250519 0.000000
O O11 0.782242 0.500000 0.124538
O O12 0.828782 0.656658 0.179105
O O13 0.821953 0.587025 0.314655
O O14 0.637594 0.606833 0.954013
O O15 0.078859 0.215489 0.762933
O O16 0.500000 0.778844 0.500000
O O17 0.513925 0.847448 0.370880
O O18 0.345743 0.500000 0.790589
O O19 0.185738 0.405651 0.532043
O O20 0.951299 0.500000 0.593797
#
# Coordination Sequence:
#
# PCOD9194859 Si02
#       8
#     8   8   8   8   8   8   8   8
#     4   9  21  41  58  76 117 174 220 249 277 333
#     4  10  22  38  60  91 126 165 204 245 301 370
#     4  11  22  37  57  93 129 168 201 241 302 371
#     4  10  20  38  61  84 116 152 197 256 319 373
#     4  12  23  36  61  94 123 159 199 253 315 373
#     4  10  23  40  59  83 114 156 207 264 305 355
#     4  10  20  34  57  93 133 161 193 246 304 373
#     4   9  18  34  58  85 115 156 197 244 309 365
#
# _framework density 19.966999999999999
#
# number of rings (size 3 to 8) (size 9 to 14) (size 15 to 20)
#    0.000    1.875    2.500    1.125    1.750    4.750 
#    0.000    2.500    0.000    3.000    0.000    0.000 
#    0.000    0.000    0.000    0.000    0.000    0.000 
#
# Total GULP energy -178216.812715 kJ/mol
# GULP energy per Si atom -5569.275397 kJ/mol
# Density = 1.992155 g / cm^3
# Si number density = 19.967000 Si / 1000 Ang^3
#
#
#
# Elastic Constant Matrix: (Units=GPa)
#
#
# Indices 1 2 3 4 5 6 
#
# 1 62.8378 24.7185 10.6182 0.0000 3.1592 0.0000
# 2 24.7185 99.4361 29.4047 0.0000 -5.6407 0.0000
# 3 10.6182 29.4047 62.9596 0.0000 8.8594 0.0000
# 4 0.0000 0.0000 0.0000 23.8930 0.0000 7.0409
# 5 3.1592 -5.6407 8.8594 0.0000 17.2669 0.0000
# 6 0.0000 0.0000 0.0000 7.0409 0.0000 23.2163
#
#
#
# Elastic Compliance Matrix: (Units=1/GPa)
#
#
# Indices 1 2 3 4 5 6 
#
# 1 0.018031 -0.004698 -0.000179 0.000000 -0.004742 0.000000
# 2 -0.004698 0.013766 -0.006888 0.000000 0.008891 0.000000
# 3 -0.000179 -0.006888 0.020955 0.000000 -0.012969 0.000000
# 4 0.000000 0.000000 0.000000 0.045961 0.000000 -0.013939
# 5 -0.004742 0.008891 -0.012969 0.000000 0.068340 0.000000
# 6 0.000000 0.000000 0.000000 -0.013939 0.000000 0.047300
#
#
# Mechanical properties :
#
#
# Convention : Reuss Voigt Hill
#
# Bulk Modulus (GPa) = 34.22196 39.41289 36.81743
# Shear Modulus (GPa) = 20.19183 23.57472 21.88328
#
# Velocity S-wave (km/s) = 3.18348 3.43984 3.31414
# Velocity P-wave (km/s) = 5.53978 5.96309 5.75533
#
# Compressibility (1/GPa) = 0.02922100
#
# Stress axis : x y z
#
# Youngs Moduli (GPa) = 55.46062 72.64392 47.72052
#
# Poissons Ratio (x) = 0.34129 0.00856
# Poissons Ratio (y) = 0.26056 0.32869
# Poissons Ratio (z) = 0.00995 0.50036
#
# Static dielectric constant tensor:
#      x y z
#    x 1.701510 0.000000 0.014100 
#    y 0.000000 1.756130 0.000000 
#    z 0.014100 0.000000 1.710320 
# 
# From -- ./inp_files/241509.got.cif
#   From: 2010.05.17/outbox.cif.g08.bks.cpg/sg12_121_cif.got.tgz:241509.got - 2010.06.03 13:09:07.
