data_PCOD9194481
_publ_section_title
;
Structure prediction by ZEFSAII (Michael W. Deem and Ramdas Pophale) SiO2 
 PCOD9194481
Probable space group: C 2/M
;
_chemical_formula_sum "Si O2"
_cell_formula_units_Z 36
_cell_length_a 9.474668
_cell_length_b 9.591723
_cell_length_c 19.706503
_cell_angle_alpha 90.000000
_cell_angle_beta 97.428626
_cell_angle_gamma 90.000000
_cell_volume 1775.863745
_symmetry_space_group_name_H-M "C 2/M"
_symmetry_group_IT_number 12
_symmetry_cell_setting 'monoclinic'
loop_
_space_group_symop_operation_xyz
x,y,z
-x,y,-z
-x,-y,-z
x,-y,z
1/2+x,1/2+y,z
1/2-x,1/2+y,-z
1/2-x,1/2-y,-z
1/2+x,1/2-y,z
loop_
_atom_site_type_symbol
_atom_site_label
_atom_site_fract_x
_atom_site_fract_y
_atom_site_fract_z
Si Si1 0.370645 0.660620 0.044764
Si Si2 0.286914 0.655358 0.596120
Si Si3 0.000000 0.712592 0.500000
Si Si4 0.750210 0.834786 0.745767
Si Si5 0.494277 0.164013 0.824940
O O1 0.327900 0.500000 0.058884
O O2 0.424961 0.748879 0.112285
O O3 0.500000 0.651555 0.000000
O O4 0.250000 0.750000 0.000000
O O5 0.336530 0.500000 0.612261
O O6 0.405075 0.715923 0.553044
O O7 0.267368 0.718651 0.669664
O O8 0.132081 0.648894 0.550534
O O9 0.589722 0.826546 0.762803
O O10 0.847458 0.740956 0.800010
O O11 0.789743 0.000000 0.753783
O O12 0.479785 0.000000 0.841607
#
# Coordination Sequence:
#
# PCOD9194481 Si02
#       5
#     8   8   4   8   8
#     4  11  24  41  62  89 120 154 192 236 286 340
#     4  10  20  36  56  80 112 148 187 234 286 339
#     4  10  20  34  56  84 110 144 190 234 284 342
#     4  10  22  39  58  83 117 153 191 238 289 342
#     4  11  23  39  60  87 116 151 195 238 285 342
#
# _framework density 20.271825
#
# number of rings (size 3 to 8) (size 9 to 14) (size 15 to 20)
#    0.000    1.556    0.000    4.667    0.000    8.889 
#    0.000    5.556    0.000    0.000    0.000    0.000 
#    0.000    0.000    0.000    0.000    0.000    0.000 
#
# Total GULP energy -100303.007169 kJ/mol
# GULP energy per Si atom -5572.389287 kJ/mol
# Density = 2.022569 g / cm^3
# Si number density = 20.271825 Si / 1000 Ang^3
#
#
#
# Elastic Constant Matrix: (Units=GPa)
#
#
# Indices 1 2 3 4 5 6 
#
# 1 93.9671 32.4520 4.7435 0.0000 -8.9904 0.0000
# 2 32.4520 96.5369 18.0804 0.0000 -1.8600 0.0000
# 3 4.7435 18.0804 82.1837 0.0000 -8.1500 0.0000
# 4 0.0000 0.0000 0.0000 26.4676 0.0000 1.2168
# 5 -8.9904 -1.8600 -8.1500 0.0000 35.9605 0.0000
# 6 0.0000 0.0000 0.0000 1.2168 0.0000 16.3863
#
#
#
# Elastic Compliance Matrix: (Units=1/GPa)
#
#
# Indices 1 2 3 4 5 6 
#
# 1 0.012349 -0.004188 0.000505 0.000000 0.002985 0.000000
# 2 -0.004188 0.012224 -0.002546 0.000000 -0.000992 0.000000
# 3 0.000505 -0.002546 0.012990 0.000000 0.002939 0.000000
# 4 0.000000 0.000000 0.000000 0.037911 0.000000 -0.002815
# 5 0.002985 -0.000992 0.002939 0.000000 0.029169 0.000000
# 6 0.000000 0.000000 0.000000 -0.002815 0.000000 0.061236
#
#
# Mechanical properties :
#
#
# Convention : Reuss Voigt Hill
#
# Bulk Modulus (GPa) = 39.83387 42.58219 41.20803
# Shear Modulus (GPa) = 26.78002 30.25701 28.51852
#
# Velocity S-wave (km/s) = 3.63856 3.86756 3.75481
# Velocity P-wave (km/s) = 6.11103 6.40275 6.25859
#
# Compressibility (1/GPa) = 0.02510426
#
# Stress axis : x y z
#
# Youngs Moduli (GPa) = 80.98140 81.80399 76.98079
#
# Poissons Ratio (x) = 0.34260 -0.03885
# Poissons Ratio (y) = 0.33916 0.19599
# Poissons Ratio (z) = -0.04087 0.20827
#
# Static dielectric constant tensor:
#      x y z
#    x 1.695430 0.000000 -0.036840 
#    y 0.000000 1.713620 0.000000 
#    z -0.036840 0.000000 1.781660 
# 
# From -- ./inp_files/298729.got.cif
#   From: 2010.05.17/outbox.cif.g08.bks.cpg/sg12_150_cif.got.tgz:298729.got - 2010.06.03 13:09:07.
