data_PCOD9194584
_publ_section_title
;
Structure prediction by ZEFSAII (Michael W. Deem and Ramdas Pophale) SiO2 
 PCOD9194584
Probable space group: C 2/M
;
_chemical_formula_sum "Si O2"
_cell_formula_units_Z 64
_cell_length_a 30.237879
_cell_length_b 7.562709
_cell_length_c 16.517040
_cell_angle_alpha 90.000000
_cell_angle_beta 48.443298
_cell_angle_gamma 90.000000
_cell_volume 2826.418382
_symmetry_space_group_name_H-M "C 2/M"
_symmetry_group_IT_number 12
_symmetry_cell_setting 'monoclinic'
loop_
_space_group_symop_operation_xyz
x,y,z
-x,y,-z
-x,-y,-z
x,-y,z
1/2+x,1/2+y,z
1/2-x,1/2+y,-z
1/2-x,1/2-y,-z
1/2+x,1/2-y,z
loop_
_atom_site_type_symbol
_atom_site_label
_atom_site_fract_x
_atom_site_fract_y
_atom_site_fract_z
Si Si1 0.048397 0.283927 0.375102
Si Si2 0.777318 0.789450 0.054236
Si Si3 0.621574 0.290042 0.658586
Si Si4 0.896895 0.703829 0.986271
Si Si5 0.327520 0.785894 0.701804
Si Si6 0.006061 0.286740 0.250927
Si Si7 0.658456 0.205284 0.783815
Si Si8 0.714646 0.707261 0.420122
O O1 0.048834 0.500000 0.373610
O O2 0.113457 0.227320 0.323926
O O3 0.029812 0.223137 0.308622
O O4 0.000000 0.229773 0.500000
O O5 0.841273 0.707928 0.992672
O O6 0.730805 0.727213 0.178830
O O7 0.783757 0.000000 0.054301
O O8 0.750000 0.750000 0.000000
O O9 0.628225 0.500000 0.658803
O O10 0.561966 0.255118 0.681920
O O11 0.619074 0.212914 0.751485
O O12 0.677997 0.218033 0.540044
O O13 0.912577 0.500000 0.985632
O O14 0.872907 0.784612 0.099252
O O15 0.952778 0.782546 0.871870
O O16 0.324445 0.723808 0.613336
O O17 0.327366 0.000000 0.701252
O O18 0.011865 0.500000 0.244913
O O19 0.721633 0.285672 0.680793
O O20 0.670729 0.000000 0.789953
O O21 0.723844 0.500000 0.426720
#
# Coordination Sequence:
#
# PCOD9194584 Si02
#       8
#     8   8   8   8   8   8   8   8
#     4   9  17  31  53  81 112 147 189 234 276 326
#     4  11  22  35  55  84 118 156 196 239 289 345
#     4  11  24  39  58  86 118 151 193 244 296 354
#     4  10  21  39  62  85 114 151 197 248 292 348
#     4  10  20  34  56  86 115 148 193 240 287 342
#     4  10  21  39  61  83 113 155 199 242 289 347
#     4  10  21  39  62  85 113 151 195 243 297 354
#     4  10  21  38  59  86 119 152 189 239 297 353
#
# _framework density 22.643498999999998
#
# number of rings (size 3 to 8) (size 9 to 14) (size 15 to 20)
#    0.000    1.875    1.250    2.625    0.000    6.500 
#    0.000    3.125    0.000    2.250    0.000    0.000 
#    0.000    0.000    0.000    0.000    0.000    0.000 
#
# Total GULP energy -178909.234202 kJ/mol
# GULP energy per Si atom -5590.913569 kJ/mol
# Density = 2.259196 g / cm^3
# Si number density = 22.643499 Si / 1000 Ang^3
#
#
#
# Elastic Constant Matrix: (Units=GPa)
#
#
# Indices 1 2 3 4 5 6 
#
# 1 67.1766 -8.5319 7.4878 -0.0002 8.1602 0.0000
# 2 -8.5319 60.0466 11.9134 0.0007 -4.3999 -0.0003
# 3 7.4878 11.9134 127.3673 -0.0002 5.1524 0.0000
# 4 -0.0002 0.0007 -0.0002 1.8136 0.0000 2.9634
# 5 8.1602 -4.3999 5.1524 0.0000 41.9904 0.0000
# 6 0.0000 -0.0003 0.0000 2.9634 0.0000 21.2211
#
#
#
# Elastic Compliance Matrix: (Units=1/GPa)
#
#
# Indices 1 2 3 4 5 6 
#
# 1 0.015607 0.002223 -0.001017 0.000001 -0.002675 0.000000
# 2 0.002223 0.017451 -0.001829 -0.000010 0.001621 0.000002
# 3 -0.001017 -0.001829 0.008122 0.000002 -0.000991 0.000000
# 4 0.000001 -0.000010 0.000002 0.714394 -0.000001 -0.099762
# 5 -0.002675 0.001621 -0.000991 -0.000001 0.024626 0.000000
# 6 0.000000 0.000002 0.000000 -0.099762 0.000000 0.061054
#
#
# Mechanical properties :
#
#
# Convention : Reuss Voigt Hill
#
# Bulk Modulus (GPa) = 25.04050 30.70324 27.87187
# Shear Modulus (GPa) = 5.84241 29.25310 17.54775
#
# Velocity S-wave (km/s) = 1.60803 3.59820 2.78683
# Velocity P-wave (km/s) = 3.81186 5.55442 4.76350
#
# Compressibility (1/GPa) = 0.03993531
#
# Stress axis : x y z
#
# Youngs Moduli (GPa) = 64.07434 57.30255 123.11894
#
# Poissons Ratio (x) = -0.12740 0.12524
# Poissons Ratio (y) = -0.14246 0.22514
# Poissons Ratio (z) = 0.06518 0.10478
#
# Static dielectric constant tensor:
#      x y z
#    x 1.795150 0.000000 -0.003270 
#    y 0.000000 1.877170 0.000000 
#    z -0.003270 0.000000 1.851580 
# 
# From -- ./inp_files/249882.got.cif
#   From: 2010.05.17/outbox.cif.g08.bks.cpg/sg12_125_cif.got.tgz:249882.got - 2010.06.03 13:09:07.
