data_PCOD9194035
_publ_section_title
;
Structure prediction by ZEFSAII (Michael W. Deem and Ramdas Pophale) SiO2 
 PCOD9194035
Probable space group: C 2/M
;
_chemical_formula_sum "Si O2"
_cell_formula_units_Z 44
_cell_length_a 26.942753
_cell_length_b 7.871685
_cell_length_c 27.837101
_cell_angle_alpha 90.000000
_cell_angle_beta 22.659244
_cell_angle_gamma 90.000000
_cell_volume 2274.448000
_symmetry_space_group_name_H-M "C 2/M"
_symmetry_group_IT_number 12
_symmetry_cell_setting 'monoclinic'
loop_
_space_group_symop_operation_xyz
x,y,z
-x,y,-z
-x,-y,-z
x,-y,z
1/2+x,1/2+y,z
1/2-x,1/2+y,-z
1/2-x,1/2-y,-z
1/2+x,1/2-y,z
loop_
_atom_site_type_symbol
_atom_site_label
_atom_site_fract_x
_atom_site_fract_y
_atom_site_fract_z
Si Si1 0.703721 0.305882 0.394856
Si Si2 0.771563 0.000000 0.206616
Si Si3 0.410406 0.308577 0.641048
Si Si4 0.861140 0.190763 0.800462
Si Si5 0.143510 0.702569 0.556205
Si Si6 0.320036 0.500000 0.048667
Si Si7 0.613861 0.500000 0.798824
O O1 0.740880 0.500000 0.350601
O O2 0.561791 0.272316 0.499136
O O3 0.681103 0.288182 0.472220
O O4 0.806703 0.165918 0.288019
O O5 0.683443 0.834782 0.294446
O O6 0.806434 0.000000 0.119214
O O7 0.884779 0.000000 0.144282
O O8 0.382385 0.500000 0.649182
O O9 0.387370 0.307549 0.719402
O O10 0.754522 0.334266 0.904096
O O11 0.000092 0.236799 0.698432
O O12 0.822028 0.000000 0.848984
O O13 0.138784 0.500000 0.552932
O O14 0.250000 0.750000 0.500000
O O15 0.471632 0.500000 0.904145
#
# Coordination Sequence:
#
# PCOD9194035 Si02
#       7
#     8   4   8   8   8   4   4
#     4  10  21  37  53  80 117 148 180 223 286 346
#     4  10  20  34  55  79 104 142 200 245 273 316
#     4   8  16  31  53  77 109 140 174 230 290 337
#     4   9  17  33  55  82 110 140 182 228 278 327
#     4  11  19  33  60  95 117 135 169 224 281 337
#     4  10  21  38  56  74 108 156 200 234 266 318
#     4  12  24  36  53  77 110 156 198 233 273 320
#
# _framework density 19.345352999999999
#
# number of rings (size 3 to 8) (size 9 to 14) (size 15 to 20)
#    0.000    2.182    1.818    3.545    2.545    2.909 
#    0.000    1.818    0.000    6.545    0.000    0.000 
#    0.000    0.000    0.000    0.000    0.000    0.000 
#
# Total GULP energy -122863.126096 kJ/mol
# GULP energy per Si atom -5584.687550 kJ/mol
# Density = 1.930132 g / cm^3
# Si number density = 19.345353 Si / 1000 Ang^3
#
#
#
# Elastic Constant Matrix: (Units=GPa)
#
#
# Indices 1 2 3 4 5 6 
#
# 1 51.6782 6.7828 13.0278 -0.0013 -26.9589 0.0016
# 2 6.7828 150.7436 74.9180 -0.0045 -27.1256 0.0010
# 3 13.0278 74.9180 104.7488 -0.0098 -33.9277 0.0041
# 4 -0.0013 -0.0045 -0.0098 13.6652 0.0034 2.0237
# 5 -26.9589 -27.1256 -33.9277 0.0034 32.0297 -0.0011
# 6 0.0016 0.0010 0.0041 2.0237 -0.0011 7.5841
#
#
#
# Elastic Compliance Matrix: (Units=1/GPa)
#
#
# Indices 1 2 3 4 5 6 
#
# 1 0.039752 0.002311 0.007420 0.000000 0.043276 -0.000007
# 2 0.002311 0.010468 -0.006504 -0.000002 0.003920 0.000003
# 3 0.007420 -0.006504 0.020573 0.000009 0.022529 -0.000011
# 4 0.000000 -0.000002 0.000009 0.076189 -0.000001 -0.020330
# 5 0.043276 0.003920 0.022529 -0.000001 0.094829 -0.000008
# 6 -0.000007 0.000003 -0.000011 -0.020330 -0.000008 0.137280
#
#
# Mechanical properties :
#
#
# Convention : Reuss Voigt Hill
#
# Bulk Modulus (GPa) = 12.94569 55.18086 34.06328
# Shear Modulus (GPa) = 12.55061 24.81860 18.68460
#
# Velocity S-wave (km/s) = 2.54985 3.58568 3.11118
# Velocity P-wave (km/s) = 3.92115 6.76231 5.52740
#
# Compressibility (1/GPa) = 0.07724578
#
# Stress axis : x y z
#
# Youngs Moduli (GPa) = 25.15580 95.53025 48.60783
#
# Poissons Ratio (x) = -0.22077 -0.36067
# Poissons Ratio (y) = -0.05813 0.31617
# Poissons Ratio (z) = -0.18665 0.62137
#
# Static dielectric constant tensor:
#      x y z
#    x 1.697940 0.000000 0.020560 
#    y 0.000000 1.670520 0.000000 
#    z 0.020560 0.000000 1.646250 
# 
# From -- ./inp_files/369027.got.cif
#   From: 2010.05.17/outbox.cif.g08.bks.cpg/sg12_185_cif.got.tgz:369027.got - 2010.06.03 13:09:07.
