data_PCOD9194208
_publ_section_title
;
Structure prediction by ZEFSAII (Michael W. Deem and Ramdas Pophale) SiO2 
 PCOD9194208
Probable space group: C 2/M
;
_chemical_formula_sum "Si O2"
_cell_formula_units_Z 60
_cell_length_a 8.469410
_cell_length_b 12.233478
_cell_length_c 31.043313
_cell_angle_alpha 90.000000
_cell_angle_beta 73.699720
_cell_angle_gamma 90.000000
_cell_volume 3087.121241
_symmetry_space_group_name_H-M "C 2/M"
_symmetry_group_IT_number 12
_symmetry_cell_setting 'monoclinic'
loop_
_space_group_symop_operation_xyz
x,y,z
-x,y,-z
-x,-y,-z
x,-y,z
1/2+x,1/2+y,z
1/2-x,1/2+y,-z
1/2-x,1/2-y,-z
1/2+x,1/2-y,z
loop_
_atom_site_type_symbol
_atom_site_label
_atom_site_fract_x
_atom_site_fract_y
_atom_site_fract_z
Si Si1 0.910213 0.500000 0.135559
Si Si2 0.130610 0.376714 0.340676
Si Si3 0.659554 0.314064 0.185795
Si Si4 0.131606 0.210541 0.605854
Si Si5 0.847186 0.694819 0.903768
Si Si6 0.797165 0.877007 0.235162
Si Si7 0.517064 0.376995 0.050143
Si Si8 0.897265 0.125270 0.551107
O O1 0.797552 0.404795 0.167865
O O2 0.023878 0.596579 0.104207
O O3 0.063384 0.500000 0.347041
O O4 0.254912 0.358619 0.370881
O O5 0.227819 0.363305 0.288568
O O6 0.987601 0.288200 0.357053
O O7 0.621257 0.263540 0.141919
O O8 0.720304 0.214994 0.210798
O O9 0.493073 0.363513 0.218061
O O10 0.249661 0.290028 0.569175
O O11 0.018962 0.141206 0.582349
O O12 0.663666 0.646436 0.916874
O O13 0.867200 0.781958 0.940669
O O14 0.753150 0.000000 0.223439
O O15 0.572239 0.500000 0.058571
O O16 0.500000 0.373474 0.000000
O O17 0.000000 0.147881 0.500000
O O18 0.838318 0.000000 0.553768
#
# Coordination Sequence:
#
# PCOD9194208 Si02
#       8
#     4   8   8   8   8   8   8   8
#     4  12  24  40  62  90 121 152 193 236 289 342
#     4  10  21  38  57  82 112 152 192 234 283 342
#     4  12  24  40  62  89 118 154 192 239 290 339
#     4  10  20  36  57  79 114 150 190 234 288 341
#     4  12  24  42  64  89 122 154 194 235 289 341
#     4  11  24  39  61  87 118 152 195 241 288 341
#     4  11  25  43  65  91 121 155 194 237 283 341
#     4  10  20  34  55  83 112 146 190 238 288 341
#
# _framework density 19.435583999999999
#
# number of rings (size 3 to 8) (size 9 to 14) (size 15 to 20)
#    0.000    1.067    4.000    2.400    1.867    1.067 
#    0.000    0.333    1.467    6.400    0.000    0.000 
#    0.000    0.000    0.000    0.000    0.000    0.000 
#
# Total GULP energy -167135.706953 kJ/mol
# GULP energy per Si atom -5571.190232 kJ/mol
# Density = 1.939135 g / cm^3
# Si number density = 19.435584 Si / 1000 Ang^3
#
#
#
# Elastic Constant Matrix: (Units=GPa)
#
#
# Indices 1 2 3 4 5 6 
#
# 1 16.5771 2.1748 -10.6197 0.0000 -4.3577 0.0000
# 2 2.1748 121.8837 26.3580 0.0000 5.1020 0.0000
# 3 -10.6197 26.3580 52.3736 0.0000 -9.3592 0.0000
# 4 0.0000 0.0000 0.0000 -22.3111 0.0000 14.5604
# 5 -4.3577 5.1020 -9.3592 0.0000 26.6275 0.0000
# 6 0.0000 0.0000 0.0000 14.5604 0.0000 -8.3438
#
#
#
# Elastic Compliance Matrix: (Units=1/GPa)
#
#
# Indices 1 2 3 4 5 6 
#
# 1 0.083997 -0.008001 0.025383 0.000000 0.024201 0.000000
# 2 -0.008001 0.010308 -0.007893 0.000000 -0.006059 0.000000
# 3 0.025383 -0.007893 0.031184 0.000000 0.016627 0.000000
# 4 0.000000 0.000000 0.000000 0.322829 0.000000 0.563353
# 5 0.024201 -0.006059 0.016627 0.000000 0.048521 0.000000
# 6 0.000000 0.000000 0.000000 0.563353 0.000000 0.863231
#
#
# Mechanical properties :
#
#
# Convention : Reuss Voigt Hill
#
# Bulk Modulus (GPa) = 6.92194 25.18450 16.05322
# Shear Modulus (GPa) = 3.59907 10.72262 7.16085
#
# Velocity S-wave (km/s) = 1.36228 2.35138 1.92156
# Velocity P-wave (km/s) = 2.45838 4.51199 3.63330
#
# Compressibility (1/GPa) = 0.14446818
#
# Stress axis : x y z
#
# Youngs Moduli (GPa) = 11.90517 97.01470 32.06786
#
# Poissons Ratio (x) = 0.77622 -0.81399
# Poissons Ratio (y) = 0.09525 0.25310
# Poissons Ratio (z) = -0.30219 0.76570
#
# Static dielectric constant tensor:
#      x y z
#    x 1.681580 0.000000 0.008490 
#    y 0.000000 1.662560 0.000000 
#    z 0.008490 0.000000 1.655850 
# 
# From -- ./inp_files/355833.got.cif
#   From: 2010.05.17/outbox.cif.g08.bks.cpg/sg12_178_cif.got.tgz:355833.got - 2010.06.03 13:09:07.
