data_PCOD9194705
_publ_section_title
;
Structure prediction by ZEFSAII (Michael W. Deem and Ramdas Pophale) SiO2 
 PCOD9194705
Probable space group: C 2/M
;
_chemical_formula_sum "Si O2"
_cell_formula_units_Z 56
_cell_length_a 22.930034
_cell_length_b 9.378140
_cell_length_c 12.088776
_cell_angle_alpha 90.000000
_cell_angle_beta 103.082509
_cell_angle_gamma 90.000000
_cell_volume 2532.111423
_symmetry_space_group_name_H-M "C 2/M"
_symmetry_group_IT_number 12
_symmetry_cell_setting 'monoclinic'
loop_
_space_group_symop_operation_xyz
x,y,z
-x,y,-z
-x,-y,-z
x,-y,z
1/2+x,1/2+y,z
1/2-x,1/2+y,-z
1/2-x,1/2-y,-z
1/2+x,1/2-y,z
loop_
_atom_site_type_symbol
_atom_site_label
_atom_site_fract_x
_atom_site_fract_y
_atom_site_fract_z
Si Si1 0.900870 0.830301 0.303541
Si Si2 0.281852 0.159115 0.298345
Si Si3 0.894426 0.663866 0.880730
Si Si4 0.995935 0.332117 0.218460
Si Si5 0.809366 0.339610 0.624482
Si Si6 0.922698 0.664279 0.527403
Si Si7 0.298218 0.340758 0.953127
O O1 0.834942 0.761759 0.281835
O O2 0.930738 0.772203 0.430470
O O3 0.938447 0.763136 0.218777
O O4 0.899723 0.000000 0.299374
O O5 0.242281 0.225872 0.378744
O O6 0.234735 0.146525 0.178650
O O7 0.304772 0.000000 0.331345
O O8 0.898453 0.500000 0.921537
O O9 0.959725 0.708334 0.863191
O O10 0.851873 0.662054 0.752884
O O11 0.860459 0.760596 0.955082
O O12 0.980857 0.500000 0.200023
O O13 0.035757 0.318786 0.347559
O O14 0.784348 0.500000 0.606540
O O15 0.855579 0.315455 0.545124
O O16 0.930265 0.500000 0.492343
O O17 0.306964 0.500000 0.003586
O O18 0.250000 0.250000 0.000000
#
# Coordination Sequence:
#
# PCOD9194705 Si02
#       7
#     8   8   8   8   8   8   8
#     4  12  24  33  46  70 101 138 175 215 256 289
#     4  10  21  36  52  72 100 134 168 201 247 305
#     4   8  15  30  53  78 102 129 162 201 246 295
#     4   9  18  34  54  73  98 136 176 211 249 294
#     4   8  15  30  51  73  97 127 165 209 253 295
#     4   9  18  33  52  72  97 133 175 215 254 296
#     4  10  20  34  57  85 107 128 156 196 246 300
#
# _framework density 22.115929999999999
#
# number of rings (size 3 to 8) (size 9 to 14) (size 15 to 20)
#    0.000    2.571    0.000    4.286    0.000    5.714 
#    0.000    2.857    0.000    0.857    0.000    6.000 
#    0.000    0.000    0.000    0.000    0.000    0.000 
#
# Total GULP energy -156447.303416 kJ/mol
# GULP energy per Si atom -5587.403693 kJ/mol
# Density = 2.206559 g / cm^3
# Si number density = 22.115930 Si / 1000 Ang^3
#
#
#
# Elastic Constant Matrix: (Units=GPa)
#
#
# Indices 1 2 3 4 5 6 
#
# 1 141.8739 97.2155 30.9199 0.0000 -48.4128 0.0000
# 2 97.2155 162.6074 36.6418 0.0000 -52.2461 0.0000
# 3 30.9199 36.6418 59.3732 0.0000 -12.0199 0.0000
# 4 0.0000 0.0000 0.0000 14.7211 0.0000 -13.4402
# 5 -48.4128 -52.2461 -12.0199 0.0000 50.4908 0.0000
# 6 0.0000 0.0000 0.0000 -13.4402 0.0000 34.7948
#
#
#
# Elastic Compliance Matrix: (Units=1/GPa)
#
#
# Indices 1 2 3 4 5 6 
#
# 1 0.013614 -0.005382 -0.002367 0.000000 0.006921 0.000000
# 2 -0.005382 0.012313 -0.003427 0.000000 0.006765 0.000000
# 3 -0.002367 -0.003427 0.019975 0.000000 -0.001060 0.000000
# 4 0.000000 0.000000 0.000000 0.104937 0.000000 0.040534
# 5 0.006921 0.006765 -0.001060 0.000000 0.033190 0.000000
# 6 0.000000 0.000000 0.000000 0.040534 0.000000 0.044397
#
#
# Mechanical properties :
#
#
# Convention : Reuss Voigt Hill
#
# Bulk Modulus (GPa) = 42.46104 77.04544 59.75324
# Shear Modulus (GPa) = 19.33277 33.27317 26.30297
#
# Velocity S-wave (km/s) = 2.95982 3.88298 3.45240
# Velocity P-wave (km/s) = 5.56073 7.41728 6.55507
#
# Compressibility (1/GPa) = 0.02355100
#
# Stress axis : x y z
#
# Youngs Moduli (GPa) = 73.45350 81.21349 50.06139
#
# Poissons Ratio (x) = 0.43710 0.11850
# Poissons Ratio (y) = 0.39533 0.17154
# Poissons Ratio (z) = 0.17388 0.27829
#
# Static dielectric constant tensor:
#      x y z
#    x 1.827540 0.000000 0.044290 
#    y 0.000000 1.762220 0.000000 
#    z 0.044290 0.000000 1.893190 
# 
# From -- ./inp_files/230876.got.cif
#   From: 2010.05.17/outbox.cif.g08.bks.cpg/sg12_116_cif.got.tgz:230876.got - 2010.06.03 13:09:07.
