data_PCOD9194712
_publ_section_title
;
Structure prediction by ZEFSAII (Michael W. Deem and Ramdas Pophale) SiO2 
 PCOD9194712
Probable space group: C 2/M
;
_chemical_formula_sum "Si O2"
_cell_formula_units_Z 64
_cell_length_a 16.820878
_cell_length_b 8.810050
_cell_length_c 23.518498
_cell_angle_alpha 90.000000
_cell_angle_beta 77.336909
_cell_angle_gamma 90.000000
_cell_volume 3400.495637
_symmetry_space_group_name_H-M "C 2/M"
_symmetry_group_IT_number 12
_symmetry_cell_setting 'monoclinic'
loop_
_space_group_symop_operation_xyz
x,y,z
-x,y,-z
-x,-y,-z
x,-y,z
1/2+x,1/2+y,z
1/2-x,1/2+y,-z
1/2-x,1/2-y,-z
1/2+x,1/2-y,z
loop_
_atom_site_type_symbol
_atom_site_label
_atom_site_fract_x
_atom_site_fract_y
_atom_site_fract_z
Si Si1 0.141279 0.680786 0.569344
Si Si2 0.639039 0.683216 0.325050
Si Si3 0.681519 0.181011 0.434774
Si Si4 0.323206 0.184146 0.256309
Si Si5 0.687692 0.815583 0.870345
Si Si6 0.961991 0.818446 0.317341
Si Si7 0.807328 0.820240 0.940662
Si Si8 0.593513 0.830027 0.995394
O O1 0.135875 0.500000 0.579953
O O2 0.229977 0.738915 0.576178
O O3 0.138899 0.709806 0.502177
O O4 0.073266 0.765916 0.616181
O O5 0.638333 0.500000 0.328891
O O6 0.633440 0.754712 0.388606
O O7 0.730240 0.726479 0.289114
O O8 0.558308 0.726383 0.301208
O O9 0.693223 0.000000 0.427493
O O10 0.331251 0.237126 0.189559
O O11 0.397122 0.247931 0.282803
O O12 0.327241 0.000000 0.258445
O O13 0.775876 0.776216 0.883363
O O14 0.630413 0.764089 0.931195
O O15 0.682500 0.000000 0.868809
O O16 0.957987 0.000000 0.312630
O O17 0.806121 0.000000 0.944340
O O18 0.750000 0.750000 0.000000
O O19 0.892304 0.759108 0.948840
O O20 0.628286 0.000000 0.997060
O O21 0.500000 0.842367 0.000000
#
# Coordination Sequence:
#
# PCOD9194712 Si02
#       8
#     8   8   8   8   8   8   8   8
#     4  10  20  35  56  83 112 146 181 223 284 338
#     4  10  22  38  57  80 110 147 185 227 283 338
#     4  10  20  34  57  85 112 141 183 232 276 332
#     4  10  20  39  61  77 104 151 194 229 276 333
#     4   8  16  32  54  76 100 139 184 219 265 324
#     4  11  23  38  56  83 113 144 185 234 280 326
#     4   9  16  29  50  75 101 133 173 212 256 312
#     4   9  17  31  51  77 111 144 173 216 270 319
#
# _framework density 18.820786999999999
#
# number of rings (size 3 to 8) (size 9 to 14) (size 15 to 20)
#    0.000    2.375    1.250    2.250    0.000    3.250 
#    2.250    5.625    0.000    0.000    0.000    0.000 
#    0.000    0.000    0.000    0.000    0.000    0.000 
#
# Total GULP energy -178135.422387 kJ/mol
# GULP energy per Si atom -5566.731950 kJ/mol
# Density = 1.877795 g / cm^3
# Si number density = 18.820787 Si / 1000 Ang^3
#
#
#
# Elastic Constant Matrix: (Units=GPa)
#
#
# Indices 1 2 3 4 5 6 
#
# 1 120.1833 30.0891 54.8782 0.0000 28.4537 0.0000
# 2 30.0891 31.8534 23.3918 0.0000 10.9695 0.0000
# 3 54.8782 23.3918 100.0119 0.0000 24.2687 0.0000
# 4 0.0000 0.0000 0.0000 18.9255 0.0000 6.7072
# 5 28.4537 10.9695 24.2687 0.0000 21.5445 0.0000
# 6 0.0000 0.0000 0.0000 6.7072 0.0000 22.9336
#
#
#
# Elastic Compliance Matrix: (Units=1/GPa)
#
#
# Indices 1 2 3 4 5 6 
#
# 1 0.014400 -0.007106 -0.003444 0.000000 -0.011520 0.000000
# 2 -0.007106 0.044169 -0.004475 0.000000 -0.008064 0.000000
# 3 -0.003444 -0.004475 0.015521 0.000000 -0.010657 0.000000
# 4 0.000000 0.000000 0.000000 0.058949 0.000000 -0.017240
# 5 -0.011520 -0.008064 -0.010657 0.000000 0.077740 0.000000
# 6 0.000000 0.000000 0.000000 -0.017240 0.000000 0.048646
#
#
# Mechanical properties :
#
#
# Convention : Reuss Voigt Hill
#
# Bulk Modulus (GPa) = 22.70627 52.08520 37.39574
# Shear Modulus (GPa) = 16.43900 22.26001 19.34951
#
# Velocity S-wave (km/s) = 2.95862 3.44282 3.20987
# Velocity P-wave (km/s) = 4.87462 6.59836 5.80088
#
# Compressibility (1/GPa) = 0.04404069
#
# Stress axis : x y z
#
# Youngs Moduli (GPa) = 69.44639 22.64027 64.42801
#
# Poissons Ratio (x) = 0.16088 0.22188
# Poissons Ratio (y) = 0.49347 0.28831
# Poissons Ratio (z) = 0.23916 0.10131
#
# Static dielectric constant tensor:
#      x y z
#    x 1.753880 0.000000 0.006200 
#    y 0.000000 1.663550 0.000000 
#    z 0.006200 0.000000 1.659800 
# 
# From -- ./inp_files/338787.got.cif
#   From: 2010.05.17/outbox.cif.g08.bks.cpg/sg12_170_cif.got.tgz:338787.got - 2010.06.03 13:09:07.
