data_PCOD9194765
_publ_section_title
;
Structure prediction by ZEFSAII (Michael W. Deem and Ramdas Pophale) SiO2 
 PCOD9194765
Probable space group: C 2/M
;
_chemical_formula_sum "Si O2"
_cell_formula_units_Z 40
_cell_length_a 20.641379
_cell_length_b 7.737669
_cell_length_c 10.901792
_cell_angle_alpha 90.000000
_cell_angle_beta 102.314254
_cell_angle_gamma 90.000000
_cell_volume 1701.131937
_symmetry_space_group_name_H-M "C 2/M"
_symmetry_group_IT_number 12
_symmetry_cell_setting 'monoclinic'
loop_
_space_group_symop_operation_xyz
x,y,z
-x,y,-z
-x,-y,-z
x,-y,z
1/2+x,1/2+y,z
1/2-x,1/2+y,-z
1/2-x,1/2-y,-z
1/2+x,1/2-y,z
loop_
_atom_site_type_symbol
_atom_site_label
_atom_site_fract_x
_atom_site_fract_y
_atom_site_fract_z
Si Si1 0.965150 0.800485 0.103987
Si Si2 0.822457 0.303530 0.979048
Si Si3 0.328476 0.290267 0.435908
Si Si4 0.317867 0.697732 0.698995
Si Si5 0.539040 0.288733 0.634299
O O1 0.982906 0.722817 0.242614
O O2 0.987731 0.000000 0.117545
O O3 0.885727 0.798386 0.055858
O O4 0.000000 0.718780 0.000000
O O5 0.832782 0.500000 0.020674
O O6 0.825457 0.289373 0.832076
O O7 0.750000 0.250000 0.000000
O O8 0.319830 0.500000 0.435501
O O9 0.349243 0.238461 0.583188
O O10 0.259853 0.206777 0.367901
O O11 0.384639 0.247758 0.361506
O O12 0.339372 0.500000 0.726749
O O13 0.500000 0.227435 0.500000
O O14 0.533993 0.500000 0.634067
#
# Coordination Sequence:
#
# PCOD9194765 Si02
#       5
#     8   8   8   8   8
#     4  10  22  39  63  94 128 164 206 253 307 373
#     4  12  25  41  63  88 121 161 208 259 318 378
#     4   9  18  33  56  85 119 156 200 249 299 358
#     4  10  20  34  57  87 118 153 198 251 309 367
#     4   9  18  33  57  85 114 153 198 243 289 349
#
# _framework density 23.513756000000001
#
# number of rings (size 3 to 8) (size 9 to 14) (size 15 to 20)
#    0.000    2.000    0.000    3.600    2.800    2.800 
#    0.000    0.000    0.000    1.200    0.000    0.000 
#    0.000    0.000    0.000    0.000    0.000    0.000 
#
# Total GULP energy -111753.754516 kJ/mol
# GULP energy per Si atom -5587.687726 kJ/mol
# Density = 2.346024 g / cm^3
# Si number density = 23.513756 Si / 1000 Ang^3
#
#
#
# Elastic Constant Matrix: (Units=GPa)
#
#
# Indices 1 2 3 4 5 6 
#
# 1 76.4500 -2.7489 48.7340 0.0000 -21.1616 0.0000
# 2 -2.7489 45.7904 -3.9959 0.0000 -8.7785 0.0000
# 3 48.7340 -3.9959 168.4963 0.0000 -32.4132 0.0000
# 4 0.0000 0.0000 0.0000 16.8397 0.0000 2.3693
# 5 -21.1616 -8.7785 -32.4132 0.0000 40.7633 0.0000
# 6 0.0000 0.0000 0.0000 2.3693 0.0000 10.6251
#
#
#
# Elastic Compliance Matrix: (Units=1/GPa)
#
#
# Indices 1 2 3 4 5 6 
#
# 1 0.017306 0.001950 -0.003719 0.000000 0.006447 0.000000
# 2 0.001950 0.023445 0.001367 0.000000 0.007149 0.000000
# 3 -0.003719 0.001367 0.007943 0.000000 0.004680 0.000000
# 4 0.000000 0.000000 0.000000 0.061307 0.000000 -0.013671
# 5 0.006447 0.007149 0.004680 0.000000 0.033139 0.000000
# 6 0.000000 0.000000 0.000000 -0.013671 0.000000 0.097165
#
#
# Mechanical properties :
#
#
# Convention : Reuss Voigt Hill
#
# Bulk Modulus (GPa) = 20.88061 41.63502 31.25781
# Shear Modulus (GPa) = 19.44977 30.22881 24.83929
#
# Velocity S-wave (km/s) = 2.87917 3.58939 3.25371
# Velocity P-wave (km/s) = 4.46680 5.90960 5.23811
#
# Compressibility (1/GPa) = 0.04789133
#
# Stress axis : x y z
#
# Youngs Moduli (GPa) = 57.78431 42.65213 125.89509
#
# Poissons Ratio (x) = -0.08318 0.46819
# Poissons Ratio (y) = -0.11270 -0.17211
# Poissons Ratio (z) = 0.21489 -0.05831
#
# Static dielectric constant tensor:
#      x y z
#    x 1.895740 0.000000 -0.021000 
#    y 0.000000 1.852590 0.000000 
#    z -0.021000 0.000000 1.902330 
# 
# From -- ./inp_files/162724.got.cif
#   From: 2010.05.17/outbox.cif.g08.bks.cpg/sg12_82_cif.got.tgz:162724.got - 2010.06.03 13:09:07.
