data_PCOD9194792
_publ_section_title
;
Structure prediction by ZEFSAII (Michael W. Deem and Ramdas Pophale) SiO2 
 PCOD9194792
Probable space group: C 2/M
;
_chemical_formula_sum "Si O2"
_cell_formula_units_Z 32
_cell_length_a 19.067212
_cell_length_b 13.313633
_cell_length_c 6.618650
_cell_angle_alpha 90.000000
_cell_angle_beta 92.520979
_cell_angle_gamma 90.000000
_cell_volume 1678.543773
_symmetry_space_group_name_H-M "C 2/M"
_symmetry_group_IT_number 12
_symmetry_cell_setting 'monoclinic'
loop_
_space_group_symop_operation_xyz
x,y,z
-x,y,-z
-x,-y,-z
x,-y,z
1/2+x,1/2+y,z
1/2-x,1/2+y,-z
1/2-x,1/2-y,-z
1/2+x,1/2-y,z
loop_
_atom_site_type_symbol
_atom_site_label
_atom_site_fract_x
_atom_site_fract_y
_atom_site_fract_z
Si Si1 0.304601 0.616876 0.664051
Si Si2 0.573148 0.883790 0.387561
Si Si3 0.077558 0.788736 0.064718
Si Si4 0.327013 0.760626 0.305597
O O1 0.287606 0.500000 0.661014
O O2 0.377778 0.637864 0.786420
O O3 0.309322 0.663520 0.439790
O O4 0.244372 0.683058 0.764711
O O5 0.500000 0.877199 0.500000
O O6 0.569066 0.814671 0.189465
O O7 0.632464 0.836780 0.539120
O O8 0.587156 0.000000 0.342306
O O9 0.122824 0.767596 0.871197
O O10 0.000000 0.826080 0.000000
#
# Coordination Sequence:
#
# PCOD9194792 Si02
#       4
#     8   8   8   8
#     4  10  23  40  61  86 115 157 200 238 287 345
#     4  10  20  34  57  88 118 151 189 234 292 348
#     4  11  22  38  60  88 122 154 190 241 294 346
#     4  10  21  41  61  85 119 154 191 247 292 339
#
# _framework density 19.064143999999999
#
# number of rings (size 3 to 8) (size 9 to 14) (size 15 to 20)
#    0.000    1.750    2.500    1.500    0.000    4.000 
#    0.000    1.250    0.000    0.000    0.000    0.000 
#    0.000    0.000    0.000    0.000    0.000    0.000 
#
# Total GULP energy -89379.752891 kJ/mol
# GULP energy per Si atom -5586.234556 kJ/mol
# Density = 1.902075 g / cm^3
# Si number density = 19.064144 Si / 1000 Ang^3
#
#
#
# Elastic Constant Matrix: (Units=GPa)
#
#
# Indices 1 2 3 4 5 6 
#
# 1 100.3426 28.4621 31.9074 0.0000 1.6198 0.0000
# 2 28.4621 83.0819 28.0111 0.0000 -3.0014 0.0000
# 3 31.9074 28.0111 63.5087 0.0000 -17.4886 0.0000
# 4 0.0000 0.0000 0.0000 10.3561 0.0000 -4.9139
# 5 1.6198 -3.0014 -17.4886 0.0000 44.2559 0.0000
# 6 0.0000 0.0000 0.0000 -4.9139 0.0000 17.1620
#
#
#
# Elastic Compliance Matrix: (Units=1/GPa)
#
#
# Indices 1 2 3 4 5 6 
#
# 1 0.012642 -0.002368 -0.006147 0.000000 -0.003053 0.000000
# 2 -0.002368 0.014696 -0.005603 0.000000 -0.001131 0.000000
# 3 -0.006147 -0.005603 0.023859 0.000000 0.009274 0.000000
# 4 0.000000 0.000000 0.000000 0.111742 0.000000 0.031994
# 5 -0.003053 -0.001131 0.009274 0.000000 0.026296 0.000000
# 6 0.000000 0.000000 0.000000 0.031994 0.000000 0.067429
#
#
# Mechanical properties :
#
#
# Convention : Reuss Voigt Hill
#
# Bulk Modulus (GPa) = 43.55585 47.07714 45.31649
# Shear Modulus (GPa) = 17.09082 24.92497 21.00789
#
# Velocity S-wave (km/s) = 2.99739 3.61976 3.32318
# Velocity P-wave (km/s) = 5.90557 6.49753 6.20861
#
# Compressibility (1/GPa) = 0.02295903
#
# Stress axis : x y z
#
# Youngs Moduli (GPa) = 79.10336 68.04568 41.91221
#
# Poissons Ratio (x) = 0.16117 0.25764
# Poissons Ratio (y) = 0.18736 0.23485
# Poissons Ratio (z) = 0.48627 0.38128
#
# Static dielectric constant tensor:
#      x y z
#    x 1.686040 0.000000 0.021830 
#    y 0.000000 1.618310 0.000000 
#    z 0.021830 0.000000 1.644510 
# 
# From -- ./inp_files/14316.got.cif
#   From: 2010.05.17/outbox.cif.g08.bks.cpg/sg12_8_cif.got.tgz:14316.got - 2010.06.03 13:09:07.
