data_PCOD9194611
_publ_section_title
;
Structure prediction by ZEFSAII (Michael W. Deem and Ramdas Pophale) SiO2 
 PCOD9194611
Probable space group: C 2/M
;
_chemical_formula_sum "Si O2"
_cell_formula_units_Z 56
_cell_length_a 9.259997
_cell_length_b 14.717081
_cell_length_c 24.434705
_cell_angle_alpha 90.000000
_cell_angle_beta 54.897242
_cell_angle_gamma 90.000000
_cell_volume 2724.317485
_symmetry_space_group_name_H-M "C 2/M"
_symmetry_group_IT_number 12
_symmetry_cell_setting 'monoclinic'
loop_
_space_group_symop_operation_xyz
x,y,z
-x,y,-z
-x,-y,-z
x,-y,z
1/2+x,1/2+y,z
1/2-x,1/2+y,-z
1/2-x,1/2-y,-z
1/2+x,1/2-y,z
loop_
_atom_site_type_symbol
_atom_site_label
_atom_site_fract_x
_atom_site_fract_y
_atom_site_fract_z
Si Si1 0.708822 0.310604 0.454702
Si Si2 0.808623 0.606033 0.070229
Si Si3 0.114877 0.818090 0.670903
Si Si4 0.196346 0.100242 0.978534
Si Si5 0.770473 0.000000 0.401244
Si Si6 0.236635 0.221390 0.760460
Si Si7 0.877767 0.500000 0.443935
Si Si8 0.657511 0.217763 0.148873
O O1 0.500000 0.327619 0.500000
O O2 0.750000 0.250000 0.500000
O O3 0.768000 0.253017 0.389057
O O4 0.812807 0.405904 0.431804
O O5 0.797915 0.500000 0.089937
O O6 0.748137 0.681770 0.126211
O O7 0.684877 0.622295 0.044702
O O8 0.000000 0.621557 0.000000
O O9 0.203740 0.832529 0.711209
O O10 0.915832 0.780077 0.717436
O O11 0.120834 0.911213 0.636912
O O12 0.295357 0.168568 0.917673
O O13 0.280997 0.000000 0.956557
O O14 0.000000 0.096353 0.000000
O O15 0.587497 0.000000 0.407067
O O16 0.711433 0.000000 0.476706
O O17 0.263872 0.172134 0.813198
O O18 0.053055 0.276210 0.802595
#
# Coordination Sequence:
#
# PCOD9194611 Si02
#       8
#     8   8   8   8   4   8   4   8
#     4  12  23  40  69  96 132 163 201 268 321 372
#     4  10  20  34  58  91 119 150 196 253 317 374
#     4  11  23  44  63  90 123 168 203 258 300 371
#     4  10  20  34  56  87 116 147 190 248 316 369
#     4  11  22  40  68  94 130 158 207 251 319 391
#     4  10  24  41  59  83 118 163 220 239 296 354
#     4  11  23  38  64 110 122 158 204 251 335 391
#     4  11  20  39  60  83 118 162 201 260 292 367
#
# _framework density 20.555606000000001
#
# number of rings (size 3 to 8) (size 9 to 14) (size 15 to 20)
#    0.000    1.286    1.429    5.357    0.000    0.000 
#    7.714    0.000    3.143    0.000    0.000    0.000 
#    0.000    0.000    0.000    0.000    0.000    0.000 
#
# Total GULP energy -156325.008862 kJ/mol
# GULP energy per Si atom -5583.036031 kJ/mol
# Density = 2.050882 g / cm^3
# Si number density = 20.555606 Si / 1000 Ang^3
#
#
#
# Elastic Constant Matrix: (Units=GPa)
#
#
# Indices 1 2 3 4 5 6 
#
# 1 67.2646 -20.5121 -1.6159 0.0001 2.4007 0.0000
# 2 -20.5121 78.4061 19.4332 0.0000 -0.0436 0.0000
# 3 -1.6159 19.4332 61.1303 0.0002 -7.6369 0.0000
# 4 0.0001 0.0000 0.0002 -87.2837 -0.0001 -13.9216
# 5 2.4007 -0.0436 -7.6369 -0.0001 37.6211 0.0000
# 6 0.0000 0.0000 0.0000 -13.9216 0.0000 16.7832
#
#
#
# Elastic Compliance Matrix: (Units=1/GPa)
#
#
# Indices 1 2 3 4 5 6 
#
# 1 0.016270 0.004547 -0.001174 0.000000 -0.001271 0.000000
# 2 0.004547 0.015145 -0.004852 0.000000 -0.001257 0.000000
# 3 -0.001174 -0.004852 0.018344 0.000000 0.003793 0.000000
# 4 0.000000 0.000000 0.000000 -0.010118 0.000000 -0.008393
# 5 -0.001271 -0.001257 0.003793 0.000000 0.027430 0.000000
# 6 0.000000 0.000000 0.000000 -0.008393 0.000000 0.052621
#
#
# Mechanical properties :
#
#
# Convention : Reuss Voigt Hill
#
# Bulk Modulus (GPa) = 21.36678 22.37903 21.87290
# Shear Modulus (GPa) = 36.16601 7.39050 21.77825
#
# Velocity S-wave (km/s) = 4.19910 1.89820 3.25850
# Velocity P-wave (km/s) = 5.82470 3.96421 4.98207
#
# Compressibility (1/GPa) = 0.04680163
#
# Stress axis : x y z
#
# Youngs Moduli (GPa) = 61.46141 66.02657 54.51488
#
# Poissons Ratio (x) = -0.30021 0.06401
# Poissons Ratio (y) = -0.27946 0.26448
# Poissons Ratio (z) = 0.07217 0.32033
#
# Static dielectric constant tensor:
#      x y z
#    x 1.783850 0.000000 0.044610 
#    y 0.000000 1.760210 0.000000 
#    z 0.044610 0.000000 1.747260 
# 
# From -- ./inp_files/332878.got.cif
#   From: 2010.05.17/outbox.cif.g08.bks.cpg/sg12_167_cif.got.tgz:332878.got - 2010.06.03 13:09:07.
