data_PCOD9194989
_publ_section_title
;
Structure prediction by ZEFSAII (Michael W. Deem and Ramdas Pophale) SiO2 
 PCOD9194989
Probable space group: C 2/M
;
_chemical_formula_sum "Si O2"
_cell_formula_units_Z 58
_cell_length_a 25.381838
_cell_length_b 7.522849
_cell_length_c 20.911382
_cell_angle_alpha 90.000000
_cell_angle_beta 40.626646
_cell_angle_gamma 90.000000
_cell_volume 2599.884303
_symmetry_space_group_name_H-M "C 2/M"
_symmetry_group_IT_number 12
_symmetry_cell_setting 'monoclinic'
loop_
_space_group_symop_operation_xyz
x,y,z
-x,y,-z
-x,-y,-z
x,-y,z
1/2+x,1/2+y,z
1/2-x,1/2+y,-z
1/2-x,1/2-y,-z
1/2+x,1/2-y,z
loop_
_atom_site_type_symbol
_atom_site_label
_atom_site_fract_x
_atom_site_fract_y
_atom_site_fract_z
Si Si1 0.290881 0.284074 0.783497
Si Si2 0.037724 0.206957 0.133942
Si Si3 0.358187 0.793335 0.335725
Si Si4 0.911318 0.782962 0.560361
Si Si5 0.667124 0.287073 0.114390
Si Si6 0.104639 0.205841 0.938164
Si Si7 0.178480 0.784024 0.483906
Si Si8 0.500000 0.000000 0.000000
O O1 0.288360 0.500000 0.787037
O O2 0.348073 0.229750 0.672955
O O3 0.323827 0.220607 0.821754
O O4 0.200392 0.218959 0.856072
O O5 0.091075 0.281235 0.143324
O O6 0.942567 0.216147 0.233783
O O7 0.060599 0.000000 0.107437
O O8 0.067829 0.283215 0.038912
O O9 0.271813 0.722044 0.389994
O O10 0.352196 0.773356 0.418157
O O11 0.361308 0.000000 0.316406
O O12 0.878980 0.725701 0.520872
O O13 0.000000 0.723428 0.500000
O O14 0.913088 0.000000 0.557012
O O15 0.658029 0.500000 0.127929
O O16 0.750000 0.250000 0.000000
O O17 0.083360 0.000000 0.947165
O O18 0.067434 0.341850 0.922407
O O19 0.180136 0.000000 0.483123
#
# Coordination Sequence:
#
# PCOD9194989 Si02
#       8
#     8   8   8   8   8   8   8   2
#     4  10  20  37  61  94 126 170 214 262 330 392
#     4  10  22  38  59  93 127 160 207 263 314 382
#     4  10  21  35  58  89 119 157 206 255 315 381
#     4   9  19  35  61  92 120 160 216 264 314 391
#     4  10  20  34  59  88 124 160 201 252 312 375
#     4  11  24  43  65  95 130 171 221 264 326 390
#     4   9  19  38  59  83 117 155 199 259 319 372
#     4  12  26  44  68  90 130 180 210 282 308 380
#
# _framework density 22.308686000000002
#
# number of rings (size 3 to 8) (size 9 to 14) (size 15 to 20)
#    0.000    2.069    2.069    0.621    2.897    2.207 
#    2.483    0.690    0.000    0.828    0.000    0.000 
#    0.000    0.000    0.000    0.000    0.000    0.000 
#
# Total GULP energy -161810.354614 kJ/mol
# GULP energy per Si atom -5579.667400 kJ/mol
# Density = 2.225791 g / cm^3
# Si number density = 22.308686 Si / 1000 Ang^3
#
#
#
# Elastic Constant Matrix: (Units=GPa)
#
#
# Indices 1 2 3 4 5 6 
#
# 1 150.1950 9.2423 52.0198 0.0030 -23.1704 -0.0037
# 2 9.2423 88.9102 -6.9976 -0.0005 -2.1095 -0.0100
# 3 52.0198 -6.9976 112.8367 0.0040 -27.6336 -0.0001
# 4 0.0030 -0.0005 0.0040 16.5787 -0.0010 -8.9378
# 5 -23.1704 -2.1095 -27.6336 -0.0010 28.8942 -0.0001
# 6 -0.0037 -0.0100 -0.0001 -8.9378 -0.0001 1.7898
#
#
#
# Elastic Compliance Matrix: (Units=1/GPa)
#
#
# Indices 1 2 3 4 5 6 
#
# 1 0.008333 -0.001012 -0.002985 -0.000003 0.003754 -0.000005
# 2 -0.001012 0.011510 0.001551 -0.000020 0.001512 -0.000037
# 3 -0.002985 0.001551 0.012766 0.000000 0.009929 0.000003
# 4 -0.000003 -0.000020 0.000000 -0.035645 -0.000006 -0.178002
# 5 0.003754 0.001512 0.009929 -0.000006 0.047225 -0.000011
# 6 -0.000005 -0.000037 0.000003 -0.178002 -0.000011 -0.330179
#
#
# Mechanical properties :
#
#
# Convention : Reuss Voigt Hill
#
# Bulk Modulus (GPa) = 36.07974 51.16344 43.62159
# Shear Modulus (GPa) = -18.39211 29.29769 5.45279
#
# Velocity S-wave (km/s) = -2.87442 3.62786 1.56510
# Velocity P-wave (km/s) = 2.27853 6.36652 4.78144
#
# Compressibility (1/GPa) = 0.02771638
#
# Stress axis : x y z
#
# Youngs Moduli (GPa) = 120.00014 86.87778 78.33100
#
# Poissons Ratio (x) = 0.08793 0.23385
# Poissons Ratio (y) = 0.12146 -0.12146
# Poissons Ratio (z) = 0.35824 -0.13472
#
# Static dielectric constant tensor:
#      x y z
#    x 1.943880 0.000030 0.049200 
#    y 0.000030 1.964660 0.000050 
#    z 0.049200 0.000050 1.793890 
# 
# From -- ./inp_files/324569.got.cif
#   From: 2010.05.17/outbox.cif.g08.bks.cpg/sg12_163_cif.got.tgz:324569.got - 2010.06.03 13:09:07.
