data_PCOD9194313
_publ_section_title
;
Structure prediction by ZEFSAII (Michael W. Deem and Ramdas Pophale) SiO2 
 PCOD9194313
Probable space group: C 2/M
;
_chemical_formula_sum "Si O2"
_cell_formula_units_Z 48
_cell_length_a 22.039688
_cell_length_b 8.998376
_cell_length_c 12.632766
_cell_angle_alpha 90.000000
_cell_angle_beta 70.459246
_cell_angle_gamma 90.000000
_cell_volume 2361.049365
_symmetry_space_group_name_H-M "C 2/M"
_symmetry_group_IT_number 12
_symmetry_cell_setting 'monoclinic'
loop_
_space_group_symop_operation_xyz
x,y,z
-x,y,-z
-x,-y,-z
x,-y,z
1/2+x,1/2+y,z
1/2-x,1/2+y,-z
1/2-x,1/2-y,-z
1/2+x,1/2-y,z
loop_
_atom_site_type_symbol
_atom_site_label
_atom_site_fract_x
_atom_site_fract_y
_atom_site_fract_z
Si Si1 0.625758 0.678388 0.671387
Si Si2 0.748088 0.825312 0.677020
Si Si3 0.225316 0.323059 0.121608
Si Si4 0.099619 0.825674 0.458763
Si Si5 0.425189 0.824094 0.741306
Si Si6 0.977199 0.320503 0.130972
O O1 0.626098 0.500000 0.672028
O O2 0.698256 0.738823 0.632415
O O3 0.590178 0.729825 0.584037
O O4 0.588452 0.744568 0.793312
O O5 0.741953 0.755402 0.797242
O O6 0.823080 0.809156 0.603089
O O7 0.732806 0.000000 0.685611
O O8 0.236933 0.500000 0.116115
O O9 0.148700 0.298456 0.180171
O O10 0.250000 0.250000 0.000000
O O11 0.066051 0.749688 0.378572
O O12 0.084143 0.000000 0.464310
O O13 0.470804 0.774429 0.810335
O O14 0.434017 0.000000 0.723135
O O15 0.970408 0.500000 0.137518
O O16 0.000000 0.279499 0.000000
#
# Coordination Sequence:
#
# PCOD9194313 Si02
#       6
#     8   8   8   8   8   8
#     4  11  23  38  58  88 120 152 193 240 293 348
#     4  10  20  36  58  85 117 155 193 234 289 349
#     4  10  20  34  55  85 116 151 193 240 291 345
#     4   9  20  38  60  87 119 152 188 237 295 349
#     4   9  20  38  59  83 113 150 195 242 285 339
#     4  10  23  42  61  82 113 156 199 241 287 342
#
# _framework density 20.329944999999999
#
# number of rings (size 3 to 8) (size 9 to 14) (size 15 to 20)
#    0.000    2.167    0.000    2.000    2.333    4.333 
#    0.000    3.333    0.000    0.000    0.000    0.000 
#    0.000    0.000    0.000    0.000    0.000    0.000 
#
# Total GULP energy -134076.110859 kJ/mol
# GULP energy per Si atom -5586.504619 kJ/mol
# Density = 2.028367 g / cm^3
# Si number density = 20.329945 Si / 1000 Ang^3
#
#
#
# Elastic Constant Matrix: (Units=GPa)
#
#
# Indices 1 2 3 4 5 6 
#
# 1 80.9562 23.0916 22.1569 0.0000 22.6666 0.0000
# 2 23.0916 34.1324 35.0019 0.0000 0.3782 0.0000
# 3 22.1569 35.0019 126.1575 0.0000 14.1387 0.0000
# 4 0.0000 0.0000 0.0000 29.6021 0.0000 9.2036
# 5 22.6666 0.3782 14.1387 0.0000 27.5138 0.0000
# 6 0.0000 0.0000 0.0000 9.2036 0.0000 18.2359
#
#
#
# Elastic Compliance Matrix: (Units=1/GPa)
#
#
# Indices 1 2 3 4 5 6 
#
# 1 0.022156 -0.018237 0.003381 0.000000 -0.019739 0.000000
# 2 -0.018237 0.056789 -0.015014 0.000000 0.021959 0.000000
# 3 0.003381 -0.015014 0.012508 0.000000 -0.009006 0.000000
# 4 0.000000 0.000000 0.000000 0.040069 0.000000 -0.020223
# 5 -0.019739 0.021959 -0.009006 0.000000 0.056933 0.000000
# 6 0.000000 0.000000 0.000000 -0.020223 0.000000 0.065043
#
#
# Mechanical properties :
#
#
# Convention : Reuss Voigt Hill
#
# Bulk Modulus (GPa) = 31.53410 44.63855 38.08632
# Shear Modulus (GPa) = 15.44128 25.80342 20.62235
#
# Velocity S-wave (km/s) = 2.75895 3.56649 3.18839
# Velocity P-wave (km/s) = 5.06892 6.24216 5.68588
#
# Compressibility (1/GPa) = 0.03171171
#
# Stress axis : x y z
#
# Youngs Moduli (GPa) = 45.13546 17.60917 79.95090
#
# Poissons Ratio (x) = 0.32114 -0.27030
# Poissons Ratio (y) = 0.82314 1.20036
# Poissons Ratio (z) = -0.15260 0.26438
#
# Static dielectric constant tensor:
#      x y z
#    x 1.759400 0.000000 -0.002170 
#    y 0.000000 1.673890 0.000000 
#    z -0.002170 0.000000 1.713360 
# 
# From -- ./inp_files/172300.got.cif
#   From: 2010.05.17/outbox.cif.g08.bks.cpg/sg12_87_cif.got.tgz:172300.got - 2010.06.03 13:09:07.
