data_PCOD9194408
_publ_section_title
;
Structure prediction by ZEFSAII (Michael W. Deem and Ramdas Pophale) SiO2 
 PCOD9194408
Probable space group: C 2/M
;
_chemical_formula_sum "Si O2"
_cell_formula_units_Z 56
_cell_length_a 16.442148
_cell_length_b 8.017927
_cell_length_c 24.098993
_cell_angle_alpha 90.000000
_cell_angle_beta 120.799149
_cell_angle_gamma 90.000000
_cell_volume 2728.954405
_symmetry_space_group_name_H-M "C 2/M"
_symmetry_group_IT_number 12
_symmetry_cell_setting 'monoclinic'
loop_
_space_group_symop_operation_xyz
x,y,z
-x,y,-z
-x,-y,-z
x,-y,z
1/2+x,1/2+y,z
1/2-x,1/2+y,-z
1/2-x,1/2-y,-z
1/2+x,1/2-y,z
loop_
_atom_site_type_symbol
_atom_site_label
_atom_site_fract_x
_atom_site_fract_y
_atom_site_fract_z
Si Si1 0.940458 0.296398 0.701014
Si Si2 0.231304 0.201385 0.838955
Si Si3 0.879700 0.195852 0.306253
Si Si4 0.601141 0.812021 0.563891
Si Si5 0.727090 0.182474 0.431723
Si Si6 0.046947 0.700964 0.845516
Si Si7 0.949824 0.704141 0.925495
O O1 0.943868 0.500000 0.702464
O O2 0.845014 0.237328 0.637557
O O3 0.023556 0.221461 0.693122
O O4 0.966430 0.246677 0.772729
O O5 0.198018 0.256405 0.765585
O O6 0.149501 0.249371 0.855236
O O7 0.339277 0.257415 0.886652
O O8 0.231172 0.000000 0.838024
O O9 0.893681 0.291276 0.368467
O O10 0.862643 0.000000 0.312100
O O11 0.500000 0.786984 0.500000
O O12 0.673594 0.682865 0.564048
O O13 0.631905 0.000000 0.559667
O O14 0.750000 0.250000 0.500000
O O15 0.686592 0.000000 0.427820
O O16 0.048831 0.500000 0.848241
O O17 0.011775 0.759437 0.893692
O O18 0.948532 0.500000 0.923554
O O19 0.000000 0.755269 0.000000
#
# Coordination Sequence:
#
# PCOD9194408 Si02
#       7
#     8   8   8   8   8   8   8
#     4   9  19  35  55  77 105 140 177 222 274 329
#     4   9  19  35  56  82 115 147 185 234 282 331
#     4  10  20  34  56  81 106 138 179 227 276 327
#     4  11  24  39  54  75 106 142 180 224 275 328
#     4  11  23  37  55  78 106 141 181 225 275 327
#     4   9  18  34  57  81 110 147 189 229 276 336
#     4   9  18  33  56  84 113 150 192 230 274 337
#
# _framework density 20.520679999999999
#
# number of rings (size 3 to 8) (size 9 to 14) (size 15 to 20)
#    0.000    2.286    0.000    2.143    2.000    6.857 
#    0.000    0.714    0.000    0.857    0.000    0.000 
#    0.000    0.000    0.000    0.000    0.000    0.000 
#
# Total GULP energy -156027.116913 kJ/mol
# GULP energy per Si atom -5572.397033 kJ/mol
# Density = 2.047397 g / cm^3
# Si number density = 20.520680 Si / 1000 Ang^3
#
#
#
# Elastic Constant Matrix: (Units=GPa)
#
#
# Indices 1 2 3 4 5 6 
#
# 1 92.1759 11.9150 98.7578 0.0000 -5.5143 0.0000
# 2 11.9150 11.9545 27.9997 0.0000 1.8118 0.0000
# 3 98.7578 27.9997 187.5836 0.0000 -6.1535 0.0000
# 4 0.0000 0.0000 0.0000 -34.5572 0.0000 0.2528
# 5 -5.5143 1.8118 -6.1535 0.0000 42.3027 0.0000
# 6 0.0000 0.0000 0.0000 0.2528 0.0000 22.0689
#
#
#
# Elastic Compliance Matrix: (Units=1/GPa)
#
#
# Indices 1 2 3 4 5 6 
#
# 1 0.025565 0.009013 -0.014779 0.000000 0.000797 0.000000
# 2 0.009013 0.134789 -0.025135 0.000000 -0.008254 0.000000
# 3 -0.014779 -0.025135 0.016916 0.000000 0.001611 0.000000
# 4 0.000000 0.000000 0.000000 -0.028935 0.000000 0.000332
# 5 0.000797 -0.008254 0.001611 0.000000 0.024331 0.000000
# 6 0.000000 0.000000 0.000000 0.000332 0.000000 0.045309
#
#
# Mechanical properties :
#
#
# Convention : Reuss Voigt Hill
#
# Bulk Modulus (GPa) = 8.66038 63.22879 35.94458
# Shear Modulus (GPa) = 15.71009 16.16564 15.93787
#
# Velocity S-wave (km/s) = 2.76990 2.80977 2.78991
# Velocity P-wave (km/s) = 3.80254 6.43472 5.28511
#
# Compressibility (1/GPa) = 0.11546844
#
# Stress axis : x y z
#
# Youngs Moduli (GPa) = 39.11532 7.41900 59.11518
#
# Poissons Ratio (x) = -0.06686 0.87364
# Poissons Ratio (y) = -0.35253 1.48586
# Poissons Ratio (z) = 0.57807 0.18648
#
# Static dielectric constant tensor:
#      x y z
#    x 1.794060 0.000000 0.062750 
#    y 0.000000 1.751970 0.000000 
#    z 0.062750 0.000000 2.065820 
# 
# From -- ./inp_files/338578.got.cif
#   From: 2010.05.17/outbox.cif.g08.bks.cpg/sg12_170_cif.got.tgz:338578.got - 2010.06.03 13:09:07.
