data_PCOD9194410
_publ_section_title
;
Structure prediction by ZEFSAII (Michael W. Deem and Ramdas Pophale) SiO2 
 PCOD9194410
Probable space group: C 2/M
;
_chemical_formula_sum "Si O2"
_cell_formula_units_Z 56
_cell_length_a 33.343651
_cell_length_b 8.942045
_cell_length_c 12.785059
_cell_angle_alpha 90.000000
_cell_angle_beta 124.206200
_cell_angle_gamma 90.000000
_cell_volume 3152.598164
_symmetry_space_group_name_H-M "C 2/M"
_symmetry_group_IT_number 12
_symmetry_cell_setting 'monoclinic'
loop_
_space_group_symop_operation_xyz
x,y,z
-x,y,-z
-x,-y,-z
x,-y,z
1/2+x,1/2+y,z
1/2-x,1/2+y,-z
1/2-x,1/2-y,-z
1/2+x,1/2-y,z
loop_
_atom_site_type_symbol
_atom_site_label
_atom_site_fract_x
_atom_site_fract_y
_atom_site_fract_z
Si Si1 0.106500 0.821522 0.549161
Si Si2 0.187789 0.180041 0.504177
Si Si3 0.709452 0.680189 0.301384
Si Si4 0.102816 0.321080 0.760737
Si Si5 0.468294 0.823129 0.052723
Si Si6 0.370237 0.679054 0.982740
Si Si7 0.006794 0.675259 0.340498
O O1 0.142050 0.774071 0.506998
O O2 0.121634 0.746298 0.680427
O O3 0.051958 0.770367 0.444231
O O4 0.108603 0.000000 0.562300
O O5 0.237431 0.248388 0.621484
O O6 0.185471 0.222738 0.378172
O O7 0.190959 0.000000 0.512879
O O8 0.713910 0.500000 0.306693
O O9 0.675482 0.724485 0.155132
O O10 0.106853 0.500000 0.768575
O O11 0.127820 0.253408 0.900220
O O12 0.045150 0.284551 0.685431
O O13 0.419025 0.732012 0.995440
O O14 0.498592 0.807439 0.204221
O O15 0.456395 0.000000 0.025008
O O16 0.500000 0.777003 0.000000
O O17 0.370511 0.500000 0.993614
O O18 0.016111 0.500000 0.377352
#
# Coordination Sequence:
#
# PCOD9194410 Si02
#       7
#     8   8   8   8   8   8   8
#     4  11  22  34  54  81 110 139 178 226 270 317
#     4   9  20  37  55  80 110 138 173 220 268 318
#     4   9  19  37  58  80 108 139 174 218 269 323
#     4  10  21  38  56  76 108 145 184 222 260 318
#     4   9  19  34  50  75 111 146 183 219 254 312
#     4  10  20  34  56  81 107 139 177 221 273 320
#     4   9  19  34  51  74 106 145 183 219 260 308
#
# _framework density 17.763124999999999
#
# number of rings (size 3 to 8) (size 9 to 14) (size 15 to 20)
#    0.000    2.429    0.000    2.571    2.000    7.143 
#    0.000    0.714    0.000    0.000    0.000    0.000 
#    0.000    0.000    0.000    0.000    0.000    0.000 
#
# Total GULP energy -156257.695693 kJ/mol
# GULP energy per Si atom -5580.631989 kJ/mol
# Density = 1.772270 g / cm^3
# Si number density = 17.763125 Si / 1000 Ang^3
#
#
#
# Elastic Constant Matrix: (Units=GPa)
#
#
# Indices 1 2 3 4 5 6 
#
# 1 55.0548 25.7167 47.7975 0.0000 -11.3553 0.0000
# 2 25.7167 33.3780 38.7336 0.0000 2.0049 0.0000
# 3 47.7975 38.7336 95.2873 0.0000 13.3269 0.0000
# 4 0.0000 0.0000 0.0000 31.1138 0.0000 1.6116
# 5 -11.3553 2.0049 13.3269 0.0000 17.5774 0.0000
# 6 0.0000 0.0000 0.0000 1.6116 0.0000 27.9273
#
#
#
# Elastic Compliance Matrix: (Units=1/GPa)
#
#
# Indices 1 2 3 4 5 6 
#
# 1 0.099654 -0.013980 -0.059882 0.000000 0.111375 0.000000
# 2 -0.013980 0.061161 -0.017462 0.000000 -0.002768 0.000000
# 3 -0.059882 -0.017462 0.059021 0.000000 -0.081442 0.000000
# 4 0.000000 0.000000 0.000000 0.032236 0.000000 -0.001860
# 5 0.111375 -0.002768 -0.081442 0.000000 0.190906 0.000000
# 6 0.000000 0.000000 0.000000 -0.001860 0.000000 0.035915
#
#
# Mechanical properties :
#
#
# Convention : Reuss Voigt Hill
#
# Bulk Modulus (GPa) = 26.89027 45.35729 36.12378
# Shear Modulus (GPa) = 7.41910 20.08852 13.75381
#
# Velocity S-wave (km/s) = 2.04591 3.36655 2.78563
# Velocity P-wave (km/s) = 4.55545 6.37977 5.54318
#
# Compressibility (1/GPa) = 0.03718817
#
# Stress axis : x y z
#
# Youngs Moduli (GPa) = 10.03471 16.35042 16.94318
#
# Poissons Ratio (x) = 0.22858 1.01459
# Poissons Ratio (y) = 0.14029 0.29585
# Poissons Ratio (z) = 0.60090 0.28550
#
# Static dielectric constant tensor:
#      x y z
#    x 1.589440 0.000000 -0.021130 
#    y 0.000000 1.592910 0.000000 
#    z -0.021130 0.000000 1.599690 
# 
# From -- ./inp_files/187747.got.cif
#   From: 2010.05.17/outbox.cif.g08.bks.cpg/sg12_94_cif.got.tgz:187747.got - 2010.06.03 13:09:07.
