data_PCOD9194277
_publ_section_title
;
Structure prediction by ZEFSAII (Michael W. Deem and Ramdas Pophale) SiO2 
 PCOD9194277
Probable space group: C 2/M
;
_chemical_formula_sum "Si O2"
_cell_formula_units_Z 60
_cell_length_a 8.951115
_cell_length_b 11.855065
_cell_length_c 30.421536
_cell_angle_alpha 90.000000
_cell_angle_beta 111.661841
_cell_angle_gamma 90.000000
_cell_volume 3000.232356
_symmetry_space_group_name_H-M "C 2/M"
_symmetry_group_IT_number 12
_symmetry_cell_setting 'monoclinic'
loop_
_space_group_symop_operation_xyz
x,y,z
-x,y,-z
-x,-y,-z
x,-y,z
1/2+x,1/2+y,z
1/2-x,1/2+y,-z
1/2-x,1/2-y,-z
1/2+x,1/2-y,z
loop_
_atom_site_type_symbol
_atom_site_label
_atom_site_fract_x
_atom_site_fract_y
_atom_site_fract_z
Si Si1 0.734273 0.364824 0.719772
Si Si2 0.598170 0.631730 0.053824
Si Si3 0.886050 0.782780 0.668890
Si Si4 0.271033 0.867150 0.826018
Si Si5 0.323367 0.000000 0.374374
Si Si6 0.308441 0.367215 0.421697
Si Si7 0.459534 0.176582 0.545919
Si Si8 0.585433 0.268264 0.886173
O O1 0.752093 0.500000 0.715046
O O2 0.871804 0.291859 0.711357
O O3 0.568597 0.320351 0.680340
O O4 0.729337 0.340269 0.771058
O O5 0.637703 0.500000 0.053362
O O6 0.485887 0.650428 0.084199
O O7 0.760373 0.702394 0.078188
O O8 0.500000 0.668588 0.000000
O O9 0.811820 0.698826 0.624192
O O10 0.785875 0.898520 0.659636
O O11 0.440544 0.813993 0.857821
O O12 0.141842 0.826997 0.847539
O O13 0.284629 0.000000 0.830255
O O14 0.431991 0.096963 0.411669
O O15 0.317998 0.500000 0.413302
O O16 0.478516 0.304088 0.438774
O O17 0.222965 0.346377 0.459513
O O18 0.500000 0.149599 0.500000
#
# Coordination Sequence:
#
# PCOD9194277 Si02
#       8
#     8   8   8   8   4   8   8   8
#     4  11  23  40  62  89 117 151 194 245 291 353
#     4  10  20  34  55  84 116 155 201 244 289 342
#     4  11  22  41  62  87 119 151 192 238 293 344
#     4  10  21  37  58  83 114 151 194 238 296 348
#     4  10  21  38  64  84 114 158 184 228 290 340
#     4  11  24  41  63  90 120 154 193 236 288 345
#     4  11  23  43  63  90 121 154 193 236 282 342
#     4  10  20  36  57  81 117 156 193 243 294 346
#
# _framework density 19.998452
#
# number of rings (size 3 to 8) (size 9 to 14) (size 15 to 20)
#    0.000    1.467    1.333    4.600    0.000    0.267 
#    6.000    0.000    2.933    6.400    0.000    0.000 
#    0.000    0.000    0.000    0.000    0.000    0.000 
#
# Total GULP energy -167111.829965 kJ/mol
# GULP energy per Si atom -5570.394332 kJ/mol
# Density = 1.995293 g / cm^3
# Si number density = 19.998452 Si / 1000 Ang^3
#
#
#
# Elastic Constant Matrix: (Units=GPa)
#
#
# Indices 1 2 3 4 5 6 
#
# 1 55.1316 19.6181 7.7730 0.0000 -3.5502 0.0000
# 2 19.6181 119.3467 26.8097 0.0000 2.7072 0.0000
# 3 7.7730 26.8097 62.9860 0.0000 -6.4542 0.0000
# 4 0.0000 0.0000 0.0000 26.2098 0.0000 0.3625
# 5 -3.5502 2.7072 -6.4542 0.0000 28.7586 0.0000
# 6 0.0000 0.0000 0.0000 0.3625 0.0000 25.8142
#
#
#
# Elastic Compliance Matrix: (Units=1/GPa)
#
#
# Indices 1 2 3 4 5 6 
#
# 1 0.019513 -0.003075 -0.000842 0.000000 0.002509 0.000000
# 2 -0.003075 0.009841 -0.004036 0.000000 -0.002212 0.000000
# 3 -0.000842 -0.004036 0.018144 0.000000 0.004348 0.000000
# 4 0.000000 0.000000 0.000000 0.038161 0.000000 -0.000536
# 5 0.002509 -0.002212 0.004348 0.000000 0.036266 0.000000
# 6 0.000000 0.000000 0.000000 -0.000536 0.000000 0.038746
#
#
# Mechanical properties :
#
#
# Convention : Reuss Voigt Hill
#
# Bulk Modulus (GPa) = 31.65390 38.42953 35.04171
# Shear Modulus (GPa) = 26.72247 28.37407 27.54827
#
# Velocity S-wave (km/s) = 3.65941 3.77080 3.71552
# Velocity P-wave (km/s) = 5.80668 6.18195 5.99725
#
# Compressibility (1/GPa) = 0.03159169
#
# Stress axis : x y z
#
# Youngs Moduli (GPa) = 51.24772 101.61268 55.11489
#
# Poissons Ratio (x) = 0.31249 0.04640
# Poissons Ratio (y) = 0.15760 0.22245
# Poissons Ratio (z) = 0.04315 0.41011
#
# Static dielectric constant tensor:
#      x y z
#    x 1.729170 0.000000 -0.026190 
#    y 0.000000 1.675930 0.000000 
#    z -0.026190 0.000000 1.730180 
# 
# From -- ./inp_files/372183.got.cif
#   From: 2010.05.17/outbox.cif.g08.bks.cpg/sg12_187_cif.got.tgz:372183.got - 2010.06.03 13:09:07.
