data_PCOD9194199
_publ_section_title
;
Structure prediction by ZEFSAII (Michael W. Deem and Ramdas Pophale) SiO2 
 PCOD9194199
Probable space group: C 2/M
;
_chemical_formula_sum "Si O2"
_cell_formula_units_Z 48
_cell_length_a 13.811125
_cell_length_b 8.122984
_cell_length_c 26.783692
_cell_angle_alpha 90.000000
_cell_angle_beta 43.070122
_cell_angle_gamma 90.000000
_cell_volume 2051.954414
_symmetry_space_group_name_H-M "C 2/M"
_symmetry_group_IT_number 12
_symmetry_cell_setting 'monoclinic'
loop_
_space_group_symop_operation_xyz
x,y,z
-x,y,-z
-x,-y,-z
x,-y,z
1/2+x,1/2+y,z
1/2-x,1/2+y,-z
1/2-x,1/2-y,-z
1/2+x,1/2-y,z
loop_
_atom_site_type_symbol
_atom_site_label
_atom_site_fract_x
_atom_site_fract_y
_atom_site_fract_z
Si Si1 0.173867 0.198554 0.078999
Si Si2 0.427951 0.194806 0.325472
Si Si3 0.140490 0.193326 0.787276
Si Si4 0.402025 0.194174 0.632900
Si Si5 0.669368 0.304659 0.479750
Si Si6 0.201733 0.192517 0.176394
O O1 0.245854 0.245476 0.104343
O O2 0.013853 0.265466 0.144382
O O3 0.166964 0.000000 0.081418
O O4 0.250000 0.250000 0.000000
O O5 0.510097 0.212067 0.347954
O O6 0.270005 0.261846 0.397195
O O7 0.531809 0.284555 0.247783
O O8 0.424995 0.000000 0.314787
O O9 0.247919 0.267056 0.705348
O O10 0.222362 0.207477 0.808993
O O11 0.125579 0.000000 0.780960
O O12 0.505455 0.264112 0.551637
O O13 0.389360 0.000000 0.628557
O O14 0.680246 0.500000 0.471658
O O15 0.750000 0.250000 0.500000
O O16 0.233875 0.000000 0.171260
#
# Coordination Sequence:
#
# PCOD9194199 Si02
#       6
#     8   8   8   8   8   8
#     4  10  23  41  59  81 108 137 171 214 265 320
#     4   8  15  27  43  67 101 141 177 209 255 312
#     4   9  19  37  57  77 107 145 177 208 259 323
#     4   8  14  25  43  67  95 131 174 213 249 296
#     4   9  15  22  36  63  99 134 171 213 252 295
#     4  10  20  34  55  83 109 134 174 225 263 299
#
# _framework density 23.392334000000002
#
# number of rings (size 3 to 8) (size 9 to 14) (size 15 to 20)
#    0.000    3.000    0.000    3.000    0.000    9.333 
#    0.000    3.333    0.000    1.000    0.000    7.000 
#    0.000    0.000    0.000    0.000    0.000    0.000 
#
# Total GULP energy -133987.730434 kJ/mol
# GULP energy per Si atom -5582.822101 kJ/mol
# Density = 2.333909 g / cm^3
# Si number density = 23.392334 Si / 1000 Ang^3
#
#
#
# Elastic Constant Matrix: (Units=GPa)
#
#
# Indices 1 2 3 4 5 6 
#
# 1 56.2785 -2.8535 41.7548 0.0001 3.3807 -0.0001
# 2 -2.8535 17.2949 15.0213 0.0001 1.9552 -0.0004
# 3 41.7548 15.0213 161.3073 -0.0001 27.7840 0.0000
# 4 0.0001 0.0001 -0.0001 35.1177 0.0001 -1.6007
# 5 3.3807 1.9552 27.7840 0.0001 43.5073 0.0000
# 6 -0.0001 -0.0004 0.0000 -1.6007 0.0000 16.8366
#
#
#
# Elastic Compliance Matrix: (Units=1/GPa)
#
#
# Indices 1 2 3 4 5 6 
#
# 1 0.023707 0.010154 -0.007513 0.000000 0.002499 0.000000
# 2 0.010154 0.067299 -0.009257 0.000000 0.002098 0.000002
# 3 -0.007513 -0.009257 0.009926 0.000000 -0.005339 0.000000
# 4 0.000000 0.000000 0.000000 0.028600 0.000000 0.002719
# 5 0.002499 0.002098 -0.005339 0.000000 0.026105 0.000000
# 6 0.000000 0.000002 0.000000 0.002719 0.000000 0.059653
#
#
# Mechanical properties :
#
#
# Convention : Reuss Voigt Hill
#
# Bulk Modulus (GPa) = 11.40237 38.08063 24.74150
# Shear Modulus (GPa) = 19.39831 31.15620 25.27726
#
# Velocity S-wave (km/s) = 2.88281 3.65348 3.29078
# Velocity P-wave (km/s) = 3.99572 5.84052 5.00387
#
# Compressibility (1/GPa) = 0.08770107
#
# Stress axis : x y z
#
# Youngs Moduli (GPa) = 42.18077 14.85912 100.74933
#
# Poissons Ratio (x) = -0.15088 0.75691
# Poissons Ratio (y) = -0.42831 0.93262
# Poissons Ratio (z) = 0.31690 0.13755
#
# Static dielectric constant tensor:
#      x y z
#    x 1.977020 0.000000 -0.018070 
#    y 0.000000 1.799020 0.000000 
#    z -0.018070 0.000000 1.924160 
# 
# From -- ./inp_files/360259.got.cif
#   From: 2010.05.17/outbox.cif.g08.bks.cpg/sg12_181_cif.got.tgz:360259.got - 2010.06.03 13:09:07.
