data_PCOD9194308
_publ_section_title
;
Structure prediction by ZEFSAII (Michael W. Deem and Ramdas Pophale) SiO2 
 PCOD9194308
Probable space group: C 2/M
;
_chemical_formula_sum "Si O2"
_cell_formula_units_Z 64
_cell_length_a 17.545111
_cell_length_b 16.101322
_cell_length_c 26.295383
_cell_angle_alpha 90.000000
_cell_angle_beta 152.358696
_cell_angle_gamma 90.000000
_cell_volume 3446.307929
_symmetry_space_group_name_H-M "C 2/M"
_symmetry_group_IT_number 12
_symmetry_cell_setting 'monoclinic'
loop_
_space_group_symop_operation_xyz
x,y,z
-x,y,-z
-x,-y,-z
x,-y,z
1/2+x,1/2+y,z
1/2-x,1/2+y,-z
1/2-x,1/2-y,-z
1/2+x,1/2-y,z
loop_
_atom_site_type_symbol
_atom_site_label
_atom_site_fract_x
_atom_site_fract_y
_atom_site_fract_z
Si Si1 0.975789 0.406239 0.678209
Si Si2 0.505720 0.288592 0.064405
Si Si3 0.310227 0.803691 0.383055
Si Si4 0.700786 0.902567 0.722143
Si Si5 0.707609 0.723108 0.530839
Si Si6 0.798593 0.595288 0.093076
Si Si7 0.098329 0.662069 0.202212
Si Si8 0.450259 0.407997 0.410733
O O1 0.911761 0.500000 0.638154
O O2 0.843263 0.346189 0.624036
O O3 0.038078 0.381790 0.658846
O O4 0.129415 0.405828 0.807170
O O5 0.657109 0.347997 0.168880
O O6 0.533819 0.203038 0.111755
O O7 0.500000 0.278325 0.000000
O O8 0.346320 0.337368 0.991627
O O9 0.500000 0.776297 0.500000
O O10 0.311496 0.879703 0.344630
O O11 0.267421 0.801349 0.417042
O O12 0.185950 0.737720 0.284684
O O13 0.731096 0.000000 0.746856
O O14 0.750000 0.750000 0.500000
O O15 0.539305 0.670201 0.436381
O O16 0.745848 0.500000 0.050013
O O17 0.947367 0.622226 0.143830
O O18 0.254186 0.601424 0.288484
O O19 0.500000 0.405021 0.500000
O O20 0.500645 0.500000 0.421915
#
# Coordination Sequence:
#
# PCOD9194308 Si02
#       8
#     8   8   8   8   8   8   8   8
#     4  10  20  34  55  85 115 144 190 241 290 342
#     4  11  23  37  61  88 116 149 198 250 306 350
#     4  11  20  37  55  83 118 152 193 229 283 354
#     4  10  22  38  59  82 114 157 195 238 291 352
#     4  12  22  34  57  87 122 154 188 238 287 345
#     4  11  21  36  59  85 114 145 188 249 301 345
#     4  11  21  38  59  87 117 152 196 244 294 350
#     4  11  21  38  63  89 118 153 195 241 289 341
#
# _framework density 18.570599000000001
#
# number of rings (size 3 to 8) (size 9 to 14) (size 15 to 20)
#    0.000    1.125    5.000    2.250    1.750    2.750 
#    0.000    1.250    0.000    1.500    0.000    0.000 
#    0.000    0.000    0.000    0.000    0.000    0.000 
#
# Total GULP energy -178326.913250 kJ/mol
# GULP energy per Si atom -5572.716039 kJ/mol
# Density = 1.852833 g / cm^3
# Si number density = 18.570599 Si / 1000 Ang^3
#
#
#
# Elastic Constant Matrix: (Units=GPa)
#
#
# Indices 1 2 3 4 5 6 
#
# 1 120.4559 37.4831 35.1431 -0.0021 -12.7718 -0.0013
# 2 37.4831 57.1641 21.8391 -0.0035 -3.5557 -0.0018
# 3 35.1431 21.8391 71.9596 -0.0085 -0.9332 -0.0027
# 4 -0.0021 -0.0035 -0.0085 13.7184 0.0005 -0.5575
# 5 -12.7718 -3.5557 -0.9332 0.0005 32.4357 0.0008
# 6 -0.0013 -0.0018 -0.0027 -0.5575 0.0008 18.2387
#
#
#
# Elastic Compliance Matrix: (Units=1/GPa)
#
#
# Indices 1 2 3 4 5 6 
#
# 1 0.011684 -0.005952 -0.003850 -0.000002 0.003837 -0.000001
# 2 -0.005952 0.022950 -0.004058 0.000003 0.000056 0.000001
# 3 -0.003850 -0.004058 0.016989 0.000009 -0.001472 0.000002
# 4 -0.000002 0.000003 0.000009 0.072986 -0.000002 0.002231
# 5 0.003837 0.000056 -0.001472 -0.000002 0.032305 -0.000001
# 6 -0.000001 0.000001 0.000002 0.002231 -0.000001 0.054897
#
#
# Mechanical properties :
#
#
# Convention : Reuss Voigt Hill
#
# Bulk Modulus (GPa) = 41.83374 48.72334 45.27854
# Shear Modulus (GPa) = 20.20224 23.21950 21.71087
#
# Velocity S-wave (km/s) = 3.30185 3.53985 3.42292
# Velocity P-wave (km/s) = 6.09197 6.55752 6.32903
#
# Compressibility (1/GPa) = 0.02390415
#
# Stress axis : x y z
#
# Youngs Moduli (GPa) = 85.58731 43.57345 58.86040
#
# Poissons Ratio (x) = 0.25934 0.22662
# Poissons Ratio (y) = 0.50939 0.23884
# Poissons Ratio (z) = 0.32952 0.17681
#
# Static dielectric constant tensor:
#      x y z
#    x 1.679740 0.000000 0.011980 
#    y 0.000000 1.655910 0.000000 
#    z 0.011980 0.000000 1.656460 
# 
# From -- ./inp_files/340872.got.cif
#   From: 2010.05.17/outbox.cif.g08.bks.cpg/sg12_171_cif.got.tgz:340872.got - 2010.06.03 13:09:07.
