data_PCOD9194128
_publ_section_title
;
Structure prediction by ZEFSAII (Michael W. Deem and Ramdas Pophale) SiO2 
 PCOD9194128
Probable space group: C 2/M
;
_chemical_formula_sum "Si O2"
_cell_formula_units_Z 56
_cell_length_a 19.476518
_cell_length_b 8.853485
_cell_length_c 30.740156
_cell_angle_alpha 90.000000
_cell_angle_beta 37.275658
_cell_angle_gamma 90.000000
_cell_volume 3210.359300
_symmetry_space_group_name_H-M "C 2/M"
_symmetry_group_IT_number 12
_symmetry_cell_setting 'monoclinic'
loop_
_space_group_symop_operation_xyz
x,y,z
-x,y,-z
-x,-y,-z
x,-y,z
1/2+x,1/2+y,z
1/2-x,1/2+y,-z
1/2-x,1/2-y,-z
1/2+x,1/2-y,z
loop_
_atom_site_type_symbol
_atom_site_label
_atom_site_fract_x
_atom_site_fract_y
_atom_site_fract_z
Si Si1 0.026376 0.319494 0.342232
Si Si2 0.323557 0.180913 0.502238
Si Si3 0.126275 0.819373 0.062761
Si Si4 0.227109 0.679583 0.779693
Si Si5 0.918799 0.818149 0.224845
Si Si6 0.353529 0.180594 0.350028
Si Si7 0.458871 0.681758 0.068759
O O1 0.047523 0.500000 0.330939
O O2 0.952172 0.285115 0.422937
O O3 0.946683 0.284510 0.340672
O O4 0.143462 0.231736 0.281994
O O5 0.250000 0.250000 0.500000
O O6 0.266647 0.251359 0.573495
O O7 0.311024 0.000000 0.509168
O O8 0.044081 0.774500 0.144106
O O9 0.056276 0.779512 0.054574
O O10 0.136750 0.000000 0.058578
O O11 0.250000 0.750000 0.000000
O O12 0.218649 0.500000 0.780376
O O13 0.168754 0.756536 0.767069
O O14 0.154581 0.737910 0.857487
O O15 0.891599 0.750135 0.285333
O O16 0.912231 0.000000 0.229094
O O17 0.344711 0.000000 0.351709
O O18 0.441464 0.500000 0.079277
O O19 0.500000 0.722407 0.000000
#
# Coordination Sequence:
#
# PCOD9194128 Si02
#       7
#     8   8   8   8   8   8   8
#     4   9  19  35  54  77 107 142 176 212 259 314
#     4   9  17  31  52  77 106 140 175 215 263 310
#     4   9  19  34  53  76 101 133 169 209 257 307
#     4  11  22  35  54  79 107 139 176 220 264 307
#     4  10  21  38  56  75 106 144 177 212 262 319
#     4  10  20  34  55  82 108 137 176 220 264 310
#     4   9  19  37  57  75 100 137 176 212 258 313
#
# _framework density 17.443529999999999
#
# number of rings (size 3 to 8) (size 9 to 14) (size 15 to 20)
#    0.000    2.429    0.000    4.286    0.000    7.714 
#    0.000    5.000    0.000    4.286    0.000    0.000 
#    0.000    0.000    0.000    0.000    0.000    0.000 
#
# Total GULP energy -156160.632847 kJ/mol
# GULP energy per Si atom -5577.165459 kJ/mol
# Density = 1.740383 g / cm^3
# Si number density = 17.443530 Si / 1000 Ang^3
#
#
#
# Elastic Constant Matrix: (Units=GPa)
#
#
# Indices 1 2 3 4 5 6 
#
# 1 51.7271 41.1642 82.9671 0.0002 6.5497 -0.0009
# 2 41.1642 69.8736 80.0088 0.0004 -1.6721 -0.0006
# 3 82.9671 80.0088 200.6683 0.0000 9.6723 -0.0002
# 4 0.0002 0.0004 0.0000 35.4137 0.0000 -1.5191
# 5 6.5497 -1.6721 9.6723 0.0000 33.6781 0.0002
# 6 -0.0009 -0.0006 -0.0002 -1.5191 0.0002 27.5403
#
#
#
# Elastic Compliance Matrix: (Units=1/GPa)
#
#
# Indices 1 2 3 4 5 6 
#
# 1 0.065470 -0.015034 -0.020711 0.000000 -0.007531 0.000002
# 2 -0.015034 0.030441 -0.006221 0.000000 0.006222 0.000000
# 3 -0.020711 -0.006221 0.016070 0.000000 -0.000896 -0.000001
# 4 0.000000 0.000000 0.000000 0.028305 0.000000 0.001561
# 5 -0.007531 0.006222 -0.000896 0.000000 0.031724 0.000000
# 6 0.000002 0.000000 -0.000001 0.001561 0.000000 0.036397
#
#
# Mechanical properties :
#
#
# Convention : Reuss Voigt Hill
#
# Bulk Modulus (GPa) = 35.65408 81.17214 58.41311
# Shear Modulus (GPa) = 16.57337 27.20169 21.88753
#
# Velocity S-wave (km/s) = 3.08574 3.95323 3.54611
# Velocity P-wave (km/s) = 5.76019 8.21417 7.09410
#
# Compressibility (1/GPa) = 0.02804728
#
# Stress axis : x y z
#
# Youngs Moduli (GPa) = 15.27421 32.85041 62.22717
#
# Poissons Ratio (x) = 0.49389 1.28881
# Poissons Ratio (y) = 0.22964 0.38712
# Poissons Ratio (z) = 0.31635 0.20436
#
# Static dielectric constant tensor:
#      x y z
#    x 1.589380 0.000000 0.018110 
#    y 0.000000 1.582520 0.000000 
#    z 0.018110 0.000000 1.610090 
# 
# From -- ./inp_files/377676.got.cif
#   From: 2010.05.17/outbox.cif.g08.bks.cpg/sg12_189_cif.got.tgz:377676.got - 2010.06.03 13:09:07.
