data_PCOD9194770
_publ_section_title
;
Structure prediction by ZEFSAII (Michael W. Deem and Ramdas Pophale) SiO2 
 PCOD9194770
Probable space group: C 2/M
;
_chemical_formula_sum "Si O2"
_cell_formula_units_Z 58
_cell_length_a 13.755377
_cell_length_b 13.182301
_cell_length_c 15.565396
_cell_angle_alpha 90.000000
_cell_angle_beta 106.919952
_cell_angle_gamma 90.000000
_cell_volume 2700.257937
_symmetry_space_group_name_H-M "C 2/M"
_symmetry_group_IT_number 12
_symmetry_cell_setting 'monoclinic'
loop_
_space_group_symop_operation_xyz
x,y,z
-x,y,-z
-x,-y,-z
x,-y,z
1/2+x,1/2+y,z
1/2-x,1/2+y,-z
1/2-x,1/2-y,-z
1/2+x,1/2-y,z
loop_
_atom_site_type_symbol
_atom_site_label
_atom_site_fract_x
_atom_site_fract_y
_atom_site_fract_z
Si Si1 0.057247 0.383121 0.427226
Si Si2 0.207555 0.117920 0.461763
Si Si3 0.500000 0.500000 0.000000
Si Si4 0.953100 0.196147 0.684303
Si Si5 0.417528 0.670933 0.115962
Si Si6 0.499133 0.114559 0.897828
Si Si7 0.131619 0.120360 0.620570
Si Si8 0.266773 0.877981 0.812479
O O1 0.032027 0.500000 0.401398
O O2 0.175402 0.377120 0.482525
O O3 0.032495 0.313294 0.339098
O O4 0.000000 0.353789 0.500000
O O5 0.163285 0.170695 0.366134
O O6 0.151301 0.161678 0.531372
O O7 0.182912 0.000000 0.443778
O O8 0.551845 0.591362 0.950671
O O9 0.999895 0.159459 0.785356
O O10 0.021118 0.138605 0.630345
O O11 0.426341 0.791361 0.099651
O O12 0.305655 0.651315 0.126651
O O13 0.384733 0.150590 0.844543
O O14 0.519101 0.000000 0.866988
O O15 0.500000 0.102999 0.000000
O O16 0.210292 0.159854 0.712219
O O17 0.148982 0.000000 0.618026
O O18 0.266600 0.000000 0.810608
#
# Coordination Sequence:
#
# PCOD9194770 Si02
#       8
#     8   8   2   8   8   8   8   8
#     4  10  22  39  56  82 127 184 216 250 305 373
#     4  10  20  34  57  87 120 164 204 258 305 362
#     4  12  24  48  70  96 132 164 222 262 378 412
#     4  11  22  35  60  88 122 156 211 265 311 370
#     4  11  24  42  67  96 126 173 210 280 335 416
#     4  10  22  42  66  97 125 162 212 271 326 392
#     4   9  18  33  57  90 120 155 200 252 313 369
#     4   9  19  38  66  93 130 170 210 263 330 400
#
# _framework density 21.479429
#
# number of rings (size 3 to 8) (size 9 to 14) (size 15 to 20)
#    0.000    1.931    1.379    2.069    3.862    2.207 
#    2.483    0.000    0.000    0.000    0.000    0.000 
#    0.000    0.000    0.000    0.000    0.000    0.000 
#
# Total GULP energy -161556.973416 kJ/mol
# GULP energy per Si atom -5570.930118 kJ/mol
# Density = 2.143054 g / cm^3
# Si number density = 21.479429 Si / 1000 Ang^3
#
#
#
# Elastic Constant Matrix: (Units=GPa)
#
#
# Indices 1 2 3 4 5 6 
#
# 1 33.4932 17.6244 3.0557 0.0000 -5.6746 0.0000
# 2 17.6244 105.6586 -2.7009 0.0000 -16.0972 0.0000
# 3 3.0557 -2.7009 29.2205 0.0000 -4.5530 0.0000
# 4 0.0000 0.0000 0.0000 1383.6770 0.0000 -851.7786
# 5 -5.6746 -16.0972 -4.5530 0.0000 29.0889 0.0000
# 6 0.0000 0.0000 0.0000 -851.7786 0.0000 561.1031
#
#
#
# Elastic Compliance Matrix: (Units=1/GPa)
#
#
# Indices 1 2 3 4 5 6 
#
# 1 0.033434 -0.005194 -0.003493 0.000000 0.003101 0.000000
# 2 -0.005194 0.011246 0.002454 0.000000 0.005594 0.000000
# 3 -0.003493 0.002454 0.035793 0.000000 0.006279 0.000000
# 4 0.000000 0.000000 0.000000 0.011033 0.000000 0.016748
# 5 0.003101 0.005594 0.006279 0.000000 0.039061 0.000000
# 6 0.000000 0.000000 0.000000 0.016748 0.000000 0.027206
#
#
# Mechanical properties :
#
#
# Convention : Reuss Voigt Hill
#
# Bulk Modulus (GPa) = 14.70426 22.70342 18.70384
# Shear Modulus (GPa) = 25.91922 404.80000 215.35961
#
# Velocity S-wave (km/s) = 3.47753 13.74294 10.02401
# Velocity P-wave (km/s) = 4.79425 16.19930 11.94576
#
# Compressibility (1/GPa) = 0.06800752
#
# Stress axis : x y z
#
# Youngs Moduli (GPa) = 29.90975 88.92212 27.93836
#
# Poissons Ratio (x) = 0.46184 0.09759
# Poissons Ratio (y) = 0.15534 -0.06857
# Poissons Ratio (z) = 0.10448 -0.21824
#
# Static dielectric constant tensor:
#      x y z
#    x 1.832760 0.000000 0.031420 
#    y 0.000000 1.843390 0.000000 
#    z 0.031420 0.000000 1.827350 
# 
# From -- ./inp_files/214913.got.cif
#   From: 2010.05.17/outbox.cif.g08.bks.cpg/sg12_108_cif.got.tgz:214913.got - 2010.06.03 13:09:07.
