data_PCOD9194490
_publ_section_title
;
Structure prediction by ZEFSAII (Michael W. Deem and Ramdas Pophale) SiO2 
 PCOD9194490
Probable space group: C 2/M
;
_chemical_formula_sum "Si O2"
_cell_formula_units_Z 60
_cell_length_a 15.338619
_cell_length_b 9.278489
_cell_length_c 26.590706
_cell_angle_alpha 90.000000
_cell_angle_beta 124.478081
_cell_angle_gamma 90.000000
_cell_volume 3119.616731
_symmetry_space_group_name_H-M "C 2/M"
_symmetry_group_IT_number 12
_symmetry_cell_setting 'monoclinic'
loop_
_space_group_symop_operation_xyz
x,y,z
-x,y,-z
-x,-y,-z
x,-y,z
1/2+x,1/2+y,z
1/2-x,1/2+y,-z
1/2-x,1/2-y,-z
1/2+x,1/2-y,z
loop_
_atom_site_type_symbol
_atom_site_label
_atom_site_fract_x
_atom_site_fract_y
_atom_site_fract_z
Si Si1 0.469524 0.329235 0.850177
Si Si2 0.500000 0.734104 0.500000
Si Si3 0.480582 0.825917 0.330789
Si Si4 0.784987 0.172596 0.062326
Si Si5 0.908698 0.172830 0.717076
Si Si6 0.593290 0.827013 0.069523
Si Si7 0.356784 0.663351 0.544820
Si Si8 0.325260 0.168805 0.364520
O O1 0.461041 0.500000 0.857469
O O2 0.593793 0.292973 0.886435
O O3 0.416295 0.301772 0.779096
O O4 0.422848 0.244691 0.881987
O O5 0.427331 0.655411 0.517259
O O6 0.587244 0.814198 0.563185
O O7 0.499956 0.757221 0.282804
O O8 0.575624 0.757117 0.394258
O O9 0.377266 0.779033 0.329097
O O10 0.485261 0.000000 0.331408
O O11 0.704170 0.212928 0.080072
O O12 0.776129 0.000000 0.052498
O O13 0.750000 0.250000 0.000000
O O14 0.791600 0.226401 0.661943
O O15 0.920810 0.000000 0.711966
O O16 0.588197 0.000000 0.073137
O O17 0.500000 0.784501 0.000000
O O18 0.336484 0.500000 0.556273
O O19 0.250000 0.750000 0.500000
O O20 0.307894 0.000000 0.351512
#
# Coordination Sequence:
#
# PCOD9194490 Si02
#       8
#     8   4   8   8   8   8   8   8
#     4  10  22  37  56  83 113 148 189 230 277 337
#     4  10  20  34  56  84 111 144 189 236 283 332
#     4  10  21  37  56  80 107 143 188 232 276 332
#     4  10  20  35  55  81 112 145 182 226 275 328
#     4  10  21  39  58  79 112 151 187 229 283 338
#     4  10  20  35  56  82 113 147 183 229 282 331
#     4  11  22  36  55  82 114 147 183 230 284 339
#     4   9  19  35  56  80 111 146 184 230 283 339
#
# _framework density 19.233132000000001
#
# number of rings (size 3 to 8) (size 9 to 14) (size 15 to 20)
#    0.000    2.000    1.333    2.000    0.000    5.067 
#    0.000    3.333    0.000    0.000    0.000    0.000 
#    0.000    0.000    0.000    0.000    0.000    0.000 
#
# Total GULP energy -167322.638603 kJ/mol
# GULP energy per Si atom -5577.421287 kJ/mol
# Density = 1.918936 g / cm^3
# Si number density = 19.233132 Si / 1000 Ang^3
#
#
#
# Elastic Constant Matrix: (Units=GPa)
#
#
# Indices 1 2 3 4 5 6 
#
# 1 119.7652 31.8123 35.5590 0.0000 -21.5524 0.0000
# 2 31.8123 42.3874 17.7388 0.0000 -12.0290 0.0000
# 3 35.5590 17.7388 62.7547 0.0000 -19.7900 0.0000
# 4 0.0000 0.0000 0.0000 22.2408 0.0000 -5.1981
# 5 -21.5524 -12.0290 -19.7900 0.0000 36.4690 0.0000
# 6 0.0000 0.0000 0.0000 -5.1981 0.0000 21.3227
#
#
#
# Elastic Compliance Matrix: (Units=1/GPa)
#
#
# Indices 1 2 3 4 5 6 
#
# 1 0.011702 -0.006358 -0.003998 0.000000 0.002649 0.000000
# 2 -0.006358 0.031229 -0.003814 0.000000 0.004474 0.000000
# 3 -0.003998 -0.003814 0.021881 0.000000 0.008253 0.000000
# 4 0.000000 0.000000 0.000000 0.047679 0.000000 0.011623
# 5 0.002649 0.004474 0.008253 0.000000 0.034940 0.000000
# 6 0.000000 0.000000 0.000000 0.011623 0.000000 0.049732
#
#
# Mechanical properties :
#
#
# Convention : Reuss Voigt Hill
#
# Bulk Modulus (GPa) = 27.41808 43.90304 35.66056
# Shear Modulus (GPa) = 21.03828 25.32632 23.18230
#
# Velocity S-wave (km/s) = 3.31094 3.63272 3.47555
# Velocity P-wave (km/s) = 5.37615 6.36175 5.88960
#
# Compressibility (1/GPa) = 0.03647229
#
# Stress axis : x y z
#
# Youngs Moduli (GPa) = 85.45360 32.02129 45.70079
#
# Poissons Ratio (x) = 0.20358 0.18273
# Poissons Ratio (y) = 0.54328 0.17432
# Poissons Ratio (z) = 0.34168 0.12214
#
# Static dielectric constant tensor:
#      x y z
#    x 1.689710 0.000000 -0.003870 
#    y 0.000000 1.649310 0.000000 
#    z -0.003870 0.000000 1.683710 
# 
# From -- ./inp_files/338939.got.cif
#   From: 2010.05.17/outbox.cif.g08.bks.cpg/sg12_170_cif.got.tgz:338939.got - 2010.06.03 13:09:07.
