data_PCOD9194536
_publ_section_title
;
Structure prediction by ZEFSAII (Michael W. Deem and Ramdas Pophale) SiO2 
 PCOD9194536
Probable space group: C 2/M
;
_chemical_formula_sum "Si O2"
_cell_formula_units_Z 64
_cell_length_a 14.584689
_cell_length_b 7.686581
_cell_length_c 25.569162
_cell_angle_alpha 90.000000
_cell_angle_beta 92.360182
_cell_angle_gamma 90.000000
_cell_volume 2864.034882
_symmetry_space_group_name_H-M "C 2/M"
_symmetry_group_IT_number 12
_symmetry_cell_setting 'monoclinic'
loop_
_space_group_symop_operation_xyz
x,y,z
-x,y,-z
-x,-y,-z
x,-y,z
1/2+x,1/2+y,z
1/2-x,1/2+y,-z
1/2-x,1/2-y,-z
1/2+x,1/2-y,z
loop_
_atom_site_type_symbol
_atom_site_label
_atom_site_fract_x
_atom_site_fract_y
_atom_site_fract_z
Si Si1 0.398901 0.713342 0.844947
Si Si2 0.989131 0.796555 0.362298
Si Si3 0.191120 0.299629 0.818896
Si Si4 0.153194 0.203069 0.931179
Si Si5 0.132916 0.787708 0.042893
Si Si6 0.977116 0.797341 0.246181
Si Si7 0.165852 0.295655 0.568026
Si Si8 0.128818 0.788705 0.452347
O O1 0.401189 0.500000 0.845779
O O2 0.294404 0.767567 0.829286
O O3 0.419885 0.765153 0.905537
O O4 0.464081 0.778185 0.800409
O O5 0.992219 0.720652 0.304089
O O6 0.888939 0.785330 0.385525
O O7 0.057649 0.722233 0.407607
O O8 0.013195 0.000000 0.358345
O O9 0.198968 0.500000 0.804224
O O10 0.141819 0.286844 0.874375
O O11 0.128195 0.211167 0.774401
O O12 0.262429 0.224546 0.945246
O O13 0.129742 0.000000 0.924408
O O14 0.106319 0.268750 0.983640
O O15 0.134622 0.000000 0.041370
O O16 0.003253 0.000000 0.249576
O O17 0.171579 0.500000 0.578116
O O18 0.113868 0.266250 0.511806
O O19 0.268952 0.229499 0.561317
O O20 0.126747 0.000000 0.452991
#
# Coordination Sequence:
#
# PCOD9194536 Si02
#       8
#     8   8   8   8   8   8   8   8
#     4   8  16  33  55  74  97 133 173 211 254 309
#     4  10  21  36  54  76 105 141 176 212 256 306
#     4  10  20  35  54  75 102 135 170 214 267 315
#     4   9  15  25  46  74 101 130 166 209 259 317
#     4   8  14  26  46  73 101 130 167 211 260 312
#     4  10  21  37  55  75  99 133 180 221 252 299
#     4  10  20  34  56  85 112 138 172 213 255 302
#     4   9  19  36  56  79 110 145 176 208 253 307
#
# _framework density 22.346098000000001
#
# number of rings (size 3 to 8) (size 9 to 14) (size 15 to 20)
#    0.000    2.750    0.000    2.250    0.000    4.500 
#    0.000    6.250    0.000    3.750    0.000    0.000 
#    0.000    0.000    0.000    0.000    0.000    0.000 
#
# Total GULP energy -178561.449941 kJ/mol
# GULP energy per Si atom -5580.045311 kJ/mol
# Density = 2.229524 g / cm^3
# Si number density = 22.346098 Si / 1000 Ang^3
#
#
#
# Elastic Constant Matrix: (Units=GPa)
#
#
# Indices 1 2 3 4 5 6 
#
# 1 59.8214 -6.9092 46.6784 0.0000 -6.6112 0.0000
# 2 -6.9092 36.4165 -3.0418 0.0000 1.0307 0.0000
# 3 46.6784 -3.0418 143.5738 0.0000 -5.5608 0.0000
# 4 0.0000 0.0000 0.0000 16.2351 0.0000 1.4549
# 5 -6.6112 1.0307 -5.5608 0.0000 19.0172 0.0000
# 6 0.0000 0.0000 0.0000 1.4549 0.0000 13.5372
#
#
#
# Elastic Compliance Matrix: (Units=1/GPa)
#
#
# Indices 1 2 3 4 5 6 
#
# 1 0.023514 0.003683 -0.007341 0.000000 0.005828 0.000000
# 2 0.003683 0.028119 -0.000618 0.000000 -0.000424 0.000000
# 3 -0.007341 -0.000618 0.009347 0.000000 0.000215 0.000000
# 4 0.000000 0.000000 0.000000 0.062194 0.000000 -0.006684
# 5 0.005828 -0.000424 0.000215 0.000000 0.054696 0.000000
# 6 0.000000 0.000000 0.000000 -0.006684 0.000000 0.074589
#
#
# Mechanical properties :
#
#
# Convention : Reuss Voigt Hill
#
# Bulk Modulus (GPa) = 19.07374 34.80742 26.94058
# Shear Modulus (GPa) = 17.95416 23.29687 20.62551
#
# Velocity S-wave (km/s) = 2.83761 3.23235 3.04139
# Velocity P-wave (km/s) = 4.39206 5.43518 4.94122
#
# Compressibility (1/GPa) = 0.05242811
#
# Stress axis : x y z
#
# Youngs Moduli (GPa) = 42.52760 35.56284 106.98628
#
# Poissons Ratio (x) = -0.13098 0.78540
# Poissons Ratio (y) = -0.15663 0.06613
# Poissons Ratio (z) = 0.31220 0.02198
#
# Static dielectric constant tensor:
#      x y z
#    x 1.851420 0.000000 -0.004550 
#    y 0.000000 1.850160 0.000000 
#    z -0.004550 0.000000 1.826040 
# 
# From -- ./inp_files/341988.got.cif
#   From: 2010.05.17/outbox.cif.g08.bks.cpg/sg12_171_cif.got.tgz:341988.got - 2010.06.03 13:09:07.
