data_PCOD9194081
_publ_section_title
;
Structure prediction by ZEFSAII (Michael W. Deem and Ramdas Pophale) SiO2 
 PCOD9194081
Probable space group: C 2/M
;
_chemical_formula_sum "Si O2"
_cell_formula_units_Z 58
_cell_length_a 7.242895
_cell_length_b 18.255436
_cell_length_c 20.795901
_cell_angle_alpha 90.000000
_cell_angle_beta 72.052242
_cell_angle_gamma 90.000000
_cell_volume 2615.874658
_symmetry_space_group_name_H-M "C 2/M"
_symmetry_group_IT_number 12
_symmetry_cell_setting 'monoclinic'
loop_
_space_group_symop_operation_xyz
x,y,z
-x,y,-z
-x,-y,-z
x,-y,z
1/2+x,1/2+y,z
1/2-x,1/2+y,-z
1/2-x,1/2-y,-z
1/2+x,1/2-y,z
loop_
_atom_site_type_symbol
_atom_site_label
_atom_site_fract_x
_atom_site_fract_y
_atom_site_fract_z
Si Si1 0.450245 0.203509 0.430735
Si Si2 0.226056 0.585735 0.161822
Si Si3 0.231128 0.911569 0.982584
Si Si4 0.418244 0.363568 0.593236
Si Si5 0.780963 0.675428 0.715954
Si Si6 0.668350 0.344792 0.260370
Si Si7 0.500000 0.500000 0.500000
Si Si8 0.300722 0.585618 0.874853
O O1 0.500000 0.193113 0.500000
O O2 0.449925 0.290498 0.413704
O O3 0.246090 0.166867 0.437179
O O4 0.595441 0.169646 0.362290
O O5 0.174909 0.500000 0.172275
O O6 0.178979 0.613564 0.094713
O O7 0.142967 0.630876 0.230538
O O8 0.463180 0.589722 0.142767
O O9 0.256910 0.000000 0.980956
O O10 0.284756 0.884848 0.048355
O O11 0.000000 0.898751 0.000000
O O12 0.310404 0.380797 0.672029
O O13 0.512403 0.435092 0.553960
O O14 0.563504 0.650781 0.725239
O O15 0.774157 0.760508 0.736387
O O16 0.755248 0.377292 0.186042
O O17 0.250997 0.500000 0.875853
#
# Coordination Sequence:
#
# PCOD9194081 Si02
#       8
#     8   8   8   8   8   8   2   8
#     4  11  22  41  68  82 107 157 198 222 274 360
#     4   8  14  27  46  72 104 136 174 229 277 316
#     4   7  10  20  41  67  99 134 174 218 269 327
#     4  11  24  42  65  87 117 151 195 230 291 336
#     4  10  20  34  55  81 105 144 191 224 268 335
#     4  10  20  34  56  77 111 146 182 225 272 335
#     4  12  28  40  62  96 124 138 186 256 290 318
#     4   8  14  25  45  74 100 136 180 222 273 327
#
# _framework density 22.172314
#
# number of rings (size 3 to 8) (size 9 to 14) (size 15 to 20)
#    0.000    2.621    0.690    5.379    2.897    0.000 
#    1.241    1.034    0.000    0.000    0.000    2.897 
#    0.000   13.241    0.000    0.000    0.000    0.000 
#
# Total GULP energy -161633.704266 kJ/mol
# GULP energy per Si atom -5573.576009 kJ/mol
# Density = 2.212185 g / cm^3
# Si number density = 22.172314 Si / 1000 Ang^3
#
#
#
# Elastic Constant Matrix: (Units=GPa)
#
#
# Indices 1 2 3 4 5 6 
#
# 1 51.9040 4.3248 25.0100 0.0000 5.2084 0.0000
# 2 4.3248 56.3807 50.9863 0.0000 2.4574 0.0000
# 3 25.0100 50.9863 240.2822 0.0000 25.7205 0.0000
# 4 0.0000 0.0000 0.0000 44.0146 0.0000 22.0781
# 5 5.2084 2.4574 25.7205 0.0000 44.1317 0.0000
# 6 0.0000 0.0000 0.0000 22.0781 0.0000 55.4791
#
#
#
# Elastic Compliance Matrix: (Units=1/GPa)
#
#
# Indices 1 2 3 4 5 6 
#
# 1 0.020353 0.000358 -0.002064 0.000000 -0.001219 0.000000
# 2 0.000358 0.022060 -0.004887 0.000000 0.001578 0.000000
# 3 -0.002064 -0.004887 0.005715 0.000000 -0.002815 0.000000
# 4 0.000000 0.000000 0.000000 0.028386 0.000000 -0.011296
# 5 -0.001219 0.001578 -0.002815 0.000000 0.024356 0.000000
# 6 0.000000 0.000000 0.000000 -0.011296 0.000000 0.022520
#
#
# Mechanical properties :
#
#
# Convention : Reuss Voigt Hill
#
# Bulk Modulus (GPa) = 28.61828 56.57878 42.59853
# Shear Modulus (GPa) = 33.73283 46.60814 40.17048
#
# Velocity S-wave (km/s) = 3.90474 4.58983 4.26107
# Velocity P-wave (km/s) = 5.76754 7.32542 6.59266
#
# Compressibility (1/GPa) = 0.03494270
#
# Stress axis : x y z
#
# Youngs Moduli (GPa) = 49.13192 45.33123 174.97940
#
# Poissons Ratio (x) = -0.01625 0.36117
# Poissons Ratio (y) = -0.01761 0.85515
# Poissons Ratio (z) = 0.10141 0.22154
#
# Static dielectric constant tensor:
#      x y z
#    x 1.903950 0.000000 -0.004050 
#    y 0.000000 1.797300 0.000000 
#    z -0.004050 0.000000 1.883060 
# 
# From -- ./inp_files/300739.got.cif
#   From: 2010.05.17/outbox.cif.g08.bks.cpg/sg12_151_cif.got.tgz:300739.got - 2010.06.03 13:09:07.
