data_PCOD9194545
_publ_section_title
;
Structure prediction by ZEFSAII (Michael W. Deem and Ramdas Pophale) SiO2 
 PCOD9194545
Probable space group: C 2/M
;
_chemical_formula_sum "Si O2"
_cell_formula_units_Z 56
_cell_length_a 10.174360
_cell_length_b 25.747394
_cell_length_c 16.662934
_cell_angle_alpha 90.000000
_cell_angle_beta 128.442080
_cell_angle_gamma 90.000000
_cell_volume 3418.889609
_symmetry_space_group_name_H-M "C 2/M"
_symmetry_group_IT_number 12
_symmetry_cell_setting 'monoclinic'
loop_
_space_group_symop_operation_xyz
x,y,z
-x,y,-z
-x,-y,-z
x,-y,z
1/2+x,1/2+y,z
1/2-x,1/2+y,-z
1/2-x,1/2-y,-z
1/2+x,1/2-y,z
loop_
_atom_site_type_symbol
_atom_site_label
_atom_site_fract_x
_atom_site_fract_y
_atom_site_fract_z
Si Si1 0.918089 0.500000 0.557611
Si Si2 0.960107 0.193910 0.578703
Si Si3 0.021493 0.000000 0.412889
Si Si4 0.433785 0.185759 0.564821
Si Si5 0.311070 0.399048 0.283694
Si Si6 0.805170 0.062806 0.937722
Si Si7 0.199927 0.559349 0.075598
Si Si8 0.998990 0.405019 0.290821
O O1 0.718061 0.500000 0.468837
O O2 0.968080 0.450816 0.632042
O O3 0.000000 0.500000 0.500000
O O4 0.766743 0.178405 0.516117
O O5 0.972629 0.254771 0.604555
O O6 0.000000 0.190078 0.500000
O O7 0.086731 0.154196 0.668012
O O8 0.000000 0.000000 0.500000
O O9 0.931352 0.052019 0.348010
O O10 0.500000 0.176811 0.500000
O O11 0.505402 0.146928 0.658011
O O12 0.253420 0.406395 0.170724
O O13 0.154118 0.402487 0.286150
O O14 0.671641 0.085306 0.823751
O O15 0.789814 0.000000 0.926248
O O16 0.756771 0.077821 0.009971
O O17 0.000000 0.076525 0.000000
O O18 0.264312 0.500000 0.111470
O O19 0.000000 0.556703 0.000000
#
# Coordination Sequence:
#
# PCOD9194545 Si02
#       8
#     4   8   4   8   8   8   8   8
#     4  12  26  36  52  86 130 151 182 233 294 356
#     4  10  20  38  58  84 115 153 198 235 278 339
#     4  12  22  34  54  87 118 151 183 225 287 349
#     4  10  22  37  58  84 116 154 196 238 278 341
#     4  12  21  35  62  87 115 153 195 238 283 345
#     4  10  22  38  58  82 118 152 191 236 284 348
#     4  10  20  34  56  85 113 147 195 235 273 337
#     4  12  21  38  61  83 115 160 190 233 297 343
#
# _framework density 16.379587000000001
#
# number of rings (size 3 to 8) (size 9 to 14) (size 15 to 20)
#    0.000    1.143    5.714    1.714    0.000    2.286 
#    0.000    0.000    0.000    1.714    0.000    0.000 
#    0.000    0.000    0.000    0.000    0.000    0.000 
#
# Total GULP energy -156278.684513 kJ/mol
# GULP energy per Si atom -5581.381590 kJ/mol
# Density = 1.634231 g / cm^3
# Si number density = 16.379587 Si / 1000 Ang^3
#
#
#
# Elastic Constant Matrix: (Units=GPa)
#
#
# Indices 1 2 3 4 5 6 
#
# 1 145.1408 37.8348 68.1978 0.0000 4.7755 0.0000
# 2 37.8348 85.1898 77.4518 0.0000 1.6884 0.0000
# 3 68.1978 77.4518 141.6783 0.0000 1.5315 0.0000
# 4 0.0000 0.0000 0.0000 24.1552 0.0000 -0.3996
# 5 4.7755 1.6884 1.5315 0.0000 25.2767 0.0000
# 6 0.0000 0.0000 0.0000 -0.3996 0.0000 26.2414
#
#
#
# Elastic Compliance Matrix: (Units=1/GPa)
#
#
# Indices 1 2 3 4 5 6 
#
# 1 0.008955 -0.000087 -0.004248 0.000000 -0.001429 0.000000
# 2 -0.000087 0.023354 -0.012717 0.000000 -0.000773 0.000000
# 3 -0.004248 -0.012717 0.016048 0.000000 0.000680 0.000000
# 4 0.000000 0.000000 0.000000 0.041409 0.000000 0.000631
# 5 -0.001429 -0.000773 0.000680 0.000000 0.039842 0.000000
# 6 0.000000 0.000000 0.000000 0.000631 0.000000 0.038117
#
#
# Mechanical properties :
#
#
# Convention : Reuss Voigt Hill
#
# Bulk Modulus (GPa) = 70.15640 82.10864 76.13252
# Shear Modulus (GPa) = 24.20357 27.70297 25.95327
#
# Velocity S-wave (km/s) = 3.84821 4.11702 3.98488
# Velocity P-wave (km/s) = 7.91641 8.53447 8.23125
#
# Compressibility (1/GPa) = 0.01425387
#
# Stress axis : x y z
#
# Youngs Moduli (GPa) = 111.66371 42.81869 62.31492
#
# Poissons Ratio (x) = 0.00373 0.26469
# Poissons Ratio (y) = 0.00973 0.79245
# Poissons Ratio (z) = 0.47431 0.54452
#
# Static dielectric constant tensor:
#      x y z
#    x 1.563180 0.000000 0.012620 
#    y 0.000000 1.567840 0.000000 
#    z 0.012620 0.000000 1.542690 
# 
# From -- ./inp_files/201017.got.cif
#   From: 2010.05.17/outbox.cif.g08.bks.cpg/sg12_101_cif.got.tgz:201017.got - 2010.06.03 13:09:07.
