data_PCOD9194691
_publ_section_title
;
Structure prediction by ZEFSAII (Michael W. Deem and Ramdas Pophale) SiO2 
 PCOD9194691
Probable space group: C 2/M
;
_chemical_formula_sum "Si O2"
_cell_formula_units_Z 56
_cell_length_a 17.888086
_cell_length_b 15.231571
_cell_length_c 14.765775
_cell_angle_alpha 90.000000
_cell_angle_beta 131.381458
_cell_angle_gamma 90.000000
_cell_volume 3018.660430
_symmetry_space_group_name_H-M "C 2/M"
_symmetry_group_IT_number 12
_symmetry_cell_setting 'monoclinic'
loop_
_space_group_symop_operation_xyz
x,y,z
-x,y,-z
-x,-y,-z
x,-y,z
1/2+x,1/2+y,z
1/2-x,1/2+y,-z
1/2-x,1/2-y,-z
1/2+x,1/2-y,z
loop_
_atom_site_type_symbol
_atom_site_label
_atom_site_fract_x
_atom_site_fract_y
_atom_site_fract_z
Si Si1 0.657834 0.814122 0.907705
Si Si2 0.204089 0.599510 0.321086
Si Si3 0.048662 0.688067 0.319990
Si Si4 0.985091 0.500000 0.629210
Si Si5 0.677087 0.000000 0.649661
Si Si6 0.764390 0.327708 0.221662
Si Si7 0.895784 0.794508 0.455838
Si Si8 0.382984 0.830615 0.926215
O O1 0.550999 0.768518 0.800859
O O2 0.694029 0.857537 0.842960
O O3 0.750000 0.750000 0.000000
O O4 0.638302 0.861274 0.987902
O O5 0.189821 0.500000 0.342286
O O6 0.138836 0.671422 0.323307
O O7 0.317978 0.629732 0.416847
O O8 0.167747 0.607459 0.188622
O O9 0.013010 0.589251 0.313593
O O10 0.083265 0.735908 0.438578
O O11 0.879395 0.500000 0.491178
O O12 0.079747 0.500000 0.637801
O O13 0.741707 0.086221 0.721453
O O14 0.845062 0.266452 0.337943
O O15 0.668970 0.265194 0.130191
O O16 0.000000 0.827072 0.500000
O O17 0.500000 0.826629 0.000000
#
# Coordination Sequence:
#
# PCOD9194691 Si02
#       8
#     8   8   8   4   4   8   8   8
#     4  10  20  35  56  82 111 147 187 228 275 333
#     4  11  25  40  56  86 119 151 193 241 290 337
#     4  12  20  37  59  89 116 148 186 235 292 343
#     4  11  20  28  56  86 122 136 175 238 297 339
#     4  11  18  32  51  89 118 137 177 238 295 334
#     4  10  20  34  57  84 112 143 183 234 285 339
#     4  11  21  38  63  85 112 151 196 235 289 352
#     4  10  21  39  57  77 107 153 195 227 269 336
#
# _framework density 18.551275
#
# number of rings (size 3 to 8) (size 9 to 14) (size 15 to 20)
#    0.000    1.286    6.429    0.429    0.000    0.571 
#    2.571    0.357    0.000    0.000    1.857    0.000 
#    0.000    0.000    0.000    0.000    0.000    0.000 
#
# Total GULP energy -156050.418073 kJ/mol
# GULP energy per Si atom -5573.229217 kJ/mol
# Density = 1.850905 g / cm^3
# Si number density = 18.551275 Si / 1000 Ang^3
#
#
#
# Elastic Constant Matrix: (Units=GPa)
#
#
# Indices 1 2 3 4 5 6 
#
# 1 93.7493 11.5405 34.4317 0.0000 5.4506 0.0000
# 2 11.5405 48.0870 16.1486 0.0000 15.0171 0.0000
# 3 34.4317 16.1486 94.2716 0.0000 6.1140 0.0000
# 4 0.0000 0.0000 0.0000 15.7784 0.0000 -0.4404
# 5 5.4506 15.0171 6.1140 0.0000 37.1482 0.0000
# 6 0.0000 0.0000 0.0000 -0.4404 0.0000 16.2645
#
#
#
# Elastic Compliance Matrix: (Units=1/GPa)
#
#
# Indices 1 2 3 4 5 6 
#
# 1 0.012437 -0.001374 -0.004270 0.000000 -0.000567 0.000000
# 2 -0.001374 0.025145 -0.003193 0.000000 -0.009438 0.000000
# 3 -0.004270 -0.003193 0.012726 0.000000 -0.000177 0.000000
# 4 0.000000 0.000000 0.000000 0.063426 0.000000 0.001717
# 5 -0.000567 -0.009438 -0.000177 0.000000 0.030847 0.000000
# 6 0.000000 0.000000 0.000000 0.001717 0.000000 0.061530
#
#
# Mechanical properties :
#
#
# Convention : Reuss Voigt Hill
#
# Bulk Modulus (GPa) = 30.64407 40.03883 35.34145
# Shear Modulus (GPa) = 21.30712 25.43738 23.37225
#
# Velocity S-wave (km/s) = 3.39271 3.70698 3.55332
# Velocity P-wave (km/s) = 5.64816 6.32075 5.99390
#
# Compressibility (1/GPa) = 0.03263274
#
# Stress axis : x y z
#
# Youngs Moduli (GPa) = 80.40364 39.76925 78.57977
#
# Poissons Ratio (x) = 0.05463 0.33557
# Poissons Ratio (y) = 0.11046 0.25094
# Poissons Ratio (z) = 0.34336 0.12700
#
# Static dielectric constant tensor:
#      x y z
#    x 1.670860 0.000000 -0.012720 
#    y 0.000000 1.619170 0.000000 
#    z -0.012720 0.000000 1.665750 
# 
# From -- ./inp_files/225432.got.cif
#   From: 2010.05.17/outbox.cif.g08.bks.cpg/sg12_113_cif.got.tgz:225432.got - 2010.06.03 13:09:07.
