data_PCOD9194522
_publ_section_title
;
Structure prediction by ZEFSAII (Michael W. Deem and Ramdas Pophale) SiO2 
 PCOD9194522
Probable space group: C 2/M
;
_chemical_formula_sum "Si O2"
_cell_formula_units_Z 56
_cell_length_a 24.947119
_cell_length_b 22.153319
_cell_length_c 5.335768
_cell_angle_alpha 90.000000
_cell_angle_beta 105.248998
_cell_angle_gamma 90.000000
_cell_volume 2845.049306
_symmetry_space_group_name_H-M "C 2/M"
_symmetry_group_IT_number 12
_symmetry_cell_setting 'monoclinic'
loop_
_space_group_symop_operation_xyz
x,y,z
-x,y,-z
-x,-y,-z
x,-y,z
1/2+x,1/2+y,z
1/2-x,1/2+y,-z
1/2-x,1/2-y,-z
1/2+x,1/2-y,z
loop_
_atom_site_type_symbol
_atom_site_label
_atom_site_fract_x
_atom_site_fract_y
_atom_site_fract_z
Si Si1 0.524062 0.570187 0.774170
Si Si2 0.849801 0.933983 0.962236
Si Si3 0.142005 0.345889 0.024015
Si Si4 0.706116 0.661759 0.383091
Si Si5 0.243103 0.568103 0.192544
Si Si6 0.819763 0.717423 0.404122
Si Si7 0.036931 0.569317 0.794417
O O1 0.500000 0.600866 0.500000
O O2 0.503789 0.500000 0.751206
O O3 0.500000 0.596993 0.000000
O O4 0.590252 0.567820 0.837881
O O5 0.844374 0.871138 0.811829
O O6 0.848191 0.000000 0.822954
O O7 0.796134 0.933300 0.075057
O O8 0.148166 0.297378 0.809914
O O9 0.085428 0.382856 0.912609
O O10 0.191080 0.394227 0.030837
O O11 0.154413 0.316059 0.314587
O O12 0.736693 0.604760 0.543156
O O13 0.755370 0.695428 0.294073
O O14 0.684366 0.711684 0.547349
O O15 0.226584 0.500000 0.230475
O O16 0.058270 0.500000 0.783653
O O17 0.000000 0.583417 0.500000
O O18 0.000000 0.568622 0.000000
#
# Coordination Sequence:
#
# PCOD9194522 Si02
#       7
#     8   8   8   8   8   8   8
#     4   9  19  34  52  75 104 142 184 222 269 336
#     4  10  20  34  56  84 116 150 188 242 303 355
#     4  11  21  40  59  90 119 158 197 246 293 355
#     4  10  21  36  55  83 119 155 198 241 289 360
#     4  10  21  34  56  89 124 152 183 239 310 358
#     4  10  23  36  61  82 118 158 202 238 291 348
#     4  10  21  38  63  93 124 160 202 247 298 359
#
# _framework density 19.683316000000001
#
# number of rings (size 3 to 8) (size 9 to 14) (size 15 to 20)
#    0.000    2.000    1.429    1.714    4.000    1.714 
#    0.000    1.429    0.000    3.429    0.000    0.000 
#    0.000    0.000    0.000    0.000    0.000    0.000 
#
# Total GULP energy -156016.470693 kJ/mol
# GULP energy per Si atom -5572.016810 kJ/mol
# Density = 1.963852 g / cm^3
# Si number density = 19.683316 Si / 1000 Ang^3
#
#
#
# Elastic Constant Matrix: (Units=GPa)
#
#
# Indices 1 2 3 4 5 6 
#
# 1 26.1870 -68.4982 6.9934 0.0000 -4.5094 0.0000
# 2 -68.4982 -85.4152 -26.0979 0.0000 -19.3116 0.0000
# 3 6.9934 -26.0979 80.2780 0.0000 -1.8118 0.0000
# 4 0.0000 0.0000 0.0000 38.5638 0.0000 21.4552
# 5 -4.5094 -19.3116 -1.8118 0.0000 18.6630 0.0000
# 6 0.0000 0.0000 0.0000 21.4552 0.0000 39.0534
#
#
#
# Elastic Compliance Matrix: (Units=1/GPa)
#
#
# Indices 1 2 3 4 5 6 
#
# 1 0.014667 -0.009027 -0.004353 0.000000 -0.006219 0.000000
# 2 -0.009027 -0.003128 -0.000354 0.000000 -0.005452 0.000000
# 3 -0.004353 -0.000354 0.012717 0.000000 -0.000183 0.000000
# 4 0.000000 0.000000 0.000000 0.037346 0.000000 -0.020517
# 5 -0.006219 -0.005452 -0.000183 0.000000 0.046420 0.000000
# 6 0.000000 0.000000 0.000000 -0.020517 0.000000 0.036878
#
#
# Mechanical properties :
#
#
# Convention : Reuss Voigt Hill
#
# Bulk Modulus (GPa) = -311.59497 -17.12839 -164.36168
# Shear Modulus (GPa) = 29.18932 26.49955 27.84443
#
# Velocity S-wave (km/s) = 3.85508 3.67317 3.76523
# Velocity P-wave (km/s) = 11.78271 3.04445 8.04871
#
# Compressibility (1/GPa) = -0.00320929
#
# Stress axis : x y z
#
# Youngs Moduli (GPa) = 68.17832 -319.68895 78.63615
#
# Poissons Ratio (x) = -2.88568 0.34227
# Poissons Ratio (y) = 0.61541 0.02781
# Poissons Ratio (z) = 0.29675 -0.11305
#
# Static dielectric constant tensor:
#      x y z
#    x 1.672020 0.000000 0.001750 
#    y 0.000000 1.707850 0.000000 
#    z 0.001750 0.000000 1.782850 
# 
# From -- ./inp_files/25449.got.cif
#   From: 2010.05.17/outbox.cif.g08.bks.cpg/sg12_13_cif.got.tgz:25449.got - 2010.06.03 13:09:07.
