data_PCOD9194051
_publ_section_title
;
Structure prediction by ZEFSAII (Michael W. Deem and Ramdas Pophale) SiO2 
 PCOD9194051
Probable space group: C 2/M
;
_chemical_formula_sum "Si O2"
_cell_formula_units_Z 40
_cell_length_a 24.430272
_cell_length_b 7.580535
_cell_length_c 15.312889
_cell_angle_alpha 90.000000
_cell_angle_beta 32.749791
_cell_angle_gamma 90.000000
_cell_volume 1534.120956
_symmetry_space_group_name_H-M "C 2/M"
_symmetry_group_IT_number 12
_symmetry_cell_setting 'monoclinic'
loop_
_space_group_symop_operation_xyz
x,y,z
-x,y,-z
-x,-y,-z
x,-y,z
1/2+x,1/2+y,z
1/2-x,1/2+y,-z
1/2-x,1/2-y,-z
1/2+x,1/2-y,z
loop_
_atom_site_type_symbol
_atom_site_label
_atom_site_fract_x
_atom_site_fract_y
_atom_site_fract_z
Si Si1 0.611947 0.294605 0.845514
Si Si2 0.087163 0.714550 0.689493
Si Si3 0.676803 0.212730 0.384841
Si Si4 0.376631 0.203619 0.917592
Si Si5 0.350692 0.291993 0.765962
O O1 0.602987 0.500000 0.881344
O O2 0.640407 0.283110 0.704731
O O3 0.706472 0.220749 0.772515
O O4 0.500000 0.211591 0.000000
O O5 0.088854 0.500000 0.689304
O O6 0.131578 0.773114 0.537389
O O7 0.970062 0.777747 0.846192
O O8 0.618417 0.265652 0.375531
O O9 0.678736 0.000000 0.384111
O O10 0.405399 0.209594 0.775881
O O11 0.366955 0.000000 0.955248
O O12 0.264968 0.283260 0.075321
O O13 0.349717 0.500000 0.784856
#
# Coordination Sequence:
#
# PCOD9194051 Si02
#       5
#     8   8   8   8   8
#     4  10  21  36  55  79 106 137 172 212 260 308
#     4  10  21  36  55  78 104 138 176 212 255 307
#     4  10  21  36  53  76 108 141 171 209 260 311
#     4   9  19  36  55  76 104 137 174 215 258 305
#     4  10  20  34  55  80 103 134 176 217 257 303
#
# _framework density 26.073564999999999
#
# number of rings (size 3 to 8) (size 9 to 14) (size 15 to 20)
#    0.000    2.200    0.000    2.400    0.000    4.400 
#    0.000    4.000    0.000    0.000    0.000    0.000 
#    0.000    0.000    0.000    0.000    0.000    0.000 
#
# Total GULP energy -111884.376483 kJ/mol
# GULP energy per Si atom -5594.218824 kJ/mol
# Density = 2.601422 g / cm^3
# Si number density = 26.073565 Si / 1000 Ang^3
#
#
#
# Elastic Constant Matrix: (Units=GPa)
#
#
# Indices 1 2 3 4 5 6 
#
# 1 142.8017 -5.8003 3.9213 0.0031 18.2981 -0.0001
# 2 -5.8003 85.0093 5.5900 0.0138 -1.2155 -0.0051
# 3 3.9213 5.5900 64.0764 0.0137 17.5279 -0.0036
# 4 0.0031 0.0138 0.0137 16.9830 -0.0039 16.9595
# 5 18.2981 -1.2155 17.5279 -0.0039 51.2473 -0.0003
# 6 -0.0001 -0.0051 -0.0036 16.9595 -0.0003 19.4155
#
#
#
# Elastic Compliance Matrix: (Units=1/GPa)
#
#
# Indices 1 2 3 4 5 6 
#
# 1 0.007360 0.000447 0.000250 -0.000021 -0.002703 0.000019
# 2 0.000447 0.011881 -0.001211 -0.000090 0.000536 0.000081
# 3 0.000250 -0.001211 0.017352 -0.000135 -0.006053 0.000120
# 4 -0.000021 -0.000090 -0.000135 0.461059 0.000084 -0.402735
# 5 -0.002703 0.000536 -0.006053 0.000084 0.022561 -0.000074
# 6 0.000019 0.000081 0.000120 -0.402735 -0.000074 0.403295
#
#
# Mechanical properties :
#
#
# Convention : Reuss Voigt Hill
#
# Bulk Modulus (GPa) = 28.11583 33.25660 30.68621
# Shear Modulus (GPa) = 5.33964 36.74094 21.04029
#
# Velocity S-wave (km/s) = 1.43261 3.75790 2.84378
# Velocity P-wave (km/s) = 3.68010 5.62243 4.75157
#
# Compressibility (1/GPa) = 0.03556715
#
# Stress axis : x y z
#
# Youngs Moduli (GPa) = 135.86291 84.16647 57.62865
#
# Poissons Ratio (x) = -0.03763 -0.01440
# Poissons Ratio (y) = -0.06075 0.06976
# Poissons Ratio (z) = -0.03396 0.10189
#
# Static dielectric constant tensor:
#      x y z
#    x 1.997370 0.000000 0.007340 
#    y 0.000000 1.943230 0.000000 
#    z 0.007340 0.000000 2.187530 
# 
# From -- ./inp_files/211451.got.cif
#   From: 2010.05.17/outbox.cif.g08.bks.cpg/sg12_106_cif.got.tgz:211451.got - 2010.06.03 13:09:07.
