data_PCOD9194624
_publ_section_title
;
Structure prediction by ZEFSAII (Michael W. Deem and Ramdas Pophale) SiO2 
 PCOD9194624
Probable space group: C 2/M
;
_chemical_formula_sum "Si O2"
_cell_formula_units_Z 50
_cell_length_a 14.454297
_cell_length_b 19.546878
_cell_length_c 10.021196
_cell_angle_alpha 90.000000
_cell_angle_beta 56.418702
_cell_angle_gamma 90.000000
_cell_volume 2358.804899
_symmetry_space_group_name_H-M "C 2/M"
_symmetry_group_IT_number 12
_symmetry_cell_setting 'monoclinic'
loop_
_space_group_symop_operation_xyz
x,y,z
-x,y,-z
-x,-y,-z
x,-y,z
1/2+x,1/2+y,z
1/2-x,1/2+y,-z
1/2-x,1/2-y,-z
1/2+x,1/2-y,z
loop_
_atom_site_type_symbol
_atom_site_label
_atom_site_fract_x
_atom_site_fract_y
_atom_site_fract_z
Si Si1 0.713081 0.673117 0.150184
Si Si2 0.627103 0.422074 0.441701
Si Si3 0.253539 0.918318 0.589763
Si Si4 0.800632 0.419600 0.842112
Si Si5 0.000000 0.500000 0.000000
Si Si6 0.535442 0.115951 0.746820
Si Si7 0.931880 0.755015 0.934744
O O1 0.691389 0.633167 0.302902
O O2 0.602681 0.704692 0.171408
O O3 0.755647 0.619244 0.006303
O O4 0.811574 0.728330 0.083326
O O5 0.500000 0.419641 0.500000
O O6 0.668369 0.500000 0.381378
O O7 0.646068 0.409480 0.583102
O O8 0.247430 0.894663 0.746629
O O9 0.353912 0.884599 0.428436
O O10 0.277551 0.000000 0.577789
O O11 0.780912 0.500000 0.875551
O O12 0.932084 0.405988 0.735613
O O13 0.038656 0.560007 0.861861
O O14 0.503723 0.189038 0.834257
O O15 0.000000 0.790160 0.000000
#
# Coordination Sequence:
#
# PCOD9194624 Si02
#       7
#     8   8   8   8   2   8   8
#     4  10  22  38  59  82 110 152 196 230 278 338
#     4  10  22  39  60  84 110 145 197 249 284 324
#     4  10  20  34  56  87 122 147 175 233 297 338
#     4  10  20  34  56  88 120 148 183 231 285 341
#     4  12  20  28  58 104 114 154 180 224 282 364
#     4  11  20  32  57  91 126 143 184 221 288 347
#     4  10  21  37  56  84 117 149 186 232 279 340
#
# _framework density 21.197175000000001
#
# number of rings (size 3 to 8) (size 9 to 14) (size 15 to 20)
#    0.000    1.760    2.400    1.920    2.240    2.560 
#    0.000    4.800    0.000   16.320    0.000    0.000 
#    0.000    0.000    0.000    0.000    0.000    0.000 
#
# Total GULP energy -139424.228508 kJ/mol
# GULP energy per Si atom -5576.969140 kJ/mol
# Density = 2.114893 g / cm^3
# Si number density = 21.197175 Si / 1000 Ang^3
#
#
#
# Elastic Constant Matrix: (Units=GPa)
#
#
# Indices 1 2 3 4 5 6 
#
# 1 92.8502 9.6686 12.2010 0.0000 20.9941 0.0000
# 2 9.6686 28.1676 -7.0407 0.0000 1.7738 0.0000
# 3 12.2010 -7.0407 31.5343 0.0000 19.5501 0.0000
# 4 0.0000 0.0000 0.0000 4.3715 0.0000 -4.7328
# 5 20.9941 1.7738 19.5501 0.0000 26.6825 0.0000
# 6 0.0000 0.0000 0.0000 -4.7328 0.0000 13.9533
#
#
#
# Elastic Compliance Matrix: (Units=1/GPa)
#
#
# Indices 1 2 3 4 5 6 
#
# 1 0.013540 -0.003796 0.000663 0.000000 -0.010887 0.000000
# 2 -0.003796 0.042718 0.020000 0.000000 -0.014507 0.000000
# 3 0.000663 0.020000 0.067921 0.000000 -0.051616 0.000000
# 4 0.000000 0.000000 0.000000 0.361508 0.000000 0.122619
# 5 -0.010887 -0.014507 -0.051616 0.000000 0.084827 0.000000
# 6 0.000000 0.000000 0.000000 0.122619 0.000000 0.113258
#
#
# Mechanical properties :
#
#
# Convention : Reuss Voigt Hill
#
# Bulk Modulus (GPa) = 6.33263 20.24552 13.28907
# Shear Modulus (GPa) = 7.11567 18.18300 12.64933
#
# Velocity S-wave (km/s) = 1.83417 2.93200 2.44549
# Velocity P-wave (km/s) = 2.73488 4.58628 3.77581
#
# Compressibility (1/GPa) = 0.15791234
#
# Stress axis : x y z
#
# Youngs Moduli (GPa) = 73.85650 23.40952 14.72303
#
# Poissons Ratio (x) = 0.08887 -0.00976
# Poissons Ratio (y) = 0.28038 -0.29446
# Poissons Ratio (z) = -0.04897 -0.46819
#
# Static dielectric constant tensor:
#      x y z
#    x 1.836620 0.000000 0.012660 
#    y 0.000000 1.771540 0.000000 
#    z 0.012660 0.000000 1.722590 
# 
# From -- ./inp_files/65246.got.cif
#   From: 2010.05.17/outbox.cif.g08.bks.cpg/sg12_33_cif.got.tgz:65246.got - 2010.06.03 13:09:07.
