data_PCOD9194075
_publ_section_title
;
Structure prediction by ZEFSAII (Michael W. Deem and Ramdas Pophale) SiO2 
 PCOD9194075
Probable space group: C 2/M
;
_chemical_formula_sum "Si O2"
_cell_formula_units_Z 64
_cell_length_a 25.503291
_cell_length_b 11.753017
_cell_length_c 12.465775
_cell_angle_alpha 90.000000
_cell_angle_beta 63.600584
_cell_angle_gamma 90.000000
_cell_volume 3346.843062
_symmetry_space_group_name_H-M "C 2/M"
_symmetry_group_IT_number 12
_symmetry_cell_setting 'monoclinic'
loop_
_space_group_symop_operation_xyz
x,y,z
-x,y,-z
-x,-y,-z
x,-y,z
1/2+x,1/2+y,z
1/2-x,1/2+y,-z
1/2-x,1/2-y,-z
1/2+x,1/2-y,z
loop_
_atom_site_type_symbol
_atom_site_label
_atom_site_fract_x
_atom_site_fract_y
_atom_site_fract_z
Si Si1 0.565235 0.870515 0.212010
Si Si2 0.568211 0.875722 0.954957
Si Si3 0.268181 0.629602 0.778505
Si Si4 0.672027 0.234719 0.469249
Si Si5 0.127177 0.870177 0.150989
Si Si6 0.289847 0.381317 0.372819
Si Si7 0.955270 0.633015 0.445006
Si Si8 0.160564 0.202224 0.883634
O O1 0.594065 0.747858 0.217349
O O2 0.496578 0.859531 0.302685
O O3 0.582413 0.000000 0.239913
O O4 0.577088 0.878146 0.075128
O O5 0.607420 0.773324 0.880537
O O6 0.584013 0.000000 0.895566
O O7 0.500000 0.857203 0.000000
O O8 0.249704 0.500000 0.774525
O O9 0.302515 0.679866 0.644397
O O10 0.312951 0.631144 0.836589
O O11 0.212519 0.707078 0.856285
O O12 0.681344 0.286600 0.578714
O O13 0.720243 0.134979 0.424669
O O14 0.605495 0.199756 0.506697
O O15 0.101571 0.000000 0.190924
O O16 0.140708 0.855139 0.012195
O O17 0.303087 0.500000 0.415262
O O18 0.315371 0.377268 0.230840
O O19 0.941204 0.500000 0.475165
O O20 0.000000 0.668145 0.500000
#
# Coordination Sequence:
#
# PCOD9194075 Si02
#       8
#     8   8   8   8   8   8   8   8
#     4   9  19  35  55  79 110 143 184 228 273 330
#     4   9  18  32  52  77 103 134 173 224 273 320
#     4  10  20  35  55  81 111 146 185 230 277 333
#     4  10  21  36  57  81 109 148 186 234 282 336
#     4  10  20  36  57  82 116 148 184 230 282 340
#     4  10  21  37  55  79 112 147 185 227 277 339
#     4  10  20  35  57  84 112 143 187 241 290 337
#     4  10  20  34  55  80 109 143 182 225 278 334
#
# _framework density 19.122498
#
# number of rings (size 3 to 8) (size 9 to 14) (size 15 to 20)
#    0.000    2.250    0.000    2.625    1.750    0.500 
#    0.000    5.625    0.000    5.250    0.000    0.000 
#    0.000    0.000    0.000    0.000    0.000    0.000 
#
# Total GULP energy -178137.571450 kJ/mol
# GULP energy per Si atom -5566.799108 kJ/mol
# Density = 1.907897 g / cm^3
# Si number density = 19.122498 Si / 1000 Ang^3
#
#
#
# Elastic Constant Matrix: (Units=GPa)
#
#
# Indices 1 2 3 4 5 6 
#
# 1 72.7941 40.0322 -4.1427 0.0000 -5.9877 0.0000
# 2 40.0322 126.1250 13.1165 0.0000 -11.5044 0.0000
# 3 -4.1427 13.1165 45.7328 0.0000 -6.3415 0.0000
# 4 0.0000 0.0000 0.0000 -14.7991 0.0000 11.5064
# 5 -5.9877 -11.5044 -6.3415 0.0000 20.2389 0.0000
# 6 0.0000 0.0000 0.0000 11.5064 0.0000 -11.7339
#
#
#
# Elastic Compliance Matrix: (Units=1/GPa)
#
#
# Indices 1 2 3 4 5 6 
#
# 1 0.017257 -0.005571 0.003586 0.000000 0.003062 0.000000
# 2 -0.005571 0.010308 -0.003008 0.000000 0.003269 0.000000
# 3 0.003586 -0.003008 0.024007 0.000000 0.006873 0.000000
# 4 0.000000 0.000000 0.000000 -0.284429 0.000000 -0.278913
# 5 0.003062 0.003269 0.006873 0.000000 0.054327 0.000000
# 6 0.000000 0.000000 0.000000 -0.278913 0.000000 -0.358728
#
#
# Mechanical properties :
#
#
# Convention : Reuss Voigt Hill
#
# Bulk Modulus (GPa) = 24.04699 38.07377 31.06038
# Shear Modulus (GPa) = -9.73880 11.78423 1.02271
#
# Velocity S-wave (km/s) = -2.25918 2.48513 0.73211
# Velocity P-wave (km/s) = 2.40776 5.30925 4.12223
#
# Compressibility (1/GPa) = 0.04158525
#
# Stress axis : x y z
#
# Youngs Moduli (GPa) = 57.94748 97.01374 41.65519
#
# Poissons Ratio (x) = 0.54046 -0.14936
# Poissons Ratio (y) = 0.32282 0.12529
# Poissons Ratio (z) = -0.20778 0.29179
#
# Static dielectric constant tensor:
#      x y z
#    x 1.634850 0.000000 0.011560 
#    y 0.000000 1.708980 0.000000 
#    z 0.011560 0.000000 1.685690 
# 
# From -- ./inp_files/175274.got.cif
#   From: 2010.05.17/outbox.cif.g08.bks.cpg/sg12_88_cif.got.tgz:175274.got - 2010.06.03 13:09:07.
