data_PCOD9194272
_publ_section_title
;
Structure prediction by ZEFSAII (Michael W. Deem and Ramdas Pophale) SiO2 
 PCOD9194272
Probable space group: C 2/M
;
_chemical_formula_sum "Si O2"
_cell_formula_units_Z 64
_cell_length_a 30.830252
_cell_length_b 7.761749
_cell_length_c 16.759919
_cell_angle_alpha 90.000000
_cell_angle_beta 132.642020
_cell_angle_gamma 90.000000
_cell_volume 2950.194075
_symmetry_space_group_name_H-M "C 2/M"
_symmetry_group_IT_number 12
_symmetry_cell_setting 'monoclinic'
loop_
_space_group_symop_operation_xyz
x,y,z
-x,y,-z
-x,-y,-z
x,-y,z
1/2+x,1/2+y,z
1/2-x,1/2+y,-z
1/2-x,1/2-y,-z
1/2+x,1/2-y,z
loop_
_atom_site_type_symbol
_atom_site_label
_atom_site_fract_x
_atom_site_fract_y
_atom_site_fract_z
Si Si1 0.858204 0.299335 0.991636
Si Si2 0.948599 0.797292 0.575261
Si Si3 0.753829 0.288842 0.751913
Si Si4 0.583774 0.706968 0.296781
Si Si5 0.975337 0.208736 0.055626
Si Si6 0.707008 0.795848 0.373561
Si Si7 0.873322 0.791339 0.338103
Si Si8 0.918078 0.700659 0.225341
O O1 0.844998 0.500000 0.991618
O O2 0.883577 0.223786 0.105941
O O3 0.912124 0.285151 0.996922
O O4 0.800785 0.226575 0.876424
O O5 0.914710 0.725664 0.610706
O O6 0.925567 0.729560 0.462174
O O7 0.017923 0.780556 0.677777
O O8 0.934389 0.000000 0.554233
O O9 0.756374 0.500000 0.753751
O O10 0.771653 0.226462 0.685648
O O11 0.687971 0.243986 0.696156
O O12 0.579291 0.500000 0.295523
O O13 0.523841 0.767610 0.180216
O O14 0.641056 0.744872 0.316202
O O15 0.970384 0.000000 0.052862
O O16 0.000000 0.255269 0.000000
O O17 0.750000 0.750000 0.500000
O O18 0.708023 0.000000 0.367424
O O19 0.880699 0.718730 0.259120
O O20 0.875623 0.000000 0.332616
O O21 0.929420 0.500000 0.222423
#
# Coordination Sequence:
#
# PCOD9194272 Si02
#       8
#     8   8   8   8   8   8   8   8
#     4  10  21  38  59  82 114 153 191 232 281 345
#     4  10  20  37  60  84 112 151 194 234 283 349
#     4   9  20  40  61  82 111 152 198 237 276 339
#     4  10  20  35  56  83 116 149 187 232 279 335
#     4  10  20  34  55  84 115 147 185 233 283 330
#     4  11  22  37  59  85 116 152 193 237 284 336
#     4  10  21  38  61  82 105 147 200 240 282 344
#     4  11  23  37  56  86 119 146 183 239 297 342
#
# _framework density 21.693487999999999
#
# number of rings (size 3 to 8) (size 9 to 14) (size 15 to 20)
#    0.000    1.875    1.250    2.625    0.000    6.250 
#    0.000    3.750    0.000    0.000    0.000    0.000 
#    0.000    0.000    0.000    0.000    0.000    0.000 
#
# Total GULP energy -178786.244517 kJ/mol
# GULP energy per Si atom -5587.070141 kJ/mol
# Density = 2.164411 g / cm^3
# Si number density = 21.693488 Si / 1000 Ang^3
#
#
#
# Elastic Constant Matrix: (Units=GPa)
#
#
# Indices 1 2 3 4 5 6 
#
# 1 91.0606 -12.3707 31.1300 0.0000 -13.6471 0.0000
# 2 -12.3707 23.7530 -1.2227 0.0000 -3.8574 0.0000
# 3 31.1300 -1.2227 133.7975 0.0000 -8.3626 0.0000
# 4 0.0000 0.0000 0.0000 14.8477 0.0000 2.0402
# 5 -13.6471 -3.8574 -8.3626 0.0000 37.7195 0.0000
# 6 0.0000 0.0000 0.0000 2.0402 0.0000 24.9653
#
#
#
# Elastic Compliance Matrix: (Units=1/GPa)
#
#
# Indices 1 2 3 4 5 6 
#
# 1 0.013788 0.007876 -0.002813 0.000000 0.005170 0.000000
# 2 0.007876 0.047370 -0.000932 0.000000 0.007487 0.000000
# 3 -0.002813 -0.000932 0.008163 0.000000 0.000697 0.000000
# 4 0.000000 0.000000 0.000000 0.068115 0.000000 -0.005567
# 5 0.005170 0.007487 0.000697 0.000000 0.029302 0.000000
# 6 0.000000 0.000000 0.000000 -0.005567 0.000000 0.040511
#
#
# Mechanical properties :
#
#
# Convention : Reuss Voigt Hill
#
# Bulk Modulus (GPa) = 12.88928 31.52048 22.20488
# Shear Modulus (GPa) = 22.23724 30.91147 26.57436
#
# Velocity S-wave (km/s) = 3.20514 3.77891 3.50379
# Velocity P-wave (km/s) = 4.43302 5.79669 5.16010
#
# Compressibility (1/GPa) = 0.07758386
#
# Stress axis : x y z
#
# Youngs Moduli (GPa) = 72.52619 21.11060 122.49668
#
# Poissons Ratio (x) = -0.16626 0.34457
# Poissons Ratio (y) = -0.57120 0.11411
# Poissons Ratio (z) = 0.20401 0.01967
#
# Static dielectric constant tensor:
#      x y z
#    x 1.751180 0.000000 -0.025450 
#    y 0.000000 1.801630 0.000000 
#    z -0.025450 0.000000 1.809740 
# 
# From -- ./inp_files/250125.got.cif
#   From: 2010.05.17/outbox.cif.g08.bks.cpg/sg12_126_cif.got.tgz:250125.got - 2010.06.03 13:09:07.
