data_PCOD9194681
_publ_section_title
;
Structure prediction by ZEFSAII (Michael W. Deem and Ramdas Pophale) SiO2 
 PCOD9194681
Probable space group: C 2/M
;
_chemical_formula_sum "Si O2"
_cell_formula_units_Z 56
_cell_length_a 16.591937
_cell_length_b 23.160585
_cell_length_c 10.712347
_cell_angle_alpha 90.000000
_cell_angle_beta 40.850523
_cell_angle_gamma 90.000000
_cell_volume 2692.572074
_symmetry_space_group_name_H-M "C 2/M"
_symmetry_group_IT_number 12
_symmetry_cell_setting 'monoclinic'
loop_
_space_group_symop_operation_xyz
x,y,z
-x,y,-z
-x,-y,-z
x,-y,z
1/2+x,1/2+y,z
1/2-x,1/2+y,-z
1/2-x,1/2-y,-z
1/2+x,1/2-y,z
loop_
_atom_site_type_symbol
_atom_site_label
_atom_site_fract_x
_atom_site_fract_y
_atom_site_fract_z
Si Si1 0.737575 0.430620 0.120349
Si Si2 0.062493 0.858925 0.155074
Si Si3 0.859129 0.764566 0.113351
Si Si4 0.791312 0.161545 0.417716
Si Si5 0.356621 0.139532 0.172730
Si Si6 0.660327 0.564419 0.831959
Si Si7 0.592520 0.934927 0.294158
O O1 0.718729 0.500000 0.130093
O O2 0.625175 0.393509 0.194560
O O3 0.770618 0.410853 0.220496
O O4 0.859982 0.413563 0.895224
O O5 0.923751 0.835677 0.333496
O O6 0.144170 0.806423 0.002373
O O7 0.063643 0.903954 0.036886
O O8 0.782121 0.790162 0.320217
O O9 0.817746 0.658217 0.356866
O O10 0.000000 0.768207 0.000000
O O11 0.666872 0.197905 0.879784
O O12 0.799085 0.102644 0.331051
O O13 0.500000 0.124243 0.000000
O O14 0.628229 0.500000 0.833099
O O15 0.779967 0.561262 0.780760
O O16 0.500000 0.904772 0.500000
O O17 0.541970 0.000000 0.330640
#
# Coordination Sequence:
#
# PCOD9194681 Si02
#       7
#     8   8   8   8   8   8   8
#     4  10  22  38  55  79 115 150 182 226 275 333
#     4   9  18  36  60  82 105 138 182 238 289 318
#     4   8  17  37  62  85 106 136 184 241 281 317
#     4  10  20  34  57  83 111 146 182 226 283 331
#     4  11  24  38  54  79 114 155 187 221 269 336
#     4   9  17  29  51  84 108 132 180 234 279 323
#     4   8  15  29  50  71  99 141 178 218 265 307
#
# _framework density 20.797957
#
# number of rings (size 3 to 8) (size 9 to 14) (size 15 to 20)
#    0.000    2.714    0.000    3.000    2.000    3.714 
#    0.000    0.714    0.000    1.714    0.000    0.000 
#    0.000    0.000    0.000    0.000    0.000    0.000 
#
# Total GULP energy -155989.725739 kJ/mol
# GULP energy per Si atom -5571.061634 kJ/mol
# Density = 2.075062 g / cm^3
# Si number density = 20.797957 Si / 1000 Ang^3
#
#
#
# Elastic Constant Matrix: (Units=GPa)
#
#
# Indices 1 2 3 4 5 6 
#
# 1 50.6468 17.6867 0.9930 0.0000 -0.5345 0.0000
# 2 17.6867 75.8576 -19.2693 0.0000 0.4645 0.0000
# 3 0.9930 -19.2693 53.9940 0.0000 -5.1763 0.0000
# 4 0.0000 0.0000 0.0000 7.2825 0.0000 -4.2982
# 5 -0.5345 0.4645 -5.1763 0.0000 15.7872 0.0000
# 6 0.0000 0.0000 0.0000 -4.2982 0.0000 17.6899
#
#
#
# Elastic Compliance Matrix: (Units=1/GPa)
#
#
# Indices 1 2 3 4 5 6 
#
# 1 0.021782 -0.005695 -0.002422 0.000000 0.000111 0.000000
# 2 -0.005695 0.016012 0.005942 0.000000 0.001284 0.000000
# 3 -0.002422 0.005942 0.021332 0.000000 0.006737 0.000000
# 4 0.000000 0.000000 0.000000 0.160304 0.000000 0.038949
# 5 0.000111 0.001284 0.006737 0.000000 0.065517 0.000000
# 6 0.000000 0.000000 0.000000 0.038949 0.000000 0.065993
#
#
# Mechanical properties :
#
#
# Convention : Reuss Voigt Hill
#
# Bulk Modulus (GPa) = 18.25613 19.92435 19.09024
# Shear Modulus (GPa) = 13.38515 20.22445 16.80480
#
# Velocity S-wave (km/s) = 2.53964 3.12176 2.84562
# Velocity P-wave (km/s) = 4.17092 4.75337 4.47164
#
# Compressibility (1/GPa) = 0.05477613
#
# Stress axis : x y z
#
# Youngs Moduli (GPa) = 45.90968 62.45361 46.87872
#
# Poissons Ratio (x) = 0.35565 0.11355
# Poissons Ratio (y) = 0.26144 -0.27856
# Poissons Ratio (z) = 0.11120 -0.37111
#
# Static dielectric constant tensor:
#      x y z
#    x 1.762550 0.000000 -0.010680 
#    y 0.000000 1.775890 0.000000 
#    z -0.010680 0.000000 1.802440 
# 
# From -- ./inp_files/160239.got.cif
#   From: 2010.05.17/outbox.cif.g08.bks.cpg/sg12_81_cif.got.tgz:160239.got - 2010.06.03 13:09:07.
