data_PCOD9194555
_publ_section_title
;
Structure prediction by ZEFSAII (Michael W. Deem and Ramdas Pophale) SiO2 
 PCOD9194555
Probable space group: C 2/M
;
_chemical_formula_sum "Si O2"
_cell_formula_units_Z 64
_cell_length_a 25.325798
_cell_length_b 19.320275
_cell_length_c 9.865103
_cell_angle_alpha 90.000000
_cell_angle_beta 132.460965
_cell_angle_gamma 90.000000
_cell_volume 3561.064907
_symmetry_space_group_name_H-M "C 2/M"
_symmetry_group_IT_number 12
_symmetry_cell_setting 'monoclinic'
loop_
_space_group_symop_operation_xyz
x,y,z
-x,y,-z
-x,-y,-z
x,-y,z
1/2+x,1/2+y,z
1/2-x,1/2+y,-z
1/2-x,1/2-y,-z
1/2+x,1/2-y,z
loop_
_atom_site_type_symbol
_atom_site_label
_atom_site_fract_x
_atom_site_fract_y
_atom_site_fract_z
Si Si1 0.334279 0.079618 0.896929
Si Si2 0.064635 0.704070 0.850627
Si Si3 0.327930 0.078879 0.569434
Si Si4 0.235534 0.420015 0.953718
Si Si5 0.600732 0.782112 0.415030
Si Si6 0.174087 0.277852 0.812138
Si Si7 0.678552 0.421830 0.148729
Si Si8 0.079398 0.189399 0.119277
O O1 0.313500 0.090412 0.704739
O O2 0.268819 0.088759 0.890925
O O3 0.357612 0.000000 0.950921
O O4 0.398283 0.130512 0.051472
O O5 0.112262 0.736410 0.813413
O O6 0.980480 0.705876 0.673766
O O7 0.073348 0.748718 0.001071
O O8 0.374595 0.143416 0.600071
O O9 0.255379 0.079845 0.356571
O O10 0.358160 0.000000 0.608288
O O11 0.215772 0.500000 0.890714
O O12 0.180894 0.361328 0.811498
O O13 0.305573 0.406985 0.983270
O O14 0.651391 0.755614 0.623723
O O15 0.602515 0.725264 0.299140
O O16 0.250000 0.250000 0.000000
O O17 0.650113 0.500000 0.110013
O O18 0.630700 0.366805 0.142448
O O19 0.000000 0.159378 0.000000
#
# Coordination Sequence:
#
# PCOD9194555 Si02
#       8
#     8   8   8   8   8   8   8   8
#     4   9  18  33  53  81 116 151 187 222 264 329
#     4  10  21  36  54  81 115 150 190 228 279 331
#     4  10  20  34  56  85 115 149 189 228 274 333
#     4   9  18  34  54  77 107 138 176 228 274 319
#     4  11  22  37  54  80 118 151 181 236 283 332
#     4  11  22  36  57  83 108 147 196 233 276 338
#     4  10  20  36  57  80 107 142 187 239 288 331
#     4  10  22  38  56  80 110 146 188 233 287 345
#
# _framework density 17.972151
#
# number of rings (size 3 to 8) (size 9 to 14) (size 15 to 20)
#    0.000    2.000    2.500    1.125    0.000    3.250 
#    0.000    1.250    0.000    3.750    0.000    0.000 
#    0.000   14.000    0.000    0.000    0.000    0.000 
#
# Total GULP energy -178226.734399 kJ/mol
# GULP energy per Si atom -5569.585450 kJ/mol
# Density = 1.793125 g / cm^3
# Si number density = 17.972151 Si / 1000 Ang^3
#
#
#
# Elastic Constant Matrix: (Units=GPa)
#
#
# Indices 1 2 3 4 5 6 
#
# 1 125.7828 47.1243 52.1500 0.0000 -4.2838 0.0000
# 2 47.1243 51.5856 26.4844 0.0000 9.5900 0.0000
# 3 52.1500 26.4844 95.2517 0.0000 -14.1271 0.0000
# 4 0.0000 0.0000 0.0000 1.9984 0.0000 -4.9070
# 5 -4.2838 9.5900 -14.1271 0.0000 22.2847 0.0000
# 6 0.0000 0.0000 0.0000 -4.9070 0.0000 32.2958
#
#
#
# Elastic Compliance Matrix: (Units=1/GPa)
#
#
# Indices 1 2 3 4 5 6 
#
# 1 0.014182 -0.012223 -0.003511 0.000000 0.005760 0.000000
# 2 -0.012223 0.038968 -0.007703 0.000000 -0.024002 0.000000
# 3 -0.003511 -0.007703 0.016506 0.000000 0.013104 0.000000
# 4 0.000000 0.000000 0.000000 0.798149 0.000000 0.121269
# 5 0.005760 -0.024002 0.013104 0.000000 0.064617 0.000000
# 6 0.000000 0.000000 0.000000 0.121269 0.000000 0.049389
#
#
# Mechanical properties :
#
#
# Convention : Reuss Voigt Hill
#
# Bulk Modulus (GPa) = 43.89571 58.23748 51.06659
# Shear Modulus (GPa) = 4.82495 21.10656 12.96575
#
# Velocity S-wave (km/s) = 1.64028 3.43067 2.68887
# Velocity P-wave (km/s) = 5.29761 6.94027 6.17382
#
# Compressibility (1/GPa) = 0.02278127
#
# Stress axis : x y z
#
# Youngs Moduli (GPa) = 70.51359 25.66206 60.58345
#
# Poissons Ratio (x) = 0.31367 0.21274
# Poissons Ratio (y) = 0.86190 0.46665
# Poissons Ratio (z) = 0.24761 0.19766
#
# Static dielectric constant tensor:
#      x y z
#    x 1.648270 0.000000 -0.028870 
#    y 0.000000 1.629490 0.000000 
#    z -0.028870 0.000000 1.617070 
# 
# From -- ./inp_files/99131.got.cif
#   From: 2010.05.17/outbox.cif.g08.bks.cpg/sg12_50_cif.got.tgz:99131.got - 2010.06.03 13:09:07.
