data_PCOD9194290
_publ_section_title
;
Structure prediction by ZEFSAII (Michael W. Deem and Ramdas Pophale) SiO2 
 PCOD9194290
Probable space group: C 2/M
;
_chemical_formula_sum "Si O2"
_cell_formula_units_Z 64
_cell_length_a 14.989346
_cell_length_b 9.146307
_cell_length_c 29.411212
_cell_angle_alpha 90.000000
_cell_angle_beta 53.291460
_cell_angle_gamma 90.000000
_cell_volume 3232.555447
_symmetry_space_group_name_H-M "C 2/M"
_symmetry_group_IT_number 12
_symmetry_cell_setting 'monoclinic'
loop_
_space_group_symop_operation_xyz
x,y,z
-x,y,-z
-x,-y,-z
x,-y,z
1/2+x,1/2+y,z
1/2-x,1/2+y,-z
1/2-x,1/2-y,-z
1/2+x,1/2-y,z
loop_
_atom_site_type_symbol
_atom_site_label
_atom_site_fract_x
_atom_site_fract_y
_atom_site_fract_z
Si Si1 0.131387 0.176019 0.736757
Si Si2 0.098605 0.675596 0.937378
Si Si3 0.959136 0.322801 0.145928
Si Si4 0.458037 0.826097 0.320971
Si Si5 0.204788 0.845448 0.569814
Si Si6 0.302877 0.676304 0.939160
Si Si7 0.382019 0.174200 0.649563
Si Si8 0.066538 0.776577 0.523159
O O1 0.104778 0.249785 0.792857
O O2 0.050018 0.239548 0.723290
O O3 0.255673 0.223233 0.683533
O O4 0.125040 0.000000 0.741693
O O5 0.083124 0.500000 0.940721
O O6 0.091209 0.722612 0.887610
O O7 0.215353 0.702999 0.925528
O O8 0.000000 0.734524 0.000000
O O9 0.960299 0.500000 0.149379
O O10 0.082863 0.256661 0.106988
O O11 0.351242 0.784110 0.384803
O O12 0.562042 0.776929 0.320183
O O13 0.461395 0.000000 0.312599
O O14 0.145566 0.850022 0.538107
O O15 0.337619 0.829391 0.525893
O O16 0.178401 0.000000 0.601305
O O17 0.315892 0.500000 0.941022
O O18 0.250000 0.750000 0.000000
O O19 0.466105 0.215655 0.584062
O O20 0.379509 0.000000 0.652003
O O21 0.000000 0.842338 0.500000
#
# Coordination Sequence:
#
# PCOD9194290 Si02
#       8
#     8   8   8   8   8   8   8   8
#     4  11  23  41  63  87 115 150 199 251 296 349
#     4   9  18  36  61  88 123 163 196 234 288 344
#     4  11  23  41  62  88 122 160 200 244 295 351
#     4  10  21  40  62  84 115 155 195 242 302 360
#     4  10  21  36  56  85 117 150 194 246 297 357
#     4  11  21  37  62  92 124 160 200 239 286 343
#     4   9  20  38  59  83 114 154 198 245 295 354
#     4  10  20  34  55  84 118 154 193 240 300 359
#
# _framework density 19.798577000000002
#
# number of rings (size 3 to 8) (size 9 to 14) (size 15 to 20)
#    0.000    1.875    1.250    2.625    0.000    6.250 
#    0.000   14.375    0.000    0.000    0.000    0.000 
#    0.000    0.000    0.000    0.000    0.000    0.000 
#
# Total GULP energy -178396.630423 kJ/mol
# GULP energy per Si atom -5574.894701 kJ/mol
# Density = 1.975351 g / cm^3
# Si number density = 19.798577 Si / 1000 Ang^3
#
#
#
# Elastic Constant Matrix: (Units=GPa)
#
#
# Indices 1 2 3 4 5 6 
#
# 1 115.7157 28.6900 32.7710 -0.0001 26.9594 -0.0001
# 2 28.6900 60.3149 4.3069 -0.0001 7.5619 -0.0001
# 3 32.7710 4.3069 41.9426 -0.0001 15.0871 0.0000
# 4 -0.0001 -0.0001 -0.0001 -58.3567 0.0000 -25.8441
# 5 26.9594 7.5619 15.0871 0.0000 37.0101 0.0000
# 6 -0.0001 -0.0001 0.0000 -25.8441 0.0000 4.3901
#
#
#
# Elastic Compliance Matrix: (Units=1/GPa)
#
#
# Indices 1 2 3 4 5 6 
#
# 1 0.013468 -0.005145 -0.008020 0.000000 -0.005490 0.000000
# 2 -0.005145 0.018993 0.002481 0.000000 -0.001144 0.000000
# 3 -0.008020 0.002481 0.032734 0.000000 -0.008009 0.000000
# 4 0.000000 0.000000 0.000000 -0.004751 0.000000 -0.027967
# 5 -0.005490 -0.001144 -0.008009 0.000000 0.034517 0.000000
# 6 0.000000 0.000000 0.000000 -0.027967 0.000000 0.063149
#
#
# Mechanical properties :
#
#
# Convention : Reuss Voigt Hill
#
# Bulk Modulus (GPa) = 22.81625 38.83434 30.82530
# Shear Modulus (GPa) = 25.76148 6.75571 16.25859
#
# Velocity S-wave (km/s) = 3.61110 1.84922 2.86877
# Velocity P-wave (km/s) = 5.37921 4.92106 5.15523
#
# Compressibility (1/GPa) = 0.04382840
#
# Stress axis : x y z
#
# Youngs Moduli (GPa) = 74.25113 52.64994 30.54897
#
# Poissons Ratio (x) = 0.27090 0.24499
# Poissons Ratio (y) = 0.38204 -0.07580
# Poissons Ratio (z) = 0.59547 -0.13065
#
# Static dielectric constant tensor:
#      x y z
#    x 1.715610 0.000000 0.013490 
#    y 0.000000 1.740940 0.000000 
#    z 0.013490 0.000000 1.688270 
# 
# From -- ./inp_files/375478.got.cif
#   From: 2010.05.17/outbox.cif.g08.bks.cpg/sg12_188_cif.got.tgz:375478.got - 2010.06.03 13:09:07.
