data_PCOD9194592
_publ_section_title
;
Structure prediction by ZEFSAII (Michael W. Deem and Ramdas Pophale) SiO2 
 PCOD9194592
Probable space group: C 2/M
;
_chemical_formula_sum "Si O2"
_cell_formula_units_Z 48
_cell_length_a 24.649165
_cell_length_b 9.025704
_cell_length_c 11.195856
_cell_angle_alpha 90.000000
_cell_angle_beta 71.143290
_cell_angle_gamma 90.000000
_cell_volume 2357.127803
_symmetry_space_group_name_H-M "C 2/M"
_symmetry_group_IT_number 12
_symmetry_cell_setting 'monoclinic'
loop_
_space_group_symop_operation_xyz
x,y,z
-x,y,-z
-x,-y,-z
x,-y,z
1/2+x,1/2+y,z
1/2-x,1/2+y,-z
1/2-x,1/2-y,-z
1/2+x,1/2-y,z
loop_
_atom_site_type_symbol
_atom_site_label
_atom_site_fract_x
_atom_site_fract_y
_atom_site_fract_z
Si Si1 0.569682 0.676672 0.197905
Si Si2 0.862400 0.823853 0.092700
Si Si3 0.162771 0.175227 0.520116
Si Si4 0.034832 0.331831 0.850274
Si Si5 0.725540 0.825048 0.699990
Si Si6 0.432008 0.175433 0.554429
O O1 0.566038 0.500000 0.216170
O O2 0.507679 0.741992 0.204791
O O3 0.588122 0.755316 0.305973
O O4 0.612545 0.707255 0.056797
O O5 0.907361 0.751749 0.154280
O O6 0.800928 0.754178 0.165935
O O7 0.861495 0.000000 0.109701
O O8 0.207733 0.196329 0.378553
O O9 0.191885 0.255021 0.611477
O O10 0.102902 0.246389 0.525998
O O11 0.157797 0.000000 0.546658
O O12 0.045018 0.500000 0.799519
O O13 0.000000 0.341709 0.000000
O O14 0.714515 0.000000 0.714240
O O15 0.500000 0.202424 0.500000
O O16 0.422062 0.000000 0.558141
#
# Coordination Sequence:
#
# PCOD9194592 Si02
#       6
#     8   8   8   8   8   8
#     4  10  21  37  56  82 117 154 196 242 289 347
#     4  10  20  34  56  86 117 152 194 241 293 345
#     4  10  22  41  63  88 118 154 197 244 292 345
#     4   9  17  30  50  77 112 151 189 234 285 336
#     4  10  21  38  63  91 119 152 194 244 294 346
#     4  11  25  42  61  85 117 157 198 241 292 352
#
# _framework density 20.363766999999999
#
# number of rings (size 3 to 8) (size 9 to 14) (size 15 to 20)
#    0.000    2.000    0.000    3.000    2.333    7.333 
#    0.000    0.833    0.000    0.000    0.000    0.000 
#    0.000    0.000    0.000    0.000    0.000    0.000 
#
# Total GULP energy -134144.528432 kJ/mol
# GULP energy per Si atom -5589.355351 kJ/mol
# Density = 2.031742 g / cm^3
# Si number density = 20.363767 Si / 1000 Ang^3
#
#
#
# Elastic Constant Matrix: (Units=GPa)
#
#
# Indices 1 2 3 4 5 6 
#
# 1 49.3672 32.9129 12.7348 0.0000 -3.0476 0.0000
# 2 32.9129 94.2983 38.8464 0.0000 -20.1782 0.0000
# 3 12.7348 38.8464 74.4709 0.0000 -16.8333 0.0000
# 4 0.0000 0.0000 0.0000 30.5115 0.0000 -4.3982
# 5 -3.0476 -20.1782 -16.8333 0.0000 29.0673 0.0000
# 6 0.0000 0.0000 0.0000 -4.3982 0.0000 24.4987
#
#
#
# Elastic Compliance Matrix: (Units=1/GPa)
#
#
# Indices 1 2 3 4 5 6 
#
# 1 0.026861 -0.010213 -0.000267 0.000000 -0.004428 0.000000
# 2 -0.010213 0.018398 -0.005990 0.000000 0.008232 0.000000
# 3 -0.000267 -0.005990 0.018010 0.000000 0.006243 0.000000
# 4 0.000000 0.000000 0.000000 0.033645 0.000000 0.006040
# 5 -0.004428 0.008232 0.006243 0.000000 0.043269 0.000000
# 6 0.000000 0.000000 0.000000 0.006040 0.000000 0.041903
#
#
# Mechanical properties :
#
#
# Convention : Reuss Voigt Hill
#
# Bulk Modulus (GPa) = 32.97122 43.01383 37.99252
# Shear Modulus (GPa) = 22.20895 25.72499 23.96697
#
# Velocity S-wave (km/s) = 3.30602 3.55811 3.43438
# Velocity P-wave (km/s) = 5.54971 6.16837 5.86720
#
# Compressibility (1/GPa) = 0.03032948
#
# Stress axis : x y z
#
# Youngs Moduli (GPa) = 37.22922 54.35279 55.52621
#
# Poissons Ratio (x) = 0.55509 0.01482
# Poissons Ratio (y) = 0.38021 0.33260
# Poissons Ratio (z) = 0.00993 0.32557
#
# Static dielectric constant tensor:
#      x y z
#    x 1.701400 0.000000 -0.029880 
#    y 0.000000 1.677450 0.000000 
#    z -0.029880 0.000000 1.779900 
# 
# From -- ./inp_files/172933.got.cif
#   From: 2010.05.17/outbox.cif.g08.bks.cpg/sg12_87_cif.got.tgz:172933.got - 2010.06.03 13:09:07.
