data_PCOD9194911
_publ_section_title
;
Structure prediction by ZEFSAII (Michael W. Deem and Ramdas Pophale) SiO2 
 PCOD9194911
Probable space group: C 2/M
;
_chemical_formula_sum "Si O2"
_cell_formula_units_Z 50
_cell_length_a 24.973311
_cell_length_b 7.663595
_cell_length_c 12.881582
_cell_angle_alpha 90.000000
_cell_angle_beta 120.394723
_cell_angle_gamma 90.000000
_cell_volume 2126.509488
_symmetry_space_group_name_H-M "C 2/M"
_symmetry_group_IT_number 12
_symmetry_cell_setting 'monoclinic'
loop_
_space_group_symop_operation_xyz
x,y,z
-x,y,-z
-x,-y,-z
x,-y,z
1/2+x,1/2+y,z
1/2-x,1/2+y,-z
1/2-x,1/2-y,-z
1/2+x,1/2-y,z
loop_
_atom_site_type_symbol
_atom_site_label
_atom_site_fract_x
_atom_site_fract_y
_atom_site_fract_z
Si Si1 0.076191 0.308864 0.996939
Si Si2 0.692247 0.291149 0.369248
Si Si3 0.346987 0.709388 0.282114
Si Si4 0.035641 0.212663 0.735937
Si Si5 0.500000 0.500000 0.000000
Si Si6 0.291360 0.292514 0.849618
Si Si7 0.600391 0.286947 0.448911
O O1 0.068412 0.500000 0.034600
O O2 0.148260 0.283987 0.036193
O O3 0.053874 0.153450 0.048453
O O4 0.037328 0.284230 0.853596
O O5 0.687599 0.500000 0.355982
O O6 0.750000 0.250000 0.500000
O O7 0.703195 0.224460 0.264093
O O8 0.632181 0.227486 0.373406
O O9 0.351469 0.500000 0.288670
O O10 0.403348 0.770713 0.265547
O O11 0.277611 0.752594 0.179196
O O12 0.360845 0.773141 0.412977
O O13 0.971700 0.261357 0.617152
O O14 0.036673 0.000000 0.746367
O O15 0.298004 0.500000 0.858194
O O16 0.602396 0.500000 0.451064
#
# Coordination Sequence:
#
# PCOD9194911 Si02
#       7
#     8   8   8   8   2   8   8
#     4  12  27  46  73 104 135 181 227 273 339 406
#     4  10  20  34  58  88 125 168 213 270 341 405
#     4  10  20  37  64  97 129 179 236 284 337 411
#     4  10  21  40  66  94 136 180 228 287 344 399
#     4  12  26  52  72  98 146 168 216 284 330 404
#     4  11  23  40  63  95 137 181 224 280 345 398
#     4   9  18  34  61  93 129 174 227 281 345 410
#
# _framework density 23.512710999999999
#
# number of rings (size 3 to 8) (size 9 to 14) (size 15 to 20)
#    0.000    1.600    3.200    1.200    2.240    3.840 
#    0.000    1.600    0.000    1.920    0.000    0.000 
#    0.000    0.000    0.000    0.000    0.000    0.000 
#
# Total GULP energy -139567.717475 kJ/mol
# GULP energy per Si atom -5582.708699 kJ/mol
# Density = 2.345919 g / cm^3
# Si number density = 23.512711 Si / 1000 Ang^3
#
#
#
# Elastic Constant Matrix: (Units=GPa)
#
#
# Indices 1 2 3 4 5 6 
#
# 1 132.0743 23.7031 -0.7477 0.0000 33.7285 0.0000
# 2 23.7031 102.1110 0.8672 0.0000 4.2656 0.0000
# 3 -0.7477 0.8672 43.2748 0.0000 23.0263 0.0000
# 4 0.0000 0.0000 0.0000 801.9406 0.0000 288.0111
# 5 33.7285 4.2656 23.0263 0.0000 42.2036 0.0000
# 6 0.0000 0.0000 0.0000 288.0111 0.0000 118.1377
#
#
#
# Elastic Compliance Matrix: (Units=1/GPa)
#
#
# Indices 1 2 3 4 5 6 
#
# 1 0.011176 -0.002132 0.006867 0.000000 -0.012463 0.000000
# 2 -0.002132 0.010248 -0.000842 0.000000 0.001127 0.000000
# 3 0.006867 -0.000842 0.036803 0.000000 -0.025483 0.000000
# 4 0.000000 0.000000 0.000000 0.010021 0.000000 -0.024430
# 5 -0.012463 0.001127 -0.025483 0.000000 0.047444 0.000000
# 6 0.000000 0.000000 0.000000 -0.024430 0.000000 0.068024
#
#
# Mechanical properties :
#
#
# Convention : Reuss Voigt Hill
#
# Bulk Modulus (GPa) = 15.14863 36.12283 25.63573
# Shear Modulus (GPa) = 25.26098 209.36555 117.31326
#
# Velocity S-wave (km/s) = 3.28129 9.44653 7.07120
# Velocity P-wave (km/s) = 4.56208 11.59219 8.80884
#
# Compressibility (1/GPa) = 0.06601259
#
# Stress axis : x y z
#
# Youngs Moduli (GPa) = 89.48060 97.57811 27.17190
#
# Poissons Ratio (x) = 0.20803 -0.18659
# Poissons Ratio (y) = 0.19076 0.02288
# Poissons Ratio (z) = -0.61447 0.08217
#
# Static dielectric constant tensor:
#      x y z
#    x 1.920560 0.000000 -0.017030 
#    y 0.000000 1.880180 0.000000 
#    z -0.017030 0.000000 1.867830 
# 
# From -- ./inp_files/237234.got.cif
#   From: 2010.05.17/outbox.cif.g08.bks.cpg/sg12_119_cif.got.tgz:237234.got - 2010.06.03 13:09:07.
