data_PCOD9194870
_publ_section_title
;
Structure prediction by ZEFSAII (Michael W. Deem and Ramdas Pophale) SiO2 
 PCOD9194870
Probable space group: C 2/M
;
_chemical_formula_sum "Si O2"
_cell_formula_units_Z 48
_cell_length_a 15.565868
_cell_length_b 22.842171
_cell_length_c 13.090476
_cell_angle_alpha 90.000000
_cell_angle_beta 144.121812
_cell_angle_gamma 90.000000
_cell_volume 2727.791425
_symmetry_space_group_name_H-M "C 2/M"
_symmetry_group_IT_number 12
_symmetry_cell_setting 'monoclinic'
loop_
_space_group_symop_operation_xyz
x,y,z
-x,y,-z
-x,-y,-z
x,-y,z
1/2+x,1/2+y,z
1/2-x,1/2+y,-z
1/2-x,1/2-y,-z
1/2+x,1/2-y,z
loop_
_atom_site_type_symbol
_atom_site_label
_atom_site_fract_x
_atom_site_fract_y
_atom_site_fract_z
Si Si1 0.884534 0.260161 0.296369
Si Si2 0.977235 0.886527 0.856922
Si Si3 0.190019 0.617079 0.887619
Si Si4 0.901458 0.500000 0.303688
Si Si5 0.410262 0.268712 0.689496
Si Si6 0.099324 0.319654 0.004751
Si Si7 0.858643 0.000000 0.793578
O O1 0.841701 0.324880 0.212525
O O2 0.738480 0.220842 0.173998
O O3 0.000000 0.265512 0.500000
O O4 0.976387 0.228994 0.295103
O O5 0.903929 0.830392 0.738203
O O6 0.869416 0.941465 0.739448
O O7 0.000000 0.876672 0.000000
O O8 0.137388 0.896254 0.962059
O O9 0.098429 0.560152 0.761577
O O10 0.154313 0.635895 0.969570
O O11 0.753194 0.500000 0.223487
O O12 0.000000 0.500000 0.500000
O O13 0.250000 0.250000 0.500000
O O14 0.485717 0.223540 0.839044
O O15 0.000000 0.345918 0.000000
O O16 0.000000 0.000000 0.000000
#
# Coordination Sequence:
#
# PCOD9194870 Si02
#       7
#     8   8   8   4   8   8   4
#     4  11  22  36  56  86 118 155 197 243 298 358
#     4  11  19  35  60  84 118 149 192 236 292 364
#     4  11  21  39  58  86 119 157 193 241 300 352
#     4  12  24  38  59  92 123 148 192 251 293 348
#     4  11  22  34  56  87 118 155 196 242 302 352
#     4  11  22  39  57  81 118 160 200 245 291 355
#     4  10  20  34  58  84 106 150 188 215 293 355
#
# _framework density 17.596653
#
# number of rings (size 3 to 8) (size 9 to 14) (size 15 to 20)
#    0.000    1.000    6.667    3.000    2.333    2.667 
#    0.000    0.417    0.000    0.000    0.000    4.667 
#    0.000    0.000    0.000    0.000    0.000    0.000 
#
# Total GULP energy -133769.017263 kJ/mol
# GULP energy per Si atom -5573.709053 kJ/mol
# Density = 1.755660 g / cm^3
# Si number density = 17.596653 Si / 1000 Ang^3
#
#
#
# Elastic Constant Matrix: (Units=GPa)
#
#
# Indices 1 2 3 4 5 6 
#
# 1 113.5120 32.9713 17.5149 0.0000 -8.0563 0.0000
# 2 32.9713 110.7799 15.9798 0.0000 -15.6142 0.0000
# 3 17.5149 15.9798 72.6354 0.0000 2.4321 0.0000
# 4 0.0000 0.0000 0.0000 66.2605 0.0000 24.4749
# 5 -8.0563 -15.6142 2.4321 0.0000 26.4247 0.0000
# 6 0.0000 0.0000 0.0000 24.4749 0.0000 45.6050
#
#
#
# Elastic Compliance Matrix: (Units=1/GPa)
#
#
# Indices 1 2 3 4 5 6 
#
# 1 0.009938 -0.002431 -0.001921 0.000000 0.001770 0.000000
# 2 -0.002431 0.010865 -0.002000 0.000000 0.005863 0.000000
# 3 -0.001921 -0.002000 0.014775 0.000000 -0.003128 0.000000
# 4 0.000000 0.000000 0.000000 0.018823 0.000000 -0.010102
# 5 0.001770 0.005863 -0.003128 0.000000 0.042136 0.000000
# 6 0.000000 0.000000 0.000000 -0.010102 0.000000 0.027349
#
#
# Mechanical properties :
#
#
# Convention : Reuss Voigt Hill
#
# Bulk Modulus (GPa) = 43.71820 47.76214 45.74017
# Shear Modulus (GPa) = 34.67023 43.02212 38.84618
#
# Velocity S-wave (km/s) = 4.44359 4.94996 4.70360
# Velocity P-wave (km/s) = 7.15723 7.73764 7.45309
#
# Compressibility (1/GPa) = 0.02287377
#
# Stress axis : x y z
#
# Youngs Moduli (GPa) = 100.62562 92.03446 67.68020
#
# Poissons Ratio (x) = 0.22376 0.13000
# Poissons Ratio (y) = 0.24465 0.13539
# Poissons Ratio (z) = 0.19328 0.18411
#
# Static dielectric constant tensor:
#      x y z
#    x 1.629940 0.000000 -0.016440 
#    y 0.000000 1.652180 0.000000 
#    z -0.016440 0.000000 1.610880 
# 
# From -- ./inp_files/148068.got.cif
#   From: 2010.05.17/outbox.cif.g08.bks.cpg/sg12_75_cif.got.tgz:148068.got - 2010.06.03 13:09:07.
