data_PCOD9194997
_publ_section_title
;
Structure prediction by ZEFSAII (Michael W. Deem and Ramdas Pophale) SiO2 
 PCOD9194997
Probable space group: C 2/M
;
_chemical_formula_sum "Si O2"
_cell_formula_units_Z 58
_cell_length_a 25.052046
_cell_length_b 7.672179
_cell_length_c 24.052443
_cell_angle_alpha 90.000000
_cell_angle_beta 34.183502
_cell_angle_gamma 90.000000
_cell_volume 2597.393787
_symmetry_space_group_name_H-M "C 2/M"
_symmetry_group_IT_number 12
_symmetry_cell_setting 'monoclinic'
loop_
_space_group_symop_operation_xyz
x,y,z
-x,y,-z
-x,-y,-z
x,-y,z
1/2+x,1/2+y,z
1/2-x,1/2+y,-z
1/2-x,1/2-y,-z
1/2+x,1/2-y,z
loop_
_atom_site_type_symbol
_atom_site_label
_atom_site_fract_x
_atom_site_fract_y
_atom_site_fract_z
Si Si1 0.888686 0.800505 0.726595
Si Si2 0.075869 0.205230 0.504837
Si Si3 0.123387 0.209838 0.770119
Si Si4 0.917677 0.706759 0.995009
Si Si5 0.250987 0.208139 0.564436
Si Si6 0.745083 0.290705 0.068276
Si Si7 0.500000 0.000000 0.500000
Si Si8 0.718676 0.702433 0.795566
O O1 0.846396 0.721162 0.819521
O O2 0.799663 0.796631 0.761142
O O3 0.981193 0.723824 0.618588
O O4 0.916058 0.000000 0.714497
O O5 0.160890 0.218728 0.475923
O O6 0.076330 0.343126 0.454167
O O7 0.066037 0.000000 0.497064
O O8 0.157079 0.265658 0.679962
O O9 0.198974 0.272991 0.751198
O O10 0.020100 0.259957 0.880952
O O11 0.126302 0.000000 0.769434
O O12 0.908619 0.500000 0.010258
O O13 0.839179 0.771773 0.018587
O O14 0.881487 0.784173 0.084474
O O15 0.250000 0.250000 0.500000
O O16 0.257196 0.000000 0.563399
O O17 0.742801 0.500000 0.076473
O O18 0.750000 0.250000 0.000000
O O19 0.745037 0.500000 0.771638
#
# Coordination Sequence:
#
# PCOD9194997 Si02
#       8
#     8   8   8   8   8   8   2   8
#     4   9  21  39  59  88 125 162 205 259 325 392
#     4  11  25  45  71 102 138 181 224 284 348 407
#     4  10  23  39  60  86 118 161 210 261 320 380
#     4  10  21  37  55  84 122 155 196 251 308 381
#     4  11  25  47  68  94 133 179 234 290 340 408
#     4   9  19  36  55  82 116 153 198 249 304 372
#     4  12  26  44  72 106 144 166 234 282 354 414
#     4  10  20  34  59  89 124 160 201 250 314 389
#
# _framework density 22.330075000000001
#
# number of rings (size 3 to 8) (size 9 to 14) (size 15 to 20)
#    0.000    1.931    0.690    2.690    2.897    7.724 
#    0.000    4.138    0.000    0.000    0.000    0.000 
#    0.000    0.000    0.000    0.000    0.000    0.000 
#
# Total GULP energy -161716.723504 kJ/mol
# GULP energy per Si atom -5576.438742 kJ/mol
# Density = 2.227925 g / cm^3
# Si number density = 22.330075 Si / 1000 Ang^3
#
#
#
# Elastic Constant Matrix: (Units=GPa)
#
#
# Indices 1 2 3 4 5 6 
#
# 1 84.2632 14.7242 37.5311 -0.0054 21.0226 -0.0106
# 2 14.7242 95.2002 7.6946 -0.0150 5.3018 -0.0098
# 3 37.5311 7.6946 134.5008 -0.0135 11.7574 -0.0169
# 4 -0.0054 -0.0150 -0.0135 15.3017 0.0070 0.0545
# 5 21.0226 5.3018 11.7574 0.0070 39.8562 0.0302
# 6 -0.0106 -0.0098 -0.0169 0.0545 0.0302 61.8053
#
#
#
# Elastic Compliance Matrix: (Units=1/GPa)
#
#
# Indices 1 2 3 4 5 6 
#
# 1 0.015499 -0.001721 -0.003625 0.000004 -0.006877 0.000005
# 2 -0.001721 0.010806 -0.000094 0.000010 -0.000502 0.000002
# 3 -0.003625 -0.000094 0.008503 0.000006 -0.000584 0.000002
# 4 0.000004 0.000010 0.000006 0.065352 -0.000017 -0.000058
# 5 -0.006877 -0.000502 -0.000584 -0.000017 0.028956 -0.000016
# 6 0.000005 0.000002 0.000002 -0.000058 -0.000016 0.016180
#
#
# Mechanical properties :
#
#
# Convention : Reuss Voigt Hill
#
# Bulk Modulus (GPa) = 41.79428 48.20712 45.00070
# Shear Modulus (GPa) = 30.45954 40.32694 35.39324
#
# Velocity S-wave (km/s) = 3.69732 4.25425 3.98553
# Velocity P-wave (km/s) = 6.08146 6.76512 6.43238
#
# Compressibility (1/GPa) = 0.02392672
#
# Stress axis : x y z
#
# Youngs Moduli (GPa) = 64.52198 92.54179 117.60740
#
# Poissons Ratio (x) = 0.15928 0.42634
# Poissons Ratio (y) = 0.11105 0.01106
# Poissons Ratio (z) = 0.23390 0.00870
#
# Static dielectric constant tensor:
#      x y z
#    x 1.813290 -0.000010 0.027170 
#    y -0.000010 1.836660 0.000000 
#    z 0.027170 0.000000 1.923300 
# 
# From -- ./inp_files/351389.got.cif
#   From: 2010.05.17/outbox.cif.g08.bks.cpg/sg12_176_cif.got.tgz:351389.got - 2010.06.03 13:09:07.
