data_PCOD9194235
_publ_section_title
;
Structure prediction by ZEFSAII (Michael W. Deem and Ramdas Pophale) SiO2 
 PCOD9194235
Probable space group: C 2/M
;
_chemical_formula_sum "Si O2"
_cell_formula_units_Z 56
_cell_length_a 25.357525
_cell_length_b 8.765704
_cell_length_c 17.001593
_cell_angle_alpha 90.000000
_cell_angle_beta 119.810641
_cell_angle_gamma 90.000000
_cell_volume 3278.985020
_symmetry_space_group_name_H-M "C 2/M"
_symmetry_group_IT_number 12
_symmetry_cell_setting 'monoclinic'
loop_
_space_group_symop_operation_xyz
x,y,z
-x,y,-z
-x,-y,-z
x,-y,z
1/2+x,1/2+y,z
1/2-x,1/2+y,-z
1/2-x,1/2-y,-z
1/2+x,1/2-y,z
loop_
_atom_site_type_symbol
_atom_site_label
_atom_site_fract_x
_atom_site_fract_y
_atom_site_fract_z
Si Si1 0.844651 0.182309 0.596201
Si Si2 0.194081 0.317836 0.908497
Si Si3 0.720586 0.182247 0.598552
Si Si4 0.076949 0.818360 0.907292
Si Si5 0.882585 0.317478 0.899552
Si Si6 0.238680 0.817690 0.781435
Si Si7 0.946066 0.317100 0.780522
O O1 0.786874 0.217486 0.609954
O O2 0.827867 0.253450 0.499605
O O3 0.903863 0.252364 0.680235
O O4 0.849517 0.000000 0.593601
O O5 0.195137 0.500000 0.915012
O O6 0.132091 0.254077 0.899018
O O7 0.203946 0.263473 0.826675
O O8 0.250000 0.250000 0.000000
O O9 0.717131 0.259402 0.680784
O O10 0.715237 0.000000 0.601101
O O11 0.012722 0.754178 0.830599
O O12 0.078758 0.000000 0.902392
O O13 0.087081 0.768068 0.005198
O O14 0.889131 0.500000 0.916821
O O15 0.810769 0.282576 0.842924
O O16 0.913714 0.278741 0.839818
O O17 0.231851 0.000000 0.782375
O O18 0.949511 0.500000 0.777797
#
# Coordination Sequence:
#
# PCOD9194235 Si02
#       7
#     8   8   8   8   8   8   8
#     4  10  20  34  55  83 116 150 190 235 283 338
#     4  12  24  40  60  83 111 149 193 239 285 333
#     4  10  20  34  55  84 117 151 189 233 285 339
#     4  12  25  39  57  82 114 153 195 237 282 338
#     4  10  21  36  56  82 116 154 190 230 283 340
#     4  11  21  36  59  86 117 150 187 236 287 336
#     4  11  22  38  58  82 116 155 192 233 285 342
#
# _framework density 17.078455999999999
#
# number of rings (size 3 to 8) (size 9 to 14) (size 15 to 20)
#    0.000    1.143    2.857    4.714    0.000    4.571 
#    0.000    0.000    0.000    0.857    0.000    6.000 
#    0.000    0.000    0.000    0.000    0.000    0.000 
#
# Total GULP energy -156567.552554 kJ/mol
# GULP energy per Si atom -5591.698306 kJ/mol
# Density = 1.703958 g / cm^3
# Si number density = 17.078456 Si / 1000 Ang^3
#
#
#
# Elastic Constant Matrix: (Units=GPa)
#
#
# Indices 1 2 3 4 5 6 
#
# 1 81.9148 43.3681 60.3743 0.0000 21.0994 0.0000
# 2 43.3681 80.0091 64.9630 0.0000 13.8457 0.0000
# 3 60.3743 64.9630 157.5908 0.0000 15.9467 0.0000
# 4 0.0000 0.0000 0.0000 36.7644 0.0000 0.0797
# 5 21.0994 13.8457 15.9467 0.0000 22.7134 0.0000
# 6 0.0000 0.0000 0.0000 0.0797 0.0000 26.6670
#
#
#
# Elastic Compliance Matrix: (Units=1/GPa)
#
#
# Indices 1 2 3 4 5 6 
#
# 1 0.022401 -0.005880 -0.004753 0.000000 -0.013888 0.000000
# 2 -0.005880 0.021258 -0.006192 0.000000 -0.003149 0.000000
# 3 -0.004753 -0.006192 0.010647 0.000000 0.000715 0.000000
# 4 0.000000 0.000000 0.000000 0.027200 0.000000 -0.000081
# 5 -0.013888 -0.003149 0.000715 0.000000 0.058346 0.000000
# 6 0.000000 0.000000 0.000000 -0.000081 0.000000 0.037500
#
#
# Mechanical properties :
#
#
# Convention : Reuss Voigt Hill
#
# Bulk Modulus (GPa) = 48.41062 72.99172 60.70117
# Shear Modulus (GPa) = 22.94771 27.28292 25.11532
#
# Velocity S-wave (km/s) = 3.66958 4.00122 3.83898
# Velocity P-wave (km/s) = 6.80896 8.01113 7.43438
#
# Compressibility (1/GPa) = 0.02065663
#
# Stress axis : x y z
#
# Youngs Moduli (GPa) = 44.64070 47.04083 93.92749
#
# Poissons Ratio (x) = 0.27659 0.44643
# Poissons Ratio (y) = 0.26248 0.58158
# Poissons Ratio (z) = 0.21217 0.29127
#
# Static dielectric constant tensor:
#      x y z
#    x 1.556580 0.000000 -0.003400 
#    y 0.000000 1.566390 0.000000 
#    z -0.003400 0.000000 1.555150 
# 
# From -- ./inp_files/238937.got.cif
#   From: 2010.05.17/outbox.cif.g08.bks.cpg/sg12_120_cif.got.tgz:238937.got - 2010.06.03 13:09:07.
