data_PCOD9194581
_publ_section_title
;
Structure prediction by ZEFSAII (Michael W. Deem and Ramdas Pophale) SiO2 
 PCOD9194581
Probable space group: C 2/M
;
_chemical_formula_sum "Si O2"
_cell_formula_units_Z 48
_cell_length_a 24.841487
_cell_length_b 7.532974
_cell_length_c 19.957911
_cell_angle_alpha 90.000000
_cell_angle_beta 34.184031
_cell_angle_gamma 90.000000
_cell_volume 2098.368310
_symmetry_space_group_name_H-M "C 2/M"
_symmetry_group_IT_number 12
_symmetry_cell_setting 'monoclinic'
loop_
_space_group_symop_operation_xyz
x,y,z
-x,y,-z
-x,-y,-z
x,-y,z
1/2+x,1/2+y,z
1/2-x,1/2+y,-z
1/2-x,1/2-y,-z
1/2+x,1/2-y,z
loop_
_atom_site_type_symbol
_atom_site_label
_atom_site_fract_x
_atom_site_fract_y
_atom_site_fract_z
Si Si1 0.239449 0.783935 0.191244
Si Si2 0.943905 0.715134 0.360462
Si Si3 0.654746 0.199428 0.137975
Si Si4 0.039972 0.715747 0.031054
Si Si5 0.366240 0.216627 0.303812
Si Si6 0.803999 0.209361 0.615571
O O1 0.180339 0.711943 0.189786
O O2 0.202263 0.723385 0.302252
O O3 0.235303 0.000000 0.191523
O O4 0.350824 0.729209 0.070329
O O5 0.944743 0.500000 0.359041
O O6 0.873635 0.775864 0.372997
O O7 0.902836 0.768005 0.474645
O O8 0.050701 0.786206 0.236277
O O9 0.638071 0.000000 0.132228
O O10 0.750000 0.250000 0.000000
O O11 0.041111 0.500000 0.028510
O O12 0.964893 0.767558 0.165207
O O13 0.000000 0.773938 0.000000
O O14 0.278705 0.282393 0.348484
O O15 0.362021 0.000000 0.308766
O O16 0.783751 0.000000 0.642729
#
# Coordination Sequence:
#
# PCOD9194581 Si02
#       6
#     8   8   8   8   8   8
#     4  10  20  35  58  88 117 148 187 233 281 331
#     4  10  22  38  56  79 111 151 191 229 278 336
#     4  11  24  42  62  84 110 146 189 233 281 336
#     4   9  14  26  52  83 111 140 180 230 278 328
#     4   9  16  30  53  82 112 143 184 233 280 330
#     4  10  20  34  56  86 115 145 187 233 279 329
#
# _framework density 22.874915999999999
#
# number of rings (size 3 to 8) (size 9 to 14) (size 15 to 20)
#    0.000    2.167    1.667    2.000    0.000    5.333 
#    0.000    3.333    0.000    1.500    0.000    0.000 
#    0.000    0.000    0.000    0.000    0.000    0.000 
#
# Total GULP energy -134079.928663 kJ/mol
# GULP energy per Si atom -5586.663694 kJ/mol
# Density = 2.282285 g / cm^3
# Si number density = 22.874916 Si / 1000 Ang^3
#
#
#
# Elastic Constant Matrix: (Units=GPa)
#
#
# Indices 1 2 3 4 5 6 
#
# 1 83.4268 -15.8139 30.8117 0.0000 6.6966 0.0013
# 2 -15.8139 46.9383 -6.8159 0.0035 -1.0085 0.0059
# 3 30.8117 -6.8159 127.4559 0.0022 15.6024 -0.0022
# 4 0.0000 0.0035 0.0022 12.0623 -0.0008 4.3910
# 5 6.6966 -1.0085 15.6024 -0.0008 36.0869 -0.0015
# 6 0.0013 0.0059 -0.0022 4.3910 -0.0015 13.5604
#
#
#
# Elastic Compliance Matrix: (Units=1/GPa)
#
#
# Indices 1 2 3 4 5 6 
#
# 1 0.014000 0.004254 -0.003013 0.000001 -0.001176 -0.000004
# 2 0.004254 0.022764 0.000219 -0.000003 -0.000248 -0.000009
# 3 -0.003013 0.000219 0.008993 -0.000003 -0.003323 0.000002
# 4 0.000001 -0.000003 -0.000003 0.093981 0.000002 -0.030432
# 5 -0.001176 -0.000248 -0.003323 0.000002 0.029359 0.000002
# 6 -0.000004 -0.000009 0.000002 -0.030432 0.000002 0.083598
#
#
# Mechanical properties :
#
#
# Convention : Reuss Voigt Hill
#
# Bulk Modulus (GPa) = 20.54322 30.46497 25.50409
# Shear Modulus (GPa) = 18.79698 28.98452 23.89075
#
# Velocity S-wave (km/s) = 2.86969 3.56348 3.23524
# Velocity P-wave (km/s) = 4.46994 5.50256 5.01291
#
# Compressibility (1/GPa) = 0.04867786
#
# Stress axis : x y z
#
# Youngs Moduli (GPa) = 71.42811 43.92844 111.20134
#
# Poissons Ratio (x) = -0.18687 0.33504
# Poissons Ratio (y) = -0.30385 -0.02439
# Poissons Ratio (z) = 0.21521 -0.00964
#
# Static dielectric constant tensor:
#      x y z
#    x 1.825900 0.000000 -0.017890 
#    y 0.000000 1.898000 0.000000 
#    z -0.017890 0.000000 1.856150 
# 
# From -- ./inp_files/327151.got.cif
#   From: 2010.05.17/outbox.cif.g08.bks.cpg/sg12_164_cif.got.tgz:327151.got - 2010.06.03 13:09:07.
