data_PCOD9194946
_publ_section_title
;
Structure prediction by ZEFSAII (Michael W. Deem and Ramdas Pophale) SiO2 
 PCOD9194946
Probable space group: C 2/M
;
_chemical_formula_sum "Si O2"
_cell_formula_units_Z 56
_cell_length_a 15.774177
_cell_length_b 18.851785
_cell_length_c 18.732299
_cell_angle_alpha 90.000000
_cell_angle_beta 152.482789
_cell_angle_gamma 90.000000
_cell_volume 2573.631614
_symmetry_space_group_name_H-M "C 2/M"
_symmetry_group_IT_number 12
_symmetry_cell_setting 'monoclinic'
loop_
_space_group_symop_operation_xyz
x,y,z
-x,y,-z
-x,-y,-z
x,-y,z
1/2+x,1/2+y,z
1/2-x,1/2+y,-z
1/2-x,1/2-y,-z
1/2+x,1/2-y,z
loop_
_atom_site_type_symbol
_atom_site_label
_atom_site_fract_x
_atom_site_fract_y
_atom_site_fract_z
Si Si1 0.751817 0.213448 0.797662
Si Si2 0.160561 0.579890 0.819856
Si Si3 0.955692 0.749985 0.810743
Si Si4 0.125298 0.640899 0.033205
Si Si5 0.784498 0.917789 0.524541
Si Si6 0.592550 0.611046 0.857611
Si Si7 0.581510 0.697082 0.484956
O O1 0.747968 0.142051 0.838288
O O2 0.880976 0.209282 0.825235
O O3 0.806436 0.285551 0.880019
O O4 0.548559 0.235886 0.625141
O O5 0.177988 0.500000 0.803734
O O6 0.937401 0.594503 0.652351
O O7 0.285956 0.581675 0.985863
O O8 0.780155 0.731767 0.634379
O O9 0.086059 0.803625 0.866823
O O10 0.019690 0.673192 0.886320
O O11 0.285997 0.594946 0.121327
O O12 0.000000 0.606340 0.000000
O O13 0.895707 0.864361 0.556043
O O14 0.883960 0.908730 0.677501
O O15 0.810948 0.000000 0.524465
O O16 0.500000 0.668454 0.500000
#
# Coordination Sequence:
#
# PCOD9194946 Si02
#       7
#     8   8   8   8   8   8   8
#     4  10  20  39  59  91 126 155 205 259 304 359
#     4  11  25  42  62  89 129 170 206 250 309 370
#     4  10  21  34  62  97 119 153 208 260 304 366
#     4  10  20  34  58  92 122 149 195 261 307 352
#     4  11  25  42  60  89 127 164 210 256 303 372
#     4  12  22  39  67  91 121 167 207 252 308 366
#     4  10  21  38  63  92 122 159 205 261 313 365
#
# _framework density 21.759136000000002
#
# number of rings (size 3 to 8) (size 9 to 14) (size 15 to 20)
#    0.000    1.429    2.857    2.571    2.000    1.429 
#    0.000    2.143    0.000    6.429    0.000    0.000 
#    0.000    0.000    0.000    0.000    0.000    0.000 
#
# Total GULP energy -155916.229440 kJ/mol
# GULP energy per Si atom -5568.436766 kJ/mol
# Density = 2.170961 g / cm^3
# Si number density = 21.759136 Si / 1000 Ang^3
#
#
#
# Elastic Constant Matrix: (Units=GPa)
#
#
# Indices 1 2 3 4 5 6 
#
# 1 66.6004 31.5961 7.2828 -0.0064 -5.8546 -0.0032
# 2 31.5961 55.5758 8.3056 -0.0052 -3.7797 -0.0083
# 3 7.2828 8.3056 130.9287 -0.0168 -4.4046 -0.0209
# 4 -0.0064 -0.0052 -0.0168 17.4163 -0.0097 -1.7651
# 5 -5.8546 -3.7797 -4.4046 -0.0097 22.2553 -0.0077
# 6 -0.0032 -0.0083 -0.0209 -1.7651 -0.0077 16.6642
#
#
#
# Elastic Compliance Matrix: (Units=1/GPa)
#
#
# Indices 1 2 3 4 5 6 
#
# 1 0.020840 -0.011567 -0.000309 0.000006 0.003457 0.000000
# 2 -0.011567 0.024770 -0.000895 0.000004 0.000987 0.000010
# 3 -0.000309 -0.000895 0.007755 0.000009 0.001302 0.000011
# 4 0.000006 0.000004 0.000009 0.058041 0.000031 0.006148
# 5 0.003457 0.000987 0.001302 0.000031 0.046268 0.000028
# 6 0.000000 0.000010 0.000011 0.006148 0.000028 0.060660
#
#
# Mechanical properties :
#
#
# Convention : Reuss Voigt Hill
#
# Bulk Modulus (GPa) = 35.93963 38.60824 37.27393
# Shear Modulus (GPa) = 19.75112 24.99518 22.37315
#
# Velocity S-wave (km/s) = 3.01610 3.39296 3.21006
# Velocity P-wave (km/s) = 5.35556 5.75600 5.55939
#
# Compressibility (1/GPa) = 0.02782444
#
# Stress axis : x y z
#
# Youngs Moduli (GPa) = 47.98464 40.37100 128.94092
#
# Poissons Ratio (x) = 0.46696 0.03987
# Poissons Ratio (y) = 0.55503 0.11537
# Poissons Ratio (z) = 0.01484 0.03612
#
# Static dielectric constant tensor:
#      x y z
#    x 1.797660 -0.000010 -0.099070 
#    y -0.000010 1.772980 -0.000020 
#    z -0.099070 -0.000020 1.711300 
# 
# From -- ./inp_files/272393.got.cif
#   From: 2010.05.17/outbox.cif.g08.bks.cpg/sg12_137_cif.got.tgz:272393.got - 2010.06.03 13:09:07.
