data_PCOD9194407
_publ_section_title
;
Structure prediction by ZEFSAII (Michael W. Deem and Ramdas Pophale) SiO2 
 PCOD9194407
Probable space group: C 2/M
;
_chemical_formula_sum "Si O2"
_cell_formula_units_Z 40
_cell_length_a 7.093044
_cell_length_b 14.082249
_cell_length_c 16.373687
_cell_angle_alpha 90.000000
_cell_angle_beta 88.493724
_cell_angle_gamma 90.000000
_cell_volume 1634.937147
_symmetry_space_group_name_H-M "C 2/M"
_symmetry_group_IT_number 12
_symmetry_cell_setting 'monoclinic'
loop_
_space_group_symop_operation_xyz
x,y,z
-x,y,-z
-x,-y,-z
x,-y,z
1/2+x,1/2+y,z
1/2-x,1/2+y,-z
1/2-x,1/2-y,-z
1/2+x,1/2-y,z
loop_
_atom_site_type_symbol
_atom_site_label
_atom_site_fract_x
_atom_site_fract_y
_atom_site_fract_z
Si Si1 0.432051 0.891835 0.101045
Si Si2 0.058700 0.860272 0.739832
Si Si3 0.998042 0.640802 0.278788
Si Si4 0.470065 0.000000 0.593651
Si Si5 0.128549 0.167516 0.921189
Si Si6 0.976849 0.000000 0.399408
O O1 0.398962 0.895124 0.198688
O O2 0.658960 0.875922 0.081000
O O3 0.355340 0.784352 0.079990
O O4 0.380169 0.000000 0.073284
O O5 0.281623 0.880950 0.735947
O O6 0.024465 0.867079 0.838465
O O7 0.967727 0.914484 0.663832
O O8 0.027541 0.751515 0.719553
O O9 0.944401 0.590046 0.362063
O O10 0.500000 0.000000 0.500000
O O11 0.247565 0.000000 0.602873
O O12 0.000000 0.140405 0.000000
O O13 0.000000 0.000000 0.500000
#
# Coordination Sequence:
#
# PCOD9194407 Si02
#       6
#     8   8   8   4   8   4
#     4  10  20  38  61  83 122 167 200 245 299 348
#     4   9  20  36  60  79 112 153 183 237 287 340
#     4   9  18  36  56  78 110 149 190 228 290 346
#     4  10  20  34  56  81 105 143 187 232 284 353
#     4  10  21  37  61  90 123 156 205 248 291 359
#     4  10  22  40  57  81 114 145 187 238 289 349
#
# _framework density 24.465774
#
# number of rings (size 3 to 8) (size 9 to 14) (size 15 to 20)
#    0.000    2.400    1.000    0.600    4.200    3.200 
#    0.000    5.000   15.400    0.000    0.000    0.000 
#    0.000    0.000    0.000    0.000    0.000    0.000 
#
# Total GULP energy -111475.192538 kJ/mol
# GULP energy per Si atom -5573.759627 kJ/mol
# Density = 2.441009 g / cm^3
# Si number density = 24.465774 Si / 1000 Ang^3
#
#
#
# Elastic Constant Matrix: (Units=GPa)
#
#
# Indices 1 2 3 4 5 6 
#
# 1 95.7965 2.3988 1.0028 0.0000 10.3163 0.0000
# 2 2.3988 155.6274 76.0218 0.0000 4.0719 0.0000
# 3 1.0028 76.0218 229.1734 0.0000 -12.1629 0.0000
# 4 0.0000 0.0000 0.0000 41.5655 0.0000 0.2691
# 5 10.3163 4.0719 -12.1629 0.0000 31.3721 0.0000
# 6 0.0000 0.0000 0.0000 0.2691 0.0000 27.2260
#
#
#
# Elastic Compliance Matrix: (Units=1/GPa)
#
#
# Indices 1 2 3 4 5 6 
#
# 1 0.010836 0.000057 -0.000261 0.000000 -0.003672 0.000000
# 2 0.000057 0.007796 -0.002697 0.000000 -0.002076 0.000000
# 3 -0.000261 -0.002697 0.005393 0.000000 0.002527 0.000000
# 4 0.000000 0.000000 0.000000 0.024060 0.000000 -0.000238
# 5 -0.003672 -0.002076 0.002527 0.000000 0.034332 0.000000
# 6 0.000000 0.000000 0.000000 -0.000238 0.000000 0.036732
#
#
# Mechanical properties :
#
#
# Convention : Reuss Voigt Hill
#
# Bulk Modulus (GPa) = 54.87604 71.04935 62.96270
# Shear Modulus (GPa) = 38.16051 46.77764 42.46907
#
# Velocity S-wave (km/s) = 3.95365 4.37734 4.17088
# Velocity P-wave (km/s) = 6.58181 7.39267 6.99899
#
# Compressibility (1/GPa) = 0.01822289
#
# Stress axis : x y z
#
# Youngs Moduli (GPa) = 92.28916 128.26574 185.41565
#
# Poissons Ratio (x) = -0.00726 0.04840
# Poissons Ratio (y) = -0.00522 0.50000
# Poissons Ratio (z) = 0.02409 0.34589
#
# Static dielectric constant tensor:
#      x y z
#    x 2.131920 0.000000 -0.096040 
#    y 0.000000 1.951780 0.000000 
#    z -0.096040 0.000000 2.109940 
# 
# From -- ./inp_files/194581.got.cif
#   From: 2010.05.17/outbox.cif.g08.bks.cpg/sg12_98_cif.got.tgz:194581.got - 2010.06.03 13:09:07.
