data_PCOD9194733
_publ_section_title
;
Structure prediction by ZEFSAII (Michael W. Deem and Ramdas Pophale) SiO2 
 PCOD9194733
Probable space group: C 2/M
;
_chemical_formula_sum "Si O2"
_cell_formula_units_Z 32
_cell_length_a 20.313030
_cell_length_b 8.904600
_cell_length_c 25.216765
_cell_angle_alpha 90.000000
_cell_angle_beta 23.507704
_cell_angle_gamma 90.000000
_cell_volume 1819.334076
_symmetry_space_group_name_H-M "C 2/M"
_symmetry_group_IT_number 12
_symmetry_cell_setting 'monoclinic'
loop_
_space_group_symop_operation_xyz
x,y,z
-x,y,-z
-x,-y,-z
x,-y,z
1/2+x,1/2+y,z
1/2-x,1/2+y,-z
1/2-x,1/2-y,-z
1/2+x,1/2-y,z
loop_
_atom_site_type_symbol
_atom_site_label
_atom_site_fract_x
_atom_site_fract_y
_atom_site_fract_z
Si Si1 0.509146 0.821126 0.820610
Si Si2 0.309806 0.179472 0.652401
Si Si3 0.223828 0.321044 0.103814
Si Si4 0.194871 0.679186 0.847867
O O1 0.686498 0.750497 0.700409
O O2 0.431886 0.793065 0.819712
O O3 0.513461 0.000000 0.826388
O O4 0.381093 0.748422 0.956959
O O5 0.500000 0.214962 0.500000
O O6 0.256662 0.246100 0.748293
O O7 0.289675 0.000000 0.667760
O O8 0.245875 0.500000 0.092569
O O9 0.213196 0.245806 0.168883
O O10 0.214973 0.500000 0.830219
O O11 0.000000 0.711137 0.000000
#
# Coordination Sequence:
#
# PCOD9194733 Si02
#       4
#     8   8   8   8
#     4  10  20  35  56  85 116 149 189 231 284 339
#     4  11  24  40  59  84 115 153 193 233 284 342
#     4  10  20  34  57  86 116 148 186 236 284 332
#     4  11  22  36  58  88 116 147 192 238 281 334
#
# _framework density 17.588851999999999
#
# number of rings (size 3 to 8) (size 9 to 14) (size 15 to 20)
#    0.000    1.500    2.500    3.000    0.000    6.000 
#    0.000    1.250    0.000    0.000    0.000    0.000 
#    0.000    0.000    0.000    0.000    0.000    0.000 
#
# Total GULP energy -89400.214406 kJ/mol
# GULP energy per Si atom -5587.513400 kJ/mol
# Density = 1.754882 g / cm^3
# Si number density = 17.588852 Si / 1000 Ang^3
#
#
#
# Elastic Constant Matrix: (Units=GPa)
#
#
# Indices 1 2 3 4 5 6 
#
# 1 116.5255 63.3202 63.2385 0.0009 -18.4715 0.0000
# 2 63.3202 81.5555 70.8740 0.0004 -13.2846 -0.0004
# 3 63.2385 70.8740 111.8757 0.0048 -19.8577 0.0002
# 4 0.0009 0.0004 0.0048 24.7655 0.0000 -5.0394
# 5 -18.4715 -13.2846 -19.8577 0.0000 28.0268 -0.0001
# 6 0.0000 -0.0004 0.0002 -5.0394 -0.0001 32.3052
#
#
#
# Elastic Compliance Matrix: (Units=1/GPa)
#
#
# Indices 1 2 3 4 5 6 
#
# 1 0.015592 -0.009810 -0.001830 0.000000 0.004330 0.000000
# 2 -0.009810 0.033467 -0.016001 0.000003 -0.001939 0.000001
# 3 -0.001830 -0.016001 0.021218 -0.000004 0.006243 -0.000001
# 4 0.000000 0.000003 -0.000004 0.041703 -0.000001 0.006505
# 5 0.004330 -0.001939 0.006243 -0.000001 0.042038 0.000000
# 6 0.000000 0.000001 -0.000001 0.006505 0.000000 0.031970
#
#
# Mechanical properties :
#
#
# Convention : Reuss Voigt Hill
#
# Bulk Modulus (GPa) = 66.68893 78.31357 72.50125
# Shear Modulus (GPa) = 20.30306 24.52109 22.41208
#
# Velocity S-wave (km/s) = 3.40121 3.73785 3.57350
# Velocity P-wave (km/s) = 7.30904 7.95298 7.63780
#
# Compressibility (1/GPa) = 0.01499499
#
# Stress axis : x y z
#
# Youngs Moduli (GPa) = 64.13420 29.87977 47.13003
#
# Poissons Ratio (x) = 0.29312 0.08627
# Poissons Ratio (y) = 0.62916 0.75412
# Poissons Ratio (z) = 0.11740 0.47810
#
# Static dielectric constant tensor:
#      x y z
#    x 1.605920 0.000000 -0.020820 
#    y 0.000000 1.583580 0.000000 
#    z -0.020820 0.000000 1.569690 
# 
# From -- ./inp_files/81692.got.cif
#   From: 2010.05.17/outbox.cif.g08.bks.cpg/sg12_41_cif.got.tgz:81692.got - 2010.06.03 13:09:07.
