data_PCOD9194863
_publ_section_title
;
Structure prediction by ZEFSAII (Michael W. Deem and Ramdas Pophale) SiO2 
 PCOD9194863
Probable space group: C 2/M
;
_chemical_formula_sum "Si O2"
_cell_formula_units_Z 40
_cell_length_a 12.075683
_cell_length_b 13.728331
_cell_length_c 12.409998
_cell_angle_alpha 90.000000
_cell_angle_beta 114.626055
_cell_angle_gamma 90.000000
_cell_volume 1870.197009
_symmetry_space_group_name_H-M "C 2/M"
_symmetry_group_IT_number 12
_symmetry_cell_setting 'monoclinic'
loop_
_space_group_symop_operation_xyz
x,y,z
-x,y,-z
-x,-y,-z
x,-y,z
1/2+x,1/2+y,z
1/2-x,1/2+y,-z
1/2-x,1/2-y,-z
1/2+x,1/2-y,z
loop_
_atom_site_type_symbol
_atom_site_label
_atom_site_fract_x
_atom_site_fract_y
_atom_site_fract_z
Si Si1 0.939595 0.191687 0.363368
Si Si2 0.254696 0.113985 0.000438
Si Si3 0.039799 0.388302 0.747747
Si Si4 0.018171 0.110179 0.169962
Si Si5 0.334239 0.802124 0.808246
O O1 0.974276 0.303220 0.345515
O O2 0.984268 0.125088 0.282164
O O3 0.793599 0.186353 0.304998
O O4 0.000000 0.164503 0.500000
O O5 0.109443 0.128182 0.943751
O O6 0.309613 0.172293 0.922311
O O7 0.271816 0.000000 0.982332
O O8 0.333777 0.133046 0.138296
O O9 0.039495 0.500000 0.709489
O O10 0.934326 0.371766 0.793712
O O11 0.112701 0.194163 0.182527
O O12 0.059665 0.000000 0.165186
#
# Coordination Sequence:
#
# PCOD9194863 Si02
#       5
#     8   8   8   8   8
#     4  10  23  40  55  76 109 146 184 227 271 312
#     4   9  18  35  57  83 114 142 171 214 270 328
#     4  10  21  36  57  84 111 141 178 220 268 323
#     4   9  20  37  57  83 112 142 179 220 266 323
#     4  10  20  34  58  82 107 141 181 222 268 320
#
# _framework density 21.388121999999999
#
# number of rings (size 3 to 8) (size 9 to 14) (size 15 to 20)
#    0.000    2.400    0.000    1.200    0.000   16.000 
#    0.000    2.000    0.000   13.200    0.000    0.000 
#    0.000    0.000    0.000    0.000    0.000    0.000 
#
# Total GULP energy -111937.362958 kJ/mol
# GULP energy per Si atom -5596.868148 kJ/mol
# Density = 2.133944 g / cm^3
# Si number density = 21.388122 Si / 1000 Ang^3
#
#
#
# Elastic Constant Matrix: (Units=GPa)
#
#
# Indices 1 2 3 4 5 6 
#
# 1 88.3623 19.4171 11.9387 0.0000 7.5383 0.0000
# 2 19.4171 76.8789 17.5963 0.0000 8.3660 0.0000
# 3 11.9387 17.5963 80.8451 0.0000 7.4737 0.0000
# 4 0.0000 0.0000 0.0000 15.1014 0.0000 1.6313
# 5 7.5383 8.3660 7.4737 0.0000 7.8597 0.0000
# 6 0.0000 0.0000 0.0000 1.6313 0.0000 23.5519
#
#
#
# Elastic Compliance Matrix: (Units=1/GPa)
#
#
# Indices 1 2 3 4 5 6 
#
# 1 0.012645 -0.002041 -0.000551 0.000000 -0.009431 0.000000
# 2 -0.002041 0.015319 -0.001871 0.000000 -0.012569 0.000000
# 3 -0.000551 -0.001871 0.013842 0.000000 -0.010642 0.000000
# 4 0.000000 0.000000 0.000000 0.066718 0.000000 -0.004621
# 5 -0.009431 -0.012569 -0.010642 0.000000 0.159773 0.000000
# 6 0.000000 0.000000 0.000000 -0.004621 0.000000 0.042780
#
#
# Mechanical properties :
#
#
# Convention : Reuss Voigt Hill
#
# Bulk Modulus (GPa) = 30.41477 38.22118 34.31797
# Shear Modulus (GPa) = 15.10745 22.44489 18.77617
#
# Velocity S-wave (km/s) = 2.66060 3.24297 2.96612
# Velocity P-wave (km/s) = 4.86721 5.65080 5.27358
#
# Compressibility (1/GPa) = 0.03287877
#
# Stress axis : x y z
#
# Youngs Moduli (GPa) = 79.08514 65.27843 72.24536
#
# Poissons Ratio (x) = 0.13325 0.03982
# Poissons Ratio (y) = 0.16143 0.13516
# Poissons Ratio (z) = 0.04359 0.12213
#
# Static dielectric constant tensor:
#      x y z
#    x 1.782740 0.000000 -0.018910 
#    y 0.000000 1.793230 0.000000 
#    z -0.018910 0.000000 1.730500 
# 
# From -- ./inp_files/129576.got.cif
#   From: 2010.05.17/outbox.cif.g08.bks.cpg/sg12_65_cif.got.tgz:129576.got - 2010.06.03 13:09:07.
