data_PCOD9194307
_publ_section_title
;
Structure prediction by ZEFSAII (Michael W. Deem and Ramdas Pophale) SiO2 
 PCOD9194307
Probable space group: C 2/M
;
_chemical_formula_sum "Si O2"
_cell_formula_units_Z 64
_cell_length_a 20.939366
_cell_length_b 19.779158
_cell_length_c 9.273682
_cell_angle_alpha 90.000000
_cell_angle_beta 122.556491
_cell_angle_gamma 90.000000
_cell_volume 3237.275290
_symmetry_space_group_name_H-M "C 2/M"
_symmetry_group_IT_number 12
_symmetry_cell_setting 'monoclinic'
loop_
_space_group_symop_operation_xyz
x,y,z
-x,y,-z
-x,-y,-z
x,-y,z
1/2+x,1/2+y,z
1/2-x,1/2+y,-z
1/2-x,1/2-y,-z
1/2+x,1/2-y,z
loop_
_atom_site_type_symbol
_atom_site_label
_atom_site_fract_x
_atom_site_fract_y
_atom_site_fract_z
Si Si1 0.736622 0.355126 0.253548
Si Si2 0.720054 0.076761 0.417153
Si Si3 0.827799 0.672569 0.069090
Si Si4 0.574516 0.422988 0.019201
Si Si5 0.079915 0.421559 0.034857
Si Si6 0.911659 0.778915 0.357302
Si Si7 0.576628 0.429184 0.684807
Si Si8 0.770715 0.789169 0.326910
O O1 0.780917 0.404460 0.416111
O O2 0.780790 0.351333 0.153736
O O3 0.652473 0.383959 0.132834
O O4 0.729149 0.280670 0.317899
O O5 0.639525 0.079614 0.239227
O O6 0.764968 0.139555 0.400296
O O7 0.750022 0.000000 0.433322
O O8 0.883461 0.731728 0.193649
O O9 0.880223 0.618574 0.047845
O O10 0.767469 0.698091 0.877315
O O11 0.583823 0.500000 0.088065
O O12 0.500000 0.391804 0.000000
O O13 0.557976 0.428135 0.830070
O O14 0.068540 0.500000 0.978082
O O15 0.000000 0.394906 0.000000
O O16 0.888506 0.856821 0.302394
O O17 0.857127 0.762964 0.424471
O O18 0.000000 0.773197 0.500000
O O19 0.500000 0.430584 0.500000
O O20 0.619437 0.500000 0.706973
#
# Coordination Sequence:
#
# PCOD9194307 Si02
#       8
#     8   8   8   8   8   8   8   8
#     4  11  21  37  59  84 118 155 195 243 295 350
#     4  10  22  39  58  83 115 152 195 242 295 355
#     4  10  21  38  61  84 115 154 192 237 295 357
#     4  10  21  36  54  81 118 154 190 236 284 332
#     4   9  20  40  63  86 114 148 191 242 294 354
#     4  10  20  34  55  85 115 144 188 244 290 337
#     4   9  18  33  52  75 106 144 185 227 273 330
#     4  10  21  39  58  80 115 157 194 236 293 357
#
# _framework density 19.769711999999998
#
# number of rings (size 3 to 8) (size 9 to 14) (size 15 to 20)
#    0.000    2.125    0.000    3.750    0.000    5.500 
#    0.000   10.625    0.000    2.625    0.000    0.000 
#    0.000    0.000    0.000    0.000    0.000    0.000 
#
# Total GULP energy -178198.369486 kJ/mol
# GULP energy per Si atom -5568.699046 kJ/mol
# Density = 1.972472 g / cm^3
# Si number density = 19.769712 Si / 1000 Ang^3
#
#
#
# Elastic Constant Matrix: (Units=GPa)
#
#
# Indices 1 2 3 4 5 6 
#
# 1 105.2263 54.3600 34.5527 0.0000 13.7987 0.0000
# 2 54.3600 124.1911 53.9885 0.0000 3.2816 0.0000
# 3 34.5527 53.9885 78.6176 0.0000 -2.0594 0.0000
# 4 0.0000 0.0000 0.0000 3.7793 0.0000 -17.1646
# 5 13.7987 3.2816 -2.0594 0.0000 23.1623 0.0000
# 6 0.0000 0.0000 0.0000 -17.1646 0.0000 14.9135
#
#
#
# Elastic Compliance Matrix: (Units=1/GPa)
#
#
# Indices 1 2 3 4 5 6 
#
# 1 0.013925 -0.004468 -0.003260 0.000000 -0.007952 0.000000
# 2 -0.004468 0.013039 -0.006986 0.000000 0.000193 0.000000
# 3 -0.003260 -0.006986 0.019071 0.000000 0.004628 0.000000
# 4 0.000000 0.000000 0.000000 -0.062593 0.000000 -0.072041
# 5 -0.007952 0.000193 0.004628 0.000000 0.048295 0.000000
# 6 0.000000 0.000000 0.000000 -0.072041 0.000000 -0.015862
#
#
# Mechanical properties :
#
#
# Convention : Reuss Voigt Hill
#
# Bulk Modulus (GPa) = 60.21230 65.98195 63.09712
# Shear Modulus (GPa) = 98.34980 19.37995 58.86488
#
# Velocity S-wave (km/s) = 7.06086 3.13435 5.46259
# Velocity P-wave (km/s) = 9.84872 6.82250 8.47183
#
# Compressibility (1/GPa) = 0.01660790
#
# Stress axis : x y z
#
# Youngs Moduli (GPa) = 71.81507 76.69036 52.43480
#
# Poissons Ratio (x) = 0.34262 0.17095
# Poissons Ratio (y) = 0.32084 0.36631
# Poissons Ratio (z) = 0.23414 0.53575
#
# Static dielectric constant tensor:
#      x y z
#    x 1.759260 0.000000 -0.039980 
#    y 0.000000 1.761030 0.000000 
#    z -0.039980 0.000000 1.785970 
# 
# From -- ./inp_files/89633.got.cif
#   From: 2010.05.17/outbox.cif.g08.bks.cpg/sg12_45_cif.got.tgz:89633.got - 2010.06.03 13:09:07.
