data_PCOD9194780
_publ_section_title
;
Structure prediction by ZEFSAII (Michael W. Deem and Ramdas Pophale) SiO2 
 PCOD9194780
Probable space group: C 2/M
;
_chemical_formula_sum "Si O2"
_cell_formula_units_Z 56
_cell_length_a 14.500775
_cell_length_b 7.989704
_cell_length_c 22.356373
_cell_angle_alpha 90.000000
_cell_angle_beta 118.107610
_cell_angle_gamma 90.000000
_cell_volume 2284.670086
_symmetry_space_group_name_H-M "C 2/M"
_symmetry_group_IT_number 12
_symmetry_cell_setting 'monoclinic'
loop_
_space_group_symop_operation_xyz
x,y,z
-x,y,-z
-x,-y,-z
x,-y,z
1/2+x,1/2+y,z
1/2-x,1/2+y,-z
1/2-x,1/2-y,-z
1/2+x,1/2-y,z
loop_
_atom_site_type_symbol
_atom_site_label
_atom_site_fract_x
_atom_site_fract_y
_atom_site_fract_z
Si Si1 0.254215 0.796883 0.906146
Si Si2 0.099170 0.190580 0.485172
Si Si3 0.060490 0.197997 0.658087
Si Si4 0.580458 0.697932 0.942600
Si Si5 0.874430 0.308007 0.836849
Si Si6 0.254707 0.811475 0.369897
Si Si7 0.546568 0.189908 0.262091
O O1 0.144313 0.752089 0.902255
O O2 0.280857 0.735270 0.847748
O O3 0.259677 0.000000 0.907324
O O4 0.341303 0.731792 0.979050
O O5 0.188053 0.284022 0.549203
O O6 0.000000 0.185240 0.500000
O O7 0.044004 0.259262 0.409000
O O8 0.134033 0.000000 0.485144
O O9 0.159855 0.281973 0.656658
O O10 0.038151 0.225258 0.720933
O O11 0.070356 0.000000 0.649089
O O12 0.556563 0.500000 0.934253
O O13 0.474131 0.800358 0.911202
O O14 0.846328 0.500000 0.813002
O O15 0.918348 0.226918 0.789940
O O16 0.157673 0.691648 0.330114
O O17 0.214296 0.000000 0.354739
O O18 0.511730 0.000000 0.240424
#
# Coordination Sequence:
#
# PCOD9194780 Si02
#       7
#     8   8   8   8   8   8   8
#     4   9  19  37  58  81 112 147 180 218 272 331
#     4   8  16  33  57  83 110 143 184 231 285 341
#     4  10  21  39  61  84 113 148 187 235 289 342
#     4  10  20  34  57  88 114 140 180 228 274 322
#     4  10  22  39  57  78 109 150 188 224 272 329
#     4  11  22  37  59  86 115 148 187 234 288 341
#     4  11  24  40  57  81 113 152 198 238 279 336
#
# _framework density 24.511198
#
# number of rings (size 3 to 8) (size 9 to 14) (size 15 to 20)
#    0.000    2.143    0.000    3.857    0.000    8.857 
#    0.000    1.429    0.000    0.000    0.000    0.000 
#    0.000    0.000    0.000    0.000    0.000    0.000 
#
# Total GULP energy -156502.610472 kJ/mol
# GULP energy per Si atom -5589.378945 kJ/mol
# Density = 2.445541 g / cm^3
# Si number density = 24.511198 Si / 1000 Ang^3
#
#
#
# Elastic Constant Matrix: (Units=GPa)
#
#
# Indices 1 2 3 4 5 6 
#
# 1 109.7715 2.0371 40.9132 0.0000 -35.8747 0.0000
# 2 2.0371 53.5432 -3.7570 0.0000 -2.9996 0.0000
# 3 40.9132 -3.7570 44.8936 0.0000 -14.0748 0.0000
# 4 0.0000 0.0000 0.0000 20.3414 0.0000 -2.6706
# 5 -35.8747 -2.9996 -14.0748 0.0000 50.3863 0.0000
# 6 0.0000 0.0000 0.0000 -2.6706 0.0000 17.9968
#
#
#
# Elastic Compliance Matrix: (Units=1/GPa)
#
#
# Indices 1 2 3 4 5 6 
#
# 1 0.016470 -0.001049 -0.012539 0.000000 0.008162 0.000000
# 2 -0.001049 0.018989 0.002921 0.000000 0.001199 0.000000
# 3 -0.012539 0.002921 0.034197 0.000000 0.000799 0.000000
# 4 0.000000 0.000000 0.000000 0.050138 0.000000 0.007440
# 5 0.008162 0.001199 0.000799 0.000000 0.025952 0.000000
# 6 0.000000 0.000000 0.000000 0.007440 0.000000 0.056670
#
#
# Mechanical properties :
#
#
# Convention : Reuss Voigt Hill
#
# Bulk Modulus (GPa) = 20.69447 31.84389 26.26918
# Shear Modulus (GPa) = 20.84591 29.01256 24.92924
#
# Velocity S-wave (km/s) = 2.91944 3.44415 3.19259
# Velocity P-wave (km/s) = 4.45257 5.36991 4.93261
#
# Compressibility (1/GPa) = 0.04832209
#
# Stress axis : x y z
#
# Youngs Moduli (GPa) = 60.71673 52.66314 29.24252
#
# Poissons Ratio (x) = 0.05525 0.36666
# Poissons Ratio (y) = 0.06370 -0.08543
# Poissons Ratio (z) = 0.76131 -0.15384
#
# Static dielectric constant tensor:
#      x y z
#    x 1.952000 0.000000 -0.059830 
#    y 0.000000 1.862310 0.000000 
#    z -0.059830 0.000000 2.015300 
# 
# From -- ./inp_files/339063.got.cif
#   From: 2010.05.17/outbox.cif.g08.bks.cpg/sg12_170_cif.got.tgz:339063.got - 2010.06.03 13:09:07.
