data_PCOD9194184
_publ_section_title
;
Structure prediction by ZEFSAII (Michael W. Deem and Ramdas Pophale) SiO2 
 PCOD9194184
Probable space group: C 2/M
;
_chemical_formula_sum "Si O2"
_cell_formula_units_Z 64
_cell_length_a 22.532635
_cell_length_b 31.762445
_cell_length_c 8.933903
_cell_angle_alpha 90.000000
_cell_angle_beta 147.619560
_cell_angle_gamma 90.000000
_cell_volume 3424.190011
_symmetry_space_group_name_H-M "C 2/M"
_symmetry_group_IT_number 12
_symmetry_cell_setting 'monoclinic'
loop_
_space_group_symop_operation_xyz
x,y,z
-x,y,-z
-x,-y,-z
x,-y,z
1/2+x,1/2+y,z
1/2-x,1/2+y,-z
1/2-x,1/2-y,-z
1/2+x,1/2-y,z
loop_
_atom_site_type_symbol
_atom_site_label
_atom_site_fract_x
_atom_site_fract_y
_atom_site_fract_z
Si Si1 0.242031 0.547190 0.119598
Si Si2 0.604952 0.547468 0.830691
Si Si3 0.115705 0.343209 0.553923
Si Si4 0.863246 0.365383 0.058669
Si Si5 0.304006 0.612388 0.756084
Si Si6 0.874819 0.950801 0.689718
Si Si7 0.111918 0.268791 0.331658
Si Si8 0.290243 0.317176 0.506284
O O1 0.198837 0.500000 0.056228
O O2 0.288343 0.548771 0.050404
O O3 0.345692 0.553845 0.453479
O O4 0.159974 0.585079 0.975900
O O5 0.500000 0.550697 0.500000
O O6 0.600003 0.500000 0.889395
O O7 0.615165 0.587431 0.959893
O O8 0.148291 0.346802 0.797618
O O9 0.199650 0.370205 0.628273
O O10 0.114608 0.295644 0.489184
O O11 0.988810 0.358515 0.272087
O O12 0.776793 0.343491 0.761221
O O13 0.285519 0.575846 0.593409
O O14 0.347119 0.650887 0.745380
O O15 0.865038 0.000000 0.702287
O O16 0.000000 0.937797 0.000000
O O17 0.203105 0.291131 0.421177
O O18 0.134222 0.219351 0.401761
O O19 0.000000 0.273862 0.000000
#
# Coordination Sequence:
#
# PCOD9194184 Si02
#       8
#     8   8   8   8   8   8   8   8
#     4  10  20  36  56  84 122 159 198 247 292 343
#     4  10  20  36  58  82 122 169 203 239 292 354
#     4  10  23  37  66  83 114 157 204 244 296 365
#     4  11  20  42  60  89 114 163 203 242 301 353
#     4  11  20  36  56  91 114 154 200 246 289 351
#     4  10  20  34  55  82 116 156 199 239 289 353
#     4  10  20  41  60  90 114 147 191 243 305 367
#     4  10  22  36  64  86 118 150 190 250 302 355
#
# _framework density 18.690550000000002
#
# number of rings (size 3 to 8) (size 9 to 14) (size 15 to 20)
#    0.000    1.750    3.750    1.125    0.000    3.000 
#    2.250    2.500    0.000    1.500    0.000    0.000 
#    0.000    0.000    0.000    0.000    0.000    0.000 
#
# Total GULP energy -178325.974400 kJ/mol
# GULP energy per Si atom -5572.686700 kJ/mol
# Density = 1.864801 g / cm^3
# Si number density = 18.690550 Si / 1000 Ang^3
#
#
#
# Elastic Constant Matrix: (Units=GPa)
#
#
# Indices 1 2 3 4 5 6 
#
# 1 73.9327 51.8375 21.9889 0.0000 -9.3716 0.0000
# 2 51.8375 154.3254 57.0321 0.0000 -6.5284 0.0000
# 3 21.9889 57.0321 62.5998 0.0000 -20.1768 0.0000
# 4 0.0000 0.0000 0.0000 26.8958 0.0000 -9.4214
# 5 -9.3716 -6.5284 -20.1768 0.0000 24.3641 0.0000
# 6 0.0000 0.0000 0.0000 -9.4214 0.0000 19.2413
#
#
#
# Elastic Compliance Matrix: (Units=1/GPa)
#
#
# Indices 1 2 3 4 5 6 
#
# 1 0.018461 -0.006509 0.001599 0.000000 0.006681 0.000000
# 2 -0.006509 0.012877 -0.012468 0.000000 -0.009379 0.000000
# 3 0.001599 -0.012468 0.035322 0.000000 0.026525 0.000000
# 4 0.000000 0.000000 0.000000 0.044878 0.000000 0.021974
# 5 0.006681 -0.009379 0.026525 0.000000 0.063067 0.000000
# 6 0.000000 0.000000 0.000000 0.021974 0.000000 0.062731
#
#
# Mechanical properties :
#
#
# Convention : Reuss Voigt Hill
#
# Bulk Modulus (GPa) = 31.34509 61.39719 46.37114
# Shear Modulus (GPa) = 17.68483 24.76688 21.22586
#
# Velocity S-wave (km/s) = 3.07936 3.64414 3.37359
# Velocity P-wave (km/s) = 5.42681 7.11527 6.32761
#
# Compressibility (1/GPa) = 0.03190292
#
# Stress axis : x y z
#
# Youngs Moduli (GPa) = 54.16789 77.65564 28.31112
#
# Poissons Ratio (x) = 0.50549 -0.04528
# Poissons Ratio (y) = 0.35260 0.35300
# Poissons Ratio (z) = -0.08663 0.96825
#
# Static dielectric constant tensor:
#      x y z
#    x 1.698360 0.000000 -0.009110 
#    y 0.000000 1.656160 0.000000 
#    z -0.009110 0.000000 1.648230 
# 
# From -- ./inp_files/100237.got.cif
#   From: 2010.05.17/outbox.cif.g08.bks.cpg/sg12_51_cif.got.tgz:100237.got - 2010.06.03 13:09:07.
