data_PCOD9194724
_publ_section_title
;
Structure prediction by ZEFSAII (Michael W. Deem and Ramdas Pophale) SiO2 
 PCOD9194724
Probable space group: C 2/M
;
_chemical_formula_sum "Si O2"
_cell_formula_units_Z 32
_cell_length_a 9.645298
_cell_length_b 36.410846
_cell_length_c 5.131624
_cell_angle_alpha 90.000000
_cell_angle_beta 109.826336
_cell_angle_gamma 90.000000
_cell_volume 1695.367755
_symmetry_space_group_name_H-M "C 2/M"
_symmetry_group_IT_number 12
_symmetry_cell_setting 'monoclinic'
loop_
_space_group_symop_operation_xyz
x,y,z
-x,y,-z
-x,-y,-z
x,-y,z
1/2+x,1/2+y,z
1/2-x,1/2+y,-z
1/2-x,1/2-y,-z
1/2+x,1/2-y,z
loop_
_atom_site_type_symbol
_atom_site_label
_atom_site_fract_x
_atom_site_fract_y
_atom_site_fract_z
Si Si1 0.321287 0.458586 0.887463
Si Si2 0.400724 0.151265 0.698931
Si Si3 0.177715 0.912822 0.610071
Si Si4 0.164478 0.265089 0.192591
O O1 0.267674 0.500000 0.901092
O O2 0.281850 0.443085 0.580520
O O3 0.500000 0.460113 0.000000
O O4 0.278882 0.429723 0.083457
O O5 0.500000 0.154138 0.500000
O O6 0.263111 0.124010 0.587590
O O7 0.346863 0.191380 0.758182
O O8 0.500000 0.136663 0.000000
O O9 0.000000 0.907298 0.500000
O O10 0.250000 0.250000 0.500000
O O11 0.250000 0.250000 0.000000
O O12 0.000000 0.253606 0.000000
#
# Coordination Sequence:
#
# PCOD9194724 Si02
#       4
#     8   8   8   8
#     4   9  17  31  53  82 114 145 184 239 291 330
#     4  11  23  41  60  82 118 157 186 226 294 355
#     4  10  20  34  57  86 110 144 196 239 276 333
#     4  11  23  41  63  89 118 154 196 240 293 351
#
# _framework density 18.874960999999999
#
# number of rings (size 3 to 8) (size 9 to 14) (size 15 to 20)
#    0.000    1.750    0.000    6.000    0.000    5.000 
#    0.000    2.500    0.000   15.000    0.000    0.000 
#    0.000    0.000    0.000    0.000    0.000    0.000 
#
# Total GULP energy -89162.745741 kJ/mol
# GULP energy per Si atom -5572.671609 kJ/mol
# Density = 1.883200 g / cm^3
# Si number density = 18.874961 Si / 1000 Ang^3
#
#
#
# Elastic Constant Matrix: (Units=GPa)
#
#
# Indices 1 2 3 4 5 6 
#
# 1 113.9199 72.7701 44.9666 0.0000 -21.0368 0.0000
# 2 72.7701 89.3212 27.7863 0.0000 -8.4366 0.0000
# 3 44.9666 27.7863 107.7400 0.0000 -18.6764 0.0000
# 4 0.0000 0.0000 0.0000 19.7283 0.0000 -4.1523
# 5 -21.0368 -8.4366 -18.6764 0.0000 40.3079 0.0000
# 6 0.0000 0.0000 0.0000 -4.1523 0.0000 21.4898
#
#
#
# Elastic Compliance Matrix: (Units=1/GPa)
#
#
# Indices 1 2 3 4 5 6 
#
# 1 0.021464 -0.015712 -0.003843 0.000000 0.006133 0.000000
# 2 -0.015712 0.023726 -0.000133 0.000000 -0.003296 0.000000
# 3 -0.003843 -0.000133 0.011490 0.000000 0.003290 0.000000
# 4 0.000000 0.000000 0.000000 0.052837 0.000000 0.010209
# 5 0.006133 -0.003296 0.003290 0.000000 0.028845 0.000000
# 6 0.000000 0.000000 0.000000 0.010209 0.000000 0.048506
#
#
# Mechanical properties :
#
#
# Convention : Reuss Voigt Hill
#
# Bulk Modulus (GPa) = 57.78710 66.89189 62.33949
# Shear Modulus (GPa) = 21.55052 27.33575 24.44313
#
# Velocity S-wave (km/s) = 3.38265 3.80972 3.60252
# Velocity P-wave (km/s) = 6.77780 7.40732 7.09954
#
# Compressibility (1/GPa) = 0.01730490
#
# Stress axis : x y z
#
# Youngs Moduli (GPa) = 46.58919 42.14746 87.03107
#
# Poissons Ratio (x) = 0.66223 0.33446
# Poissons Ratio (y) = 0.73202 0.01155
# Poissons Ratio (z) = 0.17904 0.00559
#
# Static dielectric constant tensor:
#      x y z
#    x 1.612780 0.000000 -0.002000 
#    y 0.000000 1.639380 0.000000 
#    z -0.002000 0.000000 1.650210 
# 
# From -- ./inp_files/3731.got.cif
#   From: 2010.05.17/outbox.cif.g08.bks.cpg/sg12_2_cif.got.tgz:3731.got - 2010.06.03 13:09:07.
