data_PCOD9194983
_publ_section_title
;
Structure prediction by ZEFSAII (Michael W. Deem and Ramdas Pophale) SiO2 
 PCOD9194983
Probable space group: C 2/M
;
_chemical_formula_sum "Si O2"
_cell_formula_units_Z 56
_cell_length_a 14.953111
_cell_length_b 10.119343
_cell_length_c 25.954870
_cell_angle_alpha 90.000000
_cell_angle_beta 40.917588
_cell_angle_gamma 90.000000
_cell_volume 2572.325961
_symmetry_space_group_name_H-M "C 2/M"
_symmetry_group_IT_number 12
_symmetry_cell_setting 'monoclinic'
loop_
_space_group_symop_operation_xyz
x,y,z
-x,y,-z
-x,-y,-z
x,-y,z
1/2+x,1/2+y,z
1/2-x,1/2+y,-z
1/2-x,1/2-y,-z
1/2+x,1/2-y,z
loop_
_atom_site_type_symbol
_atom_site_label
_atom_site_fract_x
_atom_site_fract_y
_atom_site_fract_z
Si Si1 0.530538 0.847632 0.324644
Si Si2 0.108715 0.148337 0.999579
Si Si3 0.684943 0.268195 0.166021
Si Si4 0.896197 0.148264 0.244751
Si Si5 0.000202 0.653084 0.554551
Si Si6 0.078570 0.653677 0.859770
Si Si7 0.196565 0.145173 0.603522
O O1 0.633153 0.830517 0.233074
O O2 0.571661 0.795685 0.363187
O O3 0.399256 0.763474 0.369108
O O4 0.498565 0.000000 0.345186
O O5 0.246588 0.195242 0.912008
O O6 0.119585 0.000000 0.017535
O O7 0.000000 0.140175 0.000000
O O8 0.048854 0.261252 0.062641
O O9 0.548994 0.340538 0.203900
O O10 0.803603 0.344140 0.146658
O O11 0.880887 0.262463 0.208836
O O12 0.794103 0.157441 0.338241
O O13 0.880006 0.000000 0.229100
O O14 0.955156 0.500000 0.566721
O O15 0.164536 0.647932 0.488936
O O16 0.000000 0.726436 0.500000
O O17 0.047802 0.500000 0.862015
O O18 0.132503 0.000000 0.622738
#
# Coordination Sequence:
#
# PCOD9194983 Si02
#       7
#     8   8   8   8   8   8   8
#     4  10  20  34  59  87 111 149 194 239 287 341
#     4   9  19  37  60  87 119 156 199 245 294 352
#     4  10  22  39  62  88 120 157 198 246 296 353
#     4  10  22  39  61  88 119 160 203 242 293 354
#     4   9  18  32  54  84 115 149 192 234 280 342
#     4  11  24  40  62  90 120 155 197 248 303 352
#     4   9  19  36  57  81 115 154 192 238 287 344
#
# _framework density 21.77018
#
# number of rings (size 3 to 8) (size 9 to 14) (size 15 to 20)
#    0.000    2.286    0.000    1.714    2.000    8.857 
#    0.000    0.000    0.000    0.857    0.000    0.000 
#    0.000    0.000    0.000    0.000    0.000    0.000 
#
# Total GULP energy -156037.282577 kJ/mol
# GULP energy per Si atom -5572.760092 kJ/mol
# Density = 2.172063 g / cm^3
# Si number density = 21.770180 Si / 1000 Ang^3
#
#
#
# Elastic Constant Matrix: (Units=GPa)
#
#
# Indices 1 2 3 4 5 6 
#
# 1 58.2958 28.6642 18.3328 0.0000 4.3053 0.0000
# 2 28.6642 137.4279 53.9339 0.0000 15.4057 0.0000
# 3 18.3328 53.9339 129.9289 0.0000 10.7309 0.0000
# 4 0.0000 0.0000 0.0000 19.4531 0.0000 6.6273
# 5 4.3053 15.4057 10.7309 0.0000 29.6175 0.0000
# 6 0.0000 0.0000 0.0000 6.6273 0.0000 20.9788
#
#
#
# Elastic Compliance Matrix: (Units=1/GPa)
#
#
# Indices 1 2 3 4 5 6 
#
# 1 0.019293 -0.003479 -0.001233 0.000000 -0.000548 0.000000
# 2 -0.003479 0.009647 -0.003238 0.000000 -0.003339 0.000000
# 3 -0.001233 -0.003238 0.009340 0.000000 -0.001521 0.000000
# 4 0.000000 0.000000 0.000000 0.057605 0.000000 -0.018198
# 5 -0.000548 -0.003339 -0.001521 0.000000 0.036131 0.000000
# 6 0.000000 0.000000 0.000000 -0.018198 0.000000 0.053416
#
#
# Mechanical properties :
#
#
# Convention : Reuss Voigt Hill
#
# Bulk Modulus (GPa) = 44.68091 58.61269 51.64680
# Shear Modulus (GPa) = 23.94732 28.99134 26.46933
#
# Velocity S-wave (km/s) = 3.32023 3.65320 3.49069
# Velocity P-wave (km/s) = 5.93861 6.69151 6.32627
#
# Compressibility (1/GPa) = 0.02238092
#
# Stress axis : x y z
#
# Youngs Moduli (GPa) = 51.83347 103.65729 107.06467
#
# Poissons Ratio (x) = 0.36059 0.13200
# Poissons Ratio (y) = 0.18031 0.34667
# Poissons Ratio (z) = 0.06390 0.33564
#
# Static dielectric constant tensor:
#      x y z
#    x 1.921240 0.000000 -0.012090 
#    y 0.000000 1.735390 0.000000 
#    z -0.012090 0.000000 1.824260 
# 
# From -- ./inp_files/363017.got.cif
#   From: 2010.05.17/outbox.cif.g08.bks.cpg/sg12_182_cif.got.tgz:363017.got - 2010.06.03 13:09:07.
