data_PCOD9194467
_publ_section_title
;
Structure prediction by ZEFSAII (Michael W. Deem and Ramdas Pophale) SiO2 
 PCOD9194467
Probable space group: C 2/M
;
_chemical_formula_sum "Si O2"
_cell_formula_units_Z 64
_cell_length_a 12.207190
_cell_length_b 31.383917
_cell_length_c 14.644580
_cell_angle_alpha 90.000000
_cell_angle_beta 146.572771
_cell_angle_gamma 90.000000
_cell_volume 3090.685032
_symmetry_space_group_name_H-M "C 2/M"
_symmetry_group_IT_number 12
_symmetry_cell_setting 'monoclinic'
loop_
_space_group_symop_operation_xyz
x,y,z
-x,y,-z
-x,-y,-z
x,-y,z
1/2+x,1/2+y,z
1/2-x,1/2+y,-z
1/2-x,1/2-y,-z
1/2+x,1/2-y,z
loop_
_atom_site_type_symbol
_atom_site_label
_atom_site_fract_x
_atom_site_fract_y
_atom_site_fract_z
Si Si1 0.316635 0.367977 0.168483
Si Si2 0.872265 0.585657 0.595997
Si Si3 0.464656 0.548724 0.366795
Si Si4 0.294350 0.210817 0.798841
Si Si5 0.761442 0.194991 0.816619
Si Si6 0.318988 0.046435 0.298969
Si Si7 0.695450 0.373068 0.304483
Si Si8 0.499100 0.159608 0.801957
O O1 0.333284 0.413249 0.231903
O O2 0.329410 0.328821 0.247976
O O3 0.495011 0.364528 0.220109
O O4 0.121371 0.359370 0.972645
O O5 0.681380 0.555693 0.471459
O O6 0.850915 0.614740 0.491119
O O7 0.071740 0.559023 0.719039
O O8 0.877528 0.619556 0.679941
O O9 0.500000 0.554086 0.500000
O O10 0.395293 0.500000 0.302705
O O11 0.199440 0.256843 0.748471
O O12 0.363045 0.197757 0.745364
O O13 0.500000 0.212991 0.000000
O O14 0.737519 0.164803 0.712950
O O15 0.644734 0.176932 0.823598
O O16 0.000000 0.194348 0.000000
O O17 0.500000 0.044189 0.500000
O O18 0.176449 0.084327 0.230277
O O19 0.225749 0.000000 0.231000
#
# Coordination Sequence:
#
# PCOD9194467 Si02
#       8
#     8   8   8   8   8   8   8   8
#     4  10  21  38  61  86 118 148 199 244 293 337
#     4  10  20  35  59  83 121 156 192 236 297 358
#     4  10  21  39  64  87 115 158 200 237 289 357
#     4   9  22  36  58  87 111 154 197 245 289 359
#     4  11  21  35  60  85 118 151 203 240 295 354
#     4   9  17  31  52  79 108 144 189 231 281 345
#     4  10  20  34  56  83 115 155 193 239 291 354
#     4  11  21  37  61  85 119 157 192 248 297 340
#
# _framework density 20.707384000000001
#
# number of rings (size 3 to 8) (size 9 to 14) (size 15 to 20)
#    0.000    2.000    2.500    1.125    1.750    4.500 
#    0.000    1.875    8.250    6.000    0.000    0.000 
#    0.000    0.000    0.000    0.000    0.000    0.000 
#
# Total GULP energy -178532.393787 kJ/mol
# GULP energy per Si atom -5579.137306 kJ/mol
# Density = 2.066025 g / cm^3
# Si number density = 20.707384 Si / 1000 Ang^3
#
#
#
# Elastic Constant Matrix: (Units=GPa)
#
#
# Indices 1 2 3 4 5 6 
#
# 1 84.3580 49.3543 4.7207 0.0000 -12.1011 0.0000
# 2 49.3543 176.0423 30.0536 0.0000 -16.0916 0.0000
# 3 4.7207 30.0536 21.2140 0.0000 -11.1450 0.0000
# 4 0.0000 0.0000 0.0000 24.8063 0.0000 5.1762
# 5 -12.1011 -16.0916 -11.1450 0.0000 25.8217 0.0000
# 6 0.0000 0.0000 0.0000 5.1762 0.0000 43.7261
#
#
#
# Elastic Compliance Matrix: (Units=1/GPa)
#
#
# Indices 1 2 3 4 5 6 
#
# 1 0.015355 -0.004892 0.007362 0.000000 0.007325 0.000000
# 2 -0.004892 0.009051 -0.012901 0.000000 -0.002220 0.000000
# 3 0.007362 -0.012901 0.079361 0.000000 0.029664 0.000000
# 4 0.000000 0.000000 0.000000 0.041333 0.000000 -0.004893
# 5 0.007325 -0.002220 0.029664 0.000000 0.053580 0.000000
# 6 0.000000 0.000000 0.000000 -0.004893 0.000000 0.023449
#
#
# Mechanical properties :
#
#
# Convention : Reuss Voigt Hill
#
# Bulk Modulus (GPa) = 12.06192 49.98571 31.02381
# Shear Modulus (GPa) = 18.47563 32.03655 25.25609
#
# Velocity S-wave (km/s) = 2.99025 3.93760 3.49616
# Velocity P-wave (km/s) = 4.21423 6.69809 5.59572
#
# Compressibility (1/GPa) = 0.08290556
#
# Stress axis : x y z
#
# Youngs Moduli (GPa) = 65.12442 110.47946 12.60065
#
# Poissons Ratio (x) = 0.54048 -0.09276
# Poissons Ratio (y) = 0.31860 0.16256
# Poissons Ratio (z) = -0.47944 1.42527
#
# Static dielectric constant tensor:
#      x y z
#    x 1.781630 0.000000 0.002260 
#    y 0.000000 1.760370 0.000000 
#    z 0.002260 0.000000 1.787390 
# 
# From -- ./inp_files/209877.got.cif
#   From: 2010.05.17/outbox.cif.g08.bks.cpg/sg12_105_cif.got.tgz:209877.got - 2010.06.03 13:09:07.
