data_PCOD9194881
_publ_section_title
;
Structure prediction by ZEFSAII (Michael W. Deem and Ramdas Pophale) SiO2 
 PCOD9194881
Probable space group: C 2/M
;
_chemical_formula_sum "Si O2"
_cell_formula_units_Z 64
_cell_length_a 29.196394
_cell_length_b 15.388149
_cell_length_c 25.624449
_cell_angle_alpha 90.000000
_cell_angle_beta 164.774901
_cell_angle_gamma 90.000000
_cell_volume 3023.322787
_symmetry_space_group_name_H-M "C 2/M"
_symmetry_group_IT_number 12
_symmetry_cell_setting 'monoclinic'
loop_
_space_group_symop_operation_xyz
x,y,z
-x,y,-z
-x,-y,-z
x,-y,z
1/2+x,1/2+y,z
1/2-x,1/2+y,-z
1/2-x,1/2-y,-z
1/2+x,1/2-y,z
loop_
_atom_site_type_symbol
_atom_site_label
_atom_site_fract_x
_atom_site_fract_y
_atom_site_fract_z
Si Si1 0.379388 0.842936 0.819149
Si Si2 0.104312 0.897977 0.281172
Si Si3 0.616094 0.896262 0.982140
Si Si4 0.503353 0.866692 0.443899
Si Si5 0.989277 0.606940 0.728494
Si Si6 0.122255 0.866707 0.181717
Si Si7 0.250498 0.102040 0.073659
Si Si8 0.500196 0.657057 0.439966
O O1 0.377015 0.738147 0.818893
O O2 0.178493 0.872562 0.606961
O O3 0.500000 0.874005 0.000000
O O4 0.479440 0.866841 0.876225
O O5 0.294371 0.860919 0.502023
O O6 0.065797 0.892700 0.177263
O O7 0.113357 0.000000 0.304648
O O8 0.941600 0.858321 0.133144
O O9 0.814200 0.866810 0.210984
O O10 0.616912 0.000000 0.983725
O O11 0.552770 0.867819 0.855506
O O12 0.500000 0.896304 0.500000
O O13 0.681122 0.897166 0.612244
O O14 0.342833 0.892634 0.231381
O O15 0.506855 0.761841 0.448764
O O16 0.986560 0.500000 0.723044
O O17 0.121080 0.639073 0.828740
O O18 0.000000 0.896293 0.000000
O O19 0.230676 0.000000 0.039451
O O20 0.500000 0.625960 0.500000
#
# Coordination Sequence:
#
# PCOD9194881 Si02
#       8
#     8   8   8   8   8   8   8   8
#     4  10  21  39  60  86 117 149 182 226 288 347
#     4  10  20  35  58  84 114 154 194 234 273 319
#     4  11  24  40  63  86 109 147 187 234 287 342
#     4  10  20  34  58  85 116 156 188 227 282 334
#     4   9  20  40  57  78 114 151 191 230 280 336
#     4  10  20  34  58  85 116 156 188 227 282 334
#     4  10  20  35  58  84 114 154 194 234 273 319
#     4  10  21  39  60  86 117 149 182 226 288 347
#
# _framework density 21.168762999999998
#
# number of rings (size 3 to 8) (size 9 to 14) (size 15 to 20)
#    0.000    2.000    2.500    0.750    3.500    2.500 
#    0.000    3.750    0.000    0.000    0.000    0.000 
#    0.000    0.000    0.000    0.000    0.000    0.000 
#
# Total GULP energy -178719.183776 kJ/mol
# GULP energy per Si atom -5584.974493 kJ/mol
# Density = 2.112058 g / cm^3
# Si number density = 21.168763 Si / 1000 Ang^3
#
#
#
# Elastic Constant Matrix: (Units=GPa)
#
#
# Indices 1 2 3 4 5 6 
#
# 1 162.1841 8.2193 114.0410 -0.0070 17.9882 0.0017
# 2 8.2193 34.5576 12.0036 -0.0057 6.0236 -0.0017
# 3 114.0410 12.0036 190.7804 -0.0078 27.4907 -0.0053
# 4 -0.0070 -0.0057 -0.0078 14.3380 -0.0047 -5.9684
# 5 17.9882 6.0236 27.4907 -0.0047 44.8001 -0.0022
# 6 0.0017 -0.0017 -0.0053 -5.9684 -0.0022 18.0957
#
#
#
# Elastic Compliance Matrix: (Units=1/GPa)
#
#
# Indices 1 2 3 4 5 6 
#
# 1 0.010646 -0.000281 -0.006292 0.000000 -0.000376 -0.000003
# 2 -0.000281 0.029992 -0.001266 0.000013 -0.003143 0.000006
# 3 -0.006292 -0.001266 0.009537 0.000002 -0.003156 0.000004
# 4 0.000000 0.000013 0.000002 0.080845 0.000007 0.026665
# 5 -0.000376 -0.003143 -0.003156 0.000007 0.024831 0.000004
# 6 -0.000003 0.000006 0.000004 0.026665 0.000004 0.064057
#
#
# Mechanical properties :
#
#
# Convention : Reuss Voigt Hill
#
# Bulk Modulus (GPa) = 28.98847 72.89445 50.94146
# Shear Modulus (GPa) = 20.23602 32.33061 26.28331
#
# Velocity S-wave (km/s) = 3.09518 3.91228 3.52747
# Velocity P-wave (km/s) = 5.14754 7.41064 6.38024
#
# Compressibility (1/GPa) = 0.03449648
#
# Stress axis : x y z
#
# Youngs Moduli (GPa) = 93.93241 33.34256 104.85427
#
# Poissons Ratio (x) = 0.00937 0.65973
# Poissons Ratio (y) = 0.02640 0.13276
# Poissons Ratio (z) = 0.59101 0.04222
#
# Static dielectric constant tensor:
#      x y z
#    x 1.748660 0.000000 0.026030 
#    y 0.000000 1.772920 -0.000010 
#    z 0.026030 -0.000010 1.764970 
# 
# From -- ./inp_files/326154.got.cif
#   From: 2010.05.17/outbox.cif.g08.bks.cpg/sg12_164_cif.got.tgz:326154.got - 2010.06.03 13:09:07.
