data_PCOD9194323
_publ_section_title
;
Structure prediction by ZEFSAII (Michael W. Deem and Ramdas Pophale) SiO2 
 PCOD9194323
Probable space group: C 2/M
;
_chemical_formula_sum "Si O2"
_cell_formula_units_Z 40
_cell_length_a 14.217594
_cell_length_b 28.601118
_cell_length_c 7.946445
_cell_angle_alpha 90.000000
_cell_angle_beta 37.577378
_cell_angle_gamma 90.000000
_cell_volume 1970.572517
_symmetry_space_group_name_H-M "C 2/M"
_symmetry_group_IT_number 12
_symmetry_cell_setting 'monoclinic'
loop_
_space_group_symop_operation_xyz
x,y,z
-x,y,-z
-x,-y,-z
x,-y,z
1/2+x,1/2+y,z
1/2-x,1/2+y,-z
1/2-x,1/2-y,-z
1/2+x,1/2-y,z
loop_
_atom_site_type_symbol
_atom_site_label
_atom_site_fract_x
_atom_site_fract_y
_atom_site_fract_z
Si Si1 0.821574 0.552457 0.195176
Si Si2 0.219907 0.360321 0.550702
Si Si3 0.322413 0.275248 0.235730
Si Si4 0.814596 0.195475 0.753936
Si Si5 0.592014 0.875274 0.195824
O O1 0.758464 0.500000 0.273905
O O2 0.745563 0.586312 0.444062
O O3 0.829487 0.579758 0.005232
O O4 0.000000 0.549060 0.000000
O O5 0.301287 0.330722 0.288520
O O6 0.264777 0.332549 0.655465
O O7 0.041259 0.358887 0.746786
O O8 0.250000 0.250000 0.500000
O O9 0.247964 0.247845 0.186053
O O10 0.500000 0.264303 0.000000
O O11 0.000000 0.195378 0.500000
O O12 0.721102 0.165054 0.023136
O O13 0.500000 0.884307 0.500000
#
# Coordination Sequence:
#
# PCOD9194323 Si02
#       5
#     8   8   8   8   8
#     4   8  15  32  59  85 109 144 188 233 286 344
#     4   9  19  36  56  80 114 151 188 235 283 334
#     4  10  20  36  56  78 109 151 194 233 277 329
#     4  10  20  36  56  80 113 157 201 231 275 338
#     4  10  20  34  55  85 119 151 189 237 284 332
#
# _framework density 20.298669
#
# number of rings (size 3 to 8) (size 9 to 14) (size 15 to 20)
#    0.000    2.600    0.000    4.200    0.000    5.200 
#    0.000    6.000    0.000   10.200    0.000    8.400 
#    0.000    4.800    0.000    0.000    0.000    0.000 
#
# Total GULP energy -111345.352048 kJ/mol
# GULP energy per Si atom -5567.267602 kJ/mol
# Density = 2.025247 g / cm^3
# Si number density = 20.298669 Si / 1000 Ang^3
#
#
#
# Elastic Constant Matrix: (Units=GPa)
#
#
# Indices 1 2 3 4 5 6 
#
# 1 94.2879 43.9537 42.5133 0.0000 8.0175 0.0000
# 2 43.9537 182.3484 58.9167 0.0000 10.2777 0.0000
# 3 42.5133 58.9167 104.5211 0.0000 -7.5328 0.0000
# 4 0.0000 0.0000 0.0000 32.0605 0.0000 1.3117
# 5 8.0175 10.2777 -7.5328 0.0000 37.2825 0.0000
# 6 0.0000 0.0000 0.0000 1.3117 0.0000 25.8127
#
#
#
# Elastic Compliance Matrix: (Units=1/GPa)
#
#
# Indices 1 2 3 4 5 6 
#
# 1 0.013898 -0.001513 -0.005059 0.000000 -0.003594 0.000000
# 2 -0.001513 0.007138 -0.003579 0.000000 -0.002366 0.000000
# 3 -0.005059 -0.003579 0.013996 0.000000 0.004902 0.000000
# 4 0.000000 0.000000 0.000000 0.031256 0.000000 -0.001588
# 5 -0.003594 -0.002366 0.004902 0.000000 0.029238 0.000000
# 6 0.000000 0.000000 0.000000 -0.001588 0.000000 0.038821
#
#
# Mechanical properties :
#
#
# Convention : Reuss Voigt Hill
#
# Bulk Modulus (GPa) = 67.88712 74.65831 71.27271
# Shear Modulus (GPa) = 31.33645 34.74940 33.04292
#
# Velocity S-wave (km/s) = 3.93334 4.14201 4.03902
# Velocity P-wave (km/s) = 7.35833 7.72882 7.54585
#
# Compressibility (1/GPa) = 0.01473034
#
# Stress axis : x y z
#
# Youngs Moduli (GPa) = 71.95442 140.08870 71.44966
#
# Poissons Ratio (x) = 0.21193 0.36147
# Poissons Ratio (y) = 0.10885 0.25571
# Poissons Ratio (z) = 0.36402 0.50137
#
# Static dielectric constant tensor:
#      x y z
#    x 1.782480 0.000000 0.070970 
#    y 0.000000 1.788280 0.000000 
#    z 0.070970 0.000000 1.754160 
# 
# From -- ./inp_files/41446.got.cif
#   From: 2010.05.17/outbox.cif.g08.bks.cpg/sg12_21_cif.got.tgz:41446.got - 2010.06.03 13:09:07.
