data_PCOD9194233
_publ_section_title
;
Structure prediction by ZEFSAII (Michael W. Deem and Ramdas Pophale) SiO2 
 PCOD9194233
Probable space group: C 2/M
;
_chemical_formula_sum "Si O2"
_cell_formula_units_Z 56
_cell_length_a 30.675881
_cell_length_b 8.952796
_cell_length_c 19.900036
_cell_angle_alpha 90.000000
_cell_angle_beta 145.449902
_cell_angle_gamma 90.000000
_cell_volume 3099.485612
_symmetry_space_group_name_H-M "C 2/M"
_symmetry_group_IT_number 12
_symmetry_cell_setting 'monoclinic'
loop_
_space_group_symop_operation_xyz
x,y,z
-x,y,-z
-x,-y,-z
x,-y,z
1/2+x,1/2+y,z
1/2-x,1/2+y,-z
1/2-x,1/2-y,-z
1/2+x,1/2-y,z
loop_
_atom_site_type_symbol
_atom_site_label
_atom_site_fract_x
_atom_site_fract_y
_atom_site_fract_z
Si Si1 0.771375 0.178118 0.189184
Si Si2 0.232772 0.178037 0.275567
Si Si3 0.600678 0.823429 0.912929
Si Si4 0.304921 0.821724 0.513146
Si Si5 0.825366 0.321998 0.129504
Si Si6 0.584529 0.174931 0.138830
Si Si7 0.444583 0.677245 0.756136
O O1 0.777518 0.252093 0.269688
O O2 0.828673 0.247939 0.206720
O O3 0.780336 0.000000 0.203168
O O4 0.683753 0.208537 0.051752
O O5 0.272677 0.209212 0.397899
O O6 0.148943 0.253633 0.173321
O O7 0.225727 0.000000 0.258737
O O8 0.609404 0.796390 0.843820
O O9 0.531893 0.728713 0.855887
O O10 0.585260 0.000000 0.904124
O O11 0.250000 0.750000 0.500000
O O12 0.388992 0.753339 0.631131
O O13 0.306539 0.000000 0.524717
O O14 0.815187 0.500000 0.122689
O O15 0.750000 0.250000 0.000000
O O16 0.583728 0.261803 0.207967
O O17 0.601625 0.000000 0.171434
O O18 0.500000 0.186703 0.000000
O O19 0.437323 0.500000 0.744755
#
# Coordination Sequence:
#
# PCOD9194233 Si02
#       7
#     8   8   8   8   8   8   8
#     4  10  20  34  55  83 115 149 182 220 274 331
#     4  11  23  37  56  81 107 140 183 228 273 324
#     4   9  19  35  54  80 113 148 182 219 270 327
#     4  11  23  40  60  79 104 141 187 233 276 325
#     4   9  17  31  53  80 112 147 183 223 270 326
#     4  11  23  37  54  77 109 146 178 218 274 328
#     4  12  24  36  55  81 108 143 184 228 274 322
#
# _framework density 18.067513000000002
#
# number of rings (size 3 to 8) (size 9 to 14) (size 15 to 20)
#    0.000    1.571    1.429    5.143    0.000    9.714 
#    0.000    0.000    0.000    0.857    0.000    6.000 
#    0.000    0.000    0.000    0.000    0.000    0.000 
#
# Total GULP energy -156393.907414 kJ/mol
# GULP energy per Si atom -5585.496693 kJ/mol
# Density = 1.802639 g / cm^3
# Si number density = 18.067513 Si / 1000 Ang^3
#
#
#
# Elastic Constant Matrix: (Units=GPa)
#
#
# Indices 1 2 3 4 5 6 
#
# 1 74.9036 33.2276 4.2616 0.0000 -30.8991 0.0000
# 2 33.2276 76.7012 28.9443 0.0000 -19.0280 0.0000
# 3 4.2616 28.9443 38.0462 0.0000 -13.7575 0.0000
# 4 0.0000 0.0000 0.0000 22.4058 0.0000 -1.3124
# 5 -30.8991 -19.0280 -13.7575 0.0000 25.4001 0.0000
# 6 0.0000 0.0000 0.0000 -1.3124 0.0000 34.4813
#
#
#
# Elastic Compliance Matrix: (Units=1/GPa)
#
#
# Indices 1 2 3 4 5 6 
#
# 1 0.038298 -0.013252 0.023688 0.000000 0.049491 0.000000
# 2 -0.013252 0.024158 -0.020120 0.000000 -0.008921 0.000000
# 3 0.023688 -0.020120 0.054601 0.000000 0.043317 0.000000
# 4 0.000000 0.000000 0.000000 0.044731 0.000000 0.001702
# 5 0.049491 -0.008921 0.043317 0.000000 0.116355 0.000000
# 6 0.000000 0.000000 0.000000 0.001702 0.000000 0.029066
#
#
# Mechanical properties :
#
#
# Convention : Reuss Voigt Hill
#
# Bulk Modulus (GPa) = 10.23666 35.83533 23.03600
# Shear Modulus (GPa) = 13.92218 24.67193 19.29706
#
# Velocity S-wave (km/s) = 2.77892 3.69933 3.27165
# Velocity P-wave (km/s) = 3.99682 6.17446 5.20089
#
# Compressibility (1/GPa) = 0.09768807
#
# Stress axis : x y z
#
# Youngs Moduli (GPa) = 26.11135 41.39434 18.31478
#
# Poissons Ratio (x) = 0.54856 -0.43384
# Poissons Ratio (y) = 0.34603 0.36849
# Poissons Ratio (z) = -0.61853 0.83286
#
# Static dielectric constant tensor:
#      x y z
#    x 1.680020 0.000000 -0.044610 
#    y 0.000000 1.595650 0.000000 
#    z -0.044610 0.000000 1.638070 
# 
# From -- ./inp_files/292539.got.cif
#   From: 2010.05.17/outbox.cif.g08.bks.cpg/sg12_147_cif.got.tgz:292539.got - 2010.06.03 13:09:07.
