data_PCOD9194984
_publ_section_title
;
Structure prediction by ZEFSAII (Michael W. Deem and Ramdas Pophale) SiO2 
 PCOD9194984
Probable space group: C 2/M
;
_chemical_formula_sum "Si O2"
_cell_formula_units_Z 48
_cell_length_a 18.844410
_cell_length_b 18.602628
_cell_length_c 9.635627
_cell_angle_alpha 90.000000
_cell_angle_beta 133.146253
_cell_angle_gamma 90.000000
_cell_volume 2464.494619
_symmetry_space_group_name_H-M "C 2/M"
_symmetry_group_IT_number 12
_symmetry_cell_setting 'monoclinic'
loop_
_space_group_symop_operation_xyz
x,y,z
-x,y,-z
-x,-y,-z
x,-y,z
1/2+x,1/2+y,z
1/2-x,1/2+y,-z
1/2-x,1/2-y,-z
1/2+x,1/2-y,z
loop_
_atom_site_type_symbol
_atom_site_label
_atom_site_fract_x
_atom_site_fract_y
_atom_site_fract_z
Si Si1 0.892404 0.171442 0.319448
Si Si2 0.404238 0.783723 0.086696
Si Si3 0.070411 0.374660 0.209933
Si Si4 0.404206 0.084048 0.443478
Si Si5 0.280870 0.085594 0.034758
Si Si6 0.737228 0.786802 0.333804
O O1 0.901419 0.235633 0.219455
O O2 0.835878 0.198865 0.381485
O O3 0.000000 0.146170 0.500000
O O4 0.823517 0.112026 0.156403
O O5 0.510651 0.801538 0.169942
O O6 0.357243 0.862084 0.058482
O O7 0.335187 0.749968 0.875496
O O8 0.088920 0.408075 0.383916
O O9 0.174823 0.358214 0.284633
O O10 0.000000 0.409887 0.000000
O O11 0.500000 0.118583 0.500000
O O12 0.307126 0.104879 0.230385
O O13 0.409528 0.000000 0.422010
O O14 0.293258 0.000000 0.026424
O O15 0.750000 0.750000 0.500000
#
# Coordination Sequence:
#
# PCOD9194984 Si02
#       6
#     8   8   8   8   8   8
#     4  11  24  40  62  88 114 163 208 246 290 338
#     4  10  21  37  59  90 116 153 194 245 299 357
#     4  10  21  34  53  85 125 147 180 239 308 364
#     4  10  20  34  59  87 115 160 192 229 294 361
#     4  10  21  37  60  89 118 152 205 244 284 350
#     4  10  21  34  54  86 119 151 188 244 304 348
#
# _framework density 19.476610000000001
#
# number of rings (size 3 to 8) (size 9 to 14) (size 15 to 20)
#    0.000    1.833    1.667    3.000    7.000    0.667 
#    0.000    6.667    0.000    0.000    0.000    2.333 
#    0.000    0.000    0.000    0.000    0.000    0.000 
#
# Total GULP energy -133673.038974 kJ/mol
# GULP energy per Si atom -5569.709957 kJ/mol
# Density = 1.943228 g / cm^3
# Si number density = 19.476610 Si / 1000 Ang^3
#
#
#
# Elastic Constant Matrix: (Units=GPa)
#
#
# Indices 1 2 3 4 5 6 
#
# 1 93.5910 10.9402 46.1279 0.0000 -0.9062 0.0000
# 2 10.9402 59.0368 33.2894 0.0000 -9.8583 0.0000
# 3 46.1279 33.2894 177.6073 0.0000 -8.1027 0.0000
# 4 0.0000 0.0000 0.0000 27.2328 0.0000 -0.5754
# 5 -0.9062 -9.8583 -8.1027 0.0000 25.6880 0.0000
# 6 0.0000 0.0000 0.0000 -0.5754 0.0000 11.0349
#
#
#
# Elastic Compliance Matrix: (Units=1/GPa)
#
#
# Indices 1 2 3 4 5 6 
#
# 1 0.012284 -0.000660 -0.003103 0.000000 -0.000799 0.000000
# 2 -0.000660 0.020015 -0.003278 0.000000 0.006624 0.000000
# 3 -0.003103 -0.003278 0.007090 0.000000 0.000869 0.000000
# 4 0.000000 0.000000 0.000000 0.036761 0.000000 0.001917
# 5 -0.000799 0.006624 0.000869 0.000000 0.041717 0.000000
# 6 0.000000 0.000000 0.000000 0.001917 0.000000 0.090722
#
#
# Mechanical properties :
#
#
# Convention : Reuss Voigt Hill
#
# Bulk Modulus (GPa) = 39.51403 56.77224 48.14313
# Shear Modulus (GPa) = 21.63506 28.78299 25.20902
#
# Velocity S-wave (km/s) = 3.33652 3.84842 3.60157
# Velocity P-wave (km/s) = 5.93086 6.99709 6.48592
#
# Compressibility (1/GPa) = 0.02530747
#
# Stress axis : x y z
#
# Youngs Moduli (GPa) = 81.40958 49.96166 141.03682
#
# Poissons Ratio (x) = 0.03297 0.43764
# Poissons Ratio (y) = 0.05373 0.46231
# Poissons Ratio (z) = 0.25261 0.16377
#
# Static dielectric constant tensor:
#      x y z
#    x 1.713820 0.000000 -0.004040 
#    y 0.000000 1.704710 0.000000 
#    z -0.004040 0.000000 1.774200 
# 
# From -- ./inp_files/77703.got.cif
#   From: 2010.05.17/outbox.cif.g08.bks.cpg/sg12_39_cif.got.tgz:77703.got - 2010.06.03 13:09:07.
