data_PCOD9194088
_publ_section_title
;
Structure prediction by ZEFSAII (Michael W. Deem and Ramdas Pophale) SiO2 
 PCOD9194088
Probable space group: C 2/M
;
_chemical_formula_sum "Si O2"
_cell_formula_units_Z 64
_cell_length_a 16.560038
_cell_length_b 7.652472
_cell_length_c 20.008467
_cell_angle_alpha 90.000000
_cell_angle_beta 80.343987
_cell_angle_gamma 90.000000
_cell_volume 2499.654809
_symmetry_space_group_name_H-M "C 2/M"
_symmetry_group_IT_number 12
_symmetry_cell_setting 'monoclinic'
loop_
_space_group_symop_operation_xyz
x,y,z
-x,y,-z
-x,-y,-z
x,-y,z
1/2+x,1/2+y,z
1/2-x,1/2+y,-z
1/2-x,1/2-y,-z
1/2+x,1/2-y,z
loop_
_atom_site_type_symbol
_atom_site_label
_atom_site_fract_x
_atom_site_fract_y
_atom_site_fract_z
Si Si1 0.215623 0.296953 0.279517
Si Si2 0.927466 0.713815 0.961202
Si Si3 0.691190 0.786899 0.910941
Si Si4 0.630144 0.201589 0.165276
Si Si5 0.104127 0.797225 0.409124
Si Si6 0.108881 0.300000 0.790151
Si Si7 0.659497 0.292387 0.539001
Si Si8 0.456997 0.201936 0.335200
O O1 0.231636 0.500000 0.260760
O O2 0.147419 0.225543 0.236524
O O3 0.177274 0.289077 0.357528
O O4 0.299958 0.200031 0.254869
O O5 0.929595 0.500000 0.958039
O O6 0.927200 0.777679 0.884844
O O7 0.845369 0.763791 0.012705
O O8 0.000000 0.768549 0.000000
O O9 0.779196 0.711353 0.880457
O O10 0.627375 0.729176 0.861430
O O11 0.696420 0.000000 0.906953
O O12 0.606502 0.000000 0.177858
O O13 0.101451 0.732462 0.485409
O O14 0.023094 0.782103 0.376056
O O15 0.125588 0.000000 0.411462
O O16 0.082032 0.500000 0.803950
O O17 0.053644 0.222575 0.738181
O O18 0.652420 0.500000 0.550013
O O19 0.750000 0.250000 0.500000
O O20 0.628189 0.211092 0.612120
O O21 0.480719 0.000000 0.324133
#
# Coordination Sequence:
#
# PCOD9194088 Si02
#       8
#     8   8   8   8   8   8   8   8
#     4  10  20  34  55  81 107 139 179 222 267 316
#     4   9  17  29  48  74 102 135 175 216 260 310
#     4   9  17  31  53  76 100 136 176 213 257 311
#     4   9  18  32  51  76 104 133 171 220 263 305
#     4  11  24  40  57  80 112 145 177 218 266 316
#     4   9  19  35  54  79 109 139 176 221 265 313
#     4  11  24  41  61  84 110 142 181 224 267 313
#     4  11  23  38  58  84 113 144 178 219 267 318
#
# _framework density 25.603534
#
# number of rings (size 3 to 8) (size 9 to 14) (size 15 to 20)
#    0.000    2.125    0.000    3.000    0.000    9.000 
#    0.000    3.750    0.000    1.500    0.000    0.000 
#    0.000    0.000    0.000    0.000    0.000    0.000 
#
# Total GULP energy -178926.087555 kJ/mol
# GULP energy per Si atom -5591.440236 kJ/mol
# Density = 2.554526 g / cm^3
# Si number density = 25.603534 Si / 1000 Ang^3
#
#
#
# Elastic Constant Matrix: (Units=GPa)
#
#
# Indices 1 2 3 4 5 6 
#
# 1 84.6580 -1.9890 7.9092 0.0000 12.7968 0.0000
# 2 -1.9890 64.0859 5.1364 0.0000 0.2611 0.0000
# 3 7.9092 5.1364 147.0200 0.0000 20.2455 0.0000
# 4 0.0000 0.0000 0.0000 7.0441 0.0000 0.7947
# 5 12.7968 0.2611 20.2455 0.0000 53.8736 0.0000
# 6 0.0000 0.0000 0.0000 0.7947 0.0000 18.5704
#
#
#
# Elastic Compliance Matrix: (Units=1/GPa)
#
#
# Indices 1 2 3 4 5 6 
#
# 1 0.012274 0.000415 -0.000288 0.000000 -0.002809 0.000000
# 2 0.000415 0.015663 -0.000575 0.000000 0.000042 0.000000
# 3 -0.000288 -0.000575 0.007200 0.000000 -0.002635 0.000000
# 4 0.000000 0.000000 0.000000 0.142651 0.000000 -0.006104
# 5 -0.002809 0.000042 -0.002635 0.000000 0.020219 0.000000
# 6 0.000000 0.000000 0.000000 -0.006104 0.000000 0.054110
#
#
# Mechanical properties :
#
#
# Convention : Reuss Voigt Hill
#
# Bulk Modulus (GPa) = 29.20473 35.31967 32.26220
# Shear Modulus (GPa) = 18.90884 34.87811 26.89347
#
# Velocity S-wave (km/s) = 2.72053 3.69485 3.24447
# Velocity P-wave (km/s) = 4.61516 5.65928 5.16367
#
# Compressibility (1/GPa) = 0.03424103
#
# Stress axis : x y z
#
# Youngs Moduli (GPa) = 81.47618 63.84514 138.88523
#
# Poissons Ratio (x) = -0.02652 0.03999
# Poissons Ratio (y) = -0.03385 0.07990
# Poissons Ratio (z) = 0.02346 0.03673
#
# Static dielectric constant tensor:
#      x y z
#    x 2.065740 0.000000 0.056010 
#    y 0.000000 1.958630 0.000000 
#    z 0.056010 0.000000 2.008730 
# 
# From -- ./inp_files/314096.got.cif
#   From: 2010.05.17/outbox.cif.g08.bks.cpg/sg12_158_cif.got.tgz:314096.got - 2010.06.03 13:09:07.
