data_PCOD9194012
_publ_section_title
;
Structure prediction by ZEFSAII (Michael W. Deem and Ramdas Pophale) SiO2 
 PCOD9194012
Probable space group: C 2/M
;
_chemical_formula_sum "Si O2"
_cell_formula_units_Z 28
_cell_length_a 12.807313
_cell_length_b 21.096078
_cell_length_c 4.845490
_cell_angle_alpha 90.000000
_cell_angle_beta 119.452879
_cell_angle_gamma 90.000000
_cell_volume 1139.977047
_symmetry_space_group_name_H-M "C 2/M"
_symmetry_group_IT_number 12
_symmetry_cell_setting 'monoclinic'
loop_
_space_group_symop_operation_xyz
x,y,z
-x,y,-z
-x,-y,-z
x,-y,z
1/2+x,1/2+y,z
1/2-x,1/2+y,-z
1/2-x,1/2-y,-z
1/2+x,1/2-y,z
loop_
_atom_site_type_symbol
_atom_site_label
_atom_site_fract_x
_atom_site_fract_y
_atom_site_fract_z
Si Si1 0.688035 0.155688 0.616958
Si Si2 0.313960 0.928379 0.840905
Si Si3 0.409744 0.500000 0.630036
Si Si4 0.078567 0.786130 0.369090
O O1 0.618814 0.110509 0.309928
O O2 0.807796 0.178677 0.614083
O O3 0.623347 0.222485 0.579895
O O4 0.702980 0.115013 0.913081
O O5 0.184960 0.943370 0.527536
O O6 0.358677 0.000000 0.966547
O O7 0.500000 0.500000 0.500000
O O8 0.500000 0.500000 0.000000
O O9 0.000000 0.821816 0.500000
O O10 0.000000 0.769809 0.000000
#
# Coordination Sequence:
#
# PCOD9194012 Si02
#       4
#     8   8   4   8
#     4  11  22  42  65  92 128 169 213 259 328 377
#     4  10  22  37  63  89 126 176 192 255 319 393
#     4  10  20  34  54  88 126 160 200 244 302 382
#     4  11  24  41  66  94 123 166 220 277 313 369
#
# _framework density 24.561899
#
# number of rings (size 3 to 8) (size 9 to 14) (size 15 to 20)
#    0.857    0.571    0.000    6.000    0.000    9.143 
#    0.000    0.000    0.000   17.143    0.000    0.000 
#    0.000    0.000    0.000    0.000    0.000    0.000 
#
# Total GULP energy -78189.888326 kJ/mol
# GULP energy per Si atom -5584.992023 kJ/mol
# Density = 2.450600 g / cm^3
# Si number density = 24.561899 Si / 1000 Ang^3
#
#
#
# Elastic Constant Matrix: (Units=GPa)
#
#
# Indices 1 2 3 4 5 6 
#
# 1 63.9188 -5.8501 19.8525 0.0000 -16.5349 0.0000
# 2 -5.8501 135.5880 36.5851 0.0000 -4.4384 0.0000
# 3 19.8525 36.5851 153.6567 0.0000 -30.7989 0.0000
# 4 0.0000 0.0000 0.0000 32.2229 0.0000 -14.6764
# 5 -16.5349 -4.4384 -30.7989 0.0000 46.5377 0.0000
# 6 0.0000 0.0000 0.0000 -14.6764 0.0000 17.8658
#
#
#
# Elastic Compliance Matrix: (Units=1/GPa)
#
#
# Indices 1 2 3 4 5 6 
#
# 1 0.017634 0.001347 -0.001519 0.000000 0.005389 0.000000
# 2 0.001347 0.007997 -0.002109 0.000000 -0.000155 0.000000
# 3 -0.001519 -0.002109 0.008137 0.000000 0.004645 0.000000
# 4 0.000000 0.000000 0.000000 0.049587 0.000000 0.040735
# 5 0.005389 -0.000155 0.004645 0.000000 0.026462 0.000000
# 6 0.000000 0.000000 0.000000 0.040735 0.000000 0.089436
#
#
# Mechanical properties :
#
#
# Convention : Reuss Voigt Hill
#
# Bulk Modulus (GPa) = 34.23882 50.48203 42.36043
# Shear Modulus (GPa) = 23.41364 39.49702 31.45533
#
# Velocity S-wave (km/s) = 3.09082 4.01441 3.58251
# Velocity P-wave (km/s) = 5.16795 6.48729 5.86484
#
# Compressibility (1/GPa) = 0.02920661
#
# Stress axis : x y z
#
# Youngs Moduli (GPa) = 56.70908 125.03980 122.88941
#
# Poissons Ratio (x) = -0.16844 0.18666
# Poissons Ratio (y) = -0.07639 0.25920
# Poissons Ratio (z) = 0.08614 0.26373
#
# Static dielectric constant tensor:
#      x y z
#    x 1.921650 0.000000 0.044540 
#    y 0.000000 1.963310 0.000000 
#    z 0.044540 0.000000 1.969860 
# 
# From -- ./inp_files/11205.got.cif
#   From: 2010.05.17/outbox.cif.g08.bks.cpg/sg12_6_cif.got.tgz:11205.got - 2010.06.03 13:09:07.
