data_PCOD9194991
_publ_section_title
;
Structure prediction by ZEFSAII (Michael W. Deem and Ramdas Pophale) SiO2 
 PCOD9194991
Probable space group: C 2/M
;
_chemical_formula_sum "Si O2"
_cell_formula_units_Z 44
_cell_length_a 8.857487
_cell_length_b 18.406309
_cell_length_c 16.762212
_cell_angle_alpha 90.000000
_cell_angle_beta 129.004442
_cell_angle_gamma 90.000000
_cell_volume 2123.654628
_symmetry_space_group_name_H-M "C 2/M"
_symmetry_group_IT_number 12
_symmetry_cell_setting 'monoclinic'
loop_
_space_group_symop_operation_xyz
x,y,z
-x,y,-z
-x,-y,-z
x,-y,z
1/2+x,1/2+y,z
1/2-x,1/2+y,-z
1/2-x,1/2-y,-z
1/2+x,1/2-y,z
loop_
_atom_site_type_symbol
_atom_site_label
_atom_site_fract_x
_atom_site_fract_y
_atom_site_fract_z
Si Si1 0.892508 0.583232 0.602541
Si Si2 0.811843 0.328639 0.993490
Si Si3 0.177029 0.712364 0.668624
Si Si4 0.936171 0.582415 0.806467
Si Si5 0.500000 0.662907 0.500000
Si Si6 0.391133 0.678172 0.228538
O O1 0.909936 0.500000 0.579144
O O2 0.945073 0.583166 0.714273
O O3 0.672769 0.613105 0.523691
O O4 0.035286 0.643791 0.614661
O O5 0.884686 0.376615 0.091402
O O6 0.750000 0.250000 0.000000
O O7 0.647349 0.348761 0.875100
O O8 0.000000 0.324273 0.000000
O O9 0.379499 0.691746 0.694718
O O10 0.195559 0.744761 0.765594
O O11 0.086318 0.781725 0.593681
O O12 0.936809 0.500000 0.835736
O O13 0.732636 0.619769 0.762941
#
# Coordination Sequence:
#
# PCOD9194991 Si02
#       6
#     8   8   8   8   4   8
#     4  11  24  43  65  92 129 165 207 262 320 376
#     4  10  20  34  59  89 117 161 202 253 296 367
#     4  12  23  40  65  97 121 165 212 265 312 369
#     4  10  22  41  62  90 129 169 206 253 314 377
#     4  12  23  42  71  86 122 166 220 258 315 382
#     4  11  21  37  62  88 127 158 209 256 304 373
#
# _framework density 20.718999
#
# number of rings (size 3 to 8) (size 9 to 14) (size 15 to 20)
#    0.000    1.091    3.636    4.091    0.000    4.000 
#    0.000    0.455    0.000    2.727    0.000    0.000 
#    0.000    0.000    0.000    0.000    0.000    0.000 
#
# Total GULP energy -122695.420485 kJ/mol
# GULP energy per Si atom -5577.064568 kJ/mol
# Density = 2.067184 g / cm^3
# Si number density = 20.718999 Si / 1000 Ang^3
#
#
#
# Elastic Constant Matrix: (Units=GPa)
#
#
# Indices 1 2 3 4 5 6 
#
# 1 45.9275 26.9287 0.3044 0.0000 16.2517 0.0000
# 2 26.9287 153.7594 31.7459 0.0000 23.1989 0.0000
# 3 0.3044 31.7459 81.7790 0.0000 3.7088 0.0000
# 4 0.0000 0.0000 0.0000 9.9708 0.0000 5.8650
# 5 16.2517 23.1989 3.7088 0.0000 21.5710 0.0000
# 6 0.0000 0.0000 0.0000 5.8650 0.0000 33.0143
#
#
#
# Elastic Compliance Matrix: (Units=1/GPa)
#
#
# Indices 1 2 3 4 5 6 
#
# 1 0.030565 -0.002639 0.001841 0.000000 -0.020506 0.000000
# 2 -0.002639 0.008609 -0.003026 0.000000 -0.006750 0.000000
# 3 0.001841 -0.003026 0.013416 0.000000 -0.000439 0.000000
# 4 0.000000 0.000000 0.000000 0.111996 0.000000 -0.019896
# 5 -0.020506 -0.006750 -0.000439 0.000000 0.069143 0.000000
# 6 0.000000 0.000000 0.000000 -0.019896 0.000000 0.033824
#
#
# Mechanical properties :
#
#
# Convention : Reuss Voigt Hill
#
# Bulk Modulus (GPa) = 22.25151 44.38045 33.31598
# Shear Modulus (GPa) = 17.23058 27.74368 22.48713
#
# Velocity S-wave (km/s) = 2.88693 3.66327 3.29802
# Velocity P-wave (km/s) = 4.67712 6.27370 5.53330
#
# Compressibility (1/GPa) = 0.04494077
#
# Stress axis : x y z
#
# Youngs Moduli (GPa) = 32.71741 116.15631 74.53892
#
# Poissons Ratio (x) = 0.30655 -0.13720
# Poissons Ratio (y) = 0.08635 0.22556
# Poissons Ratio (z) = -0.06022 0.35149
#
# Static dielectric constant tensor:
#      x y z
#    x 1.708890 0.000000 -0.055710 
#    y 0.000000 1.716470 0.000000 
#    z -0.055710 0.000000 1.922720 
# 
# From -- ./inp_files/257306.got.cif
#   From: 2010.05.17/outbox.cif.g08.bks.cpg/sg12_129_cif.got.tgz:257306.got - 2010.06.03 13:09:07.
