data_PCOD9194742
_publ_section_title
;
Structure prediction by ZEFSAII (Michael W. Deem and Ramdas Pophale) SiO2 
 PCOD9194742
Probable space group: C 2/M
;
_chemical_formula_sum "Si O2"
_cell_formula_units_Z 50
_cell_length_a 18.029789
_cell_length_b 14.473790
_cell_length_c 10.986433
_cell_angle_alpha 90.000000
_cell_angle_beta 54.580631
_cell_angle_gamma 90.000000
_cell_volume 2336.420202
_symmetry_space_group_name_H-M "C 2/M"
_symmetry_group_IT_number 12
_symmetry_cell_setting 'monoclinic'
loop_
_space_group_symop_operation_xyz
x,y,z
-x,y,-z
-x,-y,-z
x,-y,z
1/2+x,1/2+y,z
1/2-x,1/2+y,-z
1/2-x,1/2-y,-z
1/2+x,1/2-y,z
loop_
_atom_site_type_symbol
_atom_site_label
_atom_site_fract_x
_atom_site_fract_y
_atom_site_fract_z
Si Si1 0.536253 0.391977 0.828982
Si Si2 0.100161 0.856080 0.422137
Si Si3 0.871081 0.199898 0.870507
Si Si4 0.000000 0.500000 0.500000
Si Si5 0.799006 0.391142 0.857049
Si Si6 0.385400 0.151948 0.513906
Si Si7 0.780453 0.894925 0.461520
O O1 0.527740 0.500000 0.797397
O O2 0.472305 0.326599 0.811116
O O3 0.640728 0.365911 0.707843
O O4 0.500000 0.386698 0.000000
O O5 0.145530 0.843240 0.247376
O O6 0.082288 0.753631 0.489058
O O7 0.170617 0.894651 0.453949
O O8 0.000000 0.899795 0.500000
O O9 0.852910 0.309804 0.878785
O O10 0.803612 0.145612 0.025563
O O11 0.967918 0.580772 0.432717
O O12 0.808705 0.500000 0.881871
O O13 0.830521 0.383808 0.686685
O O14 0.313695 0.157145 0.471898
O O15 0.755476 0.000000 0.455389
#
# Coordination Sequence:
#
# PCOD9194742 Si02
#       7
#     8   8   8   2   8   8   8
#     4  10  20  34  57  86 119 158 197 253 305 353
#     4  11  22  38  57  85 124 165 197 237 300 369
#     4  10  21  36  58  88 119 162 202 240 308 359
#     4  12  20  36  68  88 112 148 190 260 298 350
#     4  10  20  37  61  86 116 152 207 257 290 357
#     4  11  22  39  62  92 114 153 205 257 303 342
#     4  11  22  36  56  87 126 157 198 251 299 359
#
# _framework density 21.400261
#
# number of rings (size 3 to 8) (size 9 to 14) (size 15 to 20)
#    0.000    1.440    4.000    1.920    0.000    2.880 
#    0.000    0.000    0.000    0.480    0.000    0.000 
#    0.000    0.000    0.000    0.000    0.000    0.000 
#
# Total GULP energy -139278.337517 kJ/mol
# GULP energy per Si atom -5571.133501 kJ/mol
# Density = 2.135155 g / cm^3
# Si number density = 21.400261 Si / 1000 Ang^3
#
#
#
# Elastic Constant Matrix: (Units=GPa)
#
#
# Indices 1 2 3 4 5 6 
#
# 1 132.9453 28.0903 -0.9209 0.0000 0.0613 0.0000
# 2 28.0903 119.6682 10.7095 0.0000 -0.8495 0.0000
# 3 -0.9209 10.7095 60.9437 0.0000 5.7472 0.0000
# 4 0.0000 0.0000 0.0000 32.3215 0.0000 -11.9145
# 5 0.0613 -0.8495 5.7472 0.0000 21.7948 0.0000
# 6 0.0000 0.0000 0.0000 -11.9145 0.0000 48.0527
#
#
#
# Elastic Compliance Matrix: (Units=1/GPa)
#
#
# Indices 1 2 3 4 5 6 
#
# 1 0.007928 -0.001905 0.000476 0.000000 -0.000222 0.000000
# 2 -0.001905 0.008959 -0.001678 0.000000 0.000797 0.000000
# 3 0.000476 -0.001678 0.017143 0.000000 -0.004587 0.000000
# 4 0.000000 0.000000 0.000000 0.034051 0.000000 0.008443
# 5 -0.000222 0.000797 -0.004587 0.000000 0.047124 0.000000
# 6 0.000000 0.000000 0.000000 0.008443 0.000000 0.022904
#
#
# Mechanical properties :
#
#
# Convention : Reuss Voigt Hill
#
# Bulk Modulus (GPa) = 35.95221 43.25723 39.60472
# Shear Modulus (GPa) = 32.55268 38.81237 35.68252
#
# Velocity S-wave (km/s) = 3.90440 4.26331 4.08780
# Velocity P-wave (km/s) = 6.09608 6.67021 6.38959
#
# Compressibility (1/GPa) = 0.02781470
#
# Stress axis : x y z
#
# Youngs Moduli (GPa) = 126.13818 111.61351 58.33177
#
# Poissons Ratio (x) = 0.21263 -0.02774
# Poissons Ratio (y) = 0.24030 0.09790
# Poissons Ratio (z) = -0.05998 0.18733
#
# Static dielectric constant tensor:
#      x y z
#    x 1.831540 0.000000 -0.035240 
#    y 0.000000 1.775660 0.000000 
#    z -0.035240 0.000000 1.828670 
# 
# From -- ./inp_files/155932.got.cif
#   From: 2010.05.17/outbox.cif.g08.bks.cpg/sg12_78_cif.got.tgz:155932.got - 2010.06.03 13:09:07.
