data_PCOD9194737
_publ_section_title
;
Structure prediction by ZEFSAII (Michael W. Deem and Ramdas Pophale) SiO2 
 PCOD9194737
Probable space group: C 2/M
;
_chemical_formula_sum "Si O2"
_cell_formula_units_Z 64
_cell_length_a 33.302424
_cell_length_b 8.683679
_cell_length_c 25.309303
_cell_angle_alpha 90.000000
_cell_angle_beta 26.548406
_cell_angle_gamma 90.000000
_cell_volume 3271.314975
_symmetry_space_group_name_H-M "C 2/M"
_symmetry_group_IT_number 12
_symmetry_cell_setting 'monoclinic'
loop_
_space_group_symop_operation_xyz
x,y,z
-x,y,-z
-x,-y,-z
x,-y,z
1/2+x,1/2+y,z
1/2-x,1/2+y,-z
1/2-x,1/2-y,-z
1/2+x,1/2-y,z
loop_
_atom_site_type_symbol
_atom_site_label
_atom_site_fract_x
_atom_site_fract_y
_atom_site_fract_z
Si Si1 0.958196 0.813425 0.683230
Si Si2 0.815250 0.186022 0.764337
Si Si3 0.633951 0.687548 0.410704
Si Si4 0.974708 0.185273 0.088728
Si Si5 0.325823 0.318737 0.448406
Si Si6 0.779880 0.681522 0.318953
Si Si7 0.978006 0.682766 0.776579
Si Si8 0.616835 0.684787 0.010076
O O1 0.873351 0.769950 0.747003
O O2 0.955846 0.744327 0.744247
O O3 0.047825 0.763474 0.545982
O O4 0.961210 0.000000 0.684076
O O5 0.865418 0.232932 0.651143
O O6 0.809382 0.000000 0.770873
O O7 0.715994 0.253989 0.881705
O O8 0.633443 0.500000 0.413015
O O9 0.725917 0.738369 0.331047
O O10 0.873281 0.235673 0.219906
O O11 0.045773 0.239252 0.049025
O O12 0.977998 0.000000 0.084625
O O13 0.000000 0.240224 0.000000
O O14 0.339028 0.500000 0.422117
O O15 0.250000 0.250000 0.500000
O O16 0.288503 0.302419 0.551757
O O17 0.419698 0.232795 0.331808
O O18 0.798995 0.500000 0.290141
O O19 0.969702 0.500000 0.787836
O O20 0.915953 0.756191 0.894562
O O21 0.617113 0.500000 0.009494
#
# Coordination Sequence:
#
# PCOD9194737 Si02
#       8
#     8   8   8   8   8   8   8   8
#     4  10  20  39  64  91 124 160 198 247 307 369
#     4  10  21  37  64  94 119 155 203 252 303 365
#     4   9  17  35  61  92 125 156 194 243 303 370
#     4  10  22  39  58  84 119 159 200 242 295 356
#     4  11  22  38  59  87 121 157 199 245 299 359
#     4  10  20  34  57  86 117 153 192 238 290 349
#     4  12  25  41  62  88 120 160 208 258 304 359
#     4  11  24  42  62  84 120 165 203 252 310 363
#
# _framework density 19.563997000000001
#
# number of rings (size 3 to 8) (size 9 to 14) (size 15 to 20)
#    0.000    1.625    1.250    3.750    0.000    6.750 
#    0.000    0.625    0.000    1.500    0.000    0.000 
#    0.000    0.000    0.000    0.000    0.000    0.000 
#
# Total GULP energy -178855.889628 kJ/mol
# GULP energy per Si atom -5589.246551 kJ/mol
# Density = 1.951947 g / cm^3
# Si number density = 19.563997 Si / 1000 Ang^3
#
#
#
# Elastic Constant Matrix: (Units=GPa)
#
#
# Indices 1 2 3 4 5 6 
#
# 1 125.1153 29.2196 36.2568 -0.0188 4.1562 0.0032
# 2 29.2196 26.4436 20.0450 0.0125 2.2020 0.0006
# 3 36.2568 20.0450 88.7150 0.0126 2.3380 -0.0001
# 4 -0.0188 0.0125 0.0126 24.9273 0.0037 -2.7518
# 5 4.1562 2.2020 2.3380 0.0037 33.2759 -0.0020
# 6 0.0032 0.0006 -0.0001 -2.7518 -0.0020 17.8832
#
#
#
# Elastic Compliance Matrix: (Units=1/GPa)
#
#
# Indices 1 2 3 4 5 6 
#
# 1 0.011106 -0.010615 -0.002126 0.000015 -0.000535 0.000001
# 2 -0.010615 0.055955 -0.008257 -0.000032 -0.001797 -0.000005
# 3 -0.002126 -0.008257 0.014011 -0.000005 -0.000172 0.000000
# 4 0.000015 -0.000032 -0.000005 0.040810 -0.000004 0.006280
# 5 -0.000535 -0.001797 -0.000172 -0.000004 0.030250 0.000003
# 6 0.000001 -0.000005 0.000000 0.006280 0.000003 0.056885
#
#
# Mechanical properties :
#
#
# Convention : Reuss Voigt Hill
#
# Bulk Modulus (GPa) = 25.59218 45.70186 35.64702
# Shear Modulus (GPa) = 18.93666 25.53410 22.23538
#
# Velocity S-wave (km/s) = 3.11454 3.61662 3.37493
# Velocity P-wave (km/s) = 5.10328 6.39146 5.78335
#
# Compressibility (1/GPa) = 0.03907443
#
# Stress axis : x y z
#
# Youngs Moduli (GPa) = 90.04440 17.87158 71.37129
#
# Poissons Ratio (x) = 0.18971 0.15175
# Poissons Ratio (y) = 0.95584 0.58933
# Poissons Ratio (z) = 0.19145 0.14757
#
# Static dielectric constant tensor:
#      x y z
#    x 1.696290 -0.000010 0.010480 
#    y -0.000010 1.661600 0.000010 
#    z 0.010480 0.000010 1.657080 
# 
# From -- ./inp_files/353272.got.cif
#   From: 2010.05.17/outbox.cif.g08.bks.cpg/sg12_177_cif.got.tgz:353272.got - 2010.06.03 13:09:07.
