data_PCOD9194002
_publ_section_title
;
Structure prediction by ZEFSAII (Michael W. Deem and Ramdas Pophale) SiO2 
 PCOD9194002
Probable space group: C 2/M
;
_chemical_formula_sum "Si O2"
_cell_formula_units_Z 64
_cell_length_a 33.998941
_cell_length_b 18.344681
_cell_length_c 9.179723
_cell_angle_alpha 90.000000
_cell_angle_beta 140.923436
_cell_angle_gamma 90.000000
_cell_volume 3609.047706
_symmetry_space_group_name_H-M "C 2/M"
_symmetry_group_IT_number 12
_symmetry_cell_setting 'monoclinic'
loop_
_space_group_symop_operation_xyz
x,y,z
-x,y,-z
-x,-y,-z
x,-y,z
1/2+x,1/2+y,z
1/2-x,1/2+y,-z
1/2-x,1/2-y,-z
1/2+x,1/2-y,z
loop_
_atom_site_type_symbol
_atom_site_label
_atom_site_fract_x
_atom_site_fract_y
_atom_site_fract_z
Si Si1 0.567004 0.582497 0.256849
Si Si2 0.517268 0.209236 0.214980
Si Si3 0.145737 0.298917 0.866895
Si Si4 0.553782 0.688890 0.762039
Si Si5 0.760718 0.190021 0.406433
Si Si6 0.147095 0.918172 0.192313
Si Si7 0.953287 0.416248 0.503028
Si Si8 0.145078 0.212353 0.591243
O O1 0.557478 0.500000 0.288348
O O2 0.608810 0.577684 0.232893
O O3 0.605899 0.635604 0.476065
O O4 0.500000 0.608980 0.000000
O O5 0.479353 0.269126 0.199316
O O6 0.511919 0.131167 0.274849
O O7 0.589429 0.230591 0.417698
O O8 0.500000 0.208112 0.000000
O O9 0.091030 0.250274 0.780239
O O10 0.110658 0.372152 0.713450
O O11 0.174370 0.244013 0.825366
O O12 0.197014 0.319675 0.134029
O O13 0.500000 0.658875 0.500000
O O14 0.603912 0.630503 0.962624
O O15 0.750000 0.250000 0.500000
O O16 0.789480 0.121902 0.577365
O O17 0.810497 0.211036 0.421985
O O18 0.156663 0.000000 0.163941
O O19 0.941547 0.500000 0.508026
O O20 0.000000 0.414393 0.500000
#
# Coordination Sequence:
#
# PCOD9194002 Si02
#       8
#     8   8   8   8   8   8   8   8
#     4   9  17  31  52  81 117 155 189 227 287 352
#     4  11  20  33  59  87 119 146 187 239 292 351
#     4  11  21  37  59  86 112 150 197 241 284 346
#     4  12  20  37  60  91 119 150 188 234 295 350
#     4  11  22  38  61  80 110 155 201 244 277 338
#     4  10  22  37  56  85 118 150 192 238 286 342
#     4  10  20  37  58  84 117 149 189 241 300 355
#     4  10  20  34  54  86 110 147 194 241 284 335
#
# _framework density 17.73321
#
# number of rings (size 3 to 8) (size 9 to 14) (size 15 to 20)
#    0.000    1.500    5.000    3.000    0.000    1.000 
#    0.000    0.625    0.000    3.000    0.000    0.000 
#    0.000    0.000    0.000    0.000    0.000    0.000 
#
# Total GULP energy -178208.894035 kJ/mol
# GULP energy per Si atom -5569.027939 kJ/mol
# Density = 1.769285 g / cm^3
# Si number density = 17.733210 Si / 1000 Ang^3
#
#
#
# Elastic Constant Matrix: (Units=GPa)
#
#
# Indices 1 2 3 4 5 6 
#
# 1 50.1280 9.1965 6.6604 0.0000 -5.4368 0.0000
# 2 9.1965 113.3590 47.0130 0.0000 -13.3435 0.0000
# 3 6.6604 47.0130 103.0355 0.0000 -13.1028 0.0000
# 4 0.0000 0.0000 0.0000 21.3390 0.0000 0.8003
# 5 -5.4368 -13.3435 -13.1028 0.0000 29.4562 0.0000
# 6 0.0000 0.0000 0.0000 0.8003 0.0000 15.8934
#
#
#
# Elastic Compliance Matrix: (Units=1/GPa)
#
#
# Indices 1 2 3 4 5 6 
#
# 1 0.020547 -0.001129 -0.000420 0.000000 0.003094 0.000000
# 2 -0.001129 0.011179 -0.004675 0.000000 0.002776 0.000000
# 3 -0.000420 -0.004675 0.012281 0.000000 0.003268 0.000000
# 4 0.000000 0.000000 0.000000 0.046951 0.000000 -0.002364
# 5 0.003094 0.002776 0.003268 0.000000 0.037231 0.000000
# 6 0.000000 0.000000 0.000000 -0.002364 0.000000 0.063038
#
#
# Mechanical properties :
#
#
# Convention : Reuss Voigt Hill
#
# Bulk Modulus (GPa) = 31.68457 43.58470 37.63464
# Shear Modulus (GPa) = 23.34335 26.91455 25.12895
#
# Velocity S-wave (km/s) = 3.63211 3.90006 3.76846
# Velocity P-wave (km/s) = 5.95783 6.70164 6.34065
#
# Compressibility (1/GPa) = 0.03156110
#
# Stress axis : x y z
#
# Youngs Moduli (GPa) = 48.66802 89.45718 81.42665
#
# Poissons Ratio (x) = 0.10096 0.03418
# Poissons Ratio (y) = 0.05493 0.38063
# Poissons Ratio (z) = 0.02043 0.41817
#
# Static dielectric constant tensor:
#      x y z
#    x 0.000000 0.000000 0.000000 
#    y 0.000000 0.000000 0.000000 
#    z 0.000000 0.000000 0.000000 
# 
# From -- ./inp_files/112872.got.cif
#   From: 2010.05.17/outbox.cif.g08.bks.cpg/sg12_57_cif.got.tgz:112872.got - 2010.06.03 13:09:07.
