data_PCOD9194385
_publ_section_title
;
Structure prediction by ZEFSAII (Michael W. Deem and Ramdas Pophale) SiO2 
 PCOD9194385
Probable space group: C 2/M
;
_chemical_formula_sum "Si O2"
_cell_formula_units_Z 44
_cell_length_a 7.924167
_cell_length_b 26.417696
_cell_length_c 11.310407
_cell_angle_alpha 90.000000
_cell_angle_beta 70.550150
_cell_angle_gamma 90.000000
_cell_volume 2232.583788
_symmetry_space_group_name_H-M "C 2/M"
_symmetry_group_IT_number 12
_symmetry_cell_setting 'monoclinic'
loop_
_space_group_symop_operation_xyz
x,y,z
-x,y,-z
-x,-y,-z
x,-y,z
1/2+x,1/2+y,z
1/2-x,1/2+y,-z
1/2-x,1/2-y,-z
1/2+x,1/2-y,z
loop_
_atom_site_type_symbol
_atom_site_label
_atom_site_fract_x
_atom_site_fract_y
_atom_site_fract_z
Si Si1 0.500000 0.792936 0.000000
Si Si2 0.755593 0.060118 0.147677
Si Si3 0.429788 0.129793 0.218797
Si Si4 0.015153 0.290293 0.358743
Si Si5 0.596562 0.289298 0.806834
Si Si6 0.102126 0.107877 0.130341
O O1 0.529289 0.832235 0.100629
O O2 0.372661 0.751864 0.095316
O O3 0.566441 0.085692 0.220123
O O4 0.918909 0.077059 0.194317
O O5 0.744661 0.000000 0.143546
O O6 0.812001 0.083003 0.006455
O O7 0.386094 0.165813 0.339677
O O8 0.253262 0.109751 0.194994
O O9 0.213379 0.309541 0.280217
O O10 0.000000 0.280280 0.500000
O O11 0.980303 0.241147 0.287346
O O12 0.464052 0.334304 0.873326
#
# Coordination Sequence:
#
# PCOD9194385 Si02
#       6
#     4   8   8   8   8   8
#     4  10  20  34  55  92 121 156 198 234 312 368
#     4  11  23  38  60  90 130 160 192 252 314 375
#     4  11  22  38  60  87 127 162 199 250 299 369
#     4  11  24  40  57  88 127 169 212 246 292 350
#     4  11  22  34  62  86 126 164 196 249 295 370
#     4  11  21  37  57  93 121 158 198 236 310 371
#
# _framework density 19.708106999999998
#
# number of rings (size 3 to 8) (size 9 to 14) (size 15 to 20)
#    0.000    1.091    3.636    4.909    0.000    4.364 
#    0.000    0.000    0.000    0.545    0.000    1.273 
#    0.000    0.000    0.000    0.000    0.000    0.000 
#
# Total GULP energy -122719.855037 kJ/mol
# GULP energy per Si atom -5578.175229 kJ/mol
# Density = 1.966325 g / cm^3
# Si number density = 19.708107 Si / 1000 Ang^3
#
#
#
# Elastic Constant Matrix: (Units=GPa)
#
#
# Indices 1 2 3 4 5 6 
#
# 1 112.3768 47.9348 18.3422 0.0000 9.1963 0.0000
# 2 47.9348 150.3180 24.3321 0.0000 12.1198 0.0000
# 3 18.3422 24.3321 66.7863 0.0000 22.8364 0.0000
# 4 0.0000 0.0000 0.0000 11.9421 0.0000 -0.8114
# 5 9.1963 12.1198 22.8364 0.0000 21.3489 0.0000
# 6 0.0000 0.0000 0.0000 -0.8114 0.0000 25.6636
#
#
#
# Elastic Compliance Matrix: (Units=1/GPa)
#
#
# Indices 1 2 3 4 5 6 
#
# 1 0.010519 -0.003030 -0.001299 0.000000 -0.001422 0.000000
# 2 -0.003030 0.007996 -0.001538 0.000000 -0.001590 0.000000
# 3 -0.001299 -0.001538 0.024281 0.000000 -0.024541 0.000000
# 4 0.000000 0.000000 0.000000 0.083918 0.000000 0.002653
# 5 -0.001422 -0.001590 -0.024541 0.000000 0.074606 0.000000
# 6 0.000000 0.000000 0.000000 0.002653 0.000000 0.039050
#
#
# Mechanical properties :
#
#
# Convention : Reuss Voigt Hill
#
# Bulk Modulus (GPa) = 32.19162 56.74439 44.46800
# Shear Modulus (GPa) = 19.05074 27.71571 23.38322
#
# Velocity S-wave (km/s) = 3.11246 3.75415 3.44826
# Velocity P-wave (km/s) = 5.41168 6.90264 6.20212
#
# Compressibility (1/GPa) = 0.03106398
#
# Stress axis : x y z
#
# Youngs Moduli (GPa) = 95.06335 125.06729 41.18390
#
# Poissons Ratio (x) = 0.37890 0.05350
# Poissons Ratio (y) = 0.28800 0.06332
# Poissons Ratio (z) = 0.12350 0.19229
#
# Static dielectric constant tensor:
#      x y z
#    x 1.775120 0.000000 0.002850 
#    y 0.000000 1.686730 0.000000 
#    z 0.002850 0.000000 1.685220 
# 
# From -- ./inp_files/121752.got.cif
#   From: 2010.05.17/outbox.cif.g08.bks.cpg/sg12_61_cif.got.tgz:121752.got - 2010.06.03 13:09:07.
