data_PCOD9194264
_publ_section_title
;
Structure prediction by ZEFSAII (Michael W. Deem and Ramdas Pophale) SiO2 
 PCOD9194264
Probable space group: C 2/M
;
_chemical_formula_sum "Si O2"
_cell_formula_units_Z 64
_cell_length_a 25.298117
_cell_length_b 8.603758
_cell_length_c 16.733271
_cell_angle_alpha 90.000000
_cell_angle_beta 117.244446
_cell_angle_gamma 90.000000
_cell_volume 3238.090946
_symmetry_space_group_name_H-M "C 2/M"
_symmetry_group_IT_number 12
_symmetry_cell_setting 'monoclinic'
loop_
_space_group_symop_operation_xyz
x,y,z
-x,y,-z
-x,-y,-z
x,-y,z
1/2+x,1/2+y,z
1/2-x,1/2+y,-z
1/2-x,1/2-y,-z
1/2+x,1/2-y,z
loop_
_atom_site_type_symbol
_atom_site_label
_atom_site_fract_x
_atom_site_fract_y
_atom_site_fract_z
Si Si1 0.690644 0.313666 0.000263
Si Si2 0.691662 0.171949 0.429816
Si Si3 0.098372 0.324829 0.509569
Si Si4 0.876949 0.186905 0.199612
Si Si5 0.402446 0.812226 0.752990
Si Si6 0.011945 0.185757 0.322438
Si Si7 0.323727 0.688489 0.826393
Si Si8 0.691377 0.186231 0.702853
O O1 0.696121 0.500000 0.007433
O O2 0.637176 0.276069 0.902247
O O3 0.750000 0.250000 0.000000
O O4 0.680760 0.260950 0.084073
O O5 0.750000 0.250000 0.500000
O O6 0.646451 0.161668 0.471908
O O7 0.654453 0.253429 0.335656
O O8 0.707246 0.000000 0.412287
O O9 0.079403 0.500000 0.519811
O O10 0.044146 0.240964 0.426631
O O11 0.138554 0.251792 0.608172
O O12 0.829663 0.271823 0.223058
O O13 0.943074 0.231953 0.271869
O O14 0.870733 0.000000 0.205396
O O15 0.456647 0.753171 0.735958
O O16 0.383546 0.755288 0.827244
O O17 0.403844 0.000000 0.751304
O O18 0.016354 0.000000 0.321854
O O19 0.325899 0.500000 0.824344
O O20 0.260106 0.738631 0.742323
O O21 0.691864 0.000000 0.690722
#
# Coordination Sequence:
#
# PCOD9194264 Si02
#       8
#     8   8   8   8   8   8   8   8
#     4  10  20  37  60  85 113 142 177 222 276 332
#     4   9  17  29  46  69 100 137 177 219 265 316
#     4   9  19  34  50  74 109 145 184 228 270 317
#     4  10  22  38  57  82 111 144 183 230 278 325
#     4  10  21  36  54  78 108 144 183 226 274 322
#     4  10  21  38  57  77 107 149 192 228 269 323
#     4  10  20  35  57  85 113 142 178 222 275 334
#     4  10  20  34  55  84 114 146 185 227 274 328
#
# _framework density 19.764733
#
# number of rings (size 3 to 8) (size 9 to 14) (size 15 to 20)
#    0.000    2.250    1.250    2.250    0.000    6.500 
#    0.000    3.125    0.000    3.750    0.000    0.000 
#    0.000    0.000    0.000    0.000    0.000    0.000 
#
# Total GULP energy -178265.944071 kJ/mol
# GULP energy per Si atom -5570.810752 kJ/mol
# Density = 1.971975 g / cm^3
# Si number density = 19.764733 Si / 1000 Ang^3
#
#
#
# Elastic Constant Matrix: (Units=GPa)
#
#
# Indices 1 2 3 4 5 6 
#
# 1 44.5544 2.3892 -0.5483 0.0000 1.1477 0.0000
# 2 2.3892 11.9077 1.4757 0.0000 5.3677 0.0000
# 3 -0.5483 1.4757 76.2115 0.0000 -2.5441 0.0000
# 4 0.0000 0.0000 0.0000 21.5891 0.0000 -6.3506
# 5 1.1477 5.3677 -2.5441 0.0000 34.5811 0.0000
# 6 0.0000 0.0000 0.0000 -6.3506 0.0000 17.4169
#
#
#
# Elastic Compliance Matrix: (Units=1/GPa)
#
#
# Indices 1 2 3 4 5 6 
#
# 1 0.022693 -0.004573 0.000251 0.000000 -0.000025 0.000000
# 2 -0.004573 0.091596 -0.002282 0.000000 -0.014234 0.000000
# 3 0.000251 -0.002282 0.013211 0.000000 0.001318 0.000000
# 4 0.000000 0.000000 0.000000 0.051885 0.000000 0.018918
# 5 -0.000025 -0.014234 0.001318 0.000000 0.031225 0.000000
# 6 0.000000 0.000000 0.000000 0.018918 0.000000 0.064313
#
#
# Mechanical properties :
#
#
# Convention : Reuss Voigt Hill
#
# Bulk Modulus (GPa) = 8.74946 15.47854 12.11400
# Shear Modulus (GPa) = 15.32669 23.34124 19.33397
#
# Velocity S-wave (km/s) = 2.78772 3.44023 3.13102
# Velocity P-wave (km/s) = 3.84685 4.86093 4.38332
#
# Compressibility (1/GPa) = 0.11429278
#
# Stress axis : x y z
#
# Youngs Moduli (GPa) = 44.06565 10.91755 75.69252
#
# Poissons Ratio (x) = 0.04993 -0.01900
# Poissons Ratio (y) = 0.20152 0.17270
# Poissons Ratio (z) = -0.01106 0.02491
#
# Static dielectric constant tensor:
#      x y z
#    x 1.692280 0.000000 -0.004880 
#    y 0.000000 1.676670 0.000000 
#    z -0.004880 0.000000 1.753180 
# 
# From -- ./inp_files/244165.got.cif
#   From: 2010.05.17/outbox.cif.g08.bks.cpg/sg12_123_cif.got.tgz:244165.got - 2010.06.03 13:09:07.
