data_PCOD9194383
_publ_section_title
;
Structure prediction by ZEFSAII (Michael W. Deem and Ramdas Pophale) SiO2 
 PCOD9194383
Probable space group: C 2/M
;
_chemical_formula_sum "Si O2"
_cell_formula_units_Z 64
_cell_length_a 32.355782
_cell_length_b 13.631180
_cell_length_c 12.946432
_cell_angle_alpha 90.000000
_cell_angle_beta 145.791276
_cell_angle_gamma 90.000000
_cell_volume 3210.210249
_symmetry_space_group_name_H-M "C 2/M"
_symmetry_group_IT_number 12
_symmetry_cell_setting 'monoclinic'
loop_
_space_group_symop_operation_xyz
x,y,z
-x,y,-z
-x,-y,-z
x,-y,z
1/2+x,1/2+y,z
1/2-x,1/2+y,-z
1/2-x,1/2-y,-z
1/2+x,1/2-y,z
loop_
_atom_site_type_symbol
_atom_site_label
_atom_site_fract_x
_atom_site_fract_y
_atom_site_fract_z
Si Si1 0.196424 0.111405 0.332955
Si Si2 0.271746 0.606812 0.981931
Si Si3 0.526077 0.611967 0.938073
Si Si4 0.064729 0.253679 0.392423
Si Si5 0.702491 0.184902 0.048037
Si Si6 0.075187 0.107918 0.595451
Si Si7 0.536478 0.116217 0.688260
Si Si8 0.211489 0.214940 0.579571
O O1 0.113827 0.114069 0.118955
O O2 0.194287 0.142831 0.448736
O O3 0.242302 0.193959 0.369040
O O4 0.224410 0.000000 0.379910
O O5 0.249568 0.500000 0.893510
O O6 0.266908 0.703956 0.904069
O O7 0.357690 0.604119 0.187424
O O8 0.230131 0.625774 0.004391
O O9 0.501303 0.500000 0.866355
O O10 0.500000 0.637282 0.000000
O O11 0.492873 0.686437 0.788085
O O12 0.089134 0.192077 0.542927
O O13 0.136395 0.259474 0.470176
O O14 0.022495 0.348095 0.348584
O O15 0.614111 0.172865 0.864609
O O16 0.741587 0.157337 0.236043
O O17 0.000000 0.125613 0.500000
O O18 0.070327 0.000000 0.534944
O O19 0.500000 0.134946 0.500000
O O20 0.551007 0.000000 0.725693
#
# Coordination Sequence:
#
# PCOD9194383 Si02
#       8
#     8   8   8   8   8   8   8   8
#     4  10  23  43  62  88 124 156 198 252 306 365
#     4  10  21  35  58  90 122 159 202 253 304 353
#     4  10  20  37  64  94 122 155 194 244 307 369
#     4  12  21  38  64  91 124 156 205 249 299 360
#     4  11  22  41  61  87 123 163 205 253 299 360
#     4  10  20  34  55  90 128 158 194 244 305 363
#     4  11  26  44  63  86 121 170 213 248 292 356
#     4  11  24  39  64  93 118 160 200 248 312 360
#
# _framework density 19.936388999999998
#
# number of rings (size 3 to 8) (size 9 to 14) (size 15 to 20)
#    0.000    1.375    2.500    3.375    1.750    2.500 
#    0.000    3.125    0.000    0.375    0.000    0.000 
#    0.000    0.000    0.000    0.000    0.000    0.000 
#
# Total GULP energy -178757.197819 kJ/mol
# GULP energy per Si atom -5586.162432 kJ/mol
# Density = 1.989101 g / cm^3
# Si number density = 19.936389 Si / 1000 Ang^3
#
#
#
# Elastic Constant Matrix: (Units=GPa)
#
#
# Indices 1 2 3 4 5 6 
#
# 1 56.4170 -2.5511 10.3664 0.0000 13.4179 0.0000
# 2 -2.5511 78.3726 2.3248 0.0000 -2.8843 0.0000
# 3 10.3664 2.3248 77.2989 0.0000 -1.9995 0.0000
# 4 0.0000 0.0000 0.0000 27.6292 0.0000 5.6473
# 5 13.4179 -2.8843 -1.9995 0.0000 28.9966 0.0000
# 6 0.0000 0.0000 0.0000 5.6473 0.0000 15.9368
#
#
#
# Elastic Compliance Matrix: (Units=1/GPa)
#
#
# Indices 1 2 3 4 5 6 
#
# 1 0.020608 0.000403 -0.003027 0.000000 -0.009705 0.000000
# 2 0.000403 0.012824 -0.000412 0.000000 0.001060 0.000000
# 3 -0.003027 -0.000412 0.013414 0.000000 0.002285 0.000000
# 4 0.000000 0.000000 0.000000 0.039020 0.000000 -0.013827
# 5 -0.009705 0.001060 0.002285 0.000000 0.039241 0.000000
# 6 0.000000 0.000000 0.000000 -0.013827 0.000000 0.067647
#
#
# Mechanical properties :
#
#
# Convention : Reuss Voigt Hill
#
# Bulk Modulus (GPa) = 24.52524 25.81875 25.17200
# Shear Modulus (GPa) = 23.53867 27.97574 25.75720
#
# Velocity S-wave (km/s) = 3.43984 3.75006 3.59830
# Velocity P-wave (km/s) = 5.30143 5.63288 5.46966
#
# Compressibility (1/GPa) = 0.04077432
#
# Stress axis : x y z
#
# Youngs Moduli (GPa) = 48.52566 77.97907 74.54774
#
# Poissons Ratio (x) = -0.03146 0.22564
# Poissons Ratio (y) = -0.01958 0.03074
# Poissons Ratio (z) = 0.14688 0.03216
#
# Static dielectric constant tensor:
#      x y z
#    x 1.726430 0.000000 0.026270 
#    y 0.000000 1.739490 0.000000 
#    z 0.026270 0.000000 1.752860 
# 
# From -- ./inp_files/189466.got.cif
#   From: 2010.05.17/outbox.cif.g08.bks.cpg/sg12_95_cif.got.tgz:189466.got - 2010.06.03 13:09:07.
