data_PCOD9194210
_publ_section_title
;
Structure prediction by ZEFSAII (Michael W. Deem and Ramdas Pophale) SiO2 
 PCOD9194210
Probable space group: C 2/M
;
_chemical_formula_sum "Si O2"
_cell_formula_units_Z 48
_cell_length_a 31.022160
_cell_length_b 10.541690
_cell_length_c 22.181338
_cell_angle_alpha 90.000000
_cell_angle_beta 19.625055
_cell_angle_gamma 90.000000
_cell_volume 2436.311488
_symmetry_space_group_name_H-M "C 2/M"
_symmetry_group_IT_number 12
_symmetry_cell_setting 'monoclinic'
loop_
_space_group_symop_operation_xyz
x,y,z
-x,y,-z
-x,-y,-z
x,-y,z
1/2+x,1/2+y,z
1/2-x,1/2+y,-z
1/2-x,1/2-y,-z
1/2+x,1/2-y,z
loop_
_atom_site_type_symbol
_atom_site_label
_atom_site_fract_x
_atom_site_fract_y
_atom_site_fract_z
Si Si1 0.573422 0.648054 0.765917
Si Si2 0.583929 0.356116 0.449975
Si Si3 0.727494 0.364506 0.952060
Si Si4 0.706785 0.355667 0.835473
Si Si5 0.455317 0.775349 0.720916
Si Si6 0.638654 0.855354 0.579127
O O1 0.564675 0.500000 0.756146
O O2 0.585266 0.748777 0.695695
O O3 0.707383 0.659448 0.624968
O O4 0.444688 0.670751 0.974015
O O5 0.500000 0.328449 0.500000
O O6 0.632063 0.500000 0.380070
O O7 0.695595 0.252996 0.312633
O O8 0.497644 0.341443 0.623349
O O9 0.671223 0.500000 0.043924
O O10 0.644938 0.259563 0.094448
O O11 0.720446 0.353950 0.890163
O O12 0.873313 0.358700 0.782667
O O13 0.736457 0.500000 0.775611
O O14 0.573800 0.835601 0.599900
O O15 0.611318 0.000000 0.636000
#
# Coordination Sequence:
#
# PCOD9194210 Si02
#       6
#     8   8   8   8   8   8
#     4   9  19  37  58  84 116 152 189 231 287 337
#     4  11  24  40  57  83 118 156 190 231 286 345
#     4  10  20  34  55  83 112 147 188 233 285 339
#     4  10  20  38  60  82 112 151 191 234 281 340
#     4  11  21  36  55  84 118 150 186 236 284 338
#     4  10  20  34  58  88 116 146 190 240 282 333
#
# _framework density 19.701913000000001
#
# number of rings (size 3 to 8) (size 9 to 14) (size 15 to 20)
#    0.000    1.833    3.333    1.000    0.000    3.000 
#    0.000    0.833    0.000    4.000    0.000    0.000 
#    0.000    0.000    0.000    0.000    0.000    0.000 
#
# Total GULP energy -133752.912430 kJ/mol
# GULP energy per Si atom -5573.038018 kJ/mol
# Density = 1.965707 g / cm^3
# Si number density = 19.701913 Si / 1000 Ang^3
#
#
#
# Elastic Constant Matrix: (Units=GPa)
#
#
# Indices 1 2 3 4 5 6 
#
# 1 57.0116 3.3887 22.8766 0.0000 -24.8401 0.0000
# 2 3.3887 90.4954 40.4398 0.0000 -8.0006 0.0000
# 3 22.8766 40.4398 68.3956 0.0000 -17.7171 0.0000
# 4 0.0000 0.0000 0.0000 27.5971 0.0000 -0.7160
# 5 -24.8401 -8.0006 -17.7171 0.0000 30.5681 0.0000
# 6 0.0000 0.0000 0.0000 -0.7160 0.0000 3.8937
#
#
#
# Elastic Compliance Matrix: (Units=1/GPa)
#
#
# Indices 1 2 3 4 5 6 
#
# 1 0.028950 0.003637 -0.006463 0.000000 0.020731 0.000000
# 2 0.003637 0.015529 -0.010095 0.000000 0.001169 0.000000
# 3 -0.006463 -0.010095 0.024365 0.000000 0.006227 0.000000
# 4 0.000000 0.000000 0.000000 0.036409 0.000000 0.006695
# 5 0.020731 0.001169 0.006227 0.000000 0.053475 0.000000
# 6 0.000000 0.000000 0.000000 0.006695 0.000000 0.258059
#
#
# Mechanical properties :
#
#
# Convention : Reuss Voigt Hill
#
# Bulk Modulus (GPa) = 23.25564 38.81253 31.03408
# Shear Modulus (GPa) = 10.94177 22.35827 16.65002
#
# Velocity S-wave (km/s) = 2.35918 3.37237 2.91021
# Velocity P-wave (km/s) = 4.38752 5.90817 5.20369
#
# Compressibility (1/GPa) = 0.04300033
#
# Stress axis : x y z
#
# Youngs Moduli (GPa) = 34.54208 64.39680 41.04287
#
# Poissons Ratio (x) = -0.23421 0.26528
# Poissons Ratio (y) = -0.12563 0.41434
# Poissons Ratio (z) = 0.22326 0.65011
#
# Static dielectric constant tensor:
#      x y z
#    x 1.689770 0.000000 -0.024900 
#    y 0.000000 1.711950 0.000000 
#    z -0.024900 0.000000 1.726250 
# 
# From -- ./inp_files/330003.got.cif
#   From: 2010.05.17/outbox.cif.g08.bks.cpg/sg12_166_cif.got.tgz:330003.got - 2010.06.03 13:09:07.
