data_PCOD9194839
_publ_section_title
;
Structure prediction by ZEFSAII (Michael W. Deem and Ramdas Pophale) SiO2 
 PCOD9194839
Probable space group: C 2/M
;
_chemical_formula_sum "Si O2"
_cell_formula_units_Z 64
_cell_length_a 15.825023
_cell_length_b 8.853396
_cell_length_c 31.206386
_cell_angle_alpha 90.000000
_cell_angle_beta 129.971943
_cell_angle_gamma 90.000000
_cell_volume 3350.657552
_symmetry_space_group_name_H-M "C 2/M"
_symmetry_group_IT_number 12
_symmetry_cell_setting 'monoclinic'
loop_
_space_group_symop_operation_xyz
x,y,z
-x,y,-z
-x,-y,-z
x,-y,z
1/2+x,1/2+y,z
1/2-x,1/2+y,-z
1/2-x,1/2-y,-z
1/2+x,1/2-y,z
loop_
_atom_site_type_symbol
_atom_site_label
_atom_site_fract_x
_atom_site_fract_y
_atom_site_fract_z
Si Si1 0.140746 0.320961 0.444190
Si Si2 0.758873 0.820303 0.673190
Si Si3 0.747056 0.319395 0.067538
Si Si4 0.423241 0.817771 0.054716
Si Si5 0.677795 0.681029 0.735922
Si Si6 0.321161 0.181444 0.866151
Si Si7 0.948079 0.179491 0.436483
Si Si8 0.060680 0.321441 0.323500
O O1 0.136140 0.500000 0.451930
O O2 0.250000 0.250000 0.500000
O O3 0.131783 0.302287 0.390231
O O4 0.036339 0.238173 0.430937
O O5 0.725003 0.750887 0.707721
O O6 0.664995 0.765390 0.609389
O O7 0.874357 0.756771 0.693817
O O8 0.760063 0.000000 0.675930
O O9 0.740322 0.500000 0.066739
O O10 0.858089 0.278284 0.077312
O O11 0.737058 0.253900 0.111695
O O12 0.646182 0.254803 0.006423
O O13 0.550643 0.771062 0.095082
O O14 0.418734 0.000000 0.048816
O O15 0.670548 0.500000 0.729004
O O16 0.757275 0.717305 0.801681
O O17 0.557713 0.748408 0.706474
O O18 0.319795 0.000000 0.870961
O O19 0.000000 0.208102 0.500000
O O20 0.929965 0.000000 0.426161
O O21 0.048939 0.500000 0.311949
#
# Coordination Sequence:
#
# PCOD9194839 Si02
#       8
#     8   8   8   8   8   8   8   8
#     4  11  23  38  60  90 123 158 199 248 306 371
#     4  12  25  42  65  92 122 161 205 252 311 372
#     4  10  20  34  57  90 123 159 204 253 303 355
#     4   9  19  37  58  83 122 165 201 245 304 364
#     4  11  24  43  65  90 122 163 211 263 313 370
#     4  10  22  39  60  86 118 160 206 248 304 368
#     4  11  23  39  61  90 124 159 199 249 306 369
#     4  11  24  43  65  90 121 160 204 251 310 373
#
# _framework density 19.100729999999999
#
# number of rings (size 3 to 8) (size 9 to 14) (size 15 to 20)
#    0.000    1.375    1.250    4.125    0.000   10.000 
#    0.000    1.250    0.000    0.000    0.000    0.000 
#    0.000    0.000    0.000    0.000    0.000    0.000 
#
# Total GULP energy -178937.395179 kJ/mol
# GULP energy per Si atom -5591.793599 kJ/mol
# Density = 1.905726 g / cm^3
# Si number density = 19.100730 Si / 1000 Ang^3
#
#
#
# Elastic Constant Matrix: (Units=GPa)
#
#
# Indices 1 2 3 4 5 6 
#
# 1 132.9437 59.5049 43.3446 0.0000 -20.0370 0.0000
# 2 59.5049 84.0493 52.7154 0.0000 -17.2525 0.0000
# 3 43.3446 52.7154 68.7637 0.0000 -19.7798 0.0000
# 4 0.0000 0.0000 0.0000 25.3608 0.0000 -3.6916
# 5 -20.0370 -17.2525 -19.7798 0.0000 19.1290 0.0000
# 6 0.0000 0.0000 0.0000 -3.6916 0.0000 33.5991
#
#
#
# Elastic Compliance Matrix: (Units=1/GPa)
#
#
# Indices 1 2 3 4 5 6 
#
# 1 0.011519 -0.006675 -0.000576 0.000000 0.005450 0.000000
# 2 -0.006675 0.026957 -0.016334 0.000000 0.000431 0.000000
# 3 -0.000576 -0.016334 0.032760 0.000000 0.018540 0.000000
# 4 0.000000 0.000000 0.000000 0.040072 0.000000 0.004403
# 5 0.005450 0.000431 0.018540 0.000000 0.077545 0.000000
# 6 0.000000 0.000000 0.000000 0.004403 0.000000 0.030246
#
#
# Mechanical properties :
#
#
# Convention : Reuss Voigt Hill
#
# Bulk Modulus (GPa) = 41.55231 66.32074 53.93652
# Shear Modulus (GPa) = 18.22883 24.29723 21.26303
#
# Velocity S-wave (km/s) = 3.09261 3.57046 3.34009
# Velocity P-wave (km/s) = 5.87825 7.19684 6.57071
#
# Compressibility (1/GPa) = 0.02406605
#
# Stress axis : x y z
#
# Youngs Moduli (GPa) = 86.81351 37.09662 30.52471
#
# Poissons Ratio (x) = 0.24763 0.01758
# Poissons Ratio (y) = 0.57951 0.49858
# Poissons Ratio (z) = 0.04999 0.60593
#
# Static dielectric constant tensor:
#      x y z
#    x 1.639410 0.000000 -0.011000 
#    y 0.000000 1.636530 0.000000 
#    z -0.011000 0.000000 1.642840 
# 
# From -- ./inp_files/375600.got.cif
#   From: 2010.05.17/outbox.cif.g08.bks.cpg/sg12_188_cif.got.tgz:375600.got - 2010.06.03 13:09:07.
