data_PCOD9194459
_publ_section_title
;
Structure prediction by ZEFSAII (Michael W. Deem and Ramdas Pophale) SiO2 
 PCOD9194459
Probable space group: C 2/M
;
_chemical_formula_sum "Si O2"
_cell_formula_units_Z 56
_cell_length_a 34.184255
_cell_length_b 8.800898
_cell_length_c 15.299148
_cell_angle_alpha 90.000000
_cell_angle_beta 45.859023
_cell_angle_gamma 90.000000
_cell_volume 3303.086719
_symmetry_space_group_name_H-M "C 2/M"
_symmetry_group_IT_number 12
_symmetry_cell_setting 'monoclinic'
loop_
_space_group_symop_operation_xyz
x,y,z
-x,y,-z
-x,-y,-z
x,-y,z
1/2+x,1/2+y,z
1/2-x,1/2+y,-z
1/2-x,1/2-y,-z
1/2+x,1/2-y,z
loop_
_atom_site_type_symbol
_atom_site_label
_atom_site_fract_x
_atom_site_fract_y
_atom_site_fract_z
Si Si1 0.185346 0.317905 0.740976
Si Si2 0.323615 0.319218 0.954174
Si Si3 0.099070 0.319065 0.029283
Si Si4 0.507182 0.317562 0.887305
Si Si5 0.791341 0.819394 0.810260
Si Si6 0.867873 0.817778 0.349464
Si Si7 0.302417 0.181006 0.609821
O O1 0.191793 0.500000 0.726852
O O2 0.165003 0.254498 0.680155
O O3 0.242350 0.243091 0.678925
O O4 0.139811 0.282032 0.885100
O O5 0.317146 0.500000 0.976198
O O6 0.375812 0.260195 0.924684
O O7 0.323074 0.288185 0.851255
O O8 0.270477 0.236478 0.076491
O O9 0.099399 0.500000 0.040059
O O10 0.039493 0.261020 0.096596
O O11 0.499946 0.500000 0.893764
O O12 0.568330 0.281105 0.762158
O O13 0.500000 0.272436 0.000000
O O14 0.813831 0.735052 0.690646
O O15 0.790727 0.000000 0.795704
O O16 0.844022 0.752872 0.476085
O O17 0.861652 0.000000 0.356442
O O18 0.302985 0.000000 0.602935
#
# Coordination Sequence:
#
# PCOD9194459 Si02
#       7
#     8   8   8   8   8   8   8
#     4  11  22  36  54  81 115 150 186 227 274 330
#     4  10  20  34  56  83 113 146 182 226 276 331
#     4  11  22  34  56  84 116 149 181 228 277 325
#     4  10  21  38  59  81 107 144 189 232 276 325
#     4  10  20  35  55  82 113 145 183 227 276 330
#     4  11  23  39  58  79 110 150 189 233 277 330
#     4  12  24  37  56  81 113 152 187 228 277 334
#
# _framework density 16.953838000000001
#
# number of rings (size 3 to 8) (size 9 to 14) (size 15 to 20)
#    0.000    1.286    2.857    3.857    0.000    4.286 
#    0.000    0.000    0.000    0.857    0.000    6.000 
#    0.000    0.000    0.000    0.000    0.000    0.000 
#
# Total GULP energy -156508.446240 kJ/mol
# GULP energy per Si atom -5589.587366 kJ/mol
# Density = 1.691525 g / cm^3
# Si number density = 16.953838 Si / 1000 Ang^3
#
#
#
# Elastic Constant Matrix: (Units=GPa)
#
#
# Indices 1 2 3 4 5 6 
#
# 1 105.7926 38.1838 41.8528 0.0000 13.9047 0.0000
# 2 38.1838 62.6917 45.6899 0.0000 5.6573 0.0001
# 3 41.8528 45.6899 97.5971 0.0000 10.1412 0.0000
# 4 0.0000 0.0000 0.0000 24.0785 0.0000 0.7151
# 5 13.9047 5.6573 10.1412 0.0000 19.5517 0.0000
# 6 0.0000 0.0001 0.0000 0.7151 0.0000 31.6225
#
#
#
# Elastic Compliance Matrix: (Units=1/GPa)
#
#
# Indices 1 2 3 4 5 6 
#
# 1 0.013342 -0.005860 -0.002292 0.000000 -0.006604 0.000000
# 2 -0.005860 0.026812 -0.010217 0.000000 0.001709 0.000000
# 3 -0.002292 -0.010217 0.016420 0.000000 -0.003931 0.000000
# 4 0.000000 0.000000 0.000000 0.041559 0.000000 -0.000940
# 5 -0.006604 0.001709 -0.003931 0.000000 0.057388 0.000000
# 6 0.000000 0.000000 0.000000 -0.000940 0.000000 0.031644
#
#
# Mechanical properties :
#
#
# Convention : Reuss Voigt Hill
#
# Bulk Modulus (GPa) = 50.40965 57.50383 53.95674
# Shear Modulus (GPa) = 21.69055 24.40753 23.04904
#
# Velocity S-wave (km/s) = 3.58073 3.79838 3.69116
# Velocity P-wave (km/s) = 6.84789 7.29578 7.07538
#
# Compressibility (1/GPa) = 0.01983747
#
# Stress axis : x y z
#
# Youngs Moduli (GPa) = 74.94969 37.29681 60.89990
#
# Poissons Ratio (x) = 0.21856 0.13958
# Poissons Ratio (y) = 0.43921 0.62219
# Poissons Ratio (z) = 0.17178 0.38104
#
# Static dielectric constant tensor:
#      x y z
#    x 1.556300 0.000000 0.014460 
#    y 0.000000 1.563740 0.000000 
#    z 0.014460 0.000000 1.554380 
# 
# From -- ./inp_files/237470.got.cif
#   From: 2010.05.17/outbox.cif.g08.bks.cpg/sg12_119_cif.got.tgz:237470.got - 2010.06.03 13:09:07.
