data_PCOD9194090
_publ_section_title
;
Structure prediction by ZEFSAII (Michael W. Deem and Ramdas Pophale) SiO2 
 PCOD9194090
Probable space group: C 2/M
;
_chemical_formula_sum "Si O2"
_cell_formula_units_Z 64
_cell_length_a 11.945169
_cell_length_b 13.175366
_cell_length_c 26.922972
_cell_angle_alpha 90.000000
_cell_angle_beta 40.585944
_cell_angle_gamma 90.000000
_cell_volume 2756.664977
_symmetry_space_group_name_H-M "C 2/M"
_symmetry_group_IT_number 12
_symmetry_cell_setting 'monoclinic'
loop_
_space_group_symop_operation_xyz
x,y,z
-x,y,-z
-x,-y,-z
x,-y,z
1/2+x,1/2+y,z
1/2-x,1/2+y,-z
1/2-x,1/2-y,-z
1/2+x,1/2-y,z
loop_
_atom_site_type_symbol
_atom_site_label
_atom_site_fract_x
_atom_site_fract_y
_atom_site_fract_z
Si Si1 0.488100 0.890483 0.160481
Si Si2 0.702130 0.391834 0.695736
Si Si3 0.041221 0.831128 0.541843
Si Si4 0.661581 0.161042 0.681938
Si Si5 0.921960 0.645149 0.399085
Si Si6 0.325415 0.331677 0.089196
Si Si7 0.704861 0.888688 0.921335
Si Si8 0.466491 0.339415 0.142007
O O1 0.415597 0.876792 0.240682
O O2 0.691129 0.889325 0.100845
O O3 0.452043 0.783887 0.145619
O O4 0.433642 0.000000 0.157740
O O5 0.642947 0.500000 0.693633
O O6 0.668642 0.284806 0.680092
O O7 0.614962 0.377744 0.779187
O O8 0.907779 0.398603 0.633584
O O9 0.070402 0.757268 0.579011
O O10 0.224154 0.887395 0.475674
O O11 0.000000 0.783926 0.500000
O O12 0.856676 0.880733 0.613683
O O13 0.560171 0.135245 0.666130
O O14 0.254907 0.216060 0.120556
O O15 0.364886 0.378205 0.128918
O O16 0.500000 0.323225 0.000000
O O17 0.833054 0.872842 0.925075
O O18 0.747552 0.000000 0.886039
O O19 0.500000 0.889765 0.000000
#
# Coordination Sequence:
#
# PCOD9194090 Si02
#       8
#     8   8   8   8   8   8   8   8
#     4  10  22  38  56  80 108 141 182 225 269 321
#     4  10  20  34  55  81 107 140 183 226 269 320
#     4   8  15  29  51  77 107 145 181 216 263 314
#     4   9  18  33  54  79 109 143 180 223 269 318
#     4   9  16  29  53  79 108 144 180 217 266 316
#     4  10  22  38  56  81 110 139 176 223 272 323
#     4   9  19  35  55  78 103 134 172 212 258 316
#     4  10  21  38  57  78 109 144 177 221 275 323
#
# _framework density 23.216459
#
# number of rings (size 3 to 8) (size 9 to 14) (size 15 to 20)
#    0.000    2.625    0.000    1.125    0.000    7.750 
#    0.000    3.125    0.000   55.500    0.000    0.000 
#    0.000    0.000    0.000    0.000    0.000    0.000 
#
# Total GULP energy -178227.513198 kJ/mol
# GULP energy per Si atom -5569.609787 kJ/mol
# Density = 2.316362 g / cm^3
# Si number density = 23.216459 Si / 1000 Ang^3
#
#
#
# Elastic Constant Matrix: (Units=GPa)
#
#
# Indices 1 2 3 4 5 6 
#
# 1 42.6429 -5.8654 -4.6742 0.0000 12.1968 0.0000
# 2 -5.8654 144.0368 -3.3154 0.0000 -0.9059 0.0000
# 3 -4.6742 -3.3154 59.6917 0.0001 -13.8880 0.0000
# 4 0.0000 0.0000 0.0001 -31.3163 0.0000 1.8678
# 5 12.1968 -0.9059 -13.8880 0.0000 19.2415 0.0000
# 6 0.0000 0.0000 0.0000 1.8678 0.0000 -17.4018
#
#
#
# Elastic Compliance Matrix: (Units=1/GPa)
#
#
# Indices 1 2 3 4 5 6 
#
# 1 0.029072 0.001004 -0.002337 0.000000 -0.020068 0.000000
# 2 0.001004 0.006995 0.000476 0.000000 0.000036 0.000000
# 3 -0.002337 0.000476 0.020366 0.000000 0.016203 0.000000
# 4 0.000000 0.000000 0.000000 -0.032138 0.000000 -0.003450
# 5 -0.020068 0.000036 0.016203 0.000000 0.076388 0.000000
# 6 0.000000 0.000000 0.000000 -0.003450 0.000000 -0.057836
#
#
# Mechanical properties :
#
#
# Convention : Reuss Voigt Hill
#
# Bulk Modulus (GPa) = 18.27536 24.29571 21.28553
# Shear Modulus (GPa) = 79.61578 11.45312 45.53445
#
# Velocity S-wave (km/s) = 5.86236 2.22349 4.43346
# Velocity P-wave (km/s) = 7.32884 4.13273 5.94942
#
# Compressibility (1/GPa) = 0.05471848
#
# Stress axis : x y z
#
# Youngs Moduli (GPa) = 34.39707 142.96494 49.10122
#
# Poissons Ratio (x) = -0.14352 0.11473
# Poissons Ratio (y) = -0.03453 -0.02335
# Poissons Ratio (z) = 0.08038 -0.06799
#
# Static dielectric constant tensor:
#      x y z
#    x 1.855970 0.000000 -0.039270 
#    y 0.000000 1.958470 0.000000 
#    z -0.039270 0.000000 1.884750 
# 
# From -- ./inp_files/374077.got.cif
#   From: 2010.05.17/outbox.cif.g08.bks.cpg/sg12_188_cif.got.tgz:374077.got - 2010.06.03 13:09:07.
