data_PCOD9194115
_publ_section_title
;
Structure prediction by ZEFSAII (Michael W. Deem and Ramdas Pophale) SiO2 
 PCOD9194115
Probable space group: C 2/M
;
_chemical_formula_sum "Si O2"
_cell_formula_units_Z 48
_cell_length_a 19.518144
_cell_length_b 7.700431
_cell_length_c 13.391564
_cell_angle_alpha 90.000000
_cell_angle_beta 79.155561
_cell_angle_gamma 90.000000
_cell_volume 1976.782868
_symmetry_space_group_name_H-M "C 2/M"
_symmetry_group_IT_number 12
_symmetry_cell_setting 'monoclinic'
loop_
_space_group_symop_operation_xyz
x,y,z
-x,y,-z
-x,-y,-z
x,-y,z
1/2+x,1/2+y,z
1/2-x,1/2+y,-z
1/2-x,1/2-y,-z
1/2+x,1/2-y,z
loop_
_atom_site_type_symbol
_atom_site_label
_atom_site_fract_x
_atom_site_fract_y
_atom_site_fract_z
Si Si1 0.751784 0.698900 0.689101
Si Si2 0.985237 0.287385 0.347115
Si Si3 0.421035 0.208963 0.987961
Si Si4 0.798381 0.801491 0.891941
Si Si5 0.888385 0.287926 0.558152
Si Si6 0.392614 0.200662 0.205337
O O1 0.738033 0.500000 0.665562
O O2 0.782917 0.702854 0.793331
O O3 0.810604 0.773994 0.600032
O O4 0.677654 0.790997 0.712485
O O5 0.986020 0.500000 0.344357
O O6 0.928254 0.237629 0.446636
O O7 0.956618 0.222516 0.249730
O O8 0.060313 0.232544 0.365958
O O9 0.379895 0.271104 0.098751
O O10 0.418349 0.000000 0.973913
O O11 0.500000 0.252192 0.000000
O O12 0.378351 0.282623 0.906733
O O13 0.781409 0.000000 0.873330
O O14 0.750000 0.750000 0.000000
O O15 0.886203 0.500000 0.559809
O O16 0.410962 0.000000 0.183045
#
# Coordination Sequence:
#
# PCOD9194115 Si02
#       6
#     8   8   8   8   8   8
#     4  11  22  35  56  83 113 148 186 230 280 336
#     4   8  15  31  54  81 110 142 185 234 274 322
#     4  10  22  38  58  85 116 150 188 227 276 337
#     4  12  24  40  60  82 112 150 188 233 282 334
#     4   8  16  31  54  82 109 141 186 231 275 325
#     4  10  20  34  55  81 113 148 184 229 278 327
#
# _framework density 24.281874999999999
#
# number of rings (size 3 to 8) (size 9 to 14) (size 15 to 20)
#    0.000    2.167    1.667    3.000    2.333    1.000 
#    0.000    0.000    0.000    1.000    0.000    5.833 
#    0.000    0.000    0.000    0.000    0.000    0.000 
#
# Total GULP energy -134071.819702 kJ/mol
# GULP energy per Si atom -5586.325821 kJ/mol
# Density = 2.422661 g / cm^3
# Si number density = 24.281875 Si / 1000 Ang^3
#
#
#
# Elastic Constant Matrix: (Units=GPa)
#
#
# Indices 1 2 3 4 5 6 
#
# 1 70.4943 -8.6690 -2.4217 0.0000 -1.0069 0.0000
# 2 -8.6690 51.1329 -4.9418 0.0000 -3.2105 0.0000
# 3 -2.4217 -4.9418 15.9648 0.0000 11.5362 0.0000
# 4 0.0000 0.0000 0.0000 4.7908 0.0000 -6.0841
# 5 -1.0069 -3.2105 11.5362 0.0000 48.3982 0.0000
# 6 0.0000 0.0000 0.0000 -6.0841 0.0000 13.6075
#
#
#
# Elastic Compliance Matrix: (Units=1/GPa)
#
#
# Indices 1 2 3 4 5 6 
#
# 1 0.014637 0.002781 0.003295 0.000000 -0.000296 0.000000
# 2 0.002781 0.020690 0.006998 0.000000 -0.000238 0.000000
# 3 0.003295 0.006998 0.078427 0.000000 -0.018161 0.000000
# 4 0.000000 0.000000 0.000000 0.482967 0.000000 0.215942
# 5 -0.000296 -0.000238 -0.018161 0.000000 0.024969 0.000000
# 6 0.000000 0.000000 0.000000 0.215942 0.000000 0.170040
#
#
# Mechanical properties :
#
#
# Convention : Reuss Voigt Hill
#
# Bulk Modulus (GPa) = 7.14779 11.72523 9.43651
# Shear Modulus (GPa) = 6.15601 23.60092 14.87847
#
# Velocity S-wave (km/s) = 1.59397 3.12100 2.47804
# Velocity P-wave (km/s) = 2.51748 4.22218 3.47596
#
# Compressibility (1/GPa) = 0.13990332
#
# Stress axis : x y z
#
# Youngs Moduli (GPa) = 68.32209 48.33295 12.75067
#
# Poissons Ratio (x) = -0.13443 -0.04202
# Poissons Ratio (y) = -0.19003 -0.08923
# Poissons Ratio (z) = -0.22515 -0.33824
#
# Static dielectric constant tensor:
#      x y z
#    x 1.947680 0.000000 -0.029110 
#    y 0.000000 1.921240 0.000000 
#    z -0.029110 0.000000 1.968780 
# 
# From -- ./inp_files/221650.got.cif
#   From: 2010.05.17/outbox.cif.g08.bks.cpg/sg12_111_cif.got.tgz:221650.got - 2010.06.03 13:09:07.
