data_PCOD9194439
_publ_section_title
;
Structure prediction by ZEFSAII (Michael W. Deem and Ramdas Pophale) SiO2 
 PCOD9194439
Probable space group: C 2/M
;
_chemical_formula_sum "Si O2"
_cell_formula_units_Z 58
_cell_length_a 30.127743
_cell_length_b 9.323679
_cell_length_c 23.745453
_cell_angle_alpha 90.000000
_cell_angle_beta 153.126155
_cell_angle_gamma 90.000000
_cell_volume 3015.083119
_symmetry_space_group_name_H-M "C 2/M"
_symmetry_group_IT_number 12
_symmetry_cell_setting 'monoclinic'
loop_
_space_group_symop_operation_xyz
x,y,z
-x,y,-z
-x,-y,-z
x,-y,z
1/2+x,1/2+y,z
1/2-x,1/2+y,-z
1/2-x,1/2-y,-z
1/2+x,1/2-y,z
loop_
_atom_site_type_symbol
_atom_site_label
_atom_site_fract_x
_atom_site_fract_y
_atom_site_fract_z
Si Si1 0.426109 0.330954 0.772507
Si Si2 0.759460 0.666834 0.650195
Si Si3 0.571717 0.334103 0.355356
Si Si4 0.446853 0.833903 0.300081
Si Si5 0.596720 0.154668 0.008375
Si Si6 0.000000 0.500000 0.000000
Si Si7 0.633205 0.832926 0.595140
Si Si8 0.828247 0.167240 0.251679
O O1 0.410245 0.500000 0.762938
O O2 0.353598 0.239492 0.729369
O O3 0.408140 0.296860 0.686503
O O4 0.535152 0.281669 0.911683
O O5 0.780276 0.500000 0.687665
O O6 0.671639 0.673420 0.504865
O O7 0.718914 0.752899 0.657638
O O8 0.538485 0.500000 0.319762
O O9 0.491255 0.234546 0.293866
O O10 0.537076 0.825893 0.447034
O O11 0.360556 0.742019 0.230416
O O12 0.420404 0.000000 0.262958
O O13 0.572289 0.000000 0.951587
O O14 0.558956 0.123139 0.028913
O O15 0.712202 0.176736 0.132628
O O16 0.620619 0.751025 0.639271
O O17 0.655850 0.000000 0.630578
O O18 0.856477 0.000000 0.283296
#
# Coordination Sequence:
#
# PCOD9194439 Si02
#       8
#     8   8   8   8   8   2   8   8
#     4  11  22  36  57  85 115 144 186 238 283 333
#     4  10  20  34  56  82 114 152 186 223 279 342
#     4   9  20  38  57  82 113 148 187 232 280 334
#     4  10  21  37  57  82 115 149 186 232 283 334
#     4   9  22  39  60  79 108 147 188 228 272 326
#     4   8  20  44  62  76 114 148 190 236 266 324
#     4  10  21  35  54  84 116 147 185 232 283 335
#     4  11  22  36  57  83 111 148 191 232 278 339
#
# _framework density 19.236616999999999
#
# number of rings (size 3 to 8) (size 9 to 14) (size 15 to 20)
#    0.414    1.655    0.000    2.897    1.931    6.069 
#    0.000    1.034    0.000    0.000    0.000    0.000 
#    0.000    0.000    0.000    0.000    0.000    0.000 
#
# Total GULP energy -161642.342379 kJ/mol
# GULP energy per Si atom -5573.873875 kJ/mol
# Density = 1.919283 g / cm^3
# Si number density = 19.236617 Si / 1000 Ang^3
#
#
#
# Elastic Constant Matrix: (Units=GPa)
#
#
# Indices 1 2 3 4 5 6 
#
# 1 67.6232 48.3644 18.0616 0.0000 24.2092 0.0000
# 2 48.3644 113.4334 27.6669 0.0000 20.1178 0.0000
# 3 18.0616 27.6669 21.5736 0.0000 11.2156 0.0000
# 4 0.0000 0.0000 0.0000 27.4127 0.0000 4.0494
# 5 24.2092 20.1178 11.2156 0.0000 22.4004 0.0000
# 6 0.0000 0.0000 0.0000 4.0494 0.0000 31.9698
#
#
#
# Elastic Compliance Matrix: (Units=1/GPa)
#
#
# Indices 1 2 3 4 5 6 
#
# 1 0.029460 -0.007784 -0.002384 0.000000 -0.023654 0.000000
# 2 -0.007784 0.015220 -0.013883 0.000000 0.001695 0.000000
# 3 -0.002384 -0.013883 0.078858 0.000000 -0.024438 0.000000
# 4 0.000000 0.000000 0.000000 0.037175 0.000000 -0.004709
# 5 -0.023654 0.001695 -0.024438 0.000000 0.080920 0.000000
# 6 0.000000 0.000000 0.000000 -0.004709 0.000000 0.031876
#
#
# Mechanical properties :
#
#
# Convention : Reuss Voigt Hill
#
# Bulk Modulus (GPa) = 13.25634 43.42401 28.34017
# Shear Modulus (GPa) = 14.41926 23.59240 19.00583
#
# Velocity S-wave (km/s) = 2.74080 3.50584 3.14666
# Velocity P-wave (km/s) = 4.11366 6.24584 5.28832
#
# Compressibility (1/GPa) = 0.07543559
#
# Stress axis : x y z
#
# Youngs Moduli (GPa) = 33.94400 65.70165 12.68100
#
# Poissons Ratio (x) = 0.51144 0.03023
# Poissons Ratio (y) = 0.26423 0.17605
# Poissons Ratio (z) = 0.08093 0.91214
#
# Static dielectric constant tensor:
#      x y z
#    x 1.654040 0.000000 -0.006640 
#    y 0.000000 1.648980 0.000000 
#    z -0.006640 0.000000 1.689400 
# 
# From -- ./inp_files/351518.got.cif
#   From: 2010.05.17/outbox.cif.g08.bks.cpg/sg12_176_cif.got.tgz:351518.got - 2010.06.03 13:09:07.
