data_PCOD9194540
_publ_section_title
;
Structure prediction by ZEFSAII (Michael W. Deem and Ramdas Pophale) SiO2 
 PCOD9194540
Probable space group: C 2/M
;
_chemical_formula_sum "Si O2"
_cell_formula_units_Z 48
_cell_length_a 24.310619
_cell_length_b 21.825363
_cell_length_c 8.666705
_cell_angle_alpha 90.000000
_cell_angle_beta 29.227663
_cell_angle_gamma 90.000000
_cell_volume 2245.336229
_symmetry_space_group_name_H-M "C 2/M"
_symmetry_group_IT_number 12
_symmetry_cell_setting 'monoclinic'
loop_
_space_group_symop_operation_xyz
x,y,z
-x,y,-z
-x,-y,-z
x,-y,z
1/2+x,1/2+y,z
1/2-x,1/2+y,-z
1/2-x,1/2-y,-z
1/2+x,1/2-y,z
loop_
_atom_site_type_symbol
_atom_site_label
_atom_site_fract_x
_atom_site_fract_y
_atom_site_fract_z
Si Si1 0.687072 0.334297 0.845394
Si Si2 0.578558 0.125333 0.676819
Si Si3 0.996186 0.259635 0.323589
Si Si4 0.628047 0.069337 0.245308
Si Si5 0.332719 0.651942 0.737181
Si Si6 0.475595 0.569692 0.878123
O O1 0.819323 0.336760 0.496334
O O2 0.608019 0.276929 0.998395
O O3 0.670195 0.343012 0.070782
O O4 0.635430 0.392247 0.885402
O O5 0.513743 0.175989 0.734483
O O6 0.624133 0.077243 0.440425
O O7 0.500000 0.098091 0.000000
O O8 0.885187 0.217388 0.556923
O O9 0.000000 0.266021 0.500000
O O10 0.500000 0.075612 0.500000
O O11 0.667105 0.000000 0.109261
O O12 0.712055 0.123675 0.983385
O O13 0.424844 0.603144 0.457345
O O14 0.465407 0.500000 0.853067
O O15 0.500000 0.571994 0.000000
#
# Coordination Sequence:
#
# PCOD9194540 Si02
#       6
#     8   8   8   8   8   8
#     4   9  21  38  56  81 110 145 190 232 275 334
#     4  11  24  38  56  84 116 154 190 227 283 334
#     4   9  19  37  60  85 111 141 184 237 284 334
#     4  10  22  39  59  83 112 153 199 233 270 329
#     4   9  19  37  61  85 110 144 188 236 284 333
#     4  10  20  34  56  85 113 142 179 233 295 338
#
# _framework density 21.377644
#
# number of rings (size 3 to 8) (size 9 to 14) (size 15 to 20)
#    0.000    2.333    0.000    2.500    0.000   16.333 
#    0.000    1.667    0.000    0.000    0.000    0.000 
#    0.000    0.000    0.000    0.000    0.000    0.000 
#
# Total GULP energy -133962.928965 kJ/mol
# GULP energy per Si atom -5581.788707 kJ/mol
# Density = 2.132899 g / cm^3
# Si number density = 21.377644 Si / 1000 Ang^3
#
#
#
# Elastic Constant Matrix: (Units=GPa)
#
#
# Indices 1 2 3 4 5 6 
#
# 1 11.9294 2.7725 7.3854 0.0000 -25.8019 0.0001
# 2 2.7725 51.0840 -18.8379 0.0000 -7.4296 0.0002
# 3 7.3854 -18.8379 54.0825 -0.0002 -11.4276 -0.0012
# 4 0.0000 0.0000 -0.0002 -2.6115 0.0001 -29.0919
# 5 -25.8019 -7.4296 -11.4276 0.0001 22.1355 0.0005
# 6 0.0001 0.0002 -0.0012 -29.0919 0.0005 -61.3157
#
#
#
# Elastic Compliance Matrix: (Units=1/GPa)
#
#
# Indices 1 2 3 4 5 6 
#
# 1 -0.047929 -0.010971 -0.011067 -0.000001 -0.065263 0.000000
# 2 -0.010971 0.023859 0.009876 0.000000 0.000318 0.000000
# 3 -0.011067 0.009876 0.024039 -0.000001 0.002825 0.000000
# 4 -0.000001 0.000000 -0.000001 0.089354 -0.000001 -0.042395
# 5 -0.065263 0.000318 0.002825 -0.000001 -0.029331 0.000000
# 6 0.000000 0.000000 0.000000 -0.042395 0.000000 0.003806
#
#
# Mechanical properties :
#
#
# Convention : Reuss Voigt Hill
#
# Bulk Modulus (GPa) = -41.05982 11.08174 -14.98904
# Shear Modulus (GPa) = 62.49743 0.02671 31.26207
#
# Velocity S-wave (km/s) = 5.41280 0.11190 3.82825
# Velocity P-wave (km/s) = 4.45151 2.28293 3.53749
#
# Compressibility (1/GPa) = -0.02435471
#
# Stress axis : x y z
#
# Youngs Moduli (GPa) = -20.86432 41.91245 41.59987
#
# Poissons Ratio (x) = 0.45984 0.46037
# Poissons Ratio (y) = -0.22891 -0.41084
# Poissons Ratio (z) = -0.23090 -0.41393
#
# Static dielectric constant tensor:
#      x y z
#    x 1.767430 0.000000 -0.036100 
#    y 0.000000 1.766390 0.000000 
#    z -0.036100 0.000000 1.797910 
# 
# From -- ./inp_files/99747.got.cif
#   From: 2010.05.17/outbox.cif.g08.bks.cpg/sg12_50_cif.got.tgz:99747.got - 2010.06.03 13:09:07.
