data_PCOD9194677
_publ_section_title
;
Structure prediction by ZEFSAII (Michael W. Deem and Ramdas Pophale) SiO2 
 PCOD9194677
Probable space group: C 2/M
;
_chemical_formula_sum "Si O2"
_cell_formula_units_Z 56
_cell_length_a 24.228393
_cell_length_b 7.791094
_cell_length_c 15.034271
_cell_angle_alpha 90.000000
_cell_angle_beta 108.708123
_cell_angle_gamma 90.000000
_cell_volume 2688.010645
_symmetry_space_group_name_H-M "C 2/M"
_symmetry_group_IT_number 12
_symmetry_cell_setting 'monoclinic'
loop_
_space_group_symop_operation_xyz
x,y,z
-x,y,-z
-x,-y,-z
x,-y,z
1/2+x,1/2+y,z
1/2-x,1/2+y,-z
1/2-x,1/2-y,-z
1/2+x,1/2-y,z
loop_
_atom_site_type_symbol
_atom_site_label
_atom_site_fract_x
_atom_site_fract_y
_atom_site_fract_z
Si Si1 0.180994 0.699237 0.281781
Si Si2 0.565428 0.698661 0.936096
Si Si3 0.592925 0.707940 0.758888
Si Si4 0.150601 0.801007 0.456749
Si Si5 0.191317 0.789233 0.672279
Si Si6 0.434581 0.198082 0.866367
Si Si7 0.519838 0.796413 0.412375
O O1 0.179703 0.500000 0.253302
O O2 0.178773 0.708577 0.387269
O O3 0.242481 0.770887 0.280678
O O4 0.121009 0.774766 0.212908
O O5 0.581422 0.500000 0.958345
O O6 0.495776 0.708480 0.883326
O O7 0.423006 0.795464 0.966142
O O8 0.595342 0.766495 0.862214
O O9 0.593300 0.500000 0.760862
O O10 0.645861 0.766388 0.723810
O O11 0.532465 0.762428 0.682345
O O12 0.169621 0.734890 0.563314
O O13 0.080702 0.785914 0.415878
O O14 0.167561 0.000000 0.459389
O O15 0.191161 0.000000 0.671903
O O16 0.443379 0.000000 0.842577
O O17 0.500000 0.734046 0.500000
O O18 0.530173 0.000000 0.423446
#
# Coordination Sequence:
#
# PCOD9194677 Si02
#       7
#     8   8   8   8   8   8   8
#     4  10  21  37  56  78 107 143 182 223 266 315
#     4  10  20  34  57  83 106 133 170 221 270 316
#     4  10  20  36  57  80 108 144 181 217 265 321
#     4  11  21  34  56  80 106 144 184 224 265 313
#     4   9  19  36  55  76 107 146 183 217 261 318
#     4  10  20  35  56  79 106 138 172 216 269 323
#     4  11  22  34  51  78 111 142 174 219 267 312
#
# _framework density 20.833251000000001
#
# number of rings (size 3 to 8) (size 9 to 14) (size 15 to 20)
#    0.000    1.857    1.429    3.857    0.000    5.143 
#    0.000    2.143    0.000    0.000    0.000    0.000 
#    0.000    0.000    0.000    0.000    0.000    0.000 
#
# Total GULP energy -156454.287003 kJ/mol
# GULP energy per Si atom -5587.653107 kJ/mol
# Density = 2.078583 g / cm^3
# Si number density = 20.833251 Si / 1000 Ang^3
#
#
#
# Elastic Constant Matrix: (Units=GPa)
#
#
# Indices 1 2 3 4 5 6 
#
# 1 77.7806 -8.1697 34.8889 0.0000 1.0380 0.0000
# 2 -8.1697 33.0979 -5.0027 0.0000 4.5259 0.0000
# 3 34.8889 -5.0027 73.7872 0.0000 -16.6730 0.0000
# 4 0.0000 0.0000 0.0000 15.1549 0.0000 -0.9109
# 5 1.0380 4.5259 -16.6730 0.0000 20.1838 0.0000
# 6 0.0000 0.0000 0.0000 -0.9109 0.0000 -25.9162
#
#
#
# Elastic Compliance Matrix: (Units=1/GPa)
#
#
# Indices 1 2 3 4 5 6 
#
# 1 0.018312 0.004370 -0.010815 0.000000 -0.010855 0.000000
# 2 0.004370 0.032238 -0.001924 0.000000 -0.009043 0.000000
# 3 -0.010815 -0.001924 0.023064 0.000000 0.020040 0.000000
# 4 0.000000 0.000000 0.000000 0.065846 0.000000 -0.002314
# 5 -0.010855 -0.009043 0.020040 0.000000 0.068685 0.000000
# 6 0.000000 0.000000 0.000000 -0.002314 0.000000 -0.038505
#
#
# Mechanical properties :
#
#
# Convention : Reuss Voigt Hill
#
# Bulk Modulus (GPa) = 17.58232 25.34430 21.46331
# Shear Modulus (GPa) = 24.35040 12.74779 18.54909
#
# Velocity S-wave (km/s) = 3.42252 2.47634 2.98713
# Velocity P-wave (km/s) = 4.90673 4.51310 4.71403
#
# Compressibility (1/GPa) = 0.05687532
#
# Stress axis : x y z
#
# Youngs Moduli (GPa) = 54.61026 31.01954 43.35794
#
# Poissons Ratio (x) = -0.13554 0.46891
# Poissons Ratio (y) = -0.23863 0.08341
# Poissons Ratio (z) = 0.59060 0.05967
#
# Static dielectric constant tensor:
#      x y z
#    x 1.737860 0.000000 -0.004370 
#    y 0.000000 1.737750 0.000000 
#    z -0.004370 0.000000 1.739100 
# 
# From -- ./inp_files/237874.got.cif
#   From: 2010.05.17/outbox.cif.g08.bks.cpg/sg12_119_cif.got.tgz:237874.got - 2010.06.03 13:09:07.
