data_PCOD9194840
_publ_section_title
;
Structure prediction by ZEFSAII (Michael W. Deem and Ramdas Pophale) SiO2 
 PCOD9194840
Probable space group: C 2/M
;
_chemical_formula_sum "Si O2"
_cell_formula_units_Z 38
_cell_length_a 10.350058
_cell_length_b 21.018900
_cell_length_c 11.329018
_cell_angle_alpha 90.000000
_cell_angle_beta 38.708159
_cell_angle_gamma 90.000000
_cell_volume 1541.241934
_symmetry_space_group_name_H-M "C 2/M"
_symmetry_group_IT_number 12
_symmetry_cell_setting 'monoclinic'
loop_
_space_group_symop_operation_xyz
x,y,z
-x,y,-z
-x,-y,-z
x,-y,z
1/2+x,1/2+y,z
1/2-x,1/2+y,-z
1/2-x,1/2-y,-z
1/2+x,1/2-y,z
loop_
_atom_site_type_symbol
_atom_site_label
_atom_site_fract_x
_atom_site_fract_y
_atom_site_fract_z
Si Si1 0.256196 0.349471 0.217853
Si Si2 0.821483 0.068676 0.384562
Si Si3 0.257828 0.790536 0.160688
Si Si4 0.500000 0.000000 0.000000
Si Si5 0.500000 0.616049 0.500000
Si Si6 0.227442 0.403992 0.013104
O O1 0.233570 0.373179 0.368556
O O2 0.170882 0.279102 0.251033
O O3 0.155352 0.399397 0.198748
O O4 0.500000 0.350045 0.000000
O O5 0.880701 0.079342 0.480395
O O6 0.719059 0.000000 0.443038
O O7 0.049875 0.065127 0.163132
O O8 0.165858 0.839294 0.319851
O O9 0.500000 0.784046 0.000000
O O10 0.233688 0.830285 0.057056
O O11 0.423161 0.943890 0.962031
#
# Coordination Sequence:
#
# PCOD9194840 Si02
#       6
#     8   8   8   2   4   8
#     4   9  20  35  61  88 121 159 206 253 309 363
#     4  10  20  37  59  87 121 163 202 257 307 361
#     4  10  20  40  63  93 122 162 206 256 307 359
#     4  12  20  32  54  94 122 170 200 238 322 358
#     4  10  23  38  62  92 123 160 208 256 304 371
#     4  10  20  34  57  90 124 159 205 252 298 372
#
# _framework density 24.655439999999999
#
# number of rings (size 3 to 8) (size 9 to 14) (size 15 to 20)
#    0.000    2.105    2.105    0.947    1.474    3.789 
#    0.000    0.000    0.000    0.000    0.000    8.105 
#    0.000    0.000    0.000    0.000    0.000    0.000 
#
# Total GULP energy -105771.862680 kJ/mol
# GULP energy per Si atom -5566.940141 kJ/mol
# Density = 2.459932 g / cm^3
# Si number density = 24.655440 Si / 1000 Ang^3
#
#
#
# Elastic Constant Matrix: (Units=GPa)
#
#
# Indices 1 2 3 4 5 6 
#
# 1 97.5817 64.0110 11.7600 0.0001 30.9956 0.0000
# 2 64.0110 162.0271 11.3962 0.0000 23.8879 0.0000
# 3 11.7600 11.3962 76.0782 0.0001 20.2718 0.0000
# 4 0.0001 0.0000 0.0001 11.9518 -0.0001 -27.6294
# 5 30.9956 23.8879 20.2718 -0.0001 36.6801 0.0000
# 6 0.0000 0.0000 0.0000 -27.6294 0.0000 3.7402
#
#
#
# Elastic Compliance Matrix: (Units=1/GPa)
#
#
# Indices 1 2 3 4 5 6 
#
# 1 0.017266 -0.005150 0.001286 0.000000 -0.011947 0.000000
# 2 -0.005150 0.008366 -0.000193 0.000000 -0.000989 0.000000
# 3 0.001286 -0.000193 0.015515 0.000000 -0.009535 0.000000
# 4 0.000000 0.000000 0.000000 -0.005204 0.000000 -0.038445
# 5 -0.011947 -0.000989 -0.009535 0.000000 0.043272 0.000000
# 6 0.000000 0.000000 0.000000 -0.038445 0.000000 -0.016630
#
#
# Mechanical properties :
#
#
# Convention : Reuss Voigt Hill
#
# Bulk Modulus (GPa) = 30.27400 56.66904 43.47152
# Shear Modulus (GPa) = 61.19082 27.04241 44.11661
#
# Velocity S-wave (km/s) = 4.98721 3.31541 4.23463
# Velocity P-wave (km/s) = 6.74303 6.13924 6.44821
#
# Compressibility (1/GPa) = 0.03303165
#
# Stress axis : x y z
#
# Youngs Moduli (GPa) = 57.91699 119.53189 64.45217
#
# Poissons Ratio (x) = 0.61563 -0.08288
# Poissons Ratio (y) = 0.29829 0.01247
# Poissons Ratio (z) = -0.07447 0.02312
#
# Static dielectric constant tensor:
#      x y z
#    x 2.002290 0.000000 -0.025710 
#    y 0.000000 1.982490 0.000000 
#    z -0.025710 0.000000 1.996280 
# 
# From -- ./inp_files/133656.got.cif
#   From: 2010.05.17/outbox.cif.g08.bks.cpg/sg12_67_cif.got.tgz:133656.got - 2010.06.03 13:09:07.
