data_PCOD9194270
_publ_section_title
;
Structure prediction by ZEFSAII (Michael W. Deem and Ramdas Pophale) SiO2 
 PCOD9194270
Probable space group: C 2/M
;
_chemical_formula_sum "Si O2"
_cell_formula_units_Z 56
_cell_length_a 26.831632
_cell_length_b 8.806253
_cell_length_c 13.502557
_cell_angle_alpha 90.000000
_cell_angle_beta 112.895457
_cell_angle_gamma 90.000000
_cell_volume 2939.110131
_symmetry_space_group_name_H-M "C 2/M"
_symmetry_group_IT_number 12
_symmetry_cell_setting 'monoclinic'
loop_
_space_group_symop_operation_xyz
x,y,z
-x,y,-z
-x,-y,-z
x,-y,z
1/2+x,1/2+y,z
1/2-x,1/2+y,-z
1/2-x,1/2-y,-z
1/2+x,1/2-y,z
loop_
_atom_site_type_symbol
_atom_site_label
_atom_site_fract_x
_atom_site_fract_y
_atom_site_fract_z
Si Si1 0.087985 0.319224 0.113860
Si Si2 0.473972 0.318767 0.746579
Si Si3 0.882400 0.316745 0.552774
Si Si4 0.409938 0.680773 0.098073
Si Si5 0.807301 0.680157 0.681109
Si Si6 0.699521 0.182251 0.901827
Si Si7 0.697981 0.182598 0.672788
O O1 0.080340 0.500000 0.096980
O O2 0.051113 0.258707 0.174687
O O3 0.149816 0.291884 0.197311
O O4 0.077266 0.234763 0.003446
O O5 0.467687 0.500000 0.750272
O O6 0.438640 0.257970 0.627957
O O7 0.537592 0.283502 0.794657
O O8 0.888546 0.500000 0.560154
O O9 0.838922 0.276260 0.605346
O O10 0.855331 0.268938 0.428830
O O11 0.401321 0.500000 0.092085
O O12 0.356347 0.764158 0.092912
O O13 0.797226 0.500000 0.668518
O O14 0.751561 0.763759 0.657466
O O15 0.700260 0.234560 0.787912
O O16 0.702789 0.000000 0.906719
O O17 0.750000 0.250000 0.000000
O O18 0.697715 0.000000 0.672553
#
# Coordination Sequence:
#
# PCOD9194270 Si02
#       7
#     8   8   8   8   8   8   8
#     4  10  20  34  55  84 115 147 183 223 272 329
#     4  10  21  36  55  82 113 144 181 225 274 327
#     4   9  19  36  55  79 111 143 180 225 271 325
#     4  11  23  38  56  80 111 146 185 229 274 324
#     4   9  18  31  51  81 112 141 174 216 269 328
#     4  11  24  41  60  82 109 144 185 228 275 326
#     4  10  21  36  55  79 107 142 184 228 273 322
#
# _framework density 19.053388000000002
#
# number of rings (size 3 to 8) (size 9 to 14) (size 15 to 20)
#    0.000    2.000    0.000    4.286    0.000   10.857 
#    0.000    0.714    0.000    4.286    0.000    0.000 
#    0.000    0.000    0.000    0.000    0.000    0.000 
#
# Total GULP energy -156402.974032 kJ/mol
# GULP energy per Si atom -5585.820501 kJ/mol
# Density = 1.901002 g / cm^3
# Si number density = 19.053388 Si / 1000 Ang^3
#
#
#
# Elastic Constant Matrix: (Units=GPa)
#
#
# Indices 1 2 3 4 5 6 
#
# 1 70.3088 27.0094 49.8099 0.0000 29.3766 0.0000
# 2 27.0094 36.1179 42.1396 0.0000 13.3813 0.0000
# 3 49.8099 42.1396 153.8415 0.0000 21.9395 0.0000
# 4 0.0000 0.0000 0.0000 27.5561 0.0000 6.8630
# 5 29.3766 13.3813 21.9395 0.0000 22.9496 0.0000
# 6 0.0000 0.0000 0.0000 6.8630 0.0000 26.1869
#
#
#
# Elastic Compliance Matrix: (Units=1/GPa)
#
#
# Indices 1 2 3 4 5 6 
#
# 1 0.035753 -0.008322 -0.004008 0.000000 -0.037082 0.000000
# 2 -0.008322 0.047738 -0.009183 0.000000 -0.008403 0.000000
# 3 -0.004008 -0.009183 0.010210 0.000000 0.000725 0.000000
# 4 0.000000 0.000000 0.000000 0.038824 0.000000 -0.010175
# 5 -0.037082 -0.008403 0.000725 0.000000 0.095247 0.000000
# 6 0.000000 0.000000 0.000000 -0.010175 0.000000 0.040854
#
#
# Mechanical properties :
#
#
# Convention : Reuss Voigt Hill
#
# Bulk Modulus (GPa) = 19.73382 55.35401 37.54391
# Shear Modulus (GPa) = 15.21867 24.75913 19.98890
#
# Velocity S-wave (km/s) = 2.82926 3.60871 3.24249
# Velocity P-wave (km/s) = 4.58831 6.81754 5.81083
#
# Compressibility (1/GPa) = 0.05067442
#
# Stress axis : x y z
#
# Youngs Moduli (GPa) = 27.96973 20.94760 97.94220
#
# Poissons Ratio (x) = 0.17432 0.39257
# Poissons Ratio (y) = 0.23276 0.89945
# Poissons Ratio (z) = 0.11211 0.19237
#
# Static dielectric constant tensor:
#      x y z
#    x 1.632200 0.000000 0.007390 
#    y 0.000000 1.636350 0.000000 
#    z 0.007390 0.000000 1.686040 
# 
# From -- ./inp_files/244285.got.cif
#   From: 2010.05.17/outbox.cif.g08.bks.cpg/sg12_123_cif.got.tgz:244285.got - 2010.06.03 13:09:07.
