data_PCOD9194617
_publ_section_title
;
Structure prediction by ZEFSAII (Michael W. Deem and Ramdas Pophale) SiO2 
 PCOD9194617
Probable space group: C 2/M
;
_chemical_formula_sum "Si O2"
_cell_formula_units_Z 54
_cell_length_a 27.392218
_cell_length_b 19.589654
_cell_length_c 5.172195
_cell_angle_alpha 90.000000
_cell_angle_beta 73.920642
_cell_angle_gamma 90.000000
_cell_volume 2666.843662
_symmetry_space_group_name_H-M "C 2/M"
_symmetry_group_IT_number 12
_symmetry_cell_setting 'monoclinic'
loop_
_space_group_symop_operation_xyz
x,y,z
-x,y,-z
-x,-y,-z
x,-y,z
1/2+x,1/2+y,z
1/2-x,1/2+y,-z
1/2-x,1/2-y,-z
1/2+x,1/2-y,z
loop_
_atom_site_type_symbol
_atom_site_label
_atom_site_fract_x
_atom_site_fract_y
_atom_site_fract_z
Si Si1 0.349033 0.417462 0.633478
Si Si2 0.000000 0.000000 0.000000
Si Si3 0.032391 0.728418 0.197890
Si Si4 0.884167 0.622010 0.875585
Si Si5 0.790793 0.917139 0.221462
Si Si6 0.964458 0.500000 0.802584
Si Si7 0.953693 0.887731 0.753790
Si Si8 0.176552 0.417195 0.540099
O O1 0.351086 0.500000 0.624971
O O2 0.331251 0.393577 0.377834
O O3 0.402716 0.393194 0.663117
O O4 0.307453 0.396742 0.910300
O O5 0.041815 0.940122 0.017471
O O6 0.086955 0.693241 0.134099
O O7 0.038088 0.810028 0.178073
O O8 0.000000 0.711334 0.500000
O O9 0.000000 0.704450 0.000000
O O10 0.927759 0.565271 0.853184
O O11 0.860061 0.610893 0.630049
O O12 0.841945 0.609341 0.156010
O O13 0.734205 0.897283 0.387392
O O14 0.791413 0.000000 0.223647
O O15 0.000000 0.500000 0.500000
O O16 0.000000 0.500000 0.000000
O O17 0.000000 0.911242 0.500000
O O18 0.173343 0.500000 0.545213
#
# Coordination Sequence:
#
# PCOD9194617 Si02
#       8
#     8   2   8   8   8   4   8   8
#     4  10  20  34  56  87 119 151 189 238 309 355
#     4  12  22  40  64  92 122 150 194 256 282 340
#     4  11  24  43  59  85 123 167 202 235 296 368
#     4  12  22  37  61  84 119 159 206 252 296 357
#     4   9  20  34  56  85 119 152 187 252 303 352
#     4  12  22  34  52  83 117 150 192 252 301 335
#     4  11  25  38  64  91 127 158 199 241 294 361
#     4  11  20  38  60  89 117 151 211 256 303 348
#
# _framework density 20.248654999999999
#
# number of rings (size 3 to 8) (size 9 to 14) (size 15 to 20)
#    0.000    1.185    2.963    3.778    2.074    2.370 
#    0.000    0.000    0.000    5.333    0.000    0.000 
#    0.000    0.000    0.000    0.000    0.000    0.000 
#
# Total GULP energy -150742.789533 kJ/mol
# GULP energy per Si atom -5583.066279 kJ/mol
# Density = 2.020257 g / cm^3
# Si number density = 20.248655 Si / 1000 Ang^3
#
#
#
# Elastic Constant Matrix: (Units=GPa)
#
#
# Indices 1 2 3 4 5 6 
#
# 1 61.0711 6.0961 -15.3405 0.0000 2.4333 0.0000
# 2 6.0961 25.7869 9.2237 0.0000 0.2113 0.0000
# 3 -15.3405 9.2237 60.0680 0.0000 0.9613 0.0000
# 4 0.0000 0.0000 0.0000 -5.1826 0.0000 5.1342
# 5 2.4333 0.2113 0.9613 0.0000 41.7203 0.0000
# 6 0.0000 0.0000 0.0000 5.1342 0.0000 20.8221
#
#
#
# Elastic Compliance Matrix: (Units=1/GPa)
#
#
# Indices 1 2 3 4 5 6 
#
# 1 0.018500 -0.006413 0.005728 0.000000 -0.001179 0.000000
# 2 -0.006413 0.043256 -0.008285 0.000000 0.000346 0.000000
# 3 0.005728 -0.008285 0.019395 0.000000 -0.000739 0.000000
# 4 0.000000 0.000000 0.000000 -0.155073 0.000000 0.038237
# 5 -0.001179 0.000346 -0.000739 0.000000 0.024053 0.000000
# 6 0.000000 0.000000 0.000000 0.038237 0.000000 0.038598
#
#
# Mechanical properties :
#
#
# Convention : Reuss Voigt Hill
#
# Bulk Modulus (GPa) = 15.81995 16.32052 16.07023
# Shear Modulus (GPa) = 180.25121 21.26840 100.75980
#
# Velocity S-wave (km/s) = 9.44522 3.24444 7.06182
# Velocity P-wave (km/s) = 11.25963 4.70242 8.62821
#
# Compressibility (1/GPa) = 0.06321133
#
# Stress axis : x y z
#
# Youngs Moduli (GPa) = 54.05306 23.11813 51.56021
#
# Poissons Ratio (x) = 0.14825 -0.29535
# Poissons Ratio (y) = 0.34663 0.42720
# Poissons Ratio (z) = -0.30963 0.19154
#
# Static dielectric constant tensor:
#      x y z
#    x 1.695430 0.000000 0.012660 
#    y 0.000000 1.704640 0.000000 
#    z 0.012660 0.000000 1.673010 
# 
# From -- ./inp_files/25388.got.cif
#   From: 2010.05.17/outbox.cif.g08.bks.cpg/sg12_13_cif.got.tgz:25388.got - 2010.06.03 13:09:07.
