data_PCOD9194357
_publ_section_title
;
Structure prediction by ZEFSAII (Michael W. Deem and Ramdas Pophale) SiO2 
 PCOD9194357
Probable space group: C 2/M
;
_chemical_formula_sum "Si O2"
_cell_formula_units_Z 50
_cell_length_a 29.758303
_cell_length_b 7.938804
_cell_length_c 11.187484
_cell_angle_alpha 90.000000
_cell_angle_beta 115.981934
_cell_angle_gamma 90.000000
_cell_volume 2375.869694
_symmetry_space_group_name_H-M "C 2/M"
_symmetry_group_IT_number 12
_symmetry_cell_setting 'monoclinic'
loop_
_space_group_symop_operation_xyz
x,y,z
-x,y,-z
-x,-y,-z
x,-y,z
1/2+x,1/2+y,z
1/2-x,1/2+y,-z
1/2-x,1/2-y,-z
1/2+x,1/2-y,z
loop_
_atom_site_type_symbol
_atom_site_label
_atom_site_fract_x
_atom_site_fract_y
_atom_site_fract_z
Si Si1 0.384496 0.695893 0.865986
Si Si2 0.070540 0.196688 0.330959
Si Si3 0.186115 0.298906 0.829504
Si Si4 0.923159 0.306790 0.400142
Si Si5 0.976200 0.695382 0.102677
Si Si6 0.500000 0.500000 0.500000
Si Si7 0.210704 0.301583 0.124416
O O1 0.397775 0.500000 0.879710
O O2 0.401916 0.761751 0.756498
O O3 0.326407 0.720122 0.823740
O O4 0.417813 0.772583 0.012296
O O5 0.082401 0.300024 0.462429
O O6 0.011068 0.204430 0.233962
O O7 0.083013 0.000000 0.367292
O O8 0.193356 0.500000 0.841193
O O9 0.130373 0.268873 0.720796
O O10 0.230214 0.228245 0.797524
O O11 0.195427 0.233932 0.974958
O O12 0.938374 0.500000 0.382923
O O13 0.959941 0.152060 0.417498
O O14 0.983714 0.500000 0.138682
O O15 0.000000 0.732757 0.000000
O O16 0.200654 0.500000 0.116495
#
# Coordination Sequence:
#
# PCOD9194357 Si02
#       7
#     8   8   8   8   8   2   8
#     4  10  20  34  55  86 123 158 203 256 308 369
#     4  10  20  37  58  84 121 165 206 252 311 372
#     4   9  21  41  62  87 120 159 204 255 318 369
#     4  11  24  44  67  91 126 168 207 258 313 370
#     4   9  17  30  50  77 113 156 200 245 302 366
#     4  12  26  44  64  94 126 164 218 252 298 378
#     4  10  20  36  62  91 119 154 203 259 311 373
#
# _framework density 21.044924999999999
#
# number of rings (size 3 to 8) (size 9 to 14) (size 15 to 20)
#    0.000    2.080    0.800    2.160    1.120    5.760 
#    2.880    4.000    0.000    0.000    0.000    0.000 
#    0.000    0.000    0.000    0.000    0.000    0.000 
#
# Total GULP energy -139300.792346 kJ/mol
# GULP energy per Si atom -5572.031694 kJ/mol
# Density = 2.099703 g / cm^3
# Si number density = 21.044925 Si / 1000 Ang^3
#
#
#
# Elastic Constant Matrix: (Units=GPa)
#
#
# Indices 1 2 3 4 5 6 
#
# 1 93.2657 30.2593 26.2685 0.0000 2.2853 0.0000
# 2 30.2593 63.1438 32.9432 0.0000 21.4491 0.0000
# 3 26.2685 32.9432 56.8711 0.0000 3.1601 0.0000
# 4 0.0000 0.0000 0.0000 19.0850 0.0000 11.6867
# 5 2.2853 21.4491 3.1601 0.0000 26.5446 0.0000
# 6 0.0000 0.0000 0.0000 11.6867 0.0000 34.3953
#
#
#
# Elastic Compliance Matrix: (Units=1/GPa)
#
#
# Indices 1 2 3 4 5 6 
#
# 1 0.013506 -0.006614 -0.002657 0.000000 0.004498 0.000000
# 2 -0.006614 0.037178 -0.016955 0.000000 -0.027453 0.000000
# 3 -0.002657 -0.016955 0.028044 0.000000 0.010591 0.000000
# 4 0.000000 0.000000 0.000000 0.066163 0.000000 -0.022481
# 5 0.004498 -0.027453 0.010591 0.000000 0.058207 0.000000
# 6 0.000000 0.000000 0.000000 -0.022481 0.000000 0.036712
#
#
# Mechanical properties :
#
#
# Convention : Reuss Voigt Hill
#
# Bulk Modulus (GPa) = 38.05866 43.58030 40.81948
# Shear Modulus (GPa) = 16.61014 24.25895 20.43454
#
# Velocity S-wave (km/s) = 2.81244 3.39886 3.11946
# Velocity P-wave (km/s) = 5.35446 6.01300 5.69326
#
# Compressibility (1/GPa) = 0.02627523
#
# Stress axis : x y z
#
# Youngs Moduli (GPa) = 74.04086 26.89798 35.65831
#
# Poissons Ratio (x) = 0.17790 0.09475
# Poissons Ratio (y) = 0.48969 0.60459
# Poissons Ratio (z) = 0.19674 0.45606
#
# Static dielectric constant tensor:
#      x y z
#    x 1.806890 0.000000 -0.033550 
#    y 0.000000 1.741280 0.000000 
#    z -0.033550 0.000000 1.764320 
# 
# From -- ./inp_files/181191.got.cif
#   From: 2010.05.17/outbox.cif.g08.bks.cpg/sg12_91_cif.got.tgz:181191.got - 2010.06.03 13:09:07.
