data_PCOD9194972
_publ_section_title
;
Structure prediction by ZEFSAII (Michael W. Deem and Ramdas Pophale) SiO2 
 PCOD9194972
Probable space group: C 2/M
;
_chemical_formula_sum "Si O2"
_cell_formula_units_Z 48
_cell_length_a 23.056052
_cell_length_b 15.499914
_cell_length_c 19.753072
_cell_angle_alpha 90.000000
_cell_angle_beta 19.418100
_cell_angle_gamma 90.000000
_cell_volume 2346.859454
_symmetry_space_group_name_H-M "C 2/M"
_symmetry_group_IT_number 12
_symmetry_cell_setting 'monoclinic'
loop_
_space_group_symop_operation_xyz
x,y,z
-x,y,-z
-x,-y,-z
x,-y,z
1/2+x,1/2+y,z
1/2-x,1/2+y,-z
1/2-x,1/2-y,-z
1/2+x,1/2-y,z
loop_
_atom_site_type_symbol
_atom_site_label
_atom_site_fract_x
_atom_site_fract_y
_atom_site_fract_z
Si Si1 0.242693 0.904749 0.982830
Si Si2 0.901880 0.901743 0.706508
Si Si3 0.377775 0.765708 0.577037
Si Si4 0.586792 0.826758 0.969843
Si Si5 0.974696 0.208403 0.213253
Si Si6 0.622095 0.156402 0.567737
O O1 0.450377 0.900821 0.765653
O O2 0.195803 0.000000 0.010019
O O3 0.153084 0.891159 0.154670
O O4 0.163315 0.833969 0.019133
O O5 0.727846 0.884808 0.853812
O O6 0.038346 0.827635 0.535599
O O7 0.964344 0.000000 0.627526
O O8 0.500000 0.804583 0.500000
O O9 0.194302 0.748154 0.813563
O O10 0.369429 0.821833 0.520124
O O11 0.500000 0.872225 0.000000
O O12 0.475944 0.778069 0.150339
O O13 0.821033 0.138296 0.371204
O O14 0.927057 0.259784 0.333658
#
# Coordination Sequence:
#
# PCOD9194972 Si02
#       6
#     8   8   8   8   8   8
#     4  11  22  38  62  89 121 157 195 243 300 350
#     4  10  21  37  55  82 124 162 191 233 291 357
#     4  10  20  34  59  85 113 151 198 237 292 350
#     4  11  21  36  58  87 115 150 199 243 296 345
#     4  11  22  38  63  88 117 151 204 251 291 339
#     4  11  21  38  63  87 114 157 201 249 288 345
#
# _framework density 20.452864999999999
#
# number of rings (size 3 to 8) (size 9 to 14) (size 15 to 20)
#    0.000    1.333    5.000    2.500    0.000    4.000 
#    0.000    0.000    0.000    5.000    0.000    0.000 
#    0.000    0.000    0.000    0.000    0.000    0.000 
#
# Total GULP energy -133804.227435 kJ/mol
# GULP energy per Si atom -5575.176143 kJ/mol
# Density = 2.040631 g / cm^3
# Si number density = 20.452865 Si / 1000 Ang^3
#
#
#
# Elastic Constant Matrix: (Units=GPa)
#
#
# Indices 1 2 3 4 5 6 
#
# 1 87.6812 11.8941 -1.3299 -0.0064 4.9354 0.0082
# 2 11.8941 24.1603 -6.2482 -0.0080 -9.0516 0.0092
# 3 -1.3299 -6.2482 61.2991 -0.0073 -3.1316 0.0092
# 4 -0.0064 -0.0080 -0.0073 15.6024 -0.0013 0.6140
# 5 4.9354 -9.0516 -3.1316 -0.0013 39.5705 -0.0025
# 6 0.0082 0.0092 0.0092 0.6140 -0.0025 8.1268
#
#
#
# Elastic Compliance Matrix: (Units=1/GPa)
#
#
# Indices 1 2 3 4 5 6 
#
# 1 0.012623 -0.007656 -0.000679 0.000001 -0.003380 -0.000004
# 2 -0.007656 0.051602 0.005769 0.000029 0.013215 -0.000055
# 3 -0.000679 0.005769 0.017027 0.000012 0.002752 -0.000025
# 4 0.000001 0.000029 0.000012 0.064284 0.000009 -0.004857
# 5 -0.003380 0.013215 0.002752 0.000009 0.028934 -0.000007
# 6 -0.000004 -0.000055 -0.000025 -0.004857 -0.000007 0.123417
#
#
# Mechanical properties :
#
#
# Convention : Reuss Voigt Hill
#
# Bulk Modulus (GPa) = 13.13717 20.19697 16.66707
# Shear Modulus (GPa) = 15.22559 23.91491 19.57025
#
# Velocity S-wave (km/s) = 2.73137 3.42317 3.09665
# Velocity P-wave (km/s) = 4.04775 5.05177 4.57737
#
# Compressibility (1/GPa) = 0.07611992
#
# Stress axis : x y z
#
# Youngs Moduli (GPa) = 79.21746 19.37891 58.72918
#
# Poissons Ratio (x) = 0.14837 0.03989
# Poissons Ratio (y) = 0.60651 -0.33880
# Poissons Ratio (z) = 0.05380 -0.11179
#
# Static dielectric constant tensor:
#      x y z
#    x 1.778520 0.000000 -0.052720 
#    y 0.000000 1.753740 0.000000 
#    z -0.052720 0.000000 1.786010 
# 
# From -- ./inp_files/104932.got.cif
#   From: 2010.05.17/outbox.cif.g08.bks.cpg/sg12_53_cif.got.tgz:104932.got - 2010.06.03 13:09:07.
