data_PCOD9194802
_publ_section_title
;
Structure prediction by ZEFSAII (Michael W. Deem and Ramdas Pophale) SiO2 
 PCOD9194802
Probable space group: C 2/M
;
_chemical_formula_sum "Si O2"
_cell_formula_units_Z 56
_cell_length_a 19.479848
_cell_length_b 12.904949
_cell_length_c 11.101599
_cell_angle_alpha 90.000000
_cell_angle_beta 82.283402
_cell_angle_gamma 90.000000
_cell_volume 2765.519057
_symmetry_space_group_name_H-M "C 2/M"
_symmetry_group_IT_number 12
_symmetry_cell_setting 'monoclinic'
loop_
_space_group_symop_operation_xyz
x,y,z
-x,y,-z
-x,-y,-z
x,-y,z
1/2+x,1/2+y,z
1/2-x,1/2+y,-z
1/2-x,1/2-y,-z
1/2+x,1/2-y,z
loop_
_atom_site_type_symbol
_atom_site_label
_atom_site_fract_x
_atom_site_fract_y
_atom_site_fract_z
Si Si1 0.547330 0.381906 0.377084
Si Si2 0.825337 0.762725 0.384326
Si Si3 0.934103 0.118056 0.197268
Si Si4 0.687236 0.879266 0.417293
Si Si5 0.423911 0.198145 0.010825
Si Si6 0.346262 0.253197 0.790876
Si Si7 0.785662 0.378254 0.172031
O O1 0.500000 0.341726 0.500000
O O2 0.565097 0.500000 0.407094
O O3 0.501695 0.382620 0.265641
O O4 0.616097 0.324245 0.317791
O O5 0.877452 0.834674 0.300154
O O6 0.764096 0.840911 0.435827
O O7 0.857291 0.694211 0.483839
O O8 0.796512 0.676986 0.298052
O O9 0.934211 0.195847 0.084936
O O10 0.919301 0.000000 0.163754
O O11 0.678124 0.846158 0.280553
O O12 0.676053 0.000000 0.437858
O O13 0.358002 0.139687 0.084776
O O14 0.500000 0.145915 0.000000
O O15 0.399905 0.221903 0.881327
O O16 0.281042 0.315405 0.862106
O O17 0.771134 0.500000 0.183293
#
# Coordination Sequence:
#
# PCOD9194802 Si02
#       7
#     8   8   8   8   8   8   8
#     4  10  20  34  57  88 120 156 199 252 317 375
#     4   9  19  36  59  88 121 155 194 254 307 367
#     4  10  20  35  58  86 116 155 202 251 311 369
#     4  10  20  35  59  88 121 160 202 246 306 374
#     4  11  23  41  60  87 123 167 212 263 312 369
#     4  11  22  39  60  89 125 163 205 264 312 361
#     4  10  22  39  62  88 119 162 208 255 315 374
#
# _framework density 20.249362999999999
#
# number of rings (size 3 to 8) (size 9 to 14) (size 15 to 20)
#    0.000    1.857    1.429    2.571    0.000    2.286 
#    0.000    4.286    0.000    1.286    0.000    0.000 
#    0.000    0.000    0.000    0.000    0.000    0.000 
#
# Total GULP energy -156100.509797 kJ/mol
# GULP energy per Si atom -5575.018207 kJ/mol
# Density = 2.020327 g / cm^3
# Si number density = 20.249363 Si / 1000 Ang^3
#
#
#
# Elastic Constant Matrix: (Units=GPa)
#
#
# Indices 1 2 3 4 5 6 
#
# 1 82.5536 5.2935 13.4322 0.0000 -3.8667 0.0000
# 2 5.2935 29.6778 -3.1117 0.0000 10.2658 0.0000
# 3 13.4322 -3.1117 56.7541 0.0000 -0.1937 0.0000
# 4 0.0000 0.0000 0.0000 11.5807 0.0000 -1.7775
# 5 -3.8667 10.2658 -0.1937 0.0000 36.5510 0.0000
# 6 0.0000 0.0000 0.0000 -1.7775 0.0000 18.8263
#
#
#
# Elastic Compliance Matrix: (Units=1/GPa)
#
#
# Indices 1 2 3 4 5 6 
#
# 1 0.012973 -0.003460 -0.003252 0.000000 0.002327 0.000000
# 2 -0.003460 0.038475 0.002890 0.000000 -0.011157 0.000000
# 3 -0.003252 0.002890 0.018544 0.000000 -0.001058 0.000000
# 4 0.000000 0.000000 0.000000 0.087620 0.000000 0.008273
# 5 0.002327 -0.011157 -0.001058 0.000000 0.030733 0.000000
# 6 0.000000 0.000000 0.000000 0.008273 0.000000 0.053898
#
#
# Mechanical properties :
#
#
# Convention : Reuss Voigt Hill
#
# Bulk Modulus (GPa) = 16.03882 22.24594 19.14238
# Shear Modulus (GPa) = 18.47265 23.61637 21.04451
#
# Velocity S-wave (km/s) = 3.02364 3.41878 3.22726
# Velocity P-wave (km/s) = 4.48639 5.15693 4.83330
#
# Compressibility (1/GPa) = 0.06234871
#
# Stress axis : x y z
#
# Youngs Moduli (GPa) = 77.08103 25.99118 53.92451
#
# Poissons Ratio (x) = 0.08993 0.17537
# Poissons Ratio (y) = 0.26669 -0.15586
# Poissons Ratio (z) = 0.25068 -0.07512
#
# Static dielectric constant tensor:
#      x y z
#    x 1.790460 0.000000 -0.029060 
#    y 0.000000 1.695610 0.000000 
#    z -0.029060 0.000000 1.769940 
# 
# From -- ./inp_files/164882.got.cif
#   From: 2010.05.17/outbox.cif.g08.bks.cpg/sg12_83_cif.got.tgz:164882.got - 2010.06.03 13:09:07.
