data_PCOD9194579
_publ_section_title
;
Structure prediction by ZEFSAII (Michael W. Deem and Ramdas Pophale) SiO2 
 PCOD9194579
Probable space group: C 2/M
;
_chemical_formula_sum "Si O2"
_cell_formula_units_Z 64
_cell_length_a 14.476371
_cell_length_b 9.425989
_cell_length_c 24.873993
_cell_angle_alpha 90.000000
_cell_angle_beta 91.204592
_cell_angle_gamma 90.000000
_cell_volume 3393.408569
_symmetry_space_group_name_H-M "C 2/M"
_symmetry_group_IT_number 12
_symmetry_cell_setting 'monoclinic'
loop_
_space_group_symop_operation_xyz
x,y,z
-x,y,-z
-x,-y,-z
x,-y,z
1/2+x,1/2+y,z
1/2-x,1/2+y,-z
1/2-x,1/2-y,-z
1/2+x,1/2-y,z
loop_
_atom_site_type_symbol
_atom_site_label
_atom_site_fract_x
_atom_site_fract_y
_atom_site_fract_z
Si Si1 0.863872 0.837696 0.552816
Si Si2 0.638369 0.161544 0.551638
Si Si3 0.344323 0.833639 0.936478
Si Si4 0.475188 0.331024 0.865512
Si Si5 0.134692 0.666752 0.339845
Si Si6 0.006576 0.832050 0.258653
Si Si7 0.645151 0.664079 0.656242
Si Si8 0.128099 0.166039 0.956266
O O1 0.751132 0.841438 0.551310
O O2 0.891589 0.756018 0.499173
O O3 0.890888 0.750461 0.606038
O O4 0.896757 0.000000 0.554810
O O5 0.614122 0.234214 0.607688
O O6 0.605466 0.000000 0.547374
O O7 0.388019 0.755434 0.886175
O O8 0.233671 0.817088 0.938076
O O9 0.366012 0.000000 0.936182
O O10 0.383576 0.759996 0.990829
O O11 0.457690 0.500000 0.868902
O O12 0.499551 0.297903 0.804309
O O13 0.558559 0.298057 0.907515
O O14 0.113289 0.500000 0.344449
O O15 0.245292 0.681164 0.334248
O O16 0.082495 0.738650 0.289806
O O17 0.911949 0.809378 0.290396
O O18 0.029399 0.000000 0.263786
O O19 0.629546 0.500000 0.639659
O O20 0.114687 0.000000 0.970552
#
# Coordination Sequence:
#
# PCOD9194579 Si02
#       8
#     8   8   8   8   8   8   8   8
#     4   9  16  28  49  76 106 139 173 211 263 328
#     4   9  16  27  48  78 107 134 170 218 269 319
#     4  10  20  34  56  86 115 141 175 221 267 310
#     4  10  21  37  56  77 106 146 185 219 260 314
#     4  10  20  35  56  80 106 137 175 223 274 318
#     4  10  22  39  56  76 104 141 185 224 260 313
#     4   9  19  36  56  76 103 141 179 216 265 324
#     4   9  19  36  57  81 112 148 180 212 260 321
#
# _framework density 18.860092000000002
#
# number of rings (size 3 to 8) (size 9 to 14) (size 15 to 20)
#    0.000    2.500    0.000    1.875    0.000    8.000 
#    0.000    3.125    0.000    3.750    0.000    0.000 
#    0.000    0.000    0.000    0.000    0.000    0.000 
#
# Total GULP energy -178742.865910 kJ/mol
# GULP energy per Si atom -5585.714560 kJ/mol
# Density = 1.881717 g / cm^3
# Si number density = 18.860092 Si / 1000 Ang^3
#
#
#
# Elastic Constant Matrix: (Units=GPa)
#
#
# Indices 1 2 3 4 5 6 
#
# 1 55.8572 45.0951 41.7768 0.0000 -9.4614 0.0000
# 2 45.0951 101.5241 82.8789 0.0000 -16.6587 0.0000
# 3 41.7768 82.8789 144.5118 0.0000 -25.9516 0.0000
# 4 0.0000 0.0000 0.0000 33.0589 0.0000 -0.2634
# 5 -9.4614 -16.6587 -25.9516 0.0000 29.9711 0.0000
# 6 0.0000 0.0000 0.0000 -0.2634 0.0000 21.7445
#
#
#
# Elastic Compliance Matrix: (Units=1/GPa)
#
#
# Indices 1 2 3 4 5 6 
#
# 1 0.028214 -0.010998 -0.001595 0.000000 0.001412 0.000000
# 2 -0.010998 0.022851 -0.009791 0.000000 0.000751 0.000000
# 3 -0.001595 -0.009791 0.014125 0.000000 0.006285 0.000000
# 4 0.000000 0.000000 0.000000 0.030252 0.000000 0.000366
# 5 0.001412 0.000751 0.006285 0.000000 0.039671 0.000000
# 6 0.000000 0.000000 0.000000 0.000366 0.000000 0.045993
#
#
# Mechanical properties :
#
#
# Convention : Reuss Voigt Hill
#
# Bulk Modulus (GPa) = 48.96793 71.26609 60.11701
# Shear Modulus (GPa) = 21.48850 25.76440 23.62645
#
# Velocity S-wave (km/s) = 3.37911 3.70006 3.54322
# Velocity P-wave (km/s) = 6.42220 7.49151 6.97737
#
# Compressibility (1/GPa) = 0.02042153
#
# Stress axis : x y z
#
# Youngs Moduli (GPa) = 35.44299 43.76128 70.79717
#
# Poissons Ratio (x) = 0.48130 0.11293
# Poissons Ratio (y) = 0.38981 0.69317
# Poissons Ratio (z) = 0.05654 0.42847
#
# Static dielectric constant tensor:
#      x y z
#    x 1.679880 0.000000 -0.009350 
#    y 0.000000 1.639260 0.000000 
#    z -0.009350 0.000000 1.611730 
# 
# From -- ./inp_files/338888.got.cif
#   From: 2010.05.17/outbox.cif.g08.bks.cpg/sg12_170_cif.got.tgz:338888.got - 2010.06.03 13:09:07.
