data_PCOD9194129
_publ_section_title
;
Structure prediction by ZEFSAII (Michael W. Deem and Ramdas Pophale) SiO2 
 PCOD9194129
Probable space group: C 2/M
;
_chemical_formula_sum "Si O2"
_cell_formula_units_Z 64
_cell_length_a 15.896731
_cell_length_b 9.273539
_cell_length_c 32.814231
_cell_angle_alpha 90.000000
_cell_angle_beta 135.339426
_cell_angle_gamma 90.000000
_cell_volume 3400.262569
_symmetry_space_group_name_H-M "C 2/M"
_symmetry_group_IT_number 12
_symmetry_cell_setting 'monoclinic'
loop_
_space_group_symop_operation_xyz
x,y,z
-x,y,-z
-x,-y,-z
x,-y,z
1/2+x,1/2+y,z
1/2-x,1/2+y,-z
1/2-x,1/2-y,-z
1/2+x,1/2-y,z
loop_
_atom_site_type_symbol
_atom_site_label
_atom_site_fract_x
_atom_site_fract_y
_atom_site_fract_z
Si Si1 0.659910 0.663760 0.374388
Si Si2 0.980604 0.162783 0.387754
Si Si3 0.625599 0.327649 0.856508
Si Si4 0.575206 0.326805 0.145453
Si Si5 0.257550 0.164939 0.736823
Si Si6 0.397407 0.163216 0.498162
Si Si7 0.963870 0.337479 0.740157
Si Si8 0.602560 0.827493 0.068325
O O1 0.685505 0.500000 0.368069
O O2 0.568825 0.654008 0.380164
O O3 0.781708 0.726408 0.435467
O O4 0.597535 0.756539 0.318332
O O5 0.857355 0.224230 0.326942
O O6 0.047889 0.250407 0.445629
O O7 0.953904 0.000000 0.393516
O O8 0.613646 0.500000 0.847778
O O9 0.543228 0.289323 0.867690
O O10 0.570289 0.250607 0.797839
O O11 0.766551 0.292405 0.905487
O O12 0.581852 0.500000 0.145425
O O13 0.689630 0.261915 0.209023
O O14 0.576437 0.256597 0.101209
O O15 0.362959 0.155269 0.740263
O O16 0.229374 0.000000 0.741162
O O17 0.500000 0.154454 0.500000
O O18 0.364206 0.000000 0.499963
O O19 0.000426 0.500000 0.741850
O O20 0.601750 0.000000 0.076560
O O21 0.500000 0.796841 0.000000
#
# Coordination Sequence:
#
# PCOD9194129 Si02
#       8
#     8   8   8   8   8   8   8   8
#     4  10  21  35  51  75 107 141 177 221 278 337
#     4  10  21  35  53  76 102 137 179 222 272 330
#     4   9  20  39  60  83 118 158 191 232 289 345
#     4  10  21  37  59  88 119 152 192 240 290 335
#     4   9  19  36  55  78 108 143 183 227 278 336
#     4  10  21  36  53  73 101 138 178 223 275 329
#     4  10  20  34  55  82 108 138 183 232 275 327
#     4  10  22  40  62  87 117 157 198 231 276 343
#
# _framework density 18.822075000000002
#
# number of rings (size 3 to 8) (size 9 to 14) (size 15 to 20)
#    0.000    2.250    0.000    1.875    1.750    4.000 
#    0.000    0.000    0.000    0.000    0.000    0.000 
#    0.000    0.000    0.000    0.000    0.000    0.000 
#
# Total GULP energy -178483.075440 kJ/mol
# GULP energy per Si atom -5577.596108 kJ/mol
# Density = 1.877924 g / cm^3
# Si number density = 18.822075 Si / 1000 Ang^3
#
#
#
# Elastic Constant Matrix: (Units=GPa)
#
#
# Indices 1 2 3 4 5 6 
#
# 1 99.1642 74.0520 148.0134 0.0000 7.1943 0.0000
# 2 74.0520 101.0266 157.4898 0.0000 -10.4703 0.0000
# 3 148.0134 157.4898 367.6193 0.0000 7.9820 0.0000
# 4 0.0000 0.0000 0.0000 -29.8894 0.0000 50.2589
# 5 7.1943 -10.4703 7.9820 0.0000 39.9229 0.0000
# 6 0.0000 0.0000 0.0000 50.2589 0.0000 -23.3806
#
#
#
# Elastic Compliance Matrix: (Units=1/GPa)
#
#
# Indices 1 2 3 4 5 6 
#
# 1 0.029303 -0.012284 -0.006378 0.000000 -0.007227 0.000000
# 2 -0.012284 0.039989 -0.012515 0.000000 0.015204 0.000000
# 3 -0.006378 -0.012515 0.010743 0.000000 -0.004281 0.000000
# 4 0.000000 0.000000 0.000000 0.012796 0.000000 0.027507
# 5 -0.007227 0.015204 -0.004281 0.000000 0.031194 0.000000
# 6 0.000000 0.000000 0.000000 0.027507 0.000000 0.016359
#
#
# Mechanical properties :
#
#
# Convention : Reuss Voigt Hill
#
# Bulk Modulus (GPa) = 56.56826 147.43562 102.00194
# Shear Modulus (GPa) = 23.96563 9.88090 16.92326
#
# Velocity S-wave (km/s) = 3.57217 2.29369 3.00178
# Velocity P-wave (km/s) = 6.86537 9.24749 8.14399
#
# Compressibility (1/GPa) = 0.01767776
#
# Stress axis : x y z
#
# Youngs Moduli (GPa) = 34.12668 25.00709 93.08451
#
# Poissons Ratio (x) = 0.30720 0.59373
# Poissons Ratio (y) = 0.41923 1.16499
# Poissons Ratio (z) = 0.21767 0.31297
#
# Static dielectric constant tensor:
#      x y z
#    x 1.666330 0.000000 0.035890 
#    y 0.000000 1.677430 0.000000 
#    z 0.035890 0.000000 1.642580 
# 
# From -- ./inp_files/375526.got.cif
#   From: 2010.05.17/outbox.cif.g08.bks.cpg/sg12_188_cif.got.tgz:375526.got - 2010.06.03 13:09:07.
