data_PCOD9194817
_publ_section_title
;
Structure prediction by ZEFSAII (Michael W. Deem and Ramdas Pophale) SiO2 
 PCOD9194817
Probable space group: C 2/M
;
_chemical_formula_sum "Si O2"
_cell_formula_units_Z 34
_cell_length_a 19.930876
_cell_length_b 8.835712
_cell_length_c 17.488037
_cell_angle_alpha 90.000000
_cell_angle_beta 151.196996
_cell_angle_gamma 90.000000
_cell_volume 1483.800296
_symmetry_space_group_name_H-M "C 2/M"
_symmetry_group_IT_number 12
_symmetry_cell_setting 'monoclinic'
loop_
_space_group_symop_operation_xyz
x,y,z
-x,y,-z
-x,-y,-z
x,-y,z
1/2+x,1/2+y,z
1/2-x,1/2+y,-z
1/2-x,1/2-y,-z
1/2+x,1/2-y,z
loop_
_atom_site_type_symbol
_atom_site_label
_atom_site_fract_x
_atom_site_fract_y
_atom_site_fract_z
Si Si1 0.050983 0.828757 0.344824
Si Si2 0.000000 0.500000 0.500000
Si Si3 0.286343 0.820557 0.117477
Si Si4 0.866208 0.673227 0.723173
Si Si5 0.209842 0.831327 0.200140
O O1 0.057493 0.778015 0.262758
O O2 0.205726 0.825599 0.533059
O O3 0.950486 0.714877 0.288575
O O4 0.997009 0.000000 0.297009
O O5 0.126329 0.370163 0.621620
O O6 0.206772 0.759536 0.112452
O O7 0.267383 0.000000 0.097847
O O8 0.250000 0.750000 0.000000
O O9 0.916317 0.500000 0.768995
O O10 0.858884 0.737113 0.801078
O O11 0.147226 0.000000 0.134697
#
# Coordination Sequence:
#
# PCOD9194817 Si02
#       5
#     8   2   8   8   8
#     4  10  21  36  56  84 117 153 189 236 293 349
#     4   8  16  32  58  84 106 144 188 228 288 334
#     4  11  23  39  58  81 114 156 197 237 281 342
#     4  10  20  34  57  89 118 145 185 244 300 340
#     4   9  19  34  57  82 111 150 186 235 286 345
#
# _framework density 22.914135999999999
#
# number of rings (size 3 to 8) (size 9 to 14) (size 15 to 20)
#    0.706    1.412    0.000    3.529    0.000    3.765 
#    0.000    4.118    0.000    7.059    0.000    0.000 
#    0.000    0.000    0.000    0.000    0.000    0.000 
#
# Total GULP energy -94712.575555 kJ/mol
# GULP energy per Si atom -5571.327974 kJ/mol
# Density = 2.286198 g / cm^3
# Si number density = 22.914136 Si / 1000 Ang^3
#
#
#
# Elastic Constant Matrix: (Units=GPa)
#
#
# Indices 1 2 3 4 5 6 
#
# 1 154.7841 34.2383 19.4684 0.0000 -36.7959 0.0000
# 2 34.2383 59.6693 -4.8631 0.0000 -20.9298 0.0000
# 3 19.4684 -4.8631 53.2499 0.0000 -2.4736 0.0000
# 4 0.0000 0.0000 0.0000 23.0590 0.0000 0.2892
# 5 -36.7959 -20.9298 -2.4736 0.0000 42.5149 0.0000
# 6 0.0000 0.0000 0.0000 0.2892 0.0000 27.2736
#
#
#
# Elastic Compliance Matrix: (Units=1/GPa)
#
#
# Indices 1 2 3 4 5 6 
#
# 1 0.009046 -0.003366 -0.003337 0.000000 0.005978 0.000000
# 2 -0.003366 0.021799 0.003594 0.000000 0.008028 0.000000
# 3 -0.003337 0.003594 0.020331 0.000000 0.000064 0.000000
# 4 0.000000 0.000000 0.000000 0.043373 0.000000 -0.000460
# 5 0.005978 0.008028 0.000064 0.000000 0.032651 0.000000
# 6 0.000000 0.000000 0.000000 -0.000460 0.000000 0.036670
#
#
# Mechanical properties :
#
#
# Convention : Reuss Voigt Hill
#
# Bulk Modulus (GPa) = 22.24253 40.59894 31.42074
# Shear Modulus (GPa) = 27.01642 33.16013 30.08828
#
# Velocity S-wave (km/s) = 3.43742 3.80827 3.62759
# Velocity P-wave (km/s) = 5.04802 6.09044 5.59357
#
# Compressibility (1/GPa) = 0.04495890
#
# Stress axis : x y z
#
# Youngs Moduli (GPa) = 110.54688 45.87358 49.18698
#
# Poissons Ratio (x) = 0.15439 0.16413
# Poissons Ratio (y) = 0.37206 -0.17679
# Poissons Ratio (z) = 0.36889 -0.16488
#
# Static dielectric constant tensor:
#      x y z
#    x 1.842390 0.000000 0.001590 
#    y 0.000000 1.769340 0.000000 
#    z 0.001590 0.000000 2.003920 
# 
# From -- ./inp_files/274727.got.cif
#   From: 2010.05.17/outbox.cif.g08.bks.cpg/sg12_138_cif.got.tgz:274727.got - 2010.06.03 13:09:07.
