data_PCOD9194563
_publ_section_title
;
Structure prediction by ZEFSAII (Michael W. Deem and Ramdas Pophale) SiO2 
 PCOD9194563
Probable space group: C 2/M
;
_chemical_formula_sum "Si O2"
_cell_formula_units_Z 58
_cell_length_a 21.401620
_cell_length_b 16.126045
_cell_length_c 7.709228
_cell_angle_alpha 90.000000
_cell_angle_beta 104.141587
_cell_angle_gamma 90.000000
_cell_volume 2580.004919
_symmetry_space_group_name_H-M "C 2/M"
_symmetry_group_IT_number 12
_symmetry_cell_setting 'monoclinic'
loop_
_space_group_symop_operation_xyz
x,y,z
-x,y,-z
-x,-y,-z
x,-y,z
1/2+x,1/2+y,z
1/2-x,1/2+y,-z
1/2-x,1/2-y,-z
1/2+x,1/2-y,z
loop_
_atom_site_type_symbol
_atom_site_label
_atom_site_fract_x
_atom_site_fract_y
_atom_site_fract_z
Si Si1 0.221200 0.159217 0.936847
Si Si2 0.260865 0.089861 0.418084
Si Si3 0.000000 0.500000 0.000000
Si Si4 0.969861 0.363637 0.287370
Si Si5 0.151082 0.273795 0.652797
Si Si6 0.339987 0.091179 0.830227
Si Si7 0.632166 0.591875 0.178298
Si Si8 0.921823 0.742301 0.760559
O O1 0.171823 0.187873 0.752868
O O2 0.283190 0.105340 0.927569
O O3 0.250000 0.250000 0.000000
O O4 0.179269 0.112437 0.050151
O O5 0.285940 0.170731 0.338967
O O6 0.299860 0.090069 0.623566
O O7 0.183867 0.093509 0.372309
O O8 0.276737 0.000000 0.345749
O O9 0.984784 0.428758 0.145384
O O10 0.897064 0.334244 0.273035
O O11 0.000000 0.387673 0.500000
O O12 0.007175 0.282588 0.245780
O O13 0.117465 0.258587 0.446433
O O14 0.387847 0.169007 0.849481
O O15 0.373875 0.000000 0.870133
O O16 0.604465 0.500000 0.146774
O O17 0.584573 0.668322 0.160656
#
# Coordination Sequence:
#
# PCOD9194563 Si02
#       8
#     8   8   2   8   8   8   8   8
#     4  12  21  34  55  85 123 158 195 257 312 375
#     4   9  18  33  55  85 115 155 199 242 304 372
#     4  12  26  40  68  98 126 180 210 256 312 380
#     4  10  25  44  64  95 132 168 217 263 308 378
#     4  10  21  39  61  83 120 167 198 257 315 366
#     4  10  20  34  56  85 119 157 200 244 305 376
#     4  11  22  37  58  87 120 156 201 258 316 370
#     4  10  21  41  63  85 119 164 209 258 309 371
#
# _framework density 22.480578999999999
#
# number of rings (size 3 to 8) (size 9 to 14) (size 15 to 20)
#    0.000    1.655    2.759    1.448    3.862    2.207 
#    0.000    0.690    0.000    6.207    0.000    0.000 
#    0.000    0.000    0.000    0.000    0.000    0.000 
#
# Total GULP energy -161734.090516 kJ/mol
# GULP energy per Si atom -5577.037604 kJ/mol
# Density = 2.242941 g / cm^3
# Si number density = 22.480579 Si / 1000 Ang^3
#
#
#
# Elastic Constant Matrix: (Units=GPa)
#
#
# Indices 1 2 3 4 5 6 
#
# 1 37.4360 27.2698 13.9136 0.0000 -11.8482 0.0000
# 2 27.2698 152.9762 32.7969 0.0000 -15.4685 0.0000
# 3 13.9136 32.7969 85.0108 0.0000 -12.5039 0.0000
# 4 0.0000 0.0000 0.0000 28.5272 0.0000 -6.9135
# 5 -11.8482 -15.4685 -12.5039 0.0000 31.2589 0.0000
# 6 0.0000 0.0000 0.0000 -6.9135 0.0000 29.7539
#
#
#
# Elastic Compliance Matrix: (Units=1/GPa)
#
#
# Indices 1 2 3 4 5 6 
#
# 1 0.033985 -0.004571 -0.002377 0.000000 0.009669 0.000000
# 2 -0.004571 0.007942 -0.002117 0.000000 0.001351 0.000000
# 3 -0.002377 -0.002117 0.013475 0.000000 0.003442 0.000000
# 4 0.000000 0.000000 0.000000 0.037146 0.000000 0.008631
# 5 0.009669 0.001351 0.003442 0.000000 0.037701 0.000000
# 6 0.000000 0.000000 0.000000 0.008631 0.000000 0.035615
#
#
# Mechanical properties :
#
#
# Convention : Reuss Voigt Hill
#
# Bulk Modulus (GPa) = 26.82914 47.04262 36.93588
# Shear Modulus (GPa) = 25.45582 31.33752 28.39667
#
# Velocity S-wave (km/s) = 3.36869 3.73766 3.55796
# Velocity P-wave (km/s) = 5.20490 6.29270 5.77447
#
# Compressibility (1/GPa) = 0.03727291
#
# Stress axis : x y z
#
# Youngs Moduli (GPa) = 29.42437 125.90775 74.20997
#
# Poissons Ratio (x) = 0.57553 0.17637
# Poissons Ratio (y) = 0.13450 0.15713
# Poissons Ratio (z) = 0.06993 0.26659
#
# Static dielectric constant tensor:
#      x y z
#    x 1.492770 0.000000 -0.121270 
#    y 0.000000 1.821680 0.000000 
#    z -0.121270 0.000000 1.895690 
# 
# From -- ./inp_files/96393.got.cif
#   From: 2010.05.17/outbox.cif.g08.bks.cpg/sg12_49_cif.got.tgz:96393.got - 2010.06.03 13:09:07.
