data_PCOD9194798
_publ_section_title
;
Structure prediction by ZEFSAII (Michael W. Deem and Ramdas Pophale) SiO2 
 PCOD9194798
Probable space group: C 2/M
;
_chemical_formula_sum "Si O2"
_cell_formula_units_Z 56
_cell_length_a 29.890910
_cell_length_b 8.761234
_cell_length_c 11.820739
_cell_angle_alpha 90.000000
_cell_angle_beta 110.744910
_cell_angle_gamma 90.000000
_cell_volume 2894.930019
_symmetry_space_group_name_H-M "C 2/M"
_symmetry_group_IT_number 12
_symmetry_cell_setting 'monoclinic'
loop_
_space_group_symop_operation_xyz
x,y,z
-x,y,-z
-x,-y,-z
x,-y,z
1/2+x,1/2+y,z
1/2-x,1/2+y,-z
1/2-x,1/2-y,-z
1/2+x,1/2-y,z
loop_
_atom_site_type_symbol
_atom_site_label
_atom_site_fract_x
_atom_site_fract_y
_atom_site_fract_z
Si Si1 0.099820 0.315322 0.833080
Si Si2 0.444779 0.185489 0.445812
Si Si3 0.274924 0.816198 0.353401
Si Si4 0.512089 0.318164 0.881089
Si Si5 0.706795 0.184334 0.888614
Si Si6 0.421320 0.182614 0.672953
Si Si7 0.176791 0.818332 0.380949
O O1 0.097054 0.500000 0.835979
O O2 0.080875 0.266318 0.691891
O O3 0.063425 0.246096 0.890467
O O4 0.155127 0.269995 0.891478
O O5 0.500000 0.235614 0.500000
O O6 0.419608 0.231567 0.539584
O O7 0.445002 0.000000 0.444494
O O8 0.289062 0.769288 0.239667
O O9 0.219548 0.779363 0.332349
O O10 0.305624 0.741673 0.480974
O O11 0.280932 0.000000 0.367441
O O12 0.511349 0.500000 0.865038
O O13 0.470606 0.243594 0.768213
O O14 0.500000 0.283036 0.000000
O O15 0.709137 0.000000 0.892293
O O16 0.750000 0.250000 0.000000
O O17 0.374340 0.245864 0.691760
O O18 0.421502 0.000000 0.677621
O O19 0.172258 0.000000 0.379955
#
# Coordination Sequence:
#
# PCOD9194798 Si02
#       7
#     8   8   8   8   8   8   8
#     4  10  20  38  62  87 113 145 190 239 287 341
#     4   9  16  31  58  87 112 142 182 230 281 336
#     4   9  19  38  59  81 113 155 193 231 286 344
#     4  11  25  42  57  78 114 154 190 233 284 338
#     4  10  22  39  60  84 114 152 196 242 286 341
#     4  11  21  36  60  86 115 152 191 230 279 343
#     4  10  20  34  57  88 120 149 185 235 285 338
#
# _framework density 19.344163999999999
#
# number of rings (size 3 to 8) (size 9 to 14) (size 15 to 20)
#    0.000    2.000    1.429    2.143    0.000    6.286 
#    0.000    7.857    0.000    0.000    0.000    0.000 
#    0.000    0.000    0.000    0.000    0.000    0.000 
#
# Total GULP energy -156387.492878 kJ/mol
# GULP energy per Si atom -5585.267603 kJ/mol
# Density = 1.930014 g / cm^3
# Si number density = 19.344164 Si / 1000 Ang^3
#
#
#
# Elastic Constant Matrix: (Units=GPa)
#
#
# Indices 1 2 3 4 5 6 
#
# 1 180.8062 47.4506 56.9209 0.0000 5.3173 0.0000
# 2 47.4506 23.8941 29.0903 0.0000 -6.2210 0.0000
# 3 56.9209 29.0903 55.6894 0.0000 -2.6482 0.0000
# 4 0.0000 0.0000 0.0000 28.1752 0.0000 3.1069
# 5 5.3173 -6.2210 -2.6482 0.0000 30.1799 0.0000
# 6 0.0000 0.0000 0.0000 3.1069 0.0000 24.3548
#
#
#
# Elastic Compliance Matrix: (Units=1/GPa)
#
#
# Indices 1 2 3 4 5 6 
#
# 1 0.013358 -0.032063 0.002680 0.000000 -0.008728 0.000000
# 2 -0.032063 0.203227 -0.071424 0.000000 0.041273 0.000000
# 3 0.002680 -0.071424 0.052022 0.000000 -0.010630 0.000000
# 4 0.000000 0.000000 0.000000 0.035999 0.000000 -0.004592
# 5 -0.008728 0.041273 -0.010630 0.000000 0.042247 0.000000
# 6 0.000000 0.000000 0.000000 -0.004592 0.000000 0.041646
#
#
# Mechanical properties :
#
#
# Convention : Reuss Voigt Hill
#
# Bulk Modulus (GPa) = 14.92714 58.59037 36.75876
# Shear Modulus (GPa) = 8.16402 25.00383 16.58392
#
# Velocity S-wave (km/s) = 2.05659 3.59914 2.93116
# Velocity P-wave (km/s) = 3.65688 6.90115 5.52262
#
# Compressibility (1/GPa) = 0.06699207
#
# Stress axis : x y z
#
# Youngs Moduli (GPa) = 74.85974 4.92062 19.22265
#
# Poissons Ratio (x) = 0.15777 -0.05151
# Poissons Ratio (y) = 2.40021 1.37297
# Poissons Ratio (z) = -0.20061 0.35145
#
# Static dielectric constant tensor:
#      x y z
#    x 1.685680 0.000000 -0.009230 
#    y 0.000000 1.660990 0.000000 
#    z -0.009230 0.000000 1.654390 
# 
# From -- ./inp_files/181121.got.cif
#   From: 2010.05.17/outbox.cif.g08.bks.cpg/sg12_91_cif.got.tgz:181121.got - 2010.06.03 13:09:07.
