data_PCOD9194651
_publ_section_title
;
Structure prediction by ZEFSAII (Michael W. Deem and Ramdas Pophale) SiO2 
 PCOD9194651
Probable space group: C 2/M
;
_chemical_formula_sum "Si O2"
_cell_formula_units_Z 64
_cell_length_a 23.330768
_cell_length_b 19.510677
_cell_length_c 13.727022
_cell_angle_alpha 90.000000
_cell_angle_beta 146.726154
_cell_angle_gamma 90.000000
_cell_volume 3428.200003
_symmetry_space_group_name_H-M "C 2/M"
_symmetry_group_IT_number 12
_symmetry_cell_setting 'monoclinic'
loop_
_space_group_symop_operation_xyz
x,y,z
-x,y,-z
-x,-y,-z
x,-y,z
1/2+x,1/2+y,z
1/2-x,1/2+y,-z
1/2-x,1/2-y,-z
1/2+x,1/2-y,z
loop_
_atom_site_type_symbol
_atom_site_label
_atom_site_fract_x
_atom_site_fract_y
_atom_site_fract_z
Si Si1 0.021146 0.579640 0.925602
Si Si2 0.731936 0.246996 0.089696
Si Si3 0.409916 0.827101 0.451136
Si Si4 0.519696 0.574574 0.413588
Si Si5 0.290997 0.676817 0.525355
Si Si6 0.749658 0.377365 0.743867
Si Si7 0.003302 0.789421 0.731372
Si Si8 0.840997 0.417470 0.526728
O O1 0.990981 0.500000 0.889829
O O2 0.943590 0.606318 0.733916
O O3 0.143517 0.584219 0.081230
O O4 0.000000 0.613018 0.000000
O O5 0.809607 0.300142 0.250377
O O6 0.762833 0.176368 0.186364
O O7 0.750000 0.250000 0.000000
O O8 0.608749 0.260966 0.928874
O O9 0.500000 0.843663 0.500000
O O10 0.454616 0.766648 0.586576
O O11 0.367672 0.888343 0.458473
O O12 0.500000 0.579151 0.500000
O O13 0.482780 0.500000 0.325234
O O14 0.645149 0.579079 0.582592
O O15 0.472587 0.640961 0.294420
O O16 0.250000 0.750000 0.500000
O O17 0.242289 0.658984 0.350194
O O18 0.414071 0.687231 0.680221
O O19 0.254066 0.620177 0.551566
O O20 0.828862 0.500000 0.509693
#
# Coordination Sequence:
#
# PCOD9194651 Si02
#       8
#     8   8   8   8   8   8   8   8
#     4  10  20  34  56  91 123 152 198 257 322 386
#     4  12  23  37  64  95 128 175 220 276 327 382
#     4  12  23  43  66  93 130 170 223 277 327 395
#     4  10  20  36  56  82 123 166 205 257 318 381
#     4  11  21  38  60  89 125 160 209 261 323 390
#     4  11  21  34  59  88 121 161 208 264 332 378
#     4  11  22  39  63  94 130 164 218 265 330 389
#     4  11  24  43  65  92 131 175 213 267 338 405
#
# _framework density 18.668689000000001
#
# number of rings (size 3 to 8) (size 9 to 14) (size 15 to 20)
#    0.000    1.000    6.250    2.250    0.000    2.250 
#    0.000    2.500    0.000    0.750    0.000    0.000 
#    0.000    0.000    0.000    0.000    0.000    0.000 
#
# Total GULP energy -178475.655868 kJ/mol
# GULP energy per Si atom -5577.364246 kJ/mol
# Density = 1.862620 g / cm^3
# Si number density = 18.668689 Si / 1000 Ang^3
#
#
#
# Elastic Constant Matrix: (Units=GPa)
#
#
# Indices 1 2 3 4 5 6 
#
# 1 104.5678 34.9680 23.8605 0.0000 -8.6940 0.0000
# 2 34.9680 97.6048 7.5188 0.0000 -17.3962 0.0000
# 3 23.8605 7.5188 81.9482 0.0000 5.2592 0.0000
# 4 0.0000 0.0000 0.0000 1.9718 0.0000 15.6779
# 5 -8.6940 -17.3962 5.2592 0.0000 28.1055 0.0000
# 6 0.0000 0.0000 0.0000 15.6779 0.0000 6.9733
#
#
#
# Elastic Compliance Matrix: (Units=1/GPa)
#
#
# Indices 1 2 3 4 5 6 
#
# 1 0.011652 -0.003574 -0.003193 0.000000 0.001990 0.000000
# 2 -0.003574 0.012805 -0.000579 0.000000 0.006929 0.000000
# 3 -0.003193 -0.000579 0.013433 0.000000 -0.003860 0.000000
# 4 0.000000 0.000000 0.000000 -0.030051 0.000000 0.067564
# 5 0.001990 0.006929 -0.003860 0.000000 0.041206 0.000000
# 6 0.000000 0.000000 0.000000 0.067564 0.000000 -0.008498
#
#
# Mechanical properties :
#
#
# Convention : Reuss Voigt Hill
#
# Bulk Modulus (GPa) = 43.10367 46.31283 44.70825
# Shear Modulus (GPa) = 79.39963 21.92836 50.66400
#
# Velocity S-wave (km/s) = 6.52865 3.43097 5.21511
# Velocity P-wave (km/s) = 8.94259 6.36844 7.76295
#
# Compressibility (1/GPa) = 0.02319988
#
# Stress axis : x y z
#
# Youngs Moduli (GPa) = 85.82047 78.09250 74.44247
#
# Poissons Ratio (x) = 0.27910 0.23766
# Poissons Ratio (y) = 0.30672 0.04310
# Poissons Ratio (z) = 0.27398 0.04521
#
# Static dielectric constant tensor:
#      x y z
#    x 1.801690 0.000000 0.092190 
#    y 0.000000 1.661110 0.000000 
#    z 0.092190 0.000000 1.704630 
# 
# From -- ./inp_files/169711.got.cif
#   From: 2010.05.17/outbox.cif.g08.bks.cpg/sg12_85_cif.got.tgz:169711.got - 2010.06.03 13:09:07.
