data_PCOD9194707
_publ_section_title
;
Structure prediction by ZEFSAII (Michael W. Deem and Ramdas Pophale) SiO2 
 PCOD9194707
Probable space group: C 2/M
;
_chemical_formula_sum "Si O2"
_cell_formula_units_Z 64
_cell_length_a 23.808933
_cell_length_b 7.640837
_cell_length_c 15.392129
_cell_angle_alpha 90.000000
_cell_angle_beta 85.290273
_cell_angle_gamma 90.000000
_cell_volume 2790.684044
_symmetry_space_group_name_H-M "C 2/M"
_symmetry_group_IT_number 12
_symmetry_cell_setting 'monoclinic'
loop_
_space_group_symop_operation_xyz
x,y,z
-x,y,-z
-x,-y,-z
x,-y,z
1/2+x,1/2+y,z
1/2-x,1/2+y,-z
1/2-x,1/2-y,-z
1/2+x,1/2-y,z
loop_
_atom_site_type_symbol
_atom_site_label
_atom_site_fract_x
_atom_site_fract_y
_atom_site_fract_z
Si Si1 0.711138 0.207179 0.618157
Si Si2 0.351003 0.798918 0.827455
Si Si3 0.165306 0.796753 0.447093
Si Si4 0.452528 0.790147 0.079113
Si Si5 0.833184 0.199926 0.023434
Si Si6 0.974451 0.709379 0.773086
Si Si7 0.267443 0.711912 0.197793
Si Si8 0.958362 0.788956 0.580413
O O1 0.774762 0.279653 0.592664
O O2 0.669834 0.285808 0.551310
O O3 0.698513 0.238735 0.720561
O O4 0.711591 0.000000 0.602014
O O5 0.412256 0.718331 0.804764
O O6 0.296749 0.720571 0.786862
O O7 0.354993 0.000000 0.797357
O O8 0.336790 0.796253 0.931420
O O9 0.106068 0.721517 0.421433
O O10 0.165956 0.000000 0.420906
O O11 0.395061 0.703047 0.057398
O O12 0.478114 0.726182 0.166879
O O13 0.441930 0.000000 0.083859
O O14 0.500000 0.761546 0.000000
O O15 0.793092 0.274505 0.103505
O O16 0.816387 0.000000 0.006871
O O17 0.972731 0.500000 0.788594
O O18 0.982872 0.744282 0.671244
O O19 0.266550 0.500000 0.193294
O O20 0.000000 0.724528 0.500000
O O21 0.955346 0.000000 0.573268
#
# Coordination Sequence:
#
# PCOD9194707 Si02
#       8
#     8   8   8   8   8   8   8   8
#     4  10  20  34  57  85 109 142 187 232 278 331
#     4  10  20  38  60  80 109 150 190 229 280 338
#     4   9  19  37  58  80 111 145 181 228 282 336
#     4  10  20  39  61  81 112 150 190 234 279 334
#     4  11  23  36  54  84 115 147 187 233 283 332
#     4  10  21  37  61  87 108 143 192 236 279 328
#     4  10  22  37  54  80 116 151 184 227 283 341
#     4  10  22  39  58  82 114 150 183 225 285 341
#
# _framework density 22.933443
#
# number of rings (size 3 to 8) (size 9 to 14) (size 15 to 20)
#    0.000    2.000    1.250    1.875    0.000    5.000 
#    0.000    3.750    0.000    0.000    0.000    0.000 
#    0.000    0.000    0.000    0.000    0.000    0.000 
#
# Total GULP energy -178839.989655 kJ/mol
# GULP energy per Si atom -5588.749677 kJ/mol
# Density = 2.288125 g / cm^3
# Si number density = 22.933443 Si / 1000 Ang^3
#
#
#
# Elastic Constant Matrix: (Units=GPa)
#
#
# Indices 1 2 3 4 5 6 
#
# 1 45.9175 4.1689 1.6425 0.0000 21.3002 0.0000
# 2 4.1689 50.7505 -10.9296 0.0000 -4.3693 0.0000
# 3 1.6425 -10.9296 111.6850 0.0000 19.4994 0.0000
# 4 0.0000 0.0000 0.0000 21.4424 0.0000 -0.2562
# 5 21.3002 -4.3693 19.4994 0.0000 33.7553 0.0000
# 6 0.0000 0.0000 0.0000 -0.2562 0.0000 7.1646
#
#
#
# Elastic Compliance Matrix: (Units=1/GPa)
#
#
# Indices 1 2 3 4 5 6 
#
# 1 0.032670 -0.003984 0.003135 0.000000 -0.022942 0.000000
# 2 -0.003984 0.020695 0.001309 0.000000 0.004436 0.000000
# 3 0.003135 0.001309 0.010401 0.000000 -0.007817 0.000000
# 4 0.000000 0.000000 0.000000 0.046656 0.000000 0.001669
# 5 -0.022942 0.004436 -0.007817 0.000000 0.049192 0.000000
# 6 0.000000 0.000000 0.000000 0.001669 0.000000 0.139634
#
#
# Mechanical properties :
#
#
# Convention : Reuss Voigt Hill
#
# Bulk Modulus (GPa) = 15.45881 22.01294 18.73587
# Shear Modulus (GPa) = 15.63041 26.70388 21.16714
#
# Velocity S-wave (km/s) = 2.61349 3.41604 3.04136
# Velocity P-wave (km/s) = 3.98277 5.01783 4.52996
#
# Compressibility (1/GPa) = 0.06468803
#
# Stress axis : x y z
#
# Youngs Moduli (GPa) = 30.60891 48.31992 96.14848
#
# Poissons Ratio (x) = 0.19249 -0.30145
# Poissons Ratio (y) = 0.12194 -0.12589
# Poissons Ratio (z) = -0.09597 -0.06327
#
# Static dielectric constant tensor:
#      x y z
#    x 1.864080 0.000000 -0.006210 
#    y 0.000000 1.873300 0.000000 
#    z -0.006210 0.000000 1.842330 
# 
# From -- ./inp_files/238671.got.cif
#   From: 2010.05.17/outbox.cif.g08.bks.cpg/sg12_120_cif.got.tgz:238671.got - 2010.06.03 13:09:07.
