data_PCOD9194875
_publ_section_title
;
Structure prediction by ZEFSAII (Michael W. Deem and Ramdas Pophale) SiO2 
 PCOD9194875
Probable space group: C 2/M
;
_chemical_formula_sum "Si O2"
_cell_formula_units_Z 56
_cell_length_a 17.036519
_cell_length_b 18.677055
_cell_length_c 8.728786
_cell_angle_alpha 90.000000
_cell_angle_beta 61.154046
_cell_angle_gamma 90.000000
_cell_volume 2432.806417
_symmetry_space_group_name_H-M "C 2/M"
_symmetry_group_IT_number 12
_symmetry_cell_setting 'monoclinic'
loop_
_space_group_symop_operation_xyz
x,y,z
-x,y,-z
-x,-y,-z
x,-y,z
1/2+x,1/2+y,z
1/2-x,1/2+y,-z
1/2-x,1/2-y,-z
1/2+x,1/2-y,z
loop_
_atom_site_type_symbol
_atom_site_label
_atom_site_fract_x
_atom_site_fract_y
_atom_site_fract_z
Si Si1 0.858791 0.332629 0.371546
Si Si2 0.801164 0.416657 0.166244
Si Si3 0.097115 0.185321 0.826436
Si Si4 0.398178 0.213113 0.652958
Si Si5 0.341890 0.652821 0.915890
Si Si6 0.979892 0.917127 0.342001
Si Si7 0.043651 0.416626 0.204614
O O1 0.787727 0.376002 0.338674
O O2 0.887142 0.264905 0.244961
O O3 0.840037 0.299314 0.555213
O O4 0.943069 0.386642 0.303891
O O5 0.779523 0.500000 0.201838
O O6 0.740946 0.380623 0.093735
O O7 0.903205 0.410745 0.006572
O O8 0.087699 0.132724 0.689861
O O9 0.166432 0.166779 0.896017
O O10 0.000000 0.184128 0.000000
O O11 0.500000 0.231153 0.500000
O O12 0.367770 0.273979 0.800751
O O13 0.405731 0.136807 0.728685
O O14 0.423447 0.596846 0.824344
O O15 0.000000 0.898295 0.500000
O O16 0.953217 0.000000 0.359576
O O17 0.046363 0.500000 0.245908
#
# Coordination Sequence:
#
# PCOD9194875 Si02
#       7
#     8   8   8   8   8   8   8
#     4  11  21  37  61  86 114 149 195 242 292 347
#     4  11  24  39  58  85 117 154 194 240 295 348
#     4  10  20  34  58  85 110 146 194 237 283 345
#     4  10  21  37  61  88 115 150 195 241 291 349
#     4  11  22  38  58  83 119 154 195 241 287 345
#     4  10  20  36  59  85 115 151 192 242 295 343
#     4  10  21  38  59  85 117 152 193 241 291 346
#
# _framework density 23.018682999999999
#
# number of rings (size 3 to 8) (size 9 to 14) (size 15 to 20)
#    0.000    1.571    0.000    7.714    0.000   10.286 
#    0.000    1.429    0.000    1.714    0.000    0.000 
#    0.000    0.000    0.000    0.000    0.000    0.000 
#
# Total GULP energy -156629.595363 kJ/mol
# GULP energy per Si atom -5593.914120 kJ/mol
# Density = 2.296629 g / cm^3
# Si number density = 23.018683 Si / 1000 Ang^3
#
#
#
# Elastic Constant Matrix: (Units=GPa)
#
#
# Indices 1 2 3 4 5 6 
#
# 1 91.0973 43.6232 41.4884 0.0000 27.5271 0.0000
# 2 43.6232 176.0534 49.9970 0.0000 31.5579 0.0000
# 3 41.4884 49.9970 90.9975 0.0000 25.9861 0.0000
# 4 0.0000 0.0000 0.0000 19.1009 0.0000 5.5441
# 5 27.5271 31.5579 25.9861 0.0000 49.0532 0.0000
# 6 0.0000 0.0000 0.0000 5.5441 0.0000 17.6648
#
#
#
# Elastic Compliance Matrix: (Units=1/GPa)
#
#
# Indices 1 2 3 4 5 6 
#
# 1 0.015426 -0.001562 -0.004701 0.000000 -0.005161 0.000000
# 2 -0.001562 0.007230 -0.002571 0.000000 -0.002413 0.000000
# 3 -0.004701 -0.002571 0.015694 0.000000 -0.004022 0.000000
# 4 0.000000 0.000000 0.000000 0.057601 0.000000 -0.018078
# 5 -0.005161 -0.002413 -0.004022 0.000000 0.026965 0.000000
# 6 0.000000 0.000000 0.000000 -0.018078 0.000000 0.062283
#
#
# Mechanical properties :
#
#
# Convention : Reuss Voigt Hill
#
# Bulk Modulus (GPa) = 48.35356 69.81838 59.08597
# Shear Modulus (GPa) = 23.83669 32.03308 27.93489
#
# Velocity S-wave (km/s) = 3.22147 3.73448 3.48742
# Velocity P-wave (km/s) = 5.90669 6.99944 6.47615
#
# Compressibility (1/GPa) = 0.02068100
#
# Stress axis : x y z
#
# Youngs Moduli (GPa) = 64.82636 138.31679 63.71967
#
# Poissons Ratio (x) = 0.21607 0.29954
# Poissons Ratio (y) = 0.10127 0.16383
# Poissons Ratio (z) = 0.30475 0.35563
#
# Static dielectric constant tensor:
#      x y z
#    x 1.921630 0.000000 -0.014590 
#    y 0.000000 1.782430 0.000000 
#    z -0.014590 0.000000 1.948100 
# 
# From -- ./inp_files/75849.got.cif
#   From: 2010.05.17/outbox.cif.g08.bks.cpg/sg12_38_cif.got.tgz:75849.got - 2010.06.03 13:09:07.
