data_PCOD9194350
_publ_section_title
;
Structure prediction by ZEFSAII (Michael W. Deem and Ramdas Pophale) SiO2 
 PCOD9194350
Probable space group: C 2/M
;
_chemical_formula_sum "Si O2"
_cell_formula_units_Z 60
_cell_length_a 14.811138
_cell_length_b 14.271492
_cell_length_c 27.266822
_cell_angle_alpha 90.000000
_cell_angle_beta 149.545544
_cell_angle_gamma 90.000000
_cell_volume 2921.289571
_symmetry_space_group_name_H-M "C 2/M"
_symmetry_group_IT_number 12
_symmetry_cell_setting 'monoclinic'
loop_
_space_group_symop_operation_xyz
x,y,z
-x,y,-z
-x,-y,-z
x,-y,z
1/2+x,1/2+y,z
1/2-x,1/2+y,-z
1/2-x,1/2-y,-z
1/2+x,1/2-y,z
loop_
_atom_site_type_symbol
_atom_site_label
_atom_site_fract_x
_atom_site_fract_y
_atom_site_fract_z
Si Si1 0.102475 0.606690 0.596811
Si Si2 0.977061 0.109294 0.199827
Si Si3 0.476894 0.241744 0.045149
Si Si4 0.000000 0.861608 0.500000
Si Si5 0.545517 0.735292 0.416580
Si Si6 0.872903 0.768897 0.240058
Si Si7 0.910771 0.396452 0.707963
Si Si8 0.402467 0.803223 0.114858
O O1 0.049152 0.500000 0.578796
O O2 0.313343 0.612892 0.688902
O O3 0.000000 0.640076 0.500000
O O4 0.046434 0.664958 0.617429
O O5 0.877488 0.150428 0.200902
O O6 0.945434 0.191990 0.145085
O O7 0.933796 0.000000 0.167919
O O8 0.676316 0.274840 0.150968
O O9 0.430953 0.176505 0.070742
O O10 0.500000 0.205755 0.000000
O O11 0.305230 0.310814 0.965892
O O12 0.974220 0.813696 0.540750
O O13 0.801279 0.902176 0.398515
O O14 0.750000 0.750000 0.500000
O O15 0.441353 0.689101 0.323043
O O16 0.008426 0.686792 0.287381
O O17 0.985260 0.500000 0.732593
O O18 0.971100 0.363082 0.790628
#
# Coordination Sequence:
#
# PCOD9194350 Si02
#       8
#     8   8   8   4   8   8   8   8
#     4  10  20  34  55  86 120 155 202 254 302 360
#     4  10  20  39  63  89 122 159 202 254 311 365
#     4  11  20  41  71  92 125 165 205 261 321 364
#     4  12  23  42  63  88 128 170 211 260 310 378
#     4  12  22  38  64  90 120 166 209 251 315 373
#     4  11  22  40  63  96 124 161 212 264 308 375
#     4  11  23  42  64  91 130 172 213 256 312 379
#     4  10  23  42  67  92 125 167 206 257 315 376
#
# _framework density 20.538875999999998
#
# number of rings (size 3 to 8) (size 9 to 14) (size 15 to 20)
#    0.000    1.200    4.667    4.200    0.000    0.533 
#    0.000    9.333    0.000    0.000    0.000    0.000 
#    0.000    0.000    0.000    0.000    0.000    0.000 
#
# Total GULP energy -167056.712522 kJ/mol
# GULP energy per Si atom -5568.557084 kJ/mol
# Density = 2.049213 g / cm^3
# Si number density = 20.538876 Si / 1000 Ang^3
#
#
#
# Elastic Constant Matrix: (Units=GPa)
#
#
# Indices 1 2 3 4 5 6 
#
# 1 117.8081 16.1257 31.1601 0.0000 -7.2773 0.0000
# 2 16.1257 60.0390 11.8455 0.0000 7.4376 0.0000
# 3 31.1601 11.8455 125.8731 -0.0001 7.9902 0.0000
# 4 0.0000 0.0000 -0.0001 3.5749 0.0000 1.5916
# 5 -7.2773 7.4376 7.9902 0.0000 49.3443 0.0000
# 6 0.0000 0.0000 0.0000 1.5916 0.0000 7.7823
#
#
#
# Elastic Compliance Matrix: (Units=1/GPa)
#
#
# Indices 1 2 3 4 5 6 
#
# 1 0.009548 -0.002380 -0.002275 0.000000 0.002135 0.000000
# 2 -0.002380 0.017832 -0.000905 0.000000 -0.002892 0.000000
# 3 -0.002275 -0.000905 0.008695 0.000000 -0.001607 0.000000
# 4 0.000000 0.000000 0.000000 0.307753 0.000000 -0.062941
# 5 0.002135 -0.002892 -0.001607 0.000000 0.021277 0.000000
# 6 0.000000 0.000000 0.000000 -0.062941 0.000000 0.141369
#
#
# Mechanical properties :
#
#
# Convention : Reuss Voigt Hill
#
# Bulk Modulus (GPa) = 40.07423 46.88698 43.48060
# Shear Modulus (GPa) = 9.50728 28.44624 18.97676
#
# Velocity S-wave (km/s) = 2.15383 3.72559 3.04294
# Velocity P-wave (km/s) = 5.07337 6.43309 5.79326
#
# Compressibility (1/GPa) = 0.02495369
#
# Stress axis : x y z
#
# Youngs Moduli (GPa) = 104.73571 56.07893 115.00953
#
# Poissons Ratio (x) = 0.13347 0.26166
# Poissons Ratio (y) = 0.24928 0.10412
# Poissons Ratio (z) = 0.23829 0.05077
#
# Static dielectric constant tensor:
#      x y z
#    x 1.775810 0.000000 -0.021290 
#    y 0.000000 1.702230 0.000000 
#    z -0.021290 0.000000 1.805210 
# 
# From -- ./inp_files/361573.got.cif
#   From: 2010.05.17/outbox.cif.g08.bks.cpg/sg12_181_cif.got.tgz:361573.got - 2010.06.03 13:09:07.
