data_PCOD9194066
_publ_section_title
;
Structure prediction by ZEFSAII (Michael W. Deem and Ramdas Pophale) SiO2 
 PCOD9194066
Probable space group: C 2/M
;
_chemical_formula_sum "Si O2"
_cell_formula_units_Z 48
_cell_length_a 10.120148
_cell_length_b 14.338347
_cell_length_c 29.429563
_cell_angle_alpha 90.000000
_cell_angle_beta 36.282513
_cell_angle_gamma 90.000000
_cell_volume 2527.089578
_symmetry_space_group_name_H-M "C 2/M"
_symmetry_group_IT_number 12
_symmetry_cell_setting 'monoclinic'
loop_
_space_group_symop_operation_xyz
x,y,z
-x,y,-z
-x,-y,-z
x,-y,z
1/2+x,1/2+y,z
1/2-x,1/2+y,-z
1/2-x,1/2-y,-z
1/2+x,1/2-y,z
loop_
_atom_site_type_symbol
_atom_site_label
_atom_site_fract_x
_atom_site_fract_y
_atom_site_fract_z
Si Si1 0.261898 0.691889 0.432747
Si Si2 0.932258 0.805034 0.826255
Si Si3 0.850119 0.000000 0.886441
Si Si4 0.802740 0.393030 0.454906
Si Si5 0.663337 0.393040 0.680284
Si Si6 0.947668 0.702158 0.915525
Si Si7 0.889357 0.500000 0.956490
O O1 0.319135 0.645487 0.465535
O O2 0.278407 0.804503 0.428064
O O3 0.387186 0.643767 0.356291
O O4 0.000000 0.670275 0.500000
O O5 0.966089 0.906279 0.839586
O O6 0.978562 0.738295 0.855790
O O7 0.677315 0.789601 0.880411
O O8 0.074663 0.817449 0.741010
O O9 0.615983 0.000000 0.923811
O O10 0.803595 0.000000 0.952568
O O11 0.733324 0.500000 0.463079
O O12 0.069137 0.397715 0.389195
O O13 0.576952 0.500000 0.711036
O O14 0.887786 0.593687 0.929040
O O15 0.750000 0.750000 0.000000
#
# Coordination Sequence:
#
# PCOD9194066 Si02
#       7
#     8   8   4   8   8   8   4
#     4   9  18  33  54  80 108 143 182 222 266 323
#     4  11  22  36  58  85 110 145 182 234 281 330
#     4   9  16  34  57  82 100 140 189 220 267 332
#     4   9  18  33  54  79 109 143 182 224 269 322
#     4  10  20  34  55  80 107 142 186 231 271 319
#     4  11  22  38  59  82 109 144 186 229 279 337
#     4   9  18  34  58  77 108 137 182 228 268 335
#
# _framework density 18.994183
#
# number of rings (size 3 to 8) (size 9 to 14) (size 15 to 20)
#    0.000    2.167    2.500    1.000    2.333    2.333 
#    0.000    2.500    1.833    0.000    0.000    0.000 
#    0.000    0.000    0.000    0.000    0.000    0.000 
#
# Total GULP energy -133610.352376 kJ/mol
# GULP energy per Si atom -5567.098016 kJ/mol
# Density = 1.895095 g / cm^3
# Si number density = 18.994183 Si / 1000 Ang^3
#
#
#
# Elastic Constant Matrix: (Units=GPa)
#
#
# Indices 1 2 3 4 5 6 
#
# 1 45.2578 30.1576 17.2199 -0.0012 15.9676 0.0009
# 2 30.1576 124.3094 41.5113 -0.0009 23.4622 0.0010
# 3 17.2199 41.5113 67.9715 -0.0011 26.7450 0.0015
# 4 -0.0012 -0.0009 -0.0011 30.8075 0.0005 9.9416
# 5 15.9676 23.4622 26.7450 0.0005 28.1137 -0.0010
# 6 0.0009 0.0010 0.0015 9.9416 -0.0010 31.7598
#
#
#
# Elastic Compliance Matrix: (Units=1/GPa)
#
#
# Indices 1 2 3 4 5 6 
#
# 1 0.029891 -0.004952 0.000808 0.000002 -0.013613 -0.000002
# 2 -0.004952 0.011230 -0.004831 0.000000 -0.001963 0.000000
# 3 0.000808 -0.004831 0.025655 0.000002 -0.020833 -0.000002
# 4 0.000002 0.000000 0.000002 0.036107 -0.000004 -0.011302
# 5 -0.013613 -0.001963 -0.020833 -0.000004 0.064759 0.000005
# 6 -0.000002 0.000000 -0.000002 -0.011302 0.000005 0.035024
#
#
# Mechanical properties :
#
#
# Convention : Reuss Voigt Hill
#
# Bulk Modulus (GPa) = 20.48119 46.14624 33.31372
# Shear Modulus (GPa) = 21.10678 28.04619 24.57649
#
# Velocity S-wave (km/s) = 3.33712 3.84678 3.60098
# Velocity P-wave (km/s) = 5.06505 6.63913 5.90478
#
# Compressibility (1/GPa) = 0.04882528
#
# Stress axis : x y z
#
# Youngs Moduli (GPa) = 33.45506 89.05012 38.97867
#
# Poissons Ratio (x) = 0.44098 -0.03150
# Poissons Ratio (y) = 0.16567 0.18831
# Poissons Ratio (z) = -0.02703 0.43021
#
# Static dielectric constant tensor:
#      x y z
#    x 1.679140 0.000000 0.011820 
#    y 0.000000 1.675140 0.000000 
#    z 0.011820 0.000000 1.700080 
# 
# From -- ./inp_files/374053.got.cif
#   From: 2010.05.17/outbox.cif.g08.bks.cpg/sg12_188_cif.got.tgz:374053.got - 2010.06.03 13:09:07.
