data_PCOD9194010
_publ_section_title
;
Structure prediction by ZEFSAII (Michael W. Deem and Ramdas Pophale) SiO2 
 PCOD9194010
Probable space group: C 2/M
;
_chemical_formula_sum "Si O2"
_cell_formula_units_Z 52
_cell_length_a 8.950884
_cell_length_b 28.887193
_cell_length_c 16.925882
_cell_angle_alpha 90.000000
_cell_angle_beta 149.843504
_cell_angle_gamma 90.000000
_cell_volume 2198.572124
_symmetry_space_group_name_H-M "C 2/M"
_symmetry_group_IT_number 12
_symmetry_cell_setting 'monoclinic'
loop_
_space_group_symop_operation_xyz
x,y,z
-x,y,-z
-x,-y,-z
x,-y,z
1/2+x,1/2+y,z
1/2-x,1/2+y,-z
1/2-x,1/2-y,-z
1/2+x,1/2-y,z
loop_
_atom_site_type_symbol
_atom_site_label
_atom_site_fract_x
_atom_site_fract_y
_atom_site_fract_z
Si Si1 0.858133 0.782926 0.744357
Si Si2 0.146859 0.550789 0.823722
Si Si3 0.500000 0.205979 0.000000
Si Si4 0.695697 0.368455 0.396341
Si Si5 0.203449 0.553143 0.170966
Si Si6 0.211442 0.816944 0.704317
Si Si7 0.297130 0.146957 0.187924
O O1 0.817734 0.818400 0.654432
O O2 0.663353 0.737339 0.665762
O O3 0.790896 0.817080 0.785433
O O4 0.204614 0.767448 0.893559
O O5 0.041229 0.500000 0.747904
O O6 0.114205 0.594081 0.749675
O O7 0.983540 0.561288 0.833111
O O8 0.500000 0.546803 0.000000
O O9 0.389182 0.179122 0.870693
O O10 0.456747 0.408815 0.275070
O O11 0.586473 0.347735 0.430429
O O12 0.000000 0.387268 0.500000
O O13 0.314408 0.500000 0.226756
O O14 0.000000 0.556030 0.000000
O O15 0.440490 0.834063 0.745044
O O16 0.000000 0.142511 0.000000
#
# Coordination Sequence:
#
# PCOD9194010 Si02
#       7
#     8   8   4   8   8   8   8
#     4  11  24  35  57  88 124 162 201 255 306 366
#     4   9  19  33  54  87 123 150 182 235 301 364
#     4  10  20  34  54  88 125 154 201 254 308 358
#     4  11  26  44  62  87 122 169 213 251 302 366
#     4  10  22  41  67  96 122 154 200 256 312 365
#     4  11  22  37  57  86 124 164 202 254 303 366
#     4  11  20  32  55  89 120 156 189 249 318 359
#
# _framework density 23.651713000000001
#
# number of rings (size 3 to 8) (size 9 to 14) (size 15 to 20)
#    0.000    1.538    3.077    2.308   10.769    0.923 
#    0.000    0.769    0.000    0.000    0.000    2.154 
#    0.000    0.000    0.000    0.000    0.000    0.000 
#
# Total GULP energy -145023.184653 kJ/mol
# GULP energy per Si atom -5577.814794 kJ/mol
# Density = 2.359788 g / cm^3
# Si number density = 23.651713 Si / 1000 Ang^3
#
#
#
# Elastic Constant Matrix: (Units=GPa)
#
#
# Indices 1 2 3 4 5 6 
#
# 1 90.6439 24.5750 47.7571 0.0000 35.3448 0.0000
# 2 24.5750 179.5663 44.4734 0.0000 26.6961 0.0000
# 3 47.7571 44.4734 73.1258 0.0000 33.1440 0.0000
# 4 0.0000 0.0000 0.0000 20.2289 0.0000 3.0338
# 5 35.3448 26.6961 33.1440 0.0000 44.8811 0.0000
# 6 0.0000 0.0000 0.0000 3.0338 0.0000 -10.3882
#
#
#
# Elastic Compliance Matrix: (Units=1/GPa)
#
#
# Indices 1 2 3 4 5 6 
#
# 1 0.018939 0.000936 -0.008907 0.000000 -0.008894 0.000000
# 2 0.000936 0.006665 -0.003809 0.000000 -0.001889 0.000000
# 3 -0.008907 -0.003809 0.026458 0.000000 -0.010259 0.000000
# 4 0.000000 0.000000 0.000000 0.047360 0.000000 0.013831
# 5 -0.008894 -0.001889 -0.010259 0.000000 0.037985 0.000000
# 6 0.000000 0.000000 0.000000 0.013831 0.000000 -0.092224
#
#
# Mechanical properties :
#
#
# Convention : Reuss Voigt Hill
#
# Bulk Modulus (GPa) = 35.08307 64.10525 49.59416
# Shear Modulus (GPa) = 63.90205 26.04637 44.97421
#
# Velocity S-wave (km/s) = 5.20352 3.32210 4.36537
# Velocity P-wave (km/s) = 7.13915 6.47131 6.81342
#
# Compressibility (1/GPa) = 0.02850377
#
# Stress axis : x y z
#
# Youngs Moduli (GPa) = 52.80019 150.03731 37.79521
#
# Poissons Ratio (x) = -0.14049 0.33664
# Poissons Ratio (y) = -0.04944 0.14395
# Poissons Ratio (z) = 0.47029 0.57146
#
# Static dielectric constant tensor:
#      x y z
#    x 1.959210 0.000000 0.000590 
#    y 0.000000 1.933540 0.000000 
#    z 0.000590 0.000000 1.894970 
# 
# From -- ./inp_files/302952.got.cif
#   From: 2010.05.17/outbox.cif.g08.bks.cpg/sg12_152_cif.got.tgz:302952.got - 2010.06.03 13:09:07.
