data_PCOD9194941
_publ_section_title
;
Structure prediction by ZEFSAII (Michael W. Deem and Ramdas Pophale) SiO2 
 PCOD9194941
Probable space group: C 2/M
;
_chemical_formula_sum "Si O2"
_cell_formula_units_Z 40
_cell_length_a 20.307673
_cell_length_b 8.913158
_cell_length_c 15.785342
_cell_angle_alpha 90.000000
_cell_angle_beta 41.473865
_cell_angle_gamma 90.000000
_cell_volume 1892.284012
_symmetry_space_group_name_H-M "C 2/M"
_symmetry_group_IT_number 12
_symmetry_cell_setting 'monoclinic'
loop_
_space_group_symop_operation_xyz
x,y,z
-x,y,-z
-x,-y,-z
x,-y,z
1/2+x,1/2+y,z
1/2-x,1/2+y,-z
1/2-x,1/2-y,-z
1/2+x,1/2-y,z
loop_
_atom_site_type_symbol
_atom_site_label
_atom_site_fract_x
_atom_site_fract_y
_atom_site_fract_z
Si Si1 0.713003 0.327354 0.922358
Si Si2 0.059017 0.321421 0.529821
Si Si3 0.900179 0.825592 0.140579
Si Si4 0.242634 0.677613 0.599284
Si Si5 0.907314 0.824322 0.801096
O O1 0.744028 0.500000 0.912297
O O2 0.680138 0.322424 0.857578
O O3 0.803328 0.217806 0.855664
O O4 0.619785 0.294752 0.074420
O O5 0.075768 0.500000 0.514449
O O6 0.163377 0.237536 0.437754
O O7 0.000000 0.284019 0.500000
O O8 0.991716 0.272174 0.674558
O O9 0.857528 0.732798 0.258882
O O10 0.916338 0.000000 0.150229
O O11 0.000000 0.769069 0.000000
O O12 0.245833 0.500000 0.590077
O O13 0.250000 0.750000 0.500000
O O14 0.931093 0.000000 0.768648
#
# Coordination Sequence:
#
# PCOD9194941 Si02
#       5
#     8   8   8   8   8
#     4   9  19  36  57  87 125 164 206 257 319 381
#     4  11  24  42  65  93 129 172 217 268 330 393
#     4  10  22  41  66  92 125 169 214 262 321 384
#     4  12  27  46  68  97 134 174 222 275 330 393
#     4  10  20  34  58  91 123 162 209 261 317 378
#
# _framework density 21.138477000000002
#
# number of rings (size 3 to 8) (size 9 to 14) (size 15 to 20)
#    0.000    1.600    0.000    4.200    2.800    8.400 
#    0.000    0.000    0.000    0.000    0.000    0.000 
#    0.000    0.000    0.000    0.000    0.000    0.000 
#
# Total GULP energy -111873.688642 kJ/mol
# GULP energy per Si atom -5593.684432 kJ/mol
# Density = 2.109036 g / cm^3
# Si number density = 21.138477 Si / 1000 Ang^3
#
#
#
# Elastic Constant Matrix: (Units=GPa)
#
#
# Indices 1 2 3 4 5 6 
#
# 1 50.0519 36.6074 34.4571 0.0000 2.4942 0.0000
# 2 36.6074 100.1944 68.7142 0.0000 3.1024 -0.0001
# 3 34.4571 68.7142 151.2267 0.0000 -4.5080 0.0000
# 4 0.0000 0.0000 0.0000 33.7003 0.0000 -10.3663
# 5 2.4942 3.1024 -4.5080 0.0000 27.3977 0.0000
# 6 0.0000 -0.0001 0.0000 -10.3663 0.0000 22.2589
#
#
#
# Elastic Compliance Matrix: (Units=1/GPa)
#
#
# Indices 1 2 3 4 5 6 
#
# 1 0.028016 -0.008358 -0.002647 0.000000 -0.002040 0.000000
# 2 -0.008358 0.017199 -0.005975 0.000000 -0.002170 0.000000
# 3 -0.002647 -0.005975 0.010007 0.000000 0.002564 0.000000
# 4 0.000000 0.000000 0.000000 0.034635 0.000000 0.016130
# 5 -0.002040 -0.002170 0.002564 0.000000 0.037353 0.000000
# 6 0.000000 0.000000 0.000000 0.016130 0.000000 0.052438
#
#
# Mechanical properties :
#
#
# Convention : Reuss Voigt Hill
#
# Bulk Modulus (GPa) = 47.03061 64.55893 55.79477
# Shear Modulus (GPa) = 22.65574 27.45099 25.05336
#
# Velocity S-wave (km/s) = 3.27735 3.60756 3.44641
# Velocity P-wave (km/s) = 6.05132 6.92531 6.50301
#
# Compressibility (1/GPa) = 0.02126275
#
# Stress axis : x y z
#
# Youngs Moduli (GPa) = 35.69437 58.14172 99.92842
#
# Poissons Ratio (x) = 0.48593 0.26447
# Poissons Ratio (y) = 0.29832 0.59711
# Poissons Ratio (z) = 0.09447 0.34742
#
# Static dielectric constant tensor:
#      x y z
#    x 1.781080 0.000000 -0.009030 
#    y 0.000000 1.713550 0.000000 
#    z -0.009030 0.000000 1.780730 
# 
# From -- ./inp_files/237084.got.cif
#   From: 2010.05.17/outbox.cif.g08.bks.cpg/sg12_119_cif.got.tgz:237084.got - 2010.06.03 13:09:07.
