data_PCOD9194342
_publ_section_title
;
Structure prediction by ZEFSAII (Michael W. Deem and Ramdas Pophale) SiO2 
 PCOD9194342
Probable space group: C 2/M
;
_chemical_formula_sum "Si O2"
_cell_formula_units_Z 48
_cell_length_a 7.915971
_cell_length_b 12.391234
_cell_length_c 23.231730
_cell_angle_alpha 90.000000
_cell_angle_beta 103.812242
_cell_angle_gamma 90.000000
_cell_volume 2212.874511
_symmetry_space_group_name_H-M "C 2/M"
_symmetry_group_IT_number 12
_symmetry_cell_setting 'monoclinic'
loop_
_space_group_symop_operation_xyz
x,y,z
-x,y,-z
-x,-y,-z
x,-y,z
1/2+x,1/2+y,z
1/2-x,1/2+y,-z
1/2-x,1/2-y,-z
1/2+x,1/2-y,z
loop_
_atom_site_type_symbol
_atom_site_label
_atom_site_fract_x
_atom_site_fract_y
_atom_site_fract_z
Si Si1 0.105630 0.880195 0.831388
Si Si2 0.500000 0.328471 0.000000
Si Si3 0.019010 0.690145 0.112621
Si Si4 0.763231 0.500000 0.078867
Si Si5 0.033706 0.378162 0.435213
Si Si6 0.823962 0.205757 0.634783
Si Si7 0.316292 0.619344 0.297626
O O1 0.979211 0.785151 0.840149
O O2 0.288860 0.859443 0.878193
O O3 0.148217 0.876262 0.767464
O O4 0.036748 0.000000 0.841688
O O5 0.459619 0.249821 0.049801
O O6 0.650599 0.406096 0.035636
O O7 0.887772 0.595134 0.117081
O O8 0.100548 0.500000 0.432701
O O9 0.848577 0.363588 0.388101
O O10 0.000000 0.361731 0.500000
O O11 0.155092 0.287366 0.417273
O O12 0.801947 0.284820 0.687818
O O13 0.997474 0.136712 0.656356
O O14 0.245558 0.500000 0.305094
#
# Coordination Sequence:
#
# PCOD9194342 Si02
#       7
#     8   4   8   4   8   8   8
#     4  11  25  40  62  86 116 149 192 240 287 338
#     4  11  26  41  60  90 117 150 185 230 288 351
#     4  12  24  42  62  88 116 150 187 235 288 345
#     4  11  24  41  62  88 117 149 186 230 283 351
#     4  10  20  34  55  86 118 151 190 233 281 334
#     4  10  20  36  59  81 115 153 191 234 282 332
#     4  10  21  39  58  83 111 150 194 236 281 333
#
# _framework density 21.691243
#
# number of rings (size 3 to 8) (size 9 to 14) (size 15 to 20)
#    0.000    1.333    2.500    3.000    2.333    0.333 
#    0.000    0.000    1.833    8.000    0.000    0.000 
#    0.000    0.000    0.000    0.000    0.000    0.000 
#
# Total GULP energy -133633.460457 kJ/mol
# GULP energy per Si atom -5568.060852 kJ/mol
# Density = 2.164187 g / cm^3
# Si number density = 21.691243 Si / 1000 Ang^3
#
#
#
# Elastic Constant Matrix: (Units=GPa)
#
#
# Indices 1 2 3 4 5 6 
#
# 1 14.7436 4.3867 -12.3111 0.0000 5.9053 0.0000
# 2 4.3867 142.1254 22.9781 0.0000 -10.3025 0.0000
# 3 -12.3111 22.9781 41.0247 0.0000 -14.1289 0.0000
# 4 0.0000 0.0000 0.0000 -9.1124 0.0000 5.0472
# 5 5.9053 -10.3025 -14.1289 0.0000 30.0376 0.0000
# 6 0.0000 0.0000 0.0000 5.0472 0.0000 -2.1276
#
#
#
# Elastic Compliance Matrix: (Units=1/GPa)
#
#
# Indices 1 2 3 4 5 6 
#
# 1 0.100759 -0.008934 0.032653 0.000000 -0.007514 0.000000
# 2 -0.008934 0.008542 -0.006983 0.000000 0.001402 0.000000
# 3 0.032653 -0.006983 0.041825 0.000000 0.010859 0.000000
# 4 0.000000 0.000000 0.000000 0.349559 0.000000 0.829242
# 5 -0.007514 0.001402 0.010859 0.000000 0.040357 0.000000
# 6 0.000000 0.000000 0.000000 0.829242 0.000000 1.497155
#
#
# Mechanical properties :
#
#
# Convention : Reuss Voigt Hill
#
# Bulk Modulus (GPa) = 5.41715 25.33346 15.37531
# Shear Modulus (GPa) = 2.41983 15.94885 9.18434
#
# Velocity S-wave (km/s) = 1.05736 2.71452 2.05993
# Velocity P-wave (km/s) = 1.99837 4.63997 3.57231
#
# Compressibility (1/GPa) = 0.18459893
#
# Stress axis : x y z
#
# Youngs Moduli (GPa) = 9.92467 117.06419 23.90902
#
# Poissons Ratio (x) = 1.04582 -0.78069
# Poissons Ratio (y) = 0.08866 0.16695
# Poissons Ratio (z) = -0.32407 0.81743
#
# Static dielectric constant tensor:
#      x y z
#    x 1.791830 0.000000 -0.026280 
#    y 0.000000 1.763060 0.000000 
#    z -0.026280 0.000000 1.491000 
# 
# From -- ./inp_files/332254.got.cif
#   From: 2010.05.17/outbox.cif.g08.bks.cpg/sg12_167_cif.got.tgz:332254.got - 2010.06.03 13:09:07.
