data_PCOD9194942
_publ_section_title
;
Structure prediction by ZEFSAII (Michael W. Deem and Ramdas Pophale) SiO2 
 PCOD9194942
Probable space group: C 2/M
;
_chemical_formula_sum "Si O2"
_cell_formula_units_Z 40
_cell_length_a 14.725670
_cell_length_b 10.528019
_cell_length_c 28.993374
_cell_angle_alpha 90.000000
_cell_angle_beta 27.913197
_cell_angle_gamma 90.000000
_cell_volume 2104.214810
_symmetry_space_group_name_H-M "C 2/M"
_symmetry_group_IT_number 12
_symmetry_cell_setting 'monoclinic'
loop_
_space_group_symop_operation_xyz
x,y,z
-x,y,-z
-x,-y,-z
x,-y,z
1/2+x,1/2+y,z
1/2-x,1/2+y,-z
1/2-x,1/2-y,-z
1/2+x,1/2-y,z
loop_
_atom_site_type_symbol
_atom_site_label
_atom_site_fract_x
_atom_site_fract_y
_atom_site_fract_z
Si Si1 0.788972 0.347947 0.115208
Si Si2 0.839364 0.767135 0.727881
Si Si3 0.989492 0.500000 0.366496
Si Si4 0.307082 0.500000 0.617601
Si Si5 0.171178 0.500000 0.386714
Si Si6 0.111499 0.251062 0.732577
Si Si7 0.443751 0.500000 0.404389
O O1 0.755820 0.500000 0.125900
O O2 0.773845 0.309251 0.175687
O O3 0.617824 0.272773 0.165737
O O4 0.000000 0.319884 0.000000
O O5 0.702429 0.761706 0.743488
O O6 0.933167 0.628407 0.691024
O O7 0.010766 0.871242 0.643664
O O8 0.760011 0.500000 0.478101
O O9 0.076119 0.500000 0.379050
O O10 0.500000 0.500000 0.500000
O O11 0.179652 0.373262 0.672892
O O12 0.392150 0.500000 0.630649
O O13 0.296947 0.626949 0.332572
O O14 0.000000 0.500000 0.500000
#
# Coordination Sequence:
#
# PCOD9194942 Si02
#       7
#     8   8   4   4   4   8   4
#     4  11  24  43  71  94 115 167 222 263 316 367
#     4  10  22  40  60  91 130 160 204 264 311 370
#     4  10  22  34  58  91 127 166 204 252 313 368
#     4  10  22  36  56  87 129 170 198 240 315 376
#     4  10  20  34  58  91 123 168 210 248 303 366
#     4  10  22  40  60  91 129 161 204 261 311 369
#     4  10  20  36  56  87 123 174 206 236 309 376
#
# _framework density 19.009467000000001
#
# number of rings (size 3 to 8) (size 9 to 14) (size 15 to 20)
#    0.000    1.800    2.000    1.200    5.600    0.800 
#    0.000    2.000    0.000    0.000    0.000    0.000 
#    0.000    0.000    0.000    0.000    0.000    0.000 
#
# Total GULP energy -111646.910287 kJ/mol
# GULP energy per Si atom -5582.345514 kJ/mol
# Density = 1.896620 g / cm^3
# Si number density = 19.009467 Si / 1000 Ang^3
#
#
#
# Elastic Constant Matrix: (Units=GPa)
#
#
# Indices 1 2 3 4 5 6 
#
# 1 77.1238 29.3622 33.3106 -0.0002 -9.4888 -0.0002
# 2 29.3622 159.5246 71.1468 0.0000 -14.4728 -0.0001
# 3 33.3106 71.1468 150.7553 0.0005 -15.5356 0.0003
# 4 -0.0002 0.0000 0.0005 29.2930 -0.0005 -2.1475
# 5 -9.4888 -14.4728 -15.5356 -0.0005 31.5267 -0.0003
# 6 -0.0002 -0.0001 0.0003 -2.1475 -0.0003 -2.5220
#
#
#
# Elastic Compliance Matrix: (Units=1/GPa)
#
#
# Indices 1 2 3 4 5 6 
#
# 1 0.014850 -0.001458 -0.002319 0.000000 0.002657 -0.000002
# 2 -0.001458 0.008192 -0.003373 0.000000 0.001660 -0.000001
# 3 -0.002319 -0.003373 0.008961 0.000000 0.002169 0.000001
# 4 0.000000 0.000000 0.000000 0.032132 0.000000 -0.027360
# 5 0.002657 0.001660 0.002169 0.000000 0.034350 -0.000005
# 6 -0.000002 -0.000001 0.000001 -0.027360 -0.000005 -0.373218
#
#
# Mechanical properties :
#
#
# Convention : Reuss Voigt Hill
#
# Bulk Modulus (GPa) = 56.48844 72.78254 64.63549
# Shear Modulus (GPa) = -19.64387 28.56515 4.46064
#
# Velocity S-wave (km/s) = -3.21810 3.88065 1.53350
# Velocity P-wave (km/s) = 3.99653 7.64525 6.10009
#
# Compressibility (1/GPa) = 0.01770274
#
# Stress axis : x y z
#
# Youngs Moduli (GPa) = 67.34064 122.07347 111.59365
#
# Poissons Ratio (x) = 0.17795 0.25883
# Poissons Ratio (y) = 0.09817 0.37639
# Poissons Ratio (z) = 0.15619 0.41174
#
# Static dielectric constant tensor:
#      x y z
#    x 1.624490 0.000000 0.010770 
#    y 0.000000 1.675660 0.000000 
#    z 0.010770 0.000000 1.612100 
# 
# From -- ./inp_files/141176.got.cif
#   From: 2010.05.17/outbox.cif.g08.bks.cpg/sg12_71_cif.got.tgz:141176.got - 2010.06.03 13:09:07.
