data_PCOD9194879
_publ_section_title
;
Structure prediction by ZEFSAII (Michael W. Deem and Ramdas Pophale) SiO2 
 PCOD9194879
Probable space group: C 2/M
;
_chemical_formula_sum "Si O2"
_cell_formula_units_Z 64
_cell_length_a 12.598209
_cell_length_b 13.691292
_cell_length_c 30.539341
_cell_angle_alpha 90.000000
_cell_angle_beta 137.200121
_cell_angle_gamma 90.000000
_cell_volume 3579.017792
_symmetry_space_group_name_H-M "C 2/M"
_symmetry_group_IT_number 12
_symmetry_cell_setting 'monoclinic'
loop_
_space_group_symop_operation_xyz
x,y,z
-x,y,-z
-x,-y,-z
x,-y,z
1/2+x,1/2+y,z
1/2-x,1/2+y,-z
1/2-x,1/2-y,-z
1/2+x,1/2-y,z
loop_
_atom_site_type_symbol
_atom_site_label
_atom_site_fract_x
_atom_site_fract_y
_atom_site_fract_z
Si Si1 0.180208 0.238578 0.217438
Si Si2 0.125136 0.111436 0.456951
Si Si3 0.714811 0.610611 0.972412
Si Si4 0.844804 0.886189 0.876129
Si Si5 0.035004 0.113916 0.686859
Si Si6 0.721189 0.616598 0.317208
Si Si7 0.170896 0.702278 0.906472
Si Si8 0.531658 0.182878 0.459727
O O1 0.208232 0.176843 0.181657
O O2 0.314048 0.318687 0.264264
O O3 0.184158 0.167132 0.260175
O O4 0.008479 0.285593 0.161794
O O5 0.309908 0.131608 0.508543
O O6 0.057199 0.200224 0.464740
O O7 0.049343 0.122902 0.385718
O O8 0.096626 0.000000 0.463174
O O9 0.743163 0.500000 0.966531
O O10 0.533703 0.618650 0.933036
O O11 0.733880 0.691075 0.940432
O O12 0.816043 0.638570 0.045354
O O13 0.772324 0.843450 0.898455
O O14 0.801328 0.000000 0.858393
O O15 0.910934 0.141011 0.686879
O O16 0.076621 0.000000 0.705228
O O17 0.725538 0.500000 0.313770
O O18 0.886274 0.653057 0.385900
O O19 0.500000 0.152952 0.500000
#
# Coordination Sequence:
#
# PCOD9194879 Si02
#       8
#     8   8   8   8   8   8   8   8
#     4  11  22  38  54  80 115 149 187 226 278 330
#     4  10  21  37  56  83 113 140 178 228 282 334
#     4   9  19  36  59  85 112 144 184 231 279 323
#     4  10  20  36  59  83 111 147 187 232 277 325
#     4  10  21  37  56  77 109 148 183 225 278 333
#     4  11  22  37  58  82 108 144 190 233 276 329
#     4  10  20  34  58  85 113 145 186 231 272 331
#     4  11  21  36  61  85 109 143 186 236 282 330
#
# _framework density 17.882000000000001
#
# number of rings (size 3 to 8) (size 9 to 14) (size 15 to 20)
#    0.000    1.750    2.500    2.250    0.000    3.250 
#    0.000    0.625    0.000   11.250    0.000    0.000 
#    0.000    0.000    0.000    0.000    0.000    0.000 
#
# Total GULP energy -178695.285990 kJ/mol
# GULP energy per Si atom -5584.227687 kJ/mol
# Density = 1.784130 g / cm^3
# Si number density = 17.882000 Si / 1000 Ang^3
#
#
#
# Elastic Constant Matrix: (Units=GPa)
#
#
# Indices 1 2 3 4 5 6 
#
# 1 27.9894 4.8711 0.4440 0.0000 -5.6536 0.0000
# 2 4.8711 71.1870 9.5501 0.0000 8.0117 0.0000
# 3 0.4440 9.5501 72.8932 0.0000 2.9950 0.0000
# 4 0.0000 0.0000 0.0000 12.9251 0.0000 -0.2295
# 5 -5.6536 8.0117 2.9950 0.0000 13.0385 0.0000
# 6 0.0000 0.0000 0.0000 -0.2295 0.0000 27.2844
#
#
#
# Elastic Compliance Matrix: (Units=1/GPa)
#
#
# Indices 1 2 3 4 5 6 
#
# 1 0.040852 -0.005093 -0.000442 0.000000 0.020945 0.000000
# 2 -0.005093 0.015916 -0.001577 0.000000 -0.011626 0.000000
# 3 -0.000442 -0.001577 0.014028 0.000000 -0.002445 0.000000
# 4 0.000000 0.000000 0.000000 0.077380 0.000000 0.000651
# 5 0.020945 -0.011626 -0.002445 0.000000 0.093483 0.000000
# 6 0.000000 0.000000 0.000000 0.000651 0.000000 0.036656
#
#
# Mechanical properties :
#
#
# Convention : Reuss Voigt Hill
#
# Bulk Modulus (GPa) = 17.67644 22.42223 20.04934
# Shear Modulus (GPa) = 16.05665 21.12990 18.59328
#
# Velocity S-wave (km/s) = 2.99979 3.44121 3.22805
# Velocity P-wave (km/s) = 4.68026 5.32499 5.01300
#
# Compressibility (1/GPa) = 0.05657247
#
# Stress axis : x y z
#
# Youngs Moduli (GPa) = 24.47871 62.82999 71.28391
#
# Poissons Ratio (x) = 0.32001 0.03152
# Poissons Ratio (y) = 0.12468 0.11238
# Poissons Ratio (z) = 0.01082 0.09905
#
# Static dielectric constant tensor:
#      x y z
#    x 1.579910 0.000000 0.001050 
#    y 0.000000 1.612750 0.000000 
#    z 0.001050 0.000000 1.587530 
# 
# From -- ./inp_files/374131.got.cif
#   From: 2010.05.17/outbox.cif.g08.bks.cpg/sg12_188_cif.got.tgz:374131.got - 2010.06.03 13:09:07.
