data_PCOD9194597
_publ_section_title
;
Structure prediction by ZEFSAII (Michael W. Deem and Ramdas Pophale) SiO2 
 PCOD9194597
Probable space group: C 2/M
;
_chemical_formula_sum "Si O2"
_cell_formula_units_Z 56
_cell_length_a 18.874505
_cell_length_b 13.908337
_cell_length_c 14.217799
_cell_angle_alpha 90.000000
_cell_angle_beta 146.360297
_cell_angle_gamma 90.000000
_cell_volume 2067.608386
_symmetry_space_group_name_H-M "C 2/M"
_symmetry_group_IT_number 12
_symmetry_cell_setting 'monoclinic'
loop_
_space_group_symop_operation_xyz
x,y,z
-x,y,-z
-x,-y,-z
x,-y,z
1/2+x,1/2+y,z
1/2-x,1/2+y,-z
1/2-x,1/2-y,-z
1/2+x,1/2-y,z
loop_
_atom_site_type_symbol
_atom_site_label
_atom_site_fract_x
_atom_site_fract_y
_atom_site_fract_z
Si Si1 0.448631 0.888807 0.346505
Si Si2 0.562706 0.101877 0.274212
Si Si3 0.848406 0.198652 0.814224
Si Si4 0.093488 0.808743 0.315536
Si Si5 0.682678 0.610608 0.032723
Si Si6 0.515652 0.388144 0.627906
Si Si7 0.289363 0.889068 0.864832
O O1 0.500000 0.844977 0.500000
O O2 0.543481 0.892909 0.364682
O O3 0.320166 0.846866 0.158632
O O4 0.415461 0.000000 0.330838
O O5 0.632891 0.200068 0.332238
O O6 0.622208 0.000000 0.313021
O O7 0.425351 0.108119 0.069665
O O8 0.837706 0.147251 0.699615
O O9 0.804402 0.119880 0.840466
O O10 0.793595 0.301766 0.793721
O O11 0.000000 0.212749 0.000000
O O12 0.083885 0.832126 0.415171
O O13 0.942054 0.829766 0.130853
O O14 0.663970 0.500000 0.982759
O O15 0.500000 0.370528 0.500000
O O16 0.489420 0.500000 0.617904
O O17 0.670136 0.374419 0.804941
O O18 0.272516 0.000000 0.808527
#
# Coordination Sequence:
#
# PCOD9194597 Si02
#       7
#     8   8   8   8   8   8   8
#     4   9  19  35  55  82 116 151 193 242 296 356
#     4  10  20  34  56  86 118 153 196 246 302 349
#     4  10  21  37  55  91 121 153 196 242 302 362
#     4  11  22  37  60  91 119 156 199 251 297 355
#     4  10  20  35  58  86 119 155 190 239 299 360
#     4  10  23  42  64  90 120 161 207 250 300 355
#     4  10  20  38  64  88 119 158 202 255 301 356
#
# _framework density 27.084434000000002
#
# number of rings (size 3 to 8) (size 9 to 14) (size 15 to 20)
#    0.000    2.000    2.857    1.286    2.000    8.000 
#    0.000    0.714    0.000    0.000    0.000    0.000 
#    0.000    0.000    0.000    0.000    0.000    0.000 
#
# Total GULP energy -156172.104485 kJ/mol
# GULP energy per Si atom -5577.575160 kJ/mol
# Density = 2.702279 g / cm^3
# Si number density = 27.084434 Si / 1000 Ang^3
#
#
#
# Elastic Constant Matrix: (Units=GPa)
#
#
# Indices 1 2 3 4 5 6 
#
# 1 138.9346 23.1227 21.3631 0.0000 -12.4188 0.0000
# 2 23.1227 148.6444 -3.2035 0.0000 3.6182 0.0000
# 3 21.3631 -3.2035 113.2562 0.0000 -14.1486 0.0000
# 4 0.0000 0.0000 0.0000 19.1706 0.0000 -8.3268
# 5 -12.4188 3.6182 -14.1486 0.0000 39.6485 0.0000
# 6 0.0000 0.0000 0.0000 -8.3268 0.0000 26.4618
#
#
#
# Elastic Compliance Matrix: (Units=1/GPa)
#
#
# Indices 1 2 3 4 5 6 
#
# 1 0.007792 -0.001290 -0.001242 0.000000 0.002115 0.000000
# 2 -0.001290 0.006958 0.000325 0.000000 -0.000923 0.000000
# 3 -0.001242 0.000325 0.009442 0.000000 0.002951 0.000000
# 4 0.000000 0.000000 0.000000 0.060422 0.000000 0.019013
# 5 0.002115 -0.000923 0.002951 0.000000 0.027021 0.000000
# 6 0.000000 0.000000 0.000000 0.019013 0.000000 0.043773
#
#
# Mechanical properties :
#
#
# Convention : Reuss Voigt Hill
#
# Bulk Modulus (GPa) = 50.56521 53.71107 52.13814
# Shear Modulus (GPa) = 30.04529 41.02637 35.53583
#
# Velocity S-wave (km/s) = 3.33426 3.89621 3.62614
# Velocity P-wave (km/s) = 5.79077 6.33361 6.06827
#
# Compressibility (1/GPa) = 0.01977644
#
# Stress axis : x y z
#
# Youngs Moduli (GPa) = 128.32914 143.72618 105.91398
#
# Poissons Ratio (x) = 0.18547 0.13156
# Poissons Ratio (y) = 0.16560 -0.03441
# Poissons Ratio (z) = 0.15940 -0.04669
#
# Static dielectric constant tensor:
#      x y z
#    x 2.115960 0.000000 -0.043270 
#    y 0.000000 2.144500 0.000000 
#    z -0.043270 0.000000 2.348510 
# 
# From -- ./inp_files/233720.got.cif
#   From: 2010.05.17/outbox.cif.g08.bks.cpg/sg12_117_cif.got.tgz:233720.got - 2010.06.03 13:09:07.
