data_PCOD9194312
_publ_section_title
;
Structure prediction by ZEFSAII (Michael W. Deem and Ramdas Pophale) SiO2 
 PCOD9194312
Probable space group: C 2/M
;
_chemical_formula_sum "Si O2"
_cell_formula_units_Z 64
_cell_length_a 23.335686
_cell_length_b 8.990688
_cell_length_c 19.997602
_cell_angle_alpha 90.000000
_cell_angle_beta 55.196644
_cell_angle_gamma 90.000000
_cell_volume 3445.052287
_symmetry_space_group_name_H-M "C 2/M"
_symmetry_group_IT_number 12
_symmetry_cell_setting 'monoclinic'
loop_
_space_group_symop_operation_xyz
x,y,z
-x,y,-z
-x,-y,-z
x,-y,z
1/2+x,1/2+y,z
1/2-x,1/2+y,-z
1/2-x,1/2-y,-z
1/2+x,1/2-y,z
loop_
_atom_site_type_symbol
_atom_site_label
_atom_site_fract_x
_atom_site_fract_y
_atom_site_fract_z
Si Si1 0.594743 0.828013 0.239659
Si Si2 0.479514 0.323249 0.226252
Si Si3 0.954129 0.178734 0.094872
Si Si4 0.251056 0.826890 0.927558
Si Si5 0.195094 0.322596 0.449031
Si Si6 0.829362 0.679131 0.682113
Si Si7 0.192726 0.322181 0.837468
Si Si8 0.656818 0.177170 0.622327
O O1 0.539708 0.735652 0.234424
O O2 0.670088 0.822071 0.153474
O O3 0.610999 0.777176 0.304647
O O4 0.571391 0.000000 0.256801
O O5 0.474759 0.500000 0.234632
O O6 0.491493 0.285716 0.140196
O O7 0.406524 0.252475 0.297317
O O8 0.879961 0.259950 0.141523
O O9 0.942558 0.000000 0.100268
O O10 0.000000 0.220222 0.000000
O O11 0.204130 0.740723 0.904842
O O12 0.229777 0.000000 0.945768
O O13 0.250000 0.750000 0.000000
O O14 0.209404 0.500000 0.440784
O O15 0.157167 0.289254 0.404532
O O16 0.268765 0.238201 0.402526
O O17 0.154340 0.287489 0.544421
O O18 0.820023 0.500000 0.696424
O O19 0.757521 0.757223 0.751911
O O20 0.194152 0.500000 0.835900
O O21 0.654059 0.000000 0.632567
#
# Coordination Sequence:
#
# PCOD9194312 Si02
#       8
#     8   8   8   8   8   8   8   8
#     4   9  20  37  56  79 107 142 183 227 275 324
#     4  11  23  38  57  79 109 148 186 226 278 339
#     4  10  23  41  57  76 103 143 187 229 279 333
#     4  10  21  37  58  82 109 143 183 231 280 328
#     4   9  18  34  58  85 113 144 186 229 271 329
#     4   9  18  36  59  81 108 146 185 227 273 324
#     4  11  22  35  54  83 112 141 179 225 277 332
#     4  10  20  34  55  85 116 148 181 224 279 331
#
# _framework density 18.577366000000001
#
# number of rings (size 3 to 8) (size 9 to 14) (size 15 to 20)
#    0.000    2.125    0.000    3.750    1.750    7.750 
#    0.000    0.625    0.000    3.750    0.000    0.000 
#    0.000    0.000    0.000    0.000    0.000    0.000 
#
# Total GULP energy -178673.548055 kJ/mol
# GULP energy per Si atom -5583.548377 kJ/mol
# Density = 1.853508 g / cm^3
# Si number density = 18.577366 Si / 1000 Ang^3
#
#
#
# Elastic Constant Matrix: (Units=GPa)
#
#
# Indices 1 2 3 4 5 6 
#
# 1 93.0526 37.6286 48.0018 0.0001 25.9996 -0.0001
# 2 37.6286 49.9606 33.7886 -0.0001 9.7013 0.0001
# 3 48.0018 33.7886 83.6370 0.0000 31.8538 0.0000
# 4 0.0001 -0.0001 0.0000 24.8086 0.0000 -0.1711
# 5 25.9996 9.7013 31.8538 0.0000 33.5765 0.0000
# 6 -0.0001 0.0001 0.0000 -0.1711 0.0000 32.2345
#
#
#
# Elastic Compliance Matrix: (Units=1/GPa)
#
#
# Indices 1 2 3 4 5 6 
#
# 1 0.019138 -0.010346 -0.003599 0.000000 -0.008416 0.000000
# 2 -0.010346 0.033493 -0.010895 0.000000 0.008670 0.000000
# 3 -0.003599 -0.010895 0.025307 0.000000 -0.018074 0.000000
# 4 0.000000 0.000000 0.000000 0.040310 0.000000 0.000214
# 5 -0.008416 0.008670 -0.018074 0.000000 0.050941 0.000000
# 6 0.000000 0.000000 0.000000 0.000214 0.000000 0.031024
#
#
# Mechanical properties :
#
#
# Convention : Reuss Voigt Hill
#
# Bulk Modulus (GPa) = 35.38834 51.72090 43.55462
# Shear Modulus (GPa) = 19.28169 25.27266 22.27718
#
# Velocity S-wave (km/s) = 3.22516 3.69236 3.46664
# Velocity P-wave (km/s) = 5.74103 6.78817 6.28644
#
# Compressibility (1/GPa) = 0.02825789
#
# Stress axis : x y z
#
# Youngs Moduli (GPa) = 52.25076 29.85706 39.51445
#
# Poissons Ratio (x) = 0.30890 0.14222
# Poissons Ratio (y) = 0.54059 0.43051
# Poissons Ratio (z) = 0.18806 0.32529
#
# Static dielectric constant tensor:
#      x y z
#    x 1.633190 0.000000 0.038130 
#    y 0.000000 1.621030 0.000000 
#    z 0.038130 0.000000 1.643390 
# 
# From -- ./inp_files/319932.got.cif
#   From: 2010.05.17/outbox.cif.g08.bks.cpg/sg12_160_cif.got.tgz:319932.got - 2010.06.03 13:09:07.
