data_PCOD9194562
_publ_section_title
;
Structure prediction by ZEFSAII (Michael W. Deem and Ramdas Pophale) SiO2 
 PCOD9194562
Probable space group: C 2/M
;
_chemical_formula_sum "Si O2"
_cell_formula_units_Z 64
_cell_length_a 12.342064
_cell_length_b 29.896401
_cell_length_c 8.566452
_cell_angle_alpha 90.000000
_cell_angle_beta 90.194392
_cell_angle_gamma 90.000000
_cell_volume 3160.859489
_symmetry_space_group_name_H-M "C 2/M"
_symmetry_group_IT_number 12
_symmetry_cell_setting 'monoclinic'
loop_
_space_group_symop_operation_xyz
x,y,z
-x,y,-z
-x,-y,-z
x,-y,z
1/2+x,1/2+y,z
1/2-x,1/2+y,-z
1/2-x,1/2-y,-z
1/2+x,1/2-y,z
loop_
_atom_site_type_symbol
_atom_site_label
_atom_site_fract_x
_atom_site_fract_y
_atom_site_fract_z
Si Si1 0.256181 0.095747 0.206201
Si Si2 0.315117 0.824660 0.989783
Si Si3 0.881430 0.759576 0.466640
Si Si4 0.876333 0.948281 0.055886
Si Si5 0.742029 0.885250 0.277099
Si Si6 0.896626 0.230318 0.092178
Si Si7 0.371487 0.949651 0.496201
Si Si8 0.113581 0.144715 0.440800
O O1 0.206837 0.059767 0.087470
O O2 0.328896 0.074044 0.339948
O O3 0.155468 0.119209 0.291858
O O4 0.316153 0.135854 0.116336
O O5 0.327483 0.850777 0.826316
O O6 0.198668 0.801239 0.970213
O O7 0.384670 0.782026 0.038193
O O8 0.750000 0.750000 0.500000
O O9 0.889092 0.769376 0.280623
O O10 0.897832 0.802443 0.579049
O O11 0.000000 0.733567 0.500000
O O12 0.869000 0.000000 0.111533
O O13 0.834329 0.910810 0.177071
O O14 0.000000 0.940915 0.000000
O O15 0.668953 0.923047 0.353802
O O16 0.799583 0.860692 0.420684
O O17 0.000000 0.212731 0.000000
O O18 0.500000 0.950538 0.500000
O O19 0.328109 0.000000 0.499126
O O20 0.000000 0.126187 0.500000
#
# Coordination Sequence:
#
# PCOD9194562 Si02
#       8
#     8   8   8   8   8   8   8   8
#     4  10  21  37  61  86 121 163 201 259 311 381
#     4  10  23  40  59  85 129 157 217 251 330 379
#     4  11  25  42  65  91 127 168 221 275 332 392
#     4  10  20  34  56  88 122 154 192 240 309 382
#     4  10  20  38  60  86 120 161 201 258 307 381
#     4  11  25  40  64  90 126 172 215 277 323 390
#     4  10  22  41  65  91 121 162 212 261 316 377
#     4  10  20  34  56  85 118 154 208 252 307 376
#
# _framework density 20.247657
#
# number of rings (size 3 to 8) (size 9 to 14) (size 15 to 20)
#    0.000    1.750    1.250    2.250    7.000    3.000 
#    0.000    6.250    0.000   12.750    0.000    0.000 
#    0.000    0.000    0.000    0.000    0.000    0.000 
#
# Total GULP energy -178250.371500 kJ/mol
# GULP energy per Si atom -5570.324109 kJ/mol
# Density = 2.020157 g / cm^3
# Si number density = 20.247657 Si / 1000 Ang^3
#
#
#
# Elastic Constant Matrix: (Units=GPa)
#
#
# Indices 1 2 3 4 5 6 
#
# 1 81.3218 5.9054 12.7300 0.0000 -7.0420 0.0000
# 2 5.9054 84.4270 10.9635 0.0000 6.5233 0.0000
# 3 12.7300 10.9635 47.2278 0.0000 -9.0527 0.0000
# 4 0.0000 0.0000 0.0000 22.9440 0.0000 5.6700
# 5 -7.0420 6.5233 -9.0527 0.0000 15.8101 0.0000
# 6 0.0000 0.0000 0.0000 5.6700 0.0000 -1.4430
#
#
#
# Elastic Compliance Matrix: (Units=1/GPa)
#
#
# Indices 1 2 3 4 5 6 
#
# 1 0.013166 -0.000992 -0.002377 0.000000 0.004913 0.000000
# 2 -0.000992 0.013130 -0.004385 0.000000 -0.008370 0.000000
# 3 -0.002377 -0.004385 0.025809 0.000000 0.015529 0.000000
# 4 0.000000 0.000000 0.000000 0.022113 0.000000 0.086887
# 5 0.004913 -0.008370 0.015529 0.000000 0.077784 0.000000
# 6 0.000000 0.000000 0.000000 0.086887 0.000000 -0.351593
#
#
# Mechanical properties :
#
#
# Convention : Reuss Voigt Hill
#
# Bulk Modulus (GPa) = 27.32411 30.24161 28.78286
# Shear Modulus (GPa) = -29.08946 19.68738 -4.70104
#
# Velocity S-wave (km/s) = -3.79447 3.12160 -1.52539
# Velocity P-wave (km/s) = 2.38183 5.28780 3.33824
#
# Compressibility (1/GPa) = 0.03659771
#
# Stress axis : x y z
#
# Youngs Moduli (GPa) = 75.95118 76.16093 38.74596
#
# Poissons Ratio (x) = 0.07554 0.09210
# Poissons Ratio (y) = 0.07533 0.16990
# Poissons Ratio (z) = 0.18054 0.33397
#
# Static dielectric constant tensor:
#      x y z
#    x 1.636860 0.000000 -0.029600 
#    y 0.000000 1.729520 0.000000 
#    z -0.029600 0.000000 1.697790 
# 
# From -- ./inp_files/54736.got.cif
#   From: 2010.05.17/outbox.cif.g08.bks.cpg/sg12_28_cif.got.tgz:54736.got - 2010.06.03 13:09:07.
