data_PCOD9194469
_publ_section_title
;
Structure prediction by ZEFSAII (Michael W. Deem and Ramdas Pophale) SiO2 
 PCOD9194469
Probable space group: C 2/M
;
_chemical_formula_sum "Si O2"
_cell_formula_units_Z 56
_cell_length_a 9.119053
_cell_length_b 13.078567
_cell_length_c 28.746416
_cell_angle_alpha 90.000000
_cell_angle_beta 122.487012
_cell_angle_gamma 90.000000
_cell_volume 2891.914851
_symmetry_space_group_name_H-M "C 2/M"
_symmetry_group_IT_number 12
_symmetry_cell_setting 'monoclinic'
loop_
_space_group_symop_operation_xyz
x,y,z
-x,y,-z
-x,-y,-z
x,-y,z
1/2+x,1/2+y,z
1/2-x,1/2+y,-z
1/2-x,1/2-y,-z
1/2+x,1/2-y,z
loop_
_atom_site_type_symbol
_atom_site_label
_atom_site_fract_x
_atom_site_fract_y
_atom_site_fract_z
Si Si1 0.138193 0.609742 0.701380
Si Si2 0.487326 0.613465 0.269035
Si Si3 0.534240 0.255982 0.875075
Si Si4 0.892899 0.380335 0.933873
Si Si5 0.080546 0.880157 0.565184
Si Si6 0.592267 0.275420 0.379644
Si Si7 0.159093 0.308466 0.799653
O O1 0.082454 0.500000 0.673672
O O2 0.346067 0.614090 0.736373
O O3 0.080419 0.624001 0.744877
O O4 0.065958 0.697577 0.656667
O O5 0.414624 0.500000 0.259992
O O6 0.569327 0.648113 0.332187
O O7 0.355547 0.695266 0.225902
O O8 0.708012 0.323554 0.908804
O O9 0.497704 0.179112 0.911330
O O10 0.362059 0.326259 0.843194
O O11 0.558876 0.194561 0.830925
O O12 0.867853 0.500000 0.917841
O O13 0.000000 0.374149 0.000000
O O14 0.240485 0.799080 0.593311
O O15 0.000000 0.878240 0.500000
O O16 0.941432 0.837992 0.579089
O O17 0.126706 0.000000 0.583490
#
# Coordination Sequence:
#
# PCOD9194469 Si02
#       7
#     8   8   8   8   8   8   8
#     4  10  20  34  56  83 116 154 192 237 287 349
#     4  10  20  35  59  84 115 157 197 236 285 353
#     4  10  21  37  60  87 121 154 195 244 292 348
#     4  10  22  41  64  88 116 156 202 248 299 348
#     4  11  24  41  62  88 118 153 196 249 304 353
#     4  11  21  41  60  86 117 154 199 243 293 352
#     4  10  20  35  54  86 120 152 190 235 292 348
#
# _framework density 19.364332999999998
#
# number of rings (size 3 to 8) (size 9 to 14) (size 15 to 20)
#    0.000    1.714    2.857    1.714    0.000    3.429 
#    0.000    3.571    0.000   11.143    0.000    0.000 
#    0.000    0.000    0.000    0.000    0.000    0.000 
#
# Total GULP energy -156121.525260 kJ/mol
# GULP energy per Si atom -5575.768759 kJ/mol
# Density = 1.932026 g / cm^3
# Si number density = 19.364333 Si / 1000 Ang^3
#
#
#
# Elastic Constant Matrix: (Units=GPa)
#
#
# Indices 1 2 3 4 5 6 
#
# 1 90.2042 31.2953 27.9470 0.0000 -12.1770 0.0000
# 2 31.2953 114.3273 31.6397 0.0000 -9.4602 0.0000
# 3 27.9470 31.6397 69.8232 0.0000 -21.1467 0.0000
# 4 0.0000 0.0000 0.0000 5.4200 0.0000 4.2951
# 5 -12.1770 -9.4602 -21.1467 0.0000 37.0438 0.0000
# 6 0.0000 0.0000 0.0000 4.2951 0.0000 19.4369
#
#
#
# Elastic Compliance Matrix: (Units=1/GPa)
#
#
# Indices 1 2 3 4 5 6 
#
# 1 0.013317 -0.002483 -0.003713 0.000000 0.001624 0.000000
# 2 -0.002483 0.010464 -0.003852 0.000000 -0.000343 0.000000
# 3 -0.003713 -0.003852 0.020415 0.000000 0.009450 0.000000
# 4 0.000000 0.000000 0.000000 0.223668 0.000000 -0.049425
# 5 0.001624 -0.000343 0.009450 0.000000 0.032836 0.000000
# 6 0.000000 0.000000 0.000000 -0.049425 0.000000 0.062370
#
#
# Mechanical properties :
#
#
# Convention : Reuss Voigt Hill
#
# Bulk Modulus (GPa) = 41.49277 50.67984 46.08631
# Shear Modulus (GPa) = 12.78118 24.61167 18.69642
#
# Velocity S-wave (km/s) = 2.57191 3.56895 3.11063
# Velocity P-wave (km/s) = 5.50396 6.57356 6.06240
#
# Compressibility (1/GPa) = 0.02410058
#
# Stress axis : x y z
#
# Youngs Moduli (GPa) = 75.09120 95.56444 48.98255
#
# Poissons Ratio (x) = 0.23732 0.18188
# Poissons Ratio (y) = 0.18648 0.18866
# Poissons Ratio (z) = 0.27882 0.36807
#
# Static dielectric constant tensor:
#      x y z
#    x 1.702440 0.000000 -0.000570 
#    y 0.000000 1.680730 0.000000 
#    z -0.000570 0.000000 1.673210 
# 
# From -- ./inp_files/356194.got.cif
#   From: 2010.05.17/outbox.cif.g08.bks.cpg/sg12_179_cif.got.tgz:356194.got - 2010.06.03 13:09:07.
