data_PCOD9194388
_publ_section_title
;
Structure prediction by ZEFSAII (Michael W. Deem and Ramdas Pophale) SiO2 
 PCOD9194388
Probable space group: C 2/M
;
_chemical_formula_sum "Si O2"
_cell_formula_units_Z 34
_cell_length_a 16.462465
_cell_length_b 17.458997
_cell_length_c 8.273982
_cell_angle_alpha 90.000000
_cell_angle_beta 44.451581
_cell_angle_gamma 90.000000
_cell_volume 1665.393018
_symmetry_space_group_name_H-M "C 2/M"
_symmetry_group_IT_number 12
_symmetry_cell_setting 'monoclinic'
loop_
_space_group_symop_operation_xyz
x,y,z
-x,y,-z
-x,-y,-z
x,-y,z
1/2+x,1/2+y,z
1/2-x,1/2+y,-z
1/2-x,1/2-y,-z
1/2+x,1/2-y,z
loop_
_atom_site_type_symbol
_atom_site_label
_atom_site_fract_x
_atom_site_fract_y
_atom_site_fract_z
Si Si1 0.000000 0.000000 0.500000
Si Si2 0.737634 0.500000 0.368139
Si Si3 0.000000 0.244976 0.000000
Si Si4 0.971066 0.335047 0.358902
Si Si5 0.818840 0.000000 0.035540
Si Si6 0.788893 0.131940 0.333808
Si Si7 0.916228 0.500000 0.841338
O O1 0.870293 0.000000 0.599457
O O2 0.935288 0.000000 0.767135
O O3 0.728235 0.576211 0.489273
O O4 0.858915 0.500000 0.100112
O O5 0.971982 0.293557 0.877553
O O6 0.108461 0.192202 0.797942
O O7 0.833636 0.329238 0.529527
O O8 0.000000 0.306823 0.500000
O O9 0.009462 0.423936 0.294214
O O10 0.819043 0.924738 0.144698
O O11 0.696185 0.000000 0.115588
#
# Coordination Sequence:
#
# PCOD9194388 Si02
#       7
#     2   4   4   8   4   8   4
#     4  10  20  34  56 106 132 162 218 262 340 406
#     4  10  22  39  72 100 133 176 227 284 332 395
#     4  12  28  44  62 100 146 186 218 266 342 420
#     4  12  25  45  71 101 133 178 230 282 339 396
#     4  10  20  40  71  95 129 169 225 280 328 386
#     4  11  23  45  67  96 137 180 220 280 336 398
#     4  11  21  43  71 104 122 164 235 293 327 380
#
# _framework density 20.415600999999999
#
# number of rings (size 3 to 8) (size 9 to 14) (size 15 to 20)
#    0.000    0.941    2.353    5.294    0.000    4.235 
#   12.706    0.000    0.000    0.000    0.000    0.000 
#    0.000    0.000    0.000    0.000    0.000    0.000 
#
# Total GULP energy -94804.170717 kJ/mol
# GULP energy per Si atom -5576.715925 kJ/mol
# Density = 2.036913 g / cm^3
# Si number density = 20.415601 Si / 1000 Ang^3
#
#
#
# Elastic Constant Matrix: (Units=GPa)
#
#
# Indices 1 2 3 4 5 6 
#
# 1 93.1967 30.6761 22.0805 0.0000 3.3787 0.0000
# 2 30.6761 77.0691 23.7619 0.0000 12.8328 0.0000
# 3 22.0805 23.7619 121.2589 0.0000 12.8479 0.0000
# 4 0.0000 0.0000 0.0000 -49.2814 0.0000 6.5129
# 5 3.3787 12.8328 12.8479 0.0000 49.2505 0.0000
# 6 0.0000 0.0000 0.0000 6.5129 0.0000 17.0819
#
#
#
# Elastic Compliance Matrix: (Units=1/GPa)
#
#
# Indices 1 2 3 4 5 6 
#
# 1 0.012590 -0.004686 -0.001452 0.000000 0.000736 0.000000
# 2 -0.004686 0.015991 -0.001926 0.000000 -0.003343 0.000000
# 3 -0.001452 -0.001926 0.009076 0.000000 -0.001766 0.000000
# 4 0.000000 0.000000 0.000000 -0.019318 0.000000 0.007366
# 5 0.000736 -0.003343 -0.001766 0.000000 0.021586 0.000000
# 6 0.000000 0.000000 0.000000 0.007366 0.000000 0.055733
#
#
# Mechanical properties :
#
#
# Convention : Reuss Voigt Hill
#
# Bulk Modulus (GPa) = 46.45139 49.39576 47.92358
# Shear Modulus (GPa) = 42.03024 17.74394 29.88709
#
# Velocity S-wave (km/s) = 4.54225 2.95131 3.83029
# Velocity P-wave (km/s) = 7.09307 5.98843 6.56403
#
# Compressibility (1/GPa) = 0.02152788
#
# Stress axis : x y z
#
# Youngs Moduli (GPa) = 79.42941 62.53517 110.18271
#
# Poissons Ratio (x) = 0.29304 0.16001
# Poissons Ratio (y) = 0.37220 0.21223
# Poissons Ratio (z) = 0.11535 0.12045
#
# Static dielectric constant tensor:
#      x y z
#    x 1.733880 0.000000 0.052930 
#    y 0.000000 1.711060 0.000000 
#    z 0.052930 0.000000 1.751170 
# 
# From -- ./inp_files/74939.got.cif
#   From: 2010.05.17/outbox.cif.g08.bks.cpg/sg12_38_cif.got.tgz:74939.got - 2010.06.03 13:09:07.
