data_PCOD9194003
_publ_section_title
;
Structure prediction by ZEFSAII (Michael W. Deem and Ramdas Pophale) SiO2 
 PCOD9194003
Probable space group: C 2/M
;
_chemical_formula_sum "Si O2"
_cell_formula_units_Z 64
_cell_length_a 14.085004
_cell_length_b 31.865308
_cell_length_c 9.327672
_cell_angle_alpha 90.000000
_cell_angle_beta 129.861126
_cell_angle_gamma 90.000000
_cell_volume 3213.537945
_symmetry_space_group_name_H-M "C 2/M"
_symmetry_group_IT_number 12
_symmetry_cell_setting 'monoclinic'
loop_
_space_group_symop_operation_xyz
x,y,z
-x,y,-z
-x,-y,-z
x,-y,z
1/2+x,1/2+y,z
1/2-x,1/2+y,-z
1/2-x,1/2-y,-z
1/2+x,1/2-y,z
loop_
_atom_site_type_symbol
_atom_site_label
_atom_site_fract_x
_atom_site_fract_y
_atom_site_fract_z
Si Si1 0.701139 0.823992 0.006195
Si Si2 0.257208 0.605944 0.257531
Si Si3 0.269488 0.827075 0.306611
Si Si4 0.919459 0.952820 0.600418
Si Si5 0.712865 0.548375 0.956774
Si Si6 0.417359 0.159252 0.714697
Si Si7 0.356300 0.412937 0.820691
Si Si8 0.859265 0.742356 0.832728
O O1 0.723483 0.824706 0.858973
O O2 0.561967 0.842240 0.889259
O O3 0.788503 0.854428 0.184634
O O4 0.697523 0.778627 0.078359
O O5 0.368388 0.583655 0.449537
O O6 0.214643 0.571251 0.100511
O O7 0.158981 0.622913 0.278555
O O8 0.389360 0.837480 0.518574
O O9 0.180912 0.866043 0.257615
O O10 0.216215 0.781738 0.296559
O O11 0.848948 0.945109 0.682148
O O12 0.066096 0.949934 0.772843
O O13 0.894053 0.000000 0.520491
O O14 0.746584 0.500000 0.005466
O O15 0.720995 0.572294 0.116022
O O16 0.369190 0.203062 0.735409
O O17 0.500000 0.412577 0.000000
O O18 0.000000 0.756284 0.000000
#
# Coordination Sequence:
#
# PCOD9194003 Si02
#       8
#     8   8   8   8   8   8   8   8
#     4  10  22  38  57  80 111 149 189 228 268 321
#     4  11  19  35  55  80 108 148 187 225 269 321
#     4  12  19  36  60  85 105 148 185 230 269 328
#     4  10  20  35  56  84 116 146 179 223 279 341
#     4  10  20  35  56  84 116 146 179 223 279 341
#     4  10  22  38  57  80 111 149 189 228 268 321
#     4  10  20  34  54  86 117 142 177 222 280 335
#     4   9  20  37  56  83 114 141 174 225 284 334
#
# _framework density 19.915745000000001
#
# number of rings (size 3 to 8) (size 9 to 14) (size 15 to 20)
#    0.000    1.750    2.500    3.750    0.000    2.500 
#    0.000    0.000    0.000   12.000    0.000    1.750 
#    0.000    0.000    0.000    0.000    0.000    0.000 
#
# Total GULP energy -178449.749001 kJ/mol
# GULP energy per Si atom -5576.554656 kJ/mol
# Density = 1.987042 g / cm^3
# Si number density = 19.915745 Si / 1000 Ang^3
#
#
#
# Elastic Constant Matrix: (Units=GPa)
#
#
# Indices 1 2 3 4 5 6 
#
# 1 37.7382 26.3088 11.0793 0.0000 -14.8378 0.0000
# 2 26.3088 105.6769 23.0342 0.0000 6.0532 0.0000
# 3 11.0793 23.0342 83.1669 0.0000 -11.9097 0.0000
# 4 0.0000 0.0000 0.0000 29.2494 0.0000 0.8409
# 5 -14.8378 6.0532 -11.9097 0.0000 21.9324 0.0000
# 6 0.0000 0.0000 0.0000 0.8409 0.0000 17.5135
#
#
#
# Elastic Compliance Matrix: (Units=1/GPa)
#
#
# Indices 1 2 3 4 5 6 
#
# 1 0.054053 -0.016714 0.003606 0.000000 0.043139 0.000000
# 2 -0.016714 0.015697 -0.004728 0.000000 -0.018207 0.000000
# 3 0.003606 -0.004728 0.014518 0.000000 0.011628 0.000000
# 4 0.000000 0.000000 0.000000 0.034236 0.000000 -0.001644
# 5 0.043139 -0.018207 0.011628 0.000000 0.086118 0.000000
# 6 0.000000 0.000000 0.000000 -0.001644 0.000000 0.057178
#
#
# Mechanical properties :
#
#
# Convention : Reuss Voigt Hill
#
# Bulk Modulus (GPa) = 20.57772 38.60297 29.59034
# Shear Modulus (GPa) = 15.94023 24.81637 20.37830
#
# Velocity S-wave (km/s) = 2.83217 3.53380 3.20226
# Velocity P-wave (km/s) = 4.58800 6.00629 5.34440
#
# Compressibility (1/GPa) = 0.04859625
#
# Stress axis : x y z
#
# Youngs Moduli (GPa) = 18.50043 63.70524 68.87802
#
# Poissons Ratio (x) = 1.06475 -0.24837
# Poissons Ratio (y) = 0.30921 0.32568
# Poissons Ratio (z) = -0.06671 0.30122
#
# Static dielectric constant tensor:
#      x y z
#    x 1.708070 0.000000 -0.051380 
#    y 0.000000 1.690340 0.000000 
#    z -0.051380 0.000000 1.736380 
# 
# From -- ./inp_files/68267.got.cif
#   From: 2010.05.17/outbox.cif.g08.bks.cpg/sg12_35_cif.got.tgz:68267.got - 2010.06.03 13:09:07.
