data_PCOD9194102
_publ_section_title
;
Structure prediction by ZEFSAII (Michael W. Deem and Ramdas Pophale) SiO2 
 PCOD9194102
Probable space group: C 2/M
;
_chemical_formula_sum "Si O2"
_cell_formula_units_Z 64
_cell_length_a 25.120040
_cell_length_b 7.616494
_cell_length_c 15.061128
_cell_angle_alpha 90.000000
_cell_angle_beta 91.124585
_cell_angle_gamma 90.000000
_cell_volume 2881.039878
_symmetry_space_group_name_H-M "C 2/M"
_symmetry_group_IT_number 12
_symmetry_cell_setting 'monoclinic'
loop_
_space_group_symop_operation_xyz
x,y,z
-x,y,-z
-x,-y,-z
x,-y,z
1/2+x,1/2+y,z
1/2-x,1/2+y,-z
1/2-x,1/2-y,-z
1/2+x,1/2-y,z
loop_
_atom_site_type_symbol
_atom_site_label
_atom_site_fract_x
_atom_site_fract_y
_atom_site_fract_z
Si Si1 0.504095 0.204748 0.899167
Si Si2 0.338329 0.791489 0.508228
Si Si3 0.769956 0.210906 0.163615
Si Si4 0.453285 0.703309 0.559592
Si Si5 0.844375 0.790004 0.888769
Si Si6 0.620783 0.713178 0.920350
Si Si7 0.250040 0.711541 0.360672
Si Si8 0.420831 0.297369 0.748615
O O1 0.566015 0.223234 0.876774
O O2 0.466618 0.292510 0.825106
O O3 0.489227 0.000000 0.901296
O O4 0.500000 0.277003 0.000000
O O5 0.396613 0.710035 0.508174
O O6 0.301028 0.756666 0.422478
O O7 0.302940 0.724840 0.590404
O O8 0.345328 0.000000 0.517543
O O9 0.717915 0.253729 0.104999
O O10 0.825773 0.274000 0.126785
O O11 0.757961 0.278939 0.261936
O O12 0.773814 0.000000 0.168074
O O13 0.500000 0.781588 0.500000
O O14 0.469127 0.500000 0.575972
O O15 0.441244 0.782619 0.656894
O O16 0.869960 0.717763 0.798618
O O17 0.851332 0.000000 0.886746
O O18 0.874791 0.725993 0.977185
O O19 0.620068 0.500000 0.919875
O O20 0.246354 0.500000 0.357831
O O21 0.407476 0.500000 0.727276
#
# Coordination Sequence:
#
# PCOD9194102 Si02
#       8
#     8   8   8   8   8   8   8   8
#     4  11  23  38  58  84 111 143 186 236 282 322
#     4  10  20  35  58  83 108 143 184 228 278 323
#     4  10  21  35  54  81 112 146 181 221 275 330
#     4  10  22  39  58  82 113 149 187 228 278 335
#     4  10  20  34  55  81 109 143 183 226 272 325
#     4  10  21  37  56  79 110 148 184 222 272 331
#     4   9  19  36  56  80 110 144 182 224 272 332
#     4  10  21  38  61  84 109 148 190 228 276 333
#
# _framework density 22.214202
#
# number of rings (size 3 to 8) (size 9 to 14) (size 15 to 20)
#    0.000    2.000    1.250    1.875    0.000    4.750 
#    0.000    5.000    0.000    0.000    0.000    0.000 
#    0.000    0.000    0.000    0.000    0.000    0.000 
#
# Total GULP energy -178796.308607 kJ/mol
# GULP energy per Si atom -5587.384644 kJ/mol
# Density = 2.216364 g / cm^3
# Si number density = 22.214202 Si / 1000 Ang^3
#
#
#
# Elastic Constant Matrix: (Units=GPa)
#
#
# Indices 1 2 3 4 5 6 
#
# 1 140.7259 -9.9964 21.6428 0.0000 -16.0632 0.0000
# 2 -9.9964 53.3306 1.3160 0.0000 -7.5890 0.0000
# 3 21.6428 1.3160 48.6706 0.0000 -12.7335 0.0000
# 4 0.0000 0.0000 0.0000 6.2423 0.0000 4.7075
# 5 -16.0632 -7.5890 -12.7335 0.0000 30.7690 0.0000
# 6 0.0000 0.0000 0.0000 4.7075 0.0000 7.9418
#
#
#
# Elastic Compliance Matrix: (Units=1/GPa)
#
#
# Indices 1 2 3 4 5 6 
#
# 1 0.008084 0.002097 -0.002705 0.000000 0.003618 0.000000
# 2 0.002097 0.020006 0.000117 0.000000 0.006077 0.000000
# 3 -0.002705 0.000117 0.023980 0.000000 0.008541 0.000000
# 4 0.000000 0.000000 0.000000 0.289692 0.000000 -0.171716
# 5 0.003618 0.006077 0.008541 0.000000 0.039423 0.000000
# 6 0.000000 0.000000 0.000000 -0.171716 0.000000 0.227702
#
#
# Mechanical properties :
#
#
# Convention : Reuss Voigt Hill
#
# Bulk Modulus (GPa) = 19.57423 29.85019 24.71221
# Shear Modulus (GPa) = 7.97577 24.30828 16.14203
#
# Velocity S-wave (km/s) = 1.89689 3.31156 2.69858
# Velocity P-wave (km/s) = 3.69165 5.29986 4.56710
#
# Compressibility (1/GPa) = 0.05108758
#
# Stress axis : x y z
#
# Youngs Moduli (GPa) = 123.70204 49.98518 41.70067
#
# Poissons Ratio (x) = -0.10481 0.11279
# Poissons Ratio (y) = -0.25939 -0.00486
# Poissons Ratio (z) = 0.33460 -0.00583
#
# Static dielectric constant tensor:
#      x y z
#    x 1.797380 0.000000 -0.042850 
#    y 0.000000 1.828790 0.000000 
#    z -0.042850 0.000000 1.832150 
# 
# From -- ./inp_files/238577.got.cif
#   From: 2010.05.17/outbox.cif.g08.bks.cpg/sg12_120_cif.got.tgz:238577.got - 2010.06.03 13:09:07.
