data_PCOD9194117
_publ_section_title
;
Structure prediction by ZEFSAII (Michael W. Deem and Ramdas Pophale) SiO2 
 PCOD9194117
Probable space group: C 2/M
;
_chemical_formula_sum "Si O2"
_cell_formula_units_Z 48
_cell_length_a 24.121035
_cell_length_b 10.829165
_cell_length_c 29.402741
_cell_angle_alpha 90.000000
_cell_angle_beta 18.536507
_cell_angle_gamma 90.000000
_cell_volume 2441.638266
_symmetry_space_group_name_H-M "C 2/M"
_symmetry_group_IT_number 12
_symmetry_cell_setting 'monoclinic'
loop_
_space_group_symop_operation_xyz
x,y,z
-x,y,-z
-x,-y,-z
x,-y,z
1/2+x,1/2+y,z
1/2-x,1/2+y,-z
1/2-x,1/2-y,-z
1/2+x,1/2-y,z
loop_
_atom_site_type_symbol
_atom_site_label
_atom_site_fract_x
_atom_site_fract_y
_atom_site_fract_z
Si Si1 0.211262 0.137449 0.063780
Si Si2 0.308841 0.642370 0.141813
Si Si3 0.126660 0.724974 0.659934
Si Si4 0.700767 0.861959 0.329747
Si Si5 0.465931 0.141838 0.365576
Si Si6 0.585882 0.137342 0.794035
O O1 0.017080 0.165370 0.231660
O O2 0.215780 0.000000 0.039420
O O3 0.250000 0.250000 0.000000
O O4 0.379067 0.142225 0.966134
O O5 0.341651 0.500000 0.100966
O O6 0.221123 0.641389 0.259625
O O7 0.161016 0.691944 0.222952
O O8 0.500000 0.700732 0.000000
O O9 0.319903 0.779598 0.505056
O O10 0.084110 0.645487 0.648487
O O11 0.103797 0.655321 0.725424
O O12 0.500000 0.847620 0.500000
O O13 0.814061 0.751558 0.261979
O O14 0.758900 0.000000 0.299765
O O15 0.462143 0.000000 0.384765
O O16 0.650660 0.000000 0.755957
#
# Coordination Sequence:
#
# PCOD9194117 Si02
#       6
#     8   8   8   8   8   8
#     4   9  19  34  52  77 110 146 184 228 279 338
#     4   9  19  35  55  81 111 145 189 241 288 336
#     4  10  20  34  55  82 113 152 189 229 289 350
#     4  10  21  37  59  86 112 147 197 246 289 339
#     4  10  20  34  55  81 113 148 188 237 286 341
#     4  10  21  36  55  83 118 149 186 235 288 350
#
# _framework density 19.658932
#
# number of rings (size 3 to 8) (size 9 to 14) (size 15 to 20)
#    0.000    2.333    0.000    2.000    2.333    5.667 
#    0.000    0.000    0.000    2.500    0.000    0.000 
#    0.000    0.000    0.000    0.000    0.000    0.000 
#
# Total GULP energy -133700.507374 kJ/mol
# GULP energy per Si atom -5570.854474 kJ/mol
# Density = 1.961419 g / cm^3
# Si number density = 19.658932 Si / 1000 Ang^3
#
#
#
# Elastic Constant Matrix: (Units=GPa)
#
#
# Indices 1 2 3 4 5 6 
#
# 1 35.0664 18.4221 16.3713 -0.0016 -12.9962 -0.0012
# 2 18.4221 123.1688 21.8984 -0.0129 -23.1264 -0.0005
# 3 16.3713 21.8984 84.7420 -0.0443 -26.7755 -0.0060
# 4 -0.0016 -0.0129 -0.0443 20.8601 -0.0124 -14.2687
# 5 -12.9962 -23.1264 -26.7755 -0.0124 31.0778 -0.0007
# 6 -0.0012 -0.0005 -0.0060 -14.2687 -0.0007 10.8663
#
#
#
# Elastic Compliance Matrix: (Units=1/GPa)
#
#
# Indices 1 2 3 4 5 6 
#
# 1 0.035086 -0.002845 -0.002853 0.000027 0.010098 0.000038
# 2 -0.002845 0.009674 -0.000071 0.000093 0.005948 0.000123
# 3 -0.002853 -0.000071 0.016457 0.000481 0.012933 0.000642
# 4 0.000027 0.000093 0.000481 0.470916 0.000699 0.618370
# 5 0.010098 0.005948 0.012933 0.000699 0.051969 0.000930
# 6 0.000038 0.000123 0.000642 0.618370 0.000930 0.904021
#
#
# Mechanical properties :
#
#
# Convention : Reuss Voigt Hill
#
# Bulk Modulus (GPa) = 20.12863 39.59562 29.86212
# Shear Modulus (GPa) = 3.29768 24.97987 14.13877
#
# Velocity S-wave (km/s) = 1.29657 3.56850 2.68471
# Velocity P-wave (km/s) = 3.53590 6.09623 4.98330
#
# Compressibility (1/GPa) = 0.04968048
#
# Stress axis : x y z
#
# Youngs Moduli (GPa) = 28.50144 103.37150 60.76595
#
# Poissons Ratio (x) = 0.29405 0.17334
# Poissons Ratio (y) = 0.08107 0.00430
# Poissons Ratio (z) = 0.08130 0.00732
#
# Static dielectric constant tensor:
#      x y z
#    x 1.692630 0.000000 -0.011330 
#    y 0.000000 1.681060 0.000020 
#    z -0.011330 0.000020 1.733630 
# 
# From -- ./inp_files/366145.got.cif
#   From: 2010.05.17/outbox.cif.g08.bks.cpg/sg12_184_cif.got.tgz:366145.got - 2010.06.03 13:09:07.
