data_PCOD9194474
_publ_section_title
;
Structure prediction by ZEFSAII (Michael W. Deem and Ramdas Pophale) SiO2 
 PCOD9194474
Probable space group: C 2/M
;
_chemical_formula_sum "Si O2"
_cell_formula_units_Z 42
_cell_length_a 26.743857
_cell_length_b 13.828997
_cell_length_c 7.930740
_cell_angle_alpha 90.000000
_cell_angle_beta 140.153517
_cell_angle_gamma 90.000000
_cell_volume 1879.340103
_symmetry_space_group_name_H-M "C 2/M"
_symmetry_group_IT_number 12
_symmetry_cell_setting 'monoclinic'
loop_
_space_group_symop_operation_xyz
x,y,z
-x,y,-z
-x,-y,-z
x,-y,z
1/2+x,1/2+y,z
1/2-x,1/2+y,-z
1/2-x,1/2-y,-z
1/2+x,1/2-y,z
loop_
_atom_site_type_symbol
_atom_site_label
_atom_site_fract_x
_atom_site_fract_y
_atom_site_fract_z
Si Si1 0.408803 0.113506 0.442010
Si Si2 0.810120 0.609449 0.837882
Si Si3 0.875074 0.106004 0.977792
Si Si4 0.729889 0.782999 0.756965
Si Si5 0.948824 0.295758 0.033721
Si Si6 0.000000 0.000000 0.500000
O O1 0.350963 0.162598 0.427768
O O2 0.489903 0.170009 0.664471
O O3 0.423015 0.000000 0.513657
O O4 0.362122 0.118292 0.144047
O O5 0.784155 0.500000 0.754759
O O6 0.739472 0.685343 0.672005
O O7 0.871190 0.639756 0.852819
O O8 0.795323 0.146760 0.848403
O O9 0.865159 0.000000 0.869061
O O10 0.917839 0.186980 0.978243
O O11 0.934396 0.082558 0.283632
O O12 0.750000 0.750000 0.000000
O O13 0.000000 0.307411 0.000000
#
# Coordination Sequence:
#
# PCOD9194474 Si02
#       6
#     8   8   8   8   8   2
#     4  10  20  34  56  84 107 141 178 227 274 318
#     4   9  19  35  54  80 110 140 176 225 269 318
#     4   9  20  35  55  80 110 141 175 218 265 317
#     4   9  18  31  55  82 115 135 170 224 274 323
#     4  11  23  36  54  78 108 145 185 224 266 316
#     4   8  20  32  62  84 102 148 170 224 266 320
#
# _framework density 22.348269999999999
#
# number of rings (size 3 to 8) (size 9 to 14) (size 15 to 20)
#    0.571    1.905    0.000    1.714    8.000    4.190 
#    0.000    4.762    0.000    2.286    0.000    0.000 
#    0.000    0.000    0.000    0.000    0.000    0.000 
#
# Total GULP energy -116952.644021 kJ/mol
# GULP energy per Si atom -5569.173525 kJ/mol
# Density = 2.229740 g / cm^3
# Si number density = 22.348270 Si / 1000 Ang^3
#
#
#
# Elastic Constant Matrix: (Units=GPa)
#
#
# Indices 1 2 3 4 5 6 
#
# 1 129.5239 45.5703 23.2182 0.0000 10.0486 0.0000
# 2 45.5703 152.0492 31.1124 0.0000 11.0416 0.0000
# 3 23.2182 31.1124 72.8883 0.0000 7.9855 0.0000
# 4 0.0000 0.0000 0.0000 2.0303 0.0000 10.9448
# 5 10.0486 11.0416 7.9855 0.0000 26.4195 0.0000
# 6 0.0000 0.0000 0.0000 10.9448 0.0000 7.6262
#
#
#
# Elastic Compliance Matrix: (Units=1/GPa)
#
#
# Indices 1 2 3 4 5 6 
#
# 1 0.008949 -0.002191 -0.001699 0.000000 -0.001975 0.000000
# 2 -0.002191 0.007863 -0.002472 0.000000 -0.001706 0.000000
# 3 -0.001699 -0.002472 0.015650 0.000000 -0.003051 0.000000
# 4 0.000000 0.000000 0.000000 -0.073114 0.000000 0.104930
# 5 -0.001975 -0.001706 -0.003051 0.000000 0.040237 0.000000
# 6 0.000000 0.000000 0.000000 0.104930 0.000000 -0.019464
#
#
# Mechanical properties :
#
#
# Convention : Reuss Voigt Hill
#
# Bulk Modulus (GPa) = 50.66120 61.58481 56.12301
# Shear Modulus (GPa) = -8690.65963 24.18588 -4333.23688
#
# Velocity S-wave (km/s) = -62.42741 3.29329 -44.08138
# Velocity P-wave (km/s) = 71.92721 6.48673 50.65297
#
# Compressibility (1/GPa) = 0.01973897
#
# Stress axis : x y z
#
# Youngs Moduli (GPa) = 111.74134 127.17626 63.89721
#
# Poissons Ratio (x) = 0.27865 0.10857
# Poissons Ratio (y) = 0.24484 0.15792
# Poissons Ratio (z) = 0.18986 0.31432
#
# Static dielectric constant tensor:
#      x y z
#    x 1.811330 0.000000 -0.083670 
#    y 0.000000 1.820140 0.000000 
#    z -0.083670 0.000000 1.943210 
# 
# From -- ./inp_files/104804.got.cif
#   From: 2010.05.17/outbox.cif.g08.bks.cpg/sg12_53_cif.got.tgz:104804.got - 2010.06.03 13:09:07.
