data_PCOD9194380
_publ_section_title
;
Structure prediction by ZEFSAII (Michael W. Deem and Ramdas Pophale) SiO2 
 PCOD9194380
Probable space group: C 2/M
;
_chemical_formula_sum "Si O2"
_cell_formula_units_Z 58
_cell_length_a 14.438742
_cell_length_b 21.494154
_cell_length_c 11.083980
_cell_angle_alpha 90.000000
_cell_angle_beta 56.883572
_cell_angle_gamma 90.000000
_cell_volume 2881.127410
_symmetry_space_group_name_H-M "C 2/M"
_symmetry_group_IT_number 12
_symmetry_cell_setting 'monoclinic'
loop_
_space_group_symop_operation_xyz
x,y,z
-x,y,-z
-x,-y,-z
x,-y,z
1/2+x,1/2+y,z
1/2-x,1/2+y,-z
1/2-x,1/2-y,-z
1/2+x,1/2-y,z
loop_
_atom_site_type_symbol
_atom_site_label
_atom_site_fract_x
_atom_site_fract_y
_atom_site_fract_z
Si Si1 0.923144 0.070702 0.436338
Si Si2 0.210073 0.265240 0.164787
Si Si3 0.774955 0.652484 0.470474
Si Si4 0.374760 0.571413 0.041488
Si Si5 0.500000 0.000000 0.500000
Si Si6 0.156680 0.609423 0.321647
Si Si7 0.875926 0.242790 0.261946
Si Si8 0.572126 0.335506 0.186078
O O1 0.801534 0.100150 0.536159
O O2 0.000000 0.071243 0.500000
O O3 0.989685 0.112941 0.295865
O O4 0.912845 0.000000 0.400514
O O5 0.145645 0.329040 0.244966
O O6 0.312917 0.266220 0.181975
O O7 0.134594 0.204211 0.243559
O O8 0.250000 0.250000 0.000000
O O9 0.840938 0.629147 0.539911
O O10 0.855835 0.687584 0.321801
O O11 0.687405 0.701160 0.591984
O O12 0.368195 0.500000 0.002794
O O13 0.280019 0.582424 0.207558
O O14 0.500000 0.581305 0.000000
O O15 0.353013 0.623812 0.956200
O O16 0.568384 0.054844 0.376039
O O17 0.998877 0.216469 0.170527
#
# Coordination Sequence:
#
# PCOD9194380 Si02
#       8
#     8   8   8   8   2   8   8   8
#     4  10  20  34  55  88 125 162 211 254 321 388
#     4  11  22  38  62  90 126 158 208 266 320 388
#     4   9  19  37  58  80 124 161 205 259 306 383
#     4  11  21  37  62  92 125 161 209 265 328 390
#     4  12  28  44  66  88 136 172 224 278 300 398
#     4  11  24  42  61  95 123 169 220 261 325 377
#     4   9  20  37  56  88 120 159 205 254 324 378
#     4  11  22  35  61  85 124 167 199 268 326 384
#
# _framework density 20.131008000000001
#
# number of rings (size 3 to 8) (size 9 to 14) (size 15 to 20)
#    0.000    1.655    2.069    3.724    2.897    2.207 
#    0.000    0.000    0.000    0.000    0.000    0.966 
#    0.000    0.000    0.000    0.000    0.000    0.000 
#
# Total GULP energy -161492.500198 kJ/mol
# GULP energy per Si atom -5568.706903 kJ/mol
# Density = 2.008519 g / cm^3
# Si number density = 20.131008 Si / 1000 Ang^3
#
#
#
# Elastic Constant Matrix: (Units=GPa)
#
#
# Indices 1 2 3 4 5 6 
#
# 1 40.1064 37.0727 14.2416 0.0000 -0.5723 0.0000
# 2 37.0727 153.4858 45.1639 0.0000 -4.8023 0.0000
# 3 14.2416 45.1639 72.7563 0.0000 -5.6924 0.0000
# 4 0.0000 0.0000 0.0000 11.5120 0.0000 -0.7437
# 5 -0.5723 -4.8023 -5.6924 0.0000 18.7510 0.0000
# 6 0.0000 0.0000 0.0000 -0.7437 0.0000 26.8150
#
#
#
# Elastic Compliance Matrix: (Units=1/GPa)
#
#
# Indices 1 2 3 4 5 6 
#
# 1 0.032333 -0.007291 -0.001917 0.000000 -0.001463 0.000000
# 2 -0.007291 0.009621 -0.004476 0.000000 0.000883 0.000000
# 3 -0.001917 -0.004476 0.017213 0.000000 0.004021 0.000000
# 4 0.000000 0.000000 0.000000 0.087022 0.000000 0.002413
# 5 -0.001463 0.000883 0.004021 0.000000 0.054732 0.000000
# 6 0.000000 0.000000 0.000000 0.002413 0.000000 0.037359
#
#
# Mechanical properties :
#
#
# Convention : Reuss Voigt Hill
#
# Bulk Modulus (GPa) = 31.44858 51.03389 41.24124
# Shear Modulus (GPa) = 18.09956 22.74030 20.41993
#
# Velocity S-wave (km/s) = 3.00173 3.36462 3.18834
# Velocity P-wave (km/s) = 5.26020 6.36397 5.83823
#
# Compressibility (1/GPa) = 0.03179794
#
# Stress axis : x y z
#
# Youngs Moduli (GPa) = 30.92776 103.93801 58.09580
#
# Poissons Ratio (x) = 0.75785 0.11139
# Poissons Ratio (y) = 0.22550 0.26004
# Poissons Ratio (z) = 0.05930 0.46523
#
# Static dielectric constant tensor:
#      x y z
#    x 1.740010 0.000000 -0.018570 
#    y 0.000000 1.759130 0.000000 
#    z -0.018570 0.000000 1.775960 
# 
# From -- ./inp_files/147596.got.cif
#   From: 2010.05.17/outbox.cif.g08.bks.cpg/sg12_74_cif.got.tgz:147596.got - 2010.06.03 13:09:07.
