data_PCOD9194511
_publ_section_title
;
Structure prediction by ZEFSAII (Michael W. Deem and Ramdas Pophale) SiO2 
 PCOD9194511
Probable space group: C 2/M
;
_chemical_formula_sum "Si O2"
_cell_formula_units_Z 64
_cell_length_a 19.834272
_cell_length_b 7.651655
_cell_length_c 17.210629
_cell_angle_alpha 90.000000
_cell_angle_beta 87.733734
_cell_angle_gamma 90.000000
_cell_volume 2609.928270
_symmetry_space_group_name_H-M "C 2/M"
_symmetry_group_IT_number 12
_symmetry_cell_setting 'monoclinic'
loop_
_space_group_symop_operation_xyz
x,y,z
-x,y,-z
-x,-y,-z
x,-y,z
1/2+x,1/2+y,z
1/2-x,1/2+y,-z
1/2-x,1/2-y,-z
1/2+x,1/2-y,z
loop_
_atom_site_type_symbol
_atom_site_label
_atom_site_fract_x
_atom_site_fract_y
_atom_site_fract_z
Si Si1 0.082704 0.798859 0.069553
Si Si2 0.112823 0.293762 0.294732
Si Si3 0.140043 0.796821 0.621412
Si Si4 0.226656 0.793669 0.087695
Si Si5 0.261128 0.709882 0.250052
Si Si6 0.924348 0.212333 0.527175
Si Si7 0.969506 0.713268 0.257558
Si Si8 0.068025 0.301877 0.901428
O O1 0.150642 0.720163 0.102287
O O2 0.013931 0.695616 0.086365
O O3 0.071134 0.000000 0.092561
O O4 0.093973 0.796647 0.975469
O O5 0.115749 0.500000 0.278442
O O6 0.185725 0.219993 0.270492
O O7 0.096599 0.270334 0.386396
O O8 0.046819 0.225478 0.252928
O O9 0.189899 0.719557 0.684432
O O10 0.128907 0.723834 0.535797
O O11 0.066685 0.782786 0.664562
O O12 0.158563 0.000000 0.611165
O O13 0.273465 0.745505 0.158220
O O14 0.218520 0.000000 0.090233
O O15 0.250000 0.750000 0.000000
O O16 0.261792 0.500000 0.257375
O O17 0.000000 0.270030 0.500000
O O18 0.924528 0.000000 0.525922
O O19 0.968256 0.500000 0.258027
O O20 0.926416 0.773156 0.185123
O O21 0.094053 0.500000 0.903481
#
# Coordination Sequence:
#
# PCOD9194511 Si02
#       8
#     8   8   8   8   8   8   8   8
#     4  10  21  37  55  81 112 147 191 242 295 354
#     4  10  21  38  62  89 121 160 199 247 302 356
#     4  10  22  39  60  86 119 158 197 245 300 353
#     4  11  25  42  62  86 117 159 204 248 300 358
#     4  10  23  43  63  88 122 158 202 251 303 363
#     4  10  20  37  60  90 124 158 199 244 295 359
#     4  10  21  35  55  85 116 151 196 244 294 352
#     4  10  20  34  56  84 114 149 190 242 298 350
#
# _framework density 24.521747000000001
#
# number of rings (size 3 to 8) (size 9 to 14) (size 15 to 20)
#    0.000    1.875    1.250    2.625    1.750    6.250 
#    0.000    0.000    0.000    0.000    0.000    0.000 
#    0.000    0.000    0.000    0.000    0.000    0.000 
#
# Total GULP energy -178909.832023 kJ/mol
# GULP energy per Si atom -5590.932251 kJ/mol
# Density = 2.446593 g / cm^3
# Si number density = 24.521747 Si / 1000 Ang^3
#
#
#
# Elastic Constant Matrix: (Units=GPa)
#
#
# Indices 1 2 3 4 5 6 
#
# 1 105.7616 -1.7915 28.2139 0.0000 30.8127 0.0000
# 2 -1.7915 66.9685 -0.6168 0.0000 7.2006 0.0000
# 3 28.2139 -0.6168 144.2949 0.0000 30.2795 0.0000
# 4 0.0000 0.0000 0.0000 24.7610 0.0000 -0.9904
# 5 30.8127 7.2006 30.2795 0.0000 44.4840 0.0000
# 6 0.0000 0.0000 0.0000 -0.9904 0.0000 12.1233
#
#
#
# Elastic Compliance Matrix: (Units=1/GPa)
#
#
# Indices 1 2 3 4 5 6 
#
# 1 0.011996 0.001181 -0.000650 0.000000 -0.008059 0.000000
# 2 0.001181 0.015370 0.000617 0.000000 -0.003726 0.000000
# 3 -0.000650 0.000617 0.008151 0.000000 -0.005198 0.000000
# 4 0.000000 0.000000 0.000000 0.040518 0.000000 0.003310
# 5 -0.008059 -0.003726 -0.005198 0.000000 0.032203 0.000000
# 6 0.000000 0.000000 0.000000 0.003310 0.000000 0.082756
#
#
# Mechanical properties :
#
#
# Convention : Reuss Voigt Hill
#
# Bulk Modulus (GPa) = 26.44510 40.95957 33.70233
# Shear Modulus (GPa) = 24.83823 35.68831 30.26327
#
# Velocity S-wave (km/s) = 3.18607 3.81908 3.51684
# Velocity P-wave (km/s) = 4.93381 6.01554 5.50133
#
# Compressibility (1/GPa) = 0.03781419
#
# Stress axis : x y z
#
# Youngs Moduli (GPa) = 83.35898 65.06048 122.68975
#
# Poissons Ratio (x) = -0.07686 0.07969
# Poissons Ratio (y) = -0.09848 -0.07565
# Poissons Ratio (z) = 0.05414 -0.04012
#
# Static dielectric constant tensor:
#      x y z
#    x 1.992420 0.000000 0.015570 
#    y 0.000000 1.871130 0.000000 
#    z 0.015570 0.000000 1.976440 
# 
# From -- ./inp_files/281334.got.cif
#   From: 2010.05.17/outbox.cif.g08.bks.cpg/sg12_141_cif.got.tgz:281334.got - 2010.06.03 13:09:07.
