data_PCOD9194607
_publ_section_title
;
Structure prediction by ZEFSAII (Michael W. Deem and Ramdas Pophale) SiO2 
 PCOD9194607
Probable space group: C 2/M
;
_chemical_formula_sum "Si O2"
_cell_formula_units_Z 40
_cell_length_a 15.133844
_cell_length_b 20.609502
_cell_length_c 8.185338
_cell_angle_alpha 90.000000
_cell_angle_beta 128.610566
_cell_angle_gamma 90.000000
_cell_volume 1994.939738
_symmetry_space_group_name_H-M "C 2/M"
_symmetry_group_IT_number 12
_symmetry_cell_setting 'monoclinic'
loop_
_space_group_symop_operation_xyz
x,y,z
-x,y,-z
-x,-y,-z
x,-y,z
1/2+x,1/2+y,z
1/2-x,1/2+y,-z
1/2-x,1/2-y,-z
1/2+x,1/2-y,z
loop_
_atom_site_type_symbol
_atom_site_label
_atom_site_fract_x
_atom_site_fract_y
_atom_site_fract_z
Si Si1 0.929531 0.074130 0.574052
Si Si2 0.846714 0.793894 0.185035
Si Si3 0.593298 0.749671 0.379973
Si Si4 0.160761 0.075438 0.994252
Si Si5 0.238755 0.145392 0.408508
O O1 0.815210 0.105873 0.503784
O O2 0.000000 0.101580 0.500000
O O3 0.022888 0.076149 0.827085
O O4 0.905719 0.000000 0.504140
O O5 0.864031 0.775973 0.393994
O O6 0.811903 0.868155 0.105264
O O7 0.962923 0.770913 0.230135
O O8 0.750000 0.750000 0.000000
O O9 0.636604 0.824061 0.424795
O O10 0.658103 0.709294 0.315085
O O11 0.191940 0.000000 0.998194
O O12 0.216507 0.101712 0.224469
#
# Coordination Sequence:
#
# PCOD9194607 Si02
#       5
#     8   8   8   8   8
#     4  10  20  34  56  86 126 164 200 255 317 371
#     4  11  21  41  61  85 124 164 206 255 304 375
#     4  10  23  36  58  87 121 162 206 240 310 372
#     4  11  22  35  58  90 121 159 203 254 317 365
#     4  11  20  36  54  85 125 152 198 255 300 371
#
# _framework density 20.050729
#
# number of rings (size 3 to 8) (size 9 to 14) (size 15 to 20)
#    0.000    1.400    4.000    2.400    0.000    1.600 
#    0.000    1.000    0.000    3.600    0.000    0.000 
#    0.000   14.800    0.000    0.000    0.000    0.000 
#
# Total GULP energy -111423.046441 kJ/mol
# GULP energy per Si atom -5571.152322 kJ/mol
# Density = 2.000509 g / cm^3
# Si number density = 20.050729 Si / 1000 Ang^3
#
#
#
# Elastic Constant Matrix: (Units=GPa)
#
#
# Indices 1 2 3 4 5 6 
#
# 1 64.6556 46.2907 20.4596 0.0000 -4.2400 0.0000
# 2 46.2907 154.0337 40.5890 0.0000 2.9491 0.0000
# 3 20.4596 40.5890 68.9272 0.0000 2.8448 0.0000
# 4 0.0000 0.0000 0.0000 34.8576 0.0000 -0.6161
# 5 -4.2400 2.9491 2.8448 0.0000 23.1706 0.0000
# 6 0.0000 0.0000 0.0000 -0.6161 0.0000 38.0452
#
#
#
# Elastic Compliance Matrix: (Units=1/GPa)
#
#
# Indices 1 2 3 4 5 6 
#
# 1 0.020705 -0.005496 -0.003110 0.000000 0.004870 0.000000
# 2 -0.005496 0.009148 -0.003684 0.000000 -0.001718 0.000000
# 3 -0.003110 -0.003684 0.017695 0.000000 -0.002273 0.000000
# 4 0.000000 0.000000 0.000000 0.028696 0.000000 0.000465
# 5 0.004870 -0.001718 -0.002273 0.000000 0.044547 0.000000
# 6 0.000000 0.000000 0.000000 0.000465 0.000000 0.026292
#
#
# Mechanical properties :
#
#
# Convention : Reuss Voigt Hill
#
# Bulk Modulus (GPa) = 43.54330 55.81056 49.67693
# Shear Modulus (GPa) = 27.88315 31.23316 29.55816
#
# Velocity S-wave (km/s) = 3.73316 3.95106 3.84366
# Velocity P-wave (km/s) = 6.35183 6.97923 6.67290
#
# Compressibility (1/GPa) = 0.02296565
#
# Stress axis : x y z
#
# Youngs Moduli (GPa) = 48.29722 109.31932 56.51386
#
# Poissons Ratio (x) = 0.60082 0.17579
# Poissons Ratio (y) = 0.26544 0.20822
# Poissons Ratio (z) = 0.15023 0.40278
#
# Static dielectric constant tensor:
#      x y z
#    x 1.740080 0.000000 -0.050490 
#    y 0.000000 1.803890 0.000000 
#    z -0.050490 0.000000 1.785480 
# 
# From -- ./inp_files/75525.got.cif
#   From: 2010.05.17/outbox.cif.g08.bks.cpg/sg12_38_cif.got.tgz:75525.got - 2010.06.03 13:09:07.
