data_PCOD9194777
_publ_section_title
;
Structure prediction by ZEFSAII (Michael W. Deem and Ramdas Pophale) SiO2 
 PCOD9194777
Probable space group: C 2/M
;
_chemical_formula_sum "Si O2"
_cell_formula_units_Z 42
_cell_length_a 13.673825
_cell_length_b 13.844115
_cell_length_c 11.407592
_cell_angle_alpha 90.000000
_cell_angle_beta 80.253783
_cell_angle_gamma 90.000000
_cell_volume 2128.312786
_symmetry_space_group_name_H-M "C 2/M"
_symmetry_group_IT_number 12
_symmetry_cell_setting 'monoclinic'
loop_
_space_group_symop_operation_xyz
x,y,z
-x,y,-z
-x,-y,-z
x,-y,z
1/2+x,1/2+y,z
1/2-x,1/2+y,-z
1/2-x,1/2-y,-z
1/2+x,1/2-y,z
loop_
_atom_site_type_symbol
_atom_site_label
_atom_site_fract_x
_atom_site_fract_y
_atom_site_fract_z
Si Si1 0.586559 0.608968 0.580601
Si Si2 0.560656 0.794348 0.746767
Si Si3 0.000000 0.000000 0.000000
Si Si4 0.741156 0.389349 0.353738
Si Si5 0.138304 0.821405 0.933999
Si Si6 0.157793 0.734819 0.187125
O O1 0.500000 0.617640 0.500000
O O2 0.579261 0.500000 0.630026
O O3 0.573114 0.692568 0.676630
O O4 0.690782 0.620219 0.491137
O O5 0.641995 0.866308 0.676917
O O6 0.591430 0.769242 0.873632
O O7 0.444805 0.818459 0.763615
O O8 0.927029 0.084859 0.066289
O O9 0.721889 0.500000 0.318933
O O10 0.687641 0.311356 0.281289
O O11 0.248087 0.832314 0.858020
O O12 0.144218 0.795479 0.069911
#
# Coordination Sequence:
#
# PCOD9194777 Si02
#       6
#     8   8   2   8   8   8
#     4  10  20  34  57  88 112 143 194 237 274 331
#     4  11  20  37  61  81 116 150 184 235 286 331
#     4  12  20  36  56  84 110 142 188 236 272 326
#     4  10  22  37  57  85 113 150 190 230 281 335
#     4  10  23  34  57  86 111 143 184 231 278 330
#     4  10  20  39  56  79 116 147 184 228 279 334
#
# _framework density 19.733941000000002
#
# number of rings (size 3 to 8) (size 9 to 14) (size 15 to 20)
#    0.000    1.714    3.810    0.571    2.667    0.000 
#    1.714    0.000    0.000    4.000    0.000    0.000 
#    0.000    0.000    0.000    0.000    0.000    0.000 
#
# Total GULP energy -116951.941353 kJ/mol
# GULP energy per Si atom -5569.140064 kJ/mol
# Density = 1.968903 g / cm^3
# Si number density = 19.733941 Si / 1000 Ang^3
#
#
#
# Elastic Constant Matrix: (Units=GPa)
#
#
# Indices 1 2 3 4 5 6 
#
# 1 132.9162 4.1393 11.6919 0.0000 -43.9307 0.0000
# 2 4.1393 30.4094 6.6552 0.0000 -10.4830 0.0000
# 3 11.6919 6.6552 44.0343 0.0000 -9.5453 0.0000
# 4 0.0000 0.0000 0.0000 19.1246 0.0000 -12.4181
# 5 -43.9307 -10.4830 -9.5453 0.0000 35.7285 0.0000
# 6 0.0000 0.0000 0.0000 -12.4181 0.0000 18.1762
#
#
#
# Elastic Compliance Matrix: (Units=1/GPa)
#
#
# Indices 1 2 3 4 5 6 
#
# 1 0.013147 0.004263 -0.000382 0.000000 0.017313 0.000000
# 2 0.004263 0.038453 -0.003568 0.000000 0.015570 0.000000
# 3 -0.000382 -0.003568 0.024437 0.000000 0.005012 0.000000
# 4 0.000000 0.000000 0.000000 0.093980 0.000000 0.064207
# 5 0.017313 0.015570 0.005012 0.000000 0.055184 0.000000
# 6 0.000000 0.000000 0.000000 0.064207 0.000000 0.098884
#
#
# Mechanical properties :
#
#
# Convention : Reuss Voigt Hill
#
# Bulk Modulus (GPa) = 13.04445 28.03695 20.54070
# Shear Modulus (GPa) = 14.32611 26.93078 20.62845
#
# Velocity S-wave (km/s) = 2.69729 3.69818 3.23666
# Velocity P-wave (km/s) = 4.04042 5.69857 4.93957
#
# Compressibility (1/GPa) = 0.07666096
#
# Stress axis : x y z
#
# Youngs Moduli (GPa) = 76.06463 26.00590 40.92202
#
# Poissons Ratio (x) = -0.11085 0.01563
# Poissons Ratio (y) = -0.32423 0.14602
# Poissons Ratio (z) = 0.02905 0.09280
#
# Static dielectric constant tensor:
#      x y z
#    x 1.760370 0.000000 0.000660 
#    y 0.000000 1.620970 0.000000 
#    z 0.000660 0.000000 1.710950 
# 
# From -- ./inp_files/129681.got.cif
#   From: 2010.05.17/outbox.cif.g08.bks.cpg/sg12_65_cif.got.tgz:129681.got - 2010.06.03 13:09:07.
