data_PCOD9194145
_publ_section_title
;
Structure prediction by ZEFSAII (Michael W. Deem and Ramdas Pophale) SiO2 
 PCOD9194145
Probable space group: C 2/M
;
_chemical_formula_sum "Si O2"
_cell_formula_units_Z 48
_cell_length_a 17.238194
_cell_length_b 7.422856
_cell_length_c 15.056505
_cell_angle_alpha 90.000000
_cell_angle_beta 90.497501
_cell_angle_gamma 90.000000
_cell_volume 1926.507039
_symmetry_space_group_name_H-M "C 2/M"
_symmetry_group_IT_number 12
_symmetry_cell_setting 'monoclinic'
loop_
_space_group_symop_operation_xyz
x,y,z
-x,y,-z
-x,-y,-z
x,-y,z
1/2+x,1/2+y,z
1/2-x,1/2+y,-z
1/2-x,1/2-y,-z
1/2+x,1/2-y,z
loop_
_atom_site_type_symbol
_atom_site_label
_atom_site_fract_x
_atom_site_fract_y
_atom_site_fract_z
Si Si1 0.419058 0.281928 0.543713
Si Si2 0.429233 0.294042 0.877656
Si Si3 0.834704 0.784820 0.038458
Si Si4 0.167358 0.707157 0.286071
Si Si5 0.824203 0.780212 0.379108
Si Si6 0.584184 0.719830 0.788037
O O1 0.500000 0.226116 0.500000
O O2 0.420177 0.500000 0.547677
O O3 0.401306 0.217505 0.642252
O O4 0.349949 0.221782 0.476998
O O5 0.451388 0.500000 0.898337
O O6 0.397770 0.212590 0.968572
O O7 0.360029 0.295025 0.805181
O O8 0.503199 0.214410 0.827900
O O9 0.843941 0.000000 0.039883
O O10 0.750000 0.750000 0.000000
O O11 0.851305 0.725836 0.138742
O O12 0.184251 0.500000 0.263697
O O13 0.242744 0.781871 0.337511
O O14 0.890322 0.724616 0.309429
O O15 0.821620 0.000000 0.381979
O O16 0.580697 0.500000 0.783012
#
# Coordination Sequence:
#
# PCOD9194145 Si02
#       6
#     8   8   8   8   8   8
#     4  10  20  36  58  80 103 137 181 222 258 306
#     4  10  20  35  56  80 105 139 184 224 257 305
#     4  10  20  34  55  82 110 141 177 218 265 314
#     4  11  22  35  53  79 111 142 171 213 271 323
#     4   9  18  32  52  78 106 138 174 214 264 316
#     4   9  17  33  56  79 104 137 180 223 258 303
#
# _framework density 24.915559999999999
#
# number of rings (size 3 to 8) (size 9 to 14) (size 15 to 20)
#    0.000    2.167    0.000    3.500    0.000    7.000 
#    0.000    1.667    0.000    7.000    0.000    0.000 
#    0.000    0.000    0.000    0.000    0.000    0.000 
#
# Total GULP energy -134252.346557 kJ/mol
# GULP energy per Si atom -5593.847773 kJ/mol
# Density = 2.485885 g / cm^3
# Si number density = 24.915560 Si / 1000 Ang^3
#
#
#
# Elastic Constant Matrix: (Units=GPa)
#
#
# Indices 1 2 3 4 5 6 
#
# 1 62.6269 -7.4660 -17.9244 0.0000 1.7261 0.0000
# 2 -7.4660 80.1142 -7.3783 0.0000 2.5443 0.0000
# 3 -17.9244 -7.3783 101.9190 0.0000 -0.1069 0.0000
# 4 0.0000 0.0000 0.0000 -0.6400 0.0000 14.3848
# 5 1.7261 2.5443 -0.1069 0.0000 43.7322 0.0000
# 6 0.0000 0.0000 0.0000 14.3848 0.0000 2.0418
#
#
#
# Elastic Compliance Matrix: (Units=1/GPa)
#
#
# Indices 1 2 3 4 5 6 
#
# 1 0.017118 0.001910 0.003148 0.000000 -0.000779 0.000000
# 2 0.001910 0.012802 0.001262 0.000000 -0.000817 0.000000
# 3 0.003148 0.001262 0.010457 0.000000 -0.000172 0.000000
# 4 0.000000 0.000000 0.000000 -0.009805 0.000000 0.069081
# 5 -0.000779 -0.000817 -0.000172 0.000000 0.022944 0.000000
# 6 0.000000 0.000000 0.000000 0.069081 0.000000 0.003074
#
#
# Mechanical properties :
#
#
# Convention : Reuss Voigt Hill
#
# Bulk Modulus (GPa) = 18.86230 19.90253 19.38241
# Shear Modulus (GPa) = 81.14013 27.52205 54.33109
#
# Velocity S-wave (km/s) = 5.71286 3.32718 4.67476
# Velocity P-wave (km/s) = 7.14861 4.77132 6.07734
#
# Compressibility (1/GPa) = 0.05301581
#
# Stress axis : x y z
#
# Youngs Moduli (GPa) = 58.41910 78.11075 95.63428
#
# Poissons Ratio (x) = -0.14918 -0.30105
# Poissons Ratio (y) = -0.11157 -0.12068
# Poissons Ratio (z) = -0.18390 -0.09856
#
# Static dielectric constant tensor:
#      x y z
#    x 1.992770 0.000000 -0.000640 
#    y 0.000000 2.020380 0.000000 
#    z -0.000640 0.000000 1.897110 
# 
# From -- ./inp_files/221531.got.cif
#   From: 2010.05.17/outbox.cif.g08.bks.cpg/sg12_111_cif.got.tgz:221531.got - 2010.06.03 13:09:07.
