data_PCOD9194074
_publ_section_title
;
Structure prediction by ZEFSAII (Michael W. Deem and Ramdas Pophale) SiO2 
 PCOD9194074
Probable space group: C 2/M
;
_chemical_formula_sum "Si O2"
_cell_formula_units_Z 56
_cell_length_a 23.241274
_cell_length_b 7.315917
_cell_length_c 15.038999
_cell_angle_alpha 90.000000
_cell_angle_beta 121.240682
_cell_angle_gamma 90.000000
_cell_volume 2186.310444
_symmetry_space_group_name_H-M "C 2/M"
_symmetry_group_IT_number 12
_symmetry_cell_setting 'monoclinic'
loop_
_space_group_symop_operation_xyz
x,y,z
-x,y,-z
-x,-y,-z
x,-y,z
1/2+x,1/2+y,z
1/2-x,1/2+y,-z
1/2-x,1/2-y,-z
1/2+x,1/2-y,z
loop_
_atom_site_type_symbol
_atom_site_label
_atom_site_fract_x
_atom_site_fract_y
_atom_site_fract_z
Si Si1 0.175851 0.221155 0.345517
Si Si2 0.436946 0.791577 0.009423
Si Si3 0.468181 0.720847 0.760211
Si Si4 0.513810 0.278367 0.611635
Si Si5 0.784927 0.281244 0.930767
Si Si6 0.658982 0.276893 0.718255
Si Si7 0.679635 0.295418 0.549142
O O1 0.242388 0.302036 0.357681
O O2 0.178704 0.284641 0.450819
O O3 0.102945 0.271895 0.251899
O O4 0.182434 0.000000 0.348162
O O5 0.470052 0.790816 0.133792
O O6 0.428748 0.000000 0.970838
O O7 0.500000 0.711654 0.000000
O O8 0.360559 0.714275 0.963611
O O9 0.471592 0.500000 0.763340
O O10 0.466943 0.778692 0.655874
O O11 0.500000 0.215013 0.500000
O O12 0.510763 0.500000 0.604420
O O13 0.588541 0.230928 0.706762
O O14 0.789873 0.500000 0.927743
O O15 0.726957 0.212127 0.817614
O O16 0.750000 0.250000 0.000000
O O17 0.662711 0.500000 0.717903
O O18 0.647033 0.209377 0.608262
O O19 0.651884 0.500000 0.516539
#
# Coordination Sequence:
#
# PCOD9194074 Si02
#       7
#     8   8   8   8   8   8   8
#     4   9  18  31  47  74 108 135 166 212 263 314
#     4  10  23  40  58  81 112 149 193 242 287 339
#     4  10  20  34  55  80 109 142 180 228 281 331
#     4   9  16  28  50  81 112 139 171 217 270 324
#     4  10  21  38  58  81 109 142 185 235 283 331
#     4   9  17  29  50  75  98 130 174 213 253 311
#     4   9  17  30  50  74 101 136 174 210 254 314
#
# _framework density 25.613927
#
# number of rings (size 3 to 8) (size 9 to 14) (size 15 to 20)
#    0.000    2.571    0.000    1.714    2.000    6.000 
#    0.000    0.714    0.000    1.286    0.000    0.000 
#    0.000    0.000    0.000    0.000    0.000    0.000 
#
# Total GULP energy -156174.476130 kJ/mol
# GULP energy per Si atom -5577.659862 kJ/mol
# Density = 2.555563 g / cm^3
# Si number density = 25.613927 Si / 1000 Ang^3
#
#
#
# Elastic Constant Matrix: (Units=GPa)
#
#
# Indices 1 2 3 4 5 6 
#
# 1 188.9624 5.8293 45.5170 0.0000 32.2479 0.0000
# 2 5.8293 109.0033 -0.3785 0.0000 3.4171 0.0000
# 3 45.5170 -0.3785 89.6061 0.0000 11.8717 0.0000
# 4 0.0000 0.0000 0.0000 9.5048 0.0000 1.3742
# 5 32.2479 3.4171 11.8717 0.0000 59.6882 0.0000
# 6 0.0000 0.0000 0.0000 1.3742 0.0000 -0.3540
#
#
#
# Elastic Compliance Matrix: (Units=1/GPa)
#
#
# Indices 1 2 3 4 5 6 
#
# 1 0.006501 -0.000266 -0.002917 0.000000 -0.002917 0.000000
# 2 -0.000266 0.009203 0.000231 0.000000 -0.000429 0.000000
# 3 -0.002917 0.000231 0.012772 0.000000 -0.000978 0.000000
# 4 0.000000 0.000000 0.000000 0.067385 0.000000 0.261618
# 5 -0.002917 -0.000429 -0.000978 0.000000 0.018549 0.000000
# 6 0.000000 0.000000 0.000000 0.261618 0.000000 -1.809522
#
#
# Mechanical properties :
#
#
# Convention : Reuss Voigt Hill
#
# Bulk Modulus (GPa) = 44.30476 54.38973 49.34725
# Shear Modulus (GPa) = -2.97321 36.20806 16.61743
#
# Velocity S-wave (km/s) = -1.07856 3.76388 2.54985
# Velocity P-wave (km/s) = 3.97286 6.33795 5.28929
#
# Compressibility (1/GPa) = 0.02257094
#
# Stress axis : x y z
#
# Youngs Moduli (GPa) = 153.83109 108.66588 78.29559
#
# Poissons Ratio (x) = 0.02894 0.22837
# Poissons Ratio (y) = 0.04097 -0.01808
# Poissons Ratio (z) = 0.44870 -0.02510
#
# Static dielectric constant tensor:
#      x y z
#    x 2.043890 0.000000 0.016740 
#    y 0.000000 1.907240 0.000000 
#    z 0.016740 0.000000 1.989760 
# 
# From -- ./inp_files/238877.got.cif
#   From: 2010.05.17/outbox.cif.g08.bks.cpg/sg12_120_cif.got.tgz:238877.got - 2010.06.03 13:09:07.
