data_PCOD9194352
_publ_section_title
;
Structure prediction by ZEFSAII (Michael W. Deem and Ramdas Pophale) SiO2 
 PCOD9194352
Probable space group: C 2/M
;
_chemical_formula_sum "Si O2"
_cell_formula_units_Z 56
_cell_length_a 23.823547
_cell_length_b 7.998143
_cell_length_c 15.379576
_cell_angle_alpha 90.000000
_cell_angle_beta 117.724730
_cell_angle_gamma 90.000000
_cell_volume 2594.047209
_symmetry_space_group_name_H-M "C 2/M"
_symmetry_group_IT_number 12
_symmetry_cell_setting 'monoclinic'
loop_
_space_group_symop_operation_xyz
x,y,z
-x,y,-z
-x,-y,-z
x,-y,z
1/2+x,1/2+y,z
1/2-x,1/2+y,-z
1/2-x,1/2-y,-z
1/2+x,1/2-y,z
loop_
_atom_site_type_symbol
_atom_site_label
_atom_site_fract_x
_atom_site_fract_y
_atom_site_fract_z
Si Si1 0.304939 0.306599 0.317181
Si Si2 0.189852 0.696681 0.013260
Si Si3 0.831115 0.813962 0.812526
Si Si4 0.065826 0.199345 0.504620
Si Si5 0.986479 0.297117 0.707388
Si Si6 0.467875 0.192662 0.888771
Si Si7 0.873518 0.698698 0.204455
O O1 0.298993 0.500000 0.336887
O O2 0.236016 0.226978 0.280660
O O3 0.367730 0.233131 0.408996
O O4 0.323266 0.291701 0.228313
O O5 0.192836 0.500000 0.037529
O O6 0.182448 0.800528 0.094518
O O7 0.250000 0.750000 0.000000
O O8 0.133929 0.723951 0.903739
O O9 0.891684 0.697694 0.841361
O O10 0.851133 0.000000 0.802995
O O11 0.062320 0.231547 0.399037
O O12 0.000000 0.266885 0.500000
O O13 0.066388 0.000000 0.521727
O O14 0.983018 0.500000 0.706326
O O15 0.981222 0.234860 0.802602
O O16 0.055784 0.248831 0.721514
O O17 0.490786 0.000000 0.902018
O O18 0.500000 0.265953 0.000000
O O19 0.864594 0.500000 0.213075
#
# Coordination Sequence:
#
# PCOD9194352 Si02
#       7
#     8   8   8   8   8   8   8
#     4  11  22  37  59  85 119 161 201 246 305 365
#     4  11  21  34  54  83 119 157 198 244 300 364
#     4  12  25  40  59  87 123 162 205 256 309 364
#     4  10  21  38  59  89 125 162 202 251 310 365
#     4  10  21  37  62  92 119 157 203 251 307 363
#     4  10  22  44  69  91 121 162 207 254 304 367
#     4  10  20  34  55  86 121 154 194 244 300 363
#
# _framework density 21.587888
#
# number of rings (size 3 to 8) (size 9 to 14) (size 15 to 20)
#    0.000    1.429    2.857    3.000    0.000    5.143 
#    0.000    2.143    0.000    0.000    0.000    0.000 
#    0.000    0.000    0.000    0.000    0.000    0.000 
#
# Total GULP energy -156307.067789 kJ/mol
# GULP energy per Si atom -5582.395278 kJ/mol
# Density = 2.153875 g / cm^3
# Si number density = 21.587888 Si / 1000 Ang^3
#
#
#
# Elastic Constant Matrix: (Units=GPa)
#
#
# Indices 1 2 3 4 5 6 
#
# 1 69.6393 -9.8576 27.2290 0.0000 10.5572 0.0000
# 2 -9.8576 28.7265 7.5552 0.0000 7.8986 0.0000
# 3 27.2290 7.5552 121.1531 0.0000 15.9152 0.0000
# 4 0.0000 0.0000 0.0000 19.1621 0.0000 -3.8633
# 5 10.5572 7.8986 15.9152 0.0000 34.3303 0.0000
# 6 0.0000 0.0000 0.0000 -3.8633 0.0000 16.3743
#
#
#
# Elastic Compliance Matrix: (Units=1/GPa)
#
#
# Indices 1 2 3 4 5 6 
#
# 1 0.017970 0.008759 -0.003827 0.000000 -0.005767 0.000000
# 2 0.008759 0.041616 -0.003144 0.000000 -0.010811 0.000000
# 3 -0.003827 -0.003144 0.009648 0.000000 -0.002573 0.000000
# 4 0.000000 0.000000 0.000000 0.054793 0.000000 0.012928
# 5 -0.005767 -0.010811 -0.002573 0.000000 0.034582 0.000000
# 6 0.000000 0.000000 0.000000 0.012928 0.000000 0.064122
#
#
# Mechanical properties :
#
#
# Convention : Reuss Voigt Hill
#
# Bulk Modulus (GPa) = 13.73427 29.93023 21.83225
# Shear Modulus (GPa) = 20.54015 26.94615 23.74315
#
# Velocity S-wave (km/s) = 3.08793 3.53683 3.31998
# Velocity P-wave (km/s) = 4.36916 5.52932 4.98312
#
# Compressibility (1/GPa) = 0.07281059
#
# Stress axis : x y z
#
# Youngs Moduli (GPa) = 55.64710 24.02915 103.64618
#
# Poissons Ratio (x) = -0.21047 0.39670
# Poissons Ratio (y) = -0.48741 0.32582
# Poissons Ratio (z) = 0.21299 0.07554
#
# Static dielectric constant tensor:
#      x y z
#    x 1.786880 0.000000 0.042970 
#    y 0.000000 1.784180 0.000000 
#    z 0.042970 0.000000 1.852040 
# 
# From -- ./inp_files/238898.got.cif
#   From: 2010.05.17/outbox.cif.g08.bks.cpg/sg12_120_cif.got.tgz:238898.got - 2010.06.03 13:09:07.
