data_PCOD9194067
_publ_section_title
;
Structure prediction by ZEFSAII (Michael W. Deem and Ramdas Pophale) SiO2 
 PCOD9194067
Probable space group: C 2/M
;
_chemical_formula_sum "Si O2"
_cell_formula_units_Z 50
_cell_length_a 14.353222
_cell_length_b 8.005249
_cell_length_c 21.388213
_cell_angle_alpha 90.000000
_cell_angle_beta 112.417063
_cell_angle_gamma 90.000000
_cell_volume 2271.820199
_symmetry_space_group_name_H-M "C 2/M"
_symmetry_group_IT_number 12
_symmetry_cell_setting 'monoclinic'
loop_
_space_group_symop_operation_xyz
x,y,z
-x,y,-z
-x,-y,-z
x,-y,z
1/2+x,1/2+y,z
1/2-x,1/2+y,-z
1/2-x,1/2-y,-z
1/2+x,1/2-y,z
loop_
_atom_site_type_symbol
_atom_site_label
_atom_site_fract_x
_atom_site_fract_y
_atom_site_fract_z
Si Si1 0.356584 0.810868 0.599386
Si Si2 0.142557 0.313751 0.551518
Si Si3 0.000000 0.000000 0.500000
Si Si4 0.322157 0.800756 0.074642
Si Si5 0.051592 0.801991 0.716681
Si Si6 0.973212 0.799654 0.830316
Si Si7 0.254395 0.699567 0.810198
O O1 0.259898 0.710563 0.599887
O O2 0.353627 0.812505 0.523441
O O3 0.464386 0.740672 0.646185
O O4 0.347208 0.000000 0.619304
O O5 0.107029 0.500000 0.562867
O O6 0.075230 0.150581 0.547580
O O7 0.437083 0.739192 0.098728
O O8 0.279500 0.734591 0.130277
O O9 0.324825 0.000000 0.078628
O O10 0.250000 0.750000 0.000000
O O11 0.164219 0.733708 0.738563
O O12 0.010091 0.734214 0.772563
O O13 0.060751 0.000000 0.722605
O O14 0.863407 0.733229 0.819349
O O15 0.965628 0.000000 0.823001
O O16 0.263341 0.500000 0.818124
#
# Coordination Sequence:
#
# PCOD9194067 Si02
#       7
#     8   8   2   8   8   8   8
#     4  10  20  39  61  83 111 159 198 235 288 358
#     4  10  22  39  62  86 120 155 196 242 300 354
#     4  12  22  40  60  94 120 150 190 256 302 342
#     4  10  20  34  55  80 107 143 182 226 278 336
#     4  10  20  34  57  83 111 146 188 235 287 341
#     4   9  19  37  56  78 109 144 185 231 276 332
#     4   9  19  37  56  76 108 147 186 227 279 339
#
# _framework density 22.008783999999999
#
# number of rings (size 3 to 8) (size 9 to 14) (size 15 to 20)
#    0.000    2.240    0.800    1.680    2.240    2.560 
#    2.880    3.200    0.000    0.000    0.000    0.000 
#    0.000    0.000    0.000    0.000    0.000    0.000 
#
# Total GULP energy -139333.191759 kJ/mol
# GULP energy per Si atom -5573.327670 kJ/mol
# Density = 2.195869 g / cm^3
# Si number density = 22.008784 Si / 1000 Ang^3
#
#
#
# Elastic Constant Matrix: (Units=GPa)
#
#
# Indices 1 2 3 4 5 6 
#
# 1 110.7101 33.1630 54.3998 0.0000 48.7589 0.0000
# 2 33.1630 84.4165 -7.3103 0.0000 5.8494 0.0000
# 3 54.3998 -7.3103 78.9094 0.0000 38.4836 0.0000
# 4 0.0000 0.0000 0.0000 28.1740 0.0000 14.1142
# 5 48.7589 5.8494 38.4836 0.0000 35.7470 0.0000
# 6 0.0000 0.0000 0.0000 14.1142 0.0000 17.7421
#
#
#
# Elastic Compliance Matrix: (Units=1/GPa)
#
#
# Indices 1 2 3 4 5 6 
#
# 1 0.028108 -0.009263 -0.004794 0.000000 -0.031662 0.000000
# 2 -0.009263 0.015789 0.006204 0.000000 0.003373 0.000000
# 3 -0.004794 0.006204 0.029178 0.000000 -0.025887 0.000000
# 4 0.000000 0.000000 0.000000 0.059011 0.000000 -0.046945
# 5 -0.031662 0.003373 -0.025887 0.000000 0.098478 0.000000
# 6 0.000000 0.000000 0.000000 -0.046945 0.000000 0.093709
#
#
# Mechanical properties :
#
#
# Convention : Reuss Voigt Hill
#
# Bulk Modulus (GPa) = 17.43169 48.28235 32.85702
# Shear Modulus (GPa) = 13.92364 29.25153 21.58758
#
# Velocity S-wave (km/s) = 2.51796 3.64962 3.13527
# Velocity P-wave (km/s) = 4.04858 6.30436 5.29793
#
# Compressibility (1/GPa) = 0.05736679
#
# Stress axis : x y z
#
# Youngs Moduli (GPa) = 35.57756 63.33670 34.27282
#
# Poissons Ratio (x) = 0.58671 0.16431
# Poissons Ratio (y) = 0.32956 -0.21262
# Poissons Ratio (z) = 0.17056 -0.39293
#
# Static dielectric constant tensor:
#      x y z
#    x 1.871790 0.000000 -0.010350 
#    y 0.000000 1.817110 0.000000 
#    z -0.010350 0.000000 1.820450 
# 
# From -- ./inp_files/338235.got.cif
#   From: 2010.05.17/outbox.cif.g08.bks.cpg/sg12_170_cif.got.tgz:338235.got - 2010.06.03 13:09:07.
