data_PCOD9194541
_publ_section_title
;
Structure prediction by ZEFSAII (Michael W. Deem and Ramdas Pophale) SiO2 
 PCOD9194541
Probable space group: C 2/M
;
_chemical_formula_sum "Si O2"
_cell_formula_units_Z 56
_cell_length_a 27.451267
_cell_length_b 8.900184
_cell_length_c 17.721866
_cell_angle_alpha 90.000000
_cell_angle_beta 44.370804
_cell_angle_gamma 90.000000
_cell_volume 3027.846439
_symmetry_space_group_name_H-M "C 2/M"
_symmetry_group_IT_number 12
_symmetry_cell_setting 'monoclinic'
loop_
_space_group_symop_operation_xyz
x,y,z
-x,y,-z
-x,-y,-z
x,-y,z
1/2+x,1/2+y,z
1/2-x,1/2+y,-z
1/2-x,1/2-y,-z
1/2+x,1/2-y,z
loop_
_atom_site_type_symbol
_atom_site_label
_atom_site_fract_x
_atom_site_fract_y
_atom_site_fract_z
Si Si1 0.340509 0.820523 0.546512
Si Si2 0.150113 0.322147 0.888030
Si Si3 0.089430 0.179447 0.665368
Si Si4 0.065691 0.179251 0.109166
Si Si5 0.691707 0.179096 0.673185
Si Si6 0.201342 0.679206 0.241973
Si Si7 0.175327 0.320402 0.103052
O O1 0.398975 0.742667 0.431331
O O2 0.266179 0.759199 0.599049
O O3 0.340909 0.784053 0.635263
O O4 0.343543 0.000000 0.534266
O O5 0.145493 0.500000 0.905412
O O6 0.151568 0.293373 0.796818
O O7 0.224712 0.263385 0.835739
O O8 0.090058 0.241002 0.001279
O O9 0.147458 0.254927 0.654031
O O10 0.013509 0.216660 0.782128
O O11 0.098138 0.000000 0.656110
O O12 0.117143 0.250909 0.113869
O O13 0.073782 0.000000 0.101276
O O14 0.701820 0.000000 0.653645
O O15 0.216121 0.500000 0.227616
O O16 0.164011 0.711713 0.204421
O O17 0.177822 0.500000 0.089837
O O18 0.250000 0.250000 0.000000
#
# Coordination Sequence:
#
# PCOD9194541 Si02
#       7
#     8   8   8   8   8   8   8
#     4  10  20  37  61  85 111 146 187 232 278 327
#     4  10  20  34  56  85 113 144 183 230 281 332
#     4  11  24  40  56  78 111 153 193 232 279 330
#     4  11  24  39  55  79 115 153 189 229 279 336
#     4  10  21  37  59  86 113 144 186 233 281 334
#     4   9  19  35  57  85 114 143 180 228 279 330
#     4  11  21  35  59  88 115 145 184 227 278 335
#
# _framework density 18.494993999999998
#
# number of rings (size 3 to 8) (size 9 to 14) (size 15 to 20)
#    0.000    1.714    1.429    3.000    0.000    5.714 
#    0.000    3.571    0.000    4.286    0.000    0.000 
#    0.000    0.000    0.000    0.000    0.000    0.000 
#
# Total GULP energy -156438.934709 kJ/mol
# GULP energy per Si atom -5587.104811 kJ/mol
# Density = 1.845290 g / cm^3
# Si number density = 18.494994 Si / 1000 Ang^3
#
#
#
# Elastic Constant Matrix: (Units=GPa)
#
#
# Indices 1 2 3 4 5 6 
#
# 1 31.1167 8.7156 6.3932 0.0003 16.5507 0.0001
# 2 8.7156 44.1778 38.1022 -0.0065 9.6468 0.0052
# 3 6.3932 38.1022 109.8663 0.0001 19.2379 0.0018
# 4 0.0003 -0.0065 0.0001 32.7534 0.0012 2.7658
# 5 16.5507 9.6468 19.2379 0.0012 19.0374 -0.0012
# 6 0.0001 0.0052 0.0018 2.7658 -0.0012 23.6128
#
#
#
# Elastic Compliance Matrix: (Units=1/GPa)
#
#
# Indices 1 2 3 4 5 6 
#
# 1 0.066101 -0.007760 0.009986 0.000000 -0.063626 -0.000002
# 2 -0.007760 0.033807 -0.011487 0.000007 0.001223 -0.000007
# 3 0.009986 -0.011487 0.015802 -0.000002 -0.018829 0.000001
# 4 0.000000 0.000007 -0.000002 0.030836 -0.000005 -0.003612
# 5 -0.063626 0.001223 -0.018829 -0.000005 0.126250 0.000008
# 6 -0.000002 -0.000007 0.000001 -0.003612 0.000008 0.042773
#
#
# Mechanical properties :
#
#
# Convention : Reuss Voigt Hill
#
# Bulk Modulus (GPa) = 10.28940 32.39809 21.34374
# Shear Modulus (GPa) = 13.64308 23.87737 18.76023
#
# Velocity S-wave (km/s) = 2.71894 3.59697 3.18833
# Velocity P-wave (km/s) = 3.92839 5.89968 5.01191
#
# Compressibility (1/GPa) = 0.09718737
#
# Stress axis : x y z
#
# Youngs Moduli (GPa) = 15.12842 29.57978 63.28461
#
# Poissons Ratio (x) = 0.22953 -0.63194
# Poissons Ratio (y) = 0.11739 0.72695
# Poissons Ratio (z) = -0.15107 0.33978
#
# Static dielectric constant tensor:
#      x y z
#    x 1.611990 0.000000 0.037080 
#    y 0.000000 1.615070 0.000000 
#    z 0.037080 0.000000 1.651460 
# 
# From -- ./inp_files/288147.got.cif
#   From: 2010.05.17/outbox.cif.g08.bks.cpg/sg12_145_cif.got.tgz:288147.got - 2010.06.03 13:09:07.
