data_PCOD9194150
_publ_section_title
;
Structure prediction by ZEFSAII (Michael W. Deem and Ramdas Pophale) SiO2 
 PCOD9194150
Probable space group: C 2/M
;
_chemical_formula_sum "Si O2"
_cell_formula_units_Z 64
_cell_length_a 11.869864
_cell_length_b 32.394892
_cell_length_c 14.758938
_cell_angle_alpha 90.000000
_cell_angle_beta 152.032370
_cell_angle_gamma 90.000000
_cell_volume 2661.490427
_symmetry_space_group_name_H-M "C 2/M"
_symmetry_group_IT_number 12
_symmetry_cell_setting 'monoclinic'
loop_
_space_group_symop_operation_xyz
x,y,z
-x,y,-z
-x,-y,-z
x,-y,z
1/2+x,1/2+y,z
1/2-x,1/2+y,-z
1/2-x,1/2-y,-z
1/2+x,1/2-y,z
loop_
_atom_site_type_symbol
_atom_site_label
_atom_site_fract_x
_atom_site_fract_y
_atom_site_fract_z
Si Si1 0.506165 0.297740 0.807015
Si Si2 0.472206 0.207867 0.750056
Si Si3 0.881082 0.875740 0.216044
Si Si4 0.671844 0.829837 0.710559
Si Si5 0.534961 0.454608 0.828802
Si Si6 0.562539 0.955365 0.277687
Si Si7 0.827604 0.424659 0.290274
Si Si8 0.159223 0.373027 0.252770
O O1 0.382639 0.254845 0.691712
O O2 0.473085 0.336099 0.715797
O O3 0.414129 0.311765 0.839846
O O4 0.791915 0.291466 0.017398
O O5 0.562872 0.195954 0.714875
O O6 0.314631 0.170228 0.676097
O O7 0.008384 0.917337 0.271339
O O8 0.822027 0.874561 0.279479
O O9 0.619623 0.874308 0.980240
O O10 0.500000 0.829269 0.500000
O O11 0.703914 0.877306 0.762888
O O12 0.446900 0.500000 0.738999
O O13 0.416304 0.442741 0.840712
O O14 0.820254 0.457074 0.044909
O O15 0.456649 0.949473 0.302953
O O16 0.692540 0.913912 0.336939
O O17 0.686693 0.000000 0.356286
O O18 0.000000 0.424664 0.500000
#
# Coordination Sequence:
#
# PCOD9194150 Si02
#       8
#     8   8   8   8   8   8   8   8
#     4  10  21  36  60  87 111 142 184 232 278 328
#     4  10  21  36  60  87 111 142 184 232 278 328
#     4   9  18  33  53  80 112 141 176 227 278 327
#     4  11  23  38  58  83 116 152 185 225 278 334
#     4  10  20  34  55  82 110 143 182 227 282 335
#     4  10  20  34  55  82 110 143 182 227 282 335
#     4  11  22  36  55  80 112 148 186 227 273 325
#     4   9  18  33  53  80 112 141 176 227 278 327
#
# _framework density 24.046676999999999
#
# number of rings (size 3 to 8) (size 9 to 14) (size 15 to 20)
#    0.000    2.000    2.500    1.125    1.750    4.000 
#    0.000    2.500    0.000    2.250    0.000    1.750 
#    0.000    0.000    0.000    0.000    0.000    0.000 
#
# Total GULP energy -179072.398785 kJ/mol
# GULP energy per Si atom -5596.012462 kJ/mol
# Density = 2.399195 g / cm^3
# Si number density = 24.046677 Si / 1000 Ang^3
#
#
#
# Elastic Constant Matrix: (Units=GPa)
#
#
# Indices 1 2 3 4 5 6 
#
# 1 145.0661 103.1275 -7.0285 0.0000 -24.1127 -0.0001
# 2 103.1275 267.1710 8.1257 0.0000 -17.4105 0.0000
# 3 -7.0285 8.1257 58.6140 -0.0001 -1.2281 -0.0001
# 4 0.0000 0.0000 -0.0001 0.2798 -0.0001 4.7685
# 5 -24.1127 -17.4105 -1.2281 -0.0001 33.4840 -0.0001
# 6 -0.0001 0.0000 -0.0001 4.7685 -0.0001 0.2840
#
#
#
# Elastic Compliance Matrix: (Units=1/GPa)
#
#
# Indices 1 2 3 4 5 6 
#
# 1 0.010638 -0.003789 0.001922 0.000000 0.005761 0.000000
# 2 -0.003789 0.005238 -0.001182 0.000000 -0.000048 0.000000
# 3 0.001922 -0.001182 0.017485 0.000001 0.001411 0.000000
# 4 0.000000 0.000000 0.000001 -0.012535 0.000001 0.210443
# 5 0.005761 -0.000048 0.001411 0.000001 0.034040 0.000000
# 6 0.000000 0.000000 0.000000 0.210443 0.000000 -0.012346
#
#
# Mechanical properties :
#
#
# Convention : Reuss Voigt Hill
#
# Bulk Modulus (GPa) = 36.68066 75.47783 56.07925
# Shear Modulus (GPa) = 86.64703 31.25132 58.94917
#
# Velocity S-wave (km/s) = 6.00925 3.60892 4.95658
# Velocity P-wave (km/s) = 7.96462 6.98727 7.49190
#
# Compressibility (1/GPa) = 0.02726232
#
# Stress axis : x y z
#
# Youngs Moduli (GPa) = 94.00430 190.90024 57.19336
#
# Poissons Ratio (x) = 0.72336 -0.10990
# Poissons Ratio (y) = 0.35620 0.06758
# Poissons Ratio (z) = -0.18064 0.22556
#
# Static dielectric constant tensor:
#      x y z
#    x 1.820890 0.000000 0.019930 
#    y 0.000000 1.908590 0.000000 
#    z 0.019930 0.000000 2.034120 
# 
# From -- ./inp_files/209889.got.cif
#   From: 2010.05.17/outbox.cif.g08.bks.cpg/sg12_105_cif.got.tgz:209889.got - 2010.06.03 13:09:07.
