data_PCOD9194849
_publ_section_title
;
Structure prediction by ZEFSAII (Michael W. Deem and Ramdas Pophale) SiO2 
 PCOD9194849
Probable space group: C 2/M
;
_chemical_formula_sum "Si O2"
_cell_formula_units_Z 56
_cell_length_a 13.080442
_cell_length_b 13.386053
_cell_length_c 17.515931
_cell_angle_alpha 90.000000
_cell_angle_beta 129.984276
_cell_angle_gamma 90.000000
_cell_volume 2349.968998
_symmetry_space_group_name_H-M "C 2/M"
_symmetry_group_IT_number 12
_symmetry_cell_setting 'monoclinic'
loop_
_space_group_symop_operation_xyz
x,y,z
-x,y,-z
-x,-y,-z
x,-y,z
1/2+x,1/2+y,z
1/2-x,1/2+y,-z
1/2-x,1/2-y,-z
1/2+x,1/2-y,z
loop_
_atom_site_type_symbol
_atom_site_label
_atom_site_fract_x
_atom_site_fract_y
_atom_site_fract_z
Si Si1 0.880928 0.379660 0.721229
Si Si2 0.378189 0.686790 0.495409
Si Si3 0.823064 0.378039 0.157003
Si Si4 0.324046 0.378524 0.067842
Si Si5 0.373854 0.620249 0.803804
Si Si6 0.248437 0.884943 0.421279
Si Si7 0.633348 0.878126 0.108864
O O1 0.881026 0.500000 0.720040
O O2 0.757874 0.344822 0.611960
O O3 0.864384 0.348188 0.801623
O O4 0.024585 0.345223 0.759248
O O5 0.500000 0.658357 0.500000
O O6 0.364994 0.806572 0.496500
O O7 0.368917 0.636422 0.573709
O O8 0.825013 0.500000 0.160005
O O9 0.718461 0.345403 0.170963
O O10 0.771956 0.350670 0.048222
O O11 0.327289 0.500000 0.069432
O O12 0.473993 0.343761 0.124446
O O13 0.260490 0.350423 0.118357
O O14 0.383031 0.500000 0.817315
O O15 0.304312 0.635860 0.688934
O O16 0.290019 0.000000 0.447176
O O17 0.627981 0.000000 0.107349
O O18 0.500000 0.845055 0.000000
#
# Coordination Sequence:
#
# PCOD9194849 Si02
#       7
#     8   8   8   8   8   8   8
#     4  10  20  34  57  91 131 173 215 268 334 394
#     4  11  26  45  69 100 131 168 218 281 341 396
#     4   9  16  29  51  85 127 170 216 260 311 382
#     4   9  15  25  47  84 125 163 213 265 310 374
#     4   9  18  31  55  87 119 163 214 264 316 377
#     4  10  24  47  69  95 130 169 218 271 335 404
#     4   9  15  26  47  81 125 171 215 260 318 390
#
# _framework density 23.830103000000001
#
# number of rings (size 3 to 8) (size 9 to 14) (size 15 to 20)
#    0.000    2.429    1.429    0.857    2.000    5.429 
#    0.000    1.429    0.000    2.571    0.000    0.000 
#    0.000    0.000    0.000    0.000    0.000    0.286 
#
# Total GULP energy -156811.512855 kJ/mol
# GULP energy per Si atom -5600.411173 kJ/mol
# Density = 2.377586 g / cm^3
# Si number density = 23.830103 Si / 1000 Ang^3
#
#
#
# Elastic Constant Matrix: (Units=GPa)
#
#
# Indices 1 2 3 4 5 6 
#
# 1 193.9905 11.8735 63.7091 0.0000 -7.9278 0.0000
# 2 11.8735 82.0012 19.9378 0.0000 -0.5396 0.0000
# 3 63.7091 19.9378 85.9670 0.0000 -9.8591 0.0000
# 4 0.0000 0.0000 0.0000 26.3209 0.0000 -13.6695
# 5 -7.9278 -0.5396 -9.8591 0.0000 37.6588 0.0000
# 6 0.0000 0.0000 0.0000 -13.6695 0.0000 26.8047
#
#
#
# Elastic Compliance Matrix: (Units=1/GPa)
#
#
# Indices 1 2 3 4 5 6 
#
# 1 0.006819 0.000253 -0.005100 0.000000 0.000104 0.000000
# 2 0.000253 0.012947 -0.003261 0.000000 -0.000615 0.000000
# 3 -0.005100 -0.003261 0.016536 0.000000 0.003209 0.000000
# 4 0.000000 0.000000 0.000000 0.051680 0.000000 0.026355
# 5 0.000104 -0.000615 0.003209 0.000000 0.027407 0.000000
# 6 0.000000 0.000000 0.000000 0.026355 0.000000 0.050747
#
#
# Mechanical properties :
#
#
# Convention : Reuss Voigt Hill
#
# Bulk Modulus (GPa) = 49.78450 61.44440 55.61445
# Shear Modulus (GPa) = 26.44847 35.91944 31.18396
#
# Velocity S-wave (km/s) = 3.33510 3.88663 3.62138
# Velocity P-wave (km/s) = 5.98057 6.78096 6.39331
#
# Compressibility (1/GPa) = 0.02008657
#
# Stress axis : x y z
#
# Youngs Moduli (GPa) = 146.65909 77.23733 60.47325
#
# Poissons Ratio (x) = -0.01957 0.30841
# Poissons Ratio (y) = -0.03716 0.19721
# Poissons Ratio (z) = 0.74796 0.25188
#
# Static dielectric constant tensor:
#      x y z
#    x 1.856670 0.000000 -0.009890 
#    y 0.000000 2.010100 0.000000 
#    z -0.009890 0.000000 1.828550 
# 
# From -- ./inp_files/263390.got.cif
#   From: 2010.05.17/outbox.cif.g08.bks.cpg/sg12_132_cif.got.tgz:263390.got - 2010.06.03 13:09:07.
