data_PCOD9194080
_publ_section_title
;
Structure prediction by ZEFSAII (Michael W. Deem and Ramdas Pophale) SiO2 
 PCOD9194080
Probable space group: C 2/M
;
_chemical_formula_sum "Si O2"
_cell_formula_units_Z 52
_cell_length_a 18.162549
_cell_length_b 22.281509
_cell_length_c 11.520816
_cell_angle_alpha 90.000000
_cell_angle_beta 145.869618
_cell_angle_gamma 90.000000
_cell_volume 2615.940645
_symmetry_space_group_name_H-M "C 2/M"
_symmetry_group_IT_number 12
_symmetry_cell_setting 'monoclinic'
loop_
_space_group_symop_operation_xyz
x,y,z
-x,y,-z
-x,-y,-z
x,-y,z
1/2+x,1/2+y,z
1/2-x,1/2+y,-z
1/2-x,1/2-y,-z
1/2+x,1/2-y,z
loop_
_atom_site_type_symbol
_atom_site_label
_atom_site_fract_x
_atom_site_fract_y
_atom_site_fract_z
Si Si1 0.529934 0.500000 0.854748
Si Si2 0.566320 0.623235 0.361684
Si Si3 0.303941 0.684207 0.032452
Si Si4 0.726397 0.500000 0.311348
Si Si5 0.738452 0.333447 0.774236
Si Si6 0.866064 0.300837 0.395058
Si Si7 0.673898 0.117171 0.445386
Si Si8 0.000000 0.635164 0.000000
O O1 0.511639 0.561877 0.762241
O O2 0.403097 0.500000 0.775126
O O3 0.663959 0.500000 0.102483
O O4 0.459675 0.676381 0.225587
O O5 0.647609 0.620525 0.586394
O O6 0.681137 0.632279 0.416419
O O7 0.260260 0.648594 0.089795
O O8 0.250000 0.750000 0.000000
O O9 0.242802 0.667827 0.829284
O O10 0.808274 0.558617 0.452177
O O11 0.672360 0.269145 0.661073
O O12 0.883531 0.329568 0.911457
O O13 0.871371 0.328936 0.529670
O O14 0.000000 0.308510 0.500000
O O15 0.578194 0.104677 0.210313
#
# Coordination Sequence:
#
# PCOD9194080 Si02
#       8
#     4   8   8   4   8   8   8   4
#     4   9  18  34  59  88 114 144 186 234 289 335
#     4  10  20  36  59  86 115 148 187 239 288 337
#     4  10  20  34  55  80 113 153 187 226 282 336
#     4   9  18  37  59  82 114 146 185 239 285 337
#     4  10  21  37  56  81 119 153 188 234 283 338
#     4  11  22  36  57  83 114 154 194 233 283 341
#     4  10  22  38  59  85 113 148 193 238 285 338
#     4  10  22  37  56  84 114 147 190 234 280 344
#
# _framework density 19.878126999999999
#
# number of rings (size 3 to 8) (size 9 to 14) (size 15 to 20)
#    0.000    2.000    0.000    4.154    0.000    8.308 
#    0.000    2.692    0.000    1.846    0.000    0.000 
#    0.000    0.000    0.000    0.000    0.000    0.000 
#
# Total GULP energy -144854.897160 kJ/mol
# GULP energy per Si atom -5571.342198 kJ/mol
# Density = 1.983288 g / cm^3
# Si number density = 19.878127 Si / 1000 Ang^3
#
#
#
# Elastic Constant Matrix: (Units=GPa)
#
#
# Indices 1 2 3 4 5 6 
#
# 1 71.6781 18.6043 39.5128 0.0000 2.2200 0.0000
# 2 18.6043 56.7727 30.1568 0.0000 -5.5299 0.0000
# 3 39.5128 30.1568 134.6339 0.0000 -7.2306 0.0000
# 4 0.0000 0.0000 0.0000 12.2128 0.0000 -16.6861
# 5 2.2200 -5.5299 -7.2306 0.0000 41.2264 0.0000
# 6 0.0000 0.0000 0.0000 -16.6861 0.0000 2.8980
#
#
#
# Elastic Compliance Matrix: (Units=1/GPa)
#
#
# Indices 1 2 3 4 5 6 
#
# 1 0.017380 -0.003560 -0.004421 0.000000 -0.002189 0.000000
# 2 -0.003560 0.020873 -0.003503 0.000000 0.002377 0.000000
# 3 -0.004421 -0.003503 0.009587 0.000000 0.001450 0.000000
# 4 0.000000 0.000000 0.000000 -0.011924 0.000000 -0.068658
# 5 -0.002189 0.002377 0.001450 0.000000 0.024947 0.000000
# 6 0.000000 0.000000 0.000000 -0.068658 0.000000 -0.050251
#
#
# Mechanical properties :
#
#
# Convention : Reuss Voigt Hill
#
# Bulk Modulus (GPa) = 40.20488 48.84805 44.52647
# Shear Modulus (GPa) = 119.41373 22.92148 71.16760
#
# Velocity S-wave (km/s) = 7.75908 3.39942 5.98997
# Velocity P-wave (km/s) = 10.02700 6.32734 8.38379
#
# Compressibility (1/GPa) = 0.02487260
#
# Stress axis : x y z
#
# Youngs Moduli (GPa) = 57.53682 47.90879 104.30306
#
# Poissons Ratio (x) = 0.17057 0.46111
# Poissons Ratio (y) = 0.20485 0.36535
# Poissons Ratio (z) = 0.25436 0.16781
#
# Static dielectric constant tensor:
#      x y z
#    x 1.712940 0.000000 -0.032860 
#    y 0.000000 1.723970 0.000000 
#    z -0.032860 0.000000 1.753100 
# 
# From -- ./inp_files/169906.got.cif
#   From: 2010.05.17/outbox.cif.g08.bks.cpg/sg12_85_cif.got.tgz:169906.got - 2010.06.03 13:09:07.
