data_PCOD9194029
_publ_section_title
;
Structure prediction by ZEFSAII (Michael W. Deem and Ramdas Pophale) SiO2 
 PCOD9194029
Probable space group: C 2/M
;
_chemical_formula_sum "Si O2"
_cell_formula_units_Z 64
_cell_length_a 13.945746
_cell_length_b 31.381667
_cell_length_c 7.130510
_cell_angle_alpha 90.000000
_cell_angle_beta 71.649188
_cell_angle_gamma 90.000000
_cell_volume 2961.908721
_symmetry_space_group_name_H-M "C 2/M"
_symmetry_group_IT_number 12
_symmetry_cell_setting 'monoclinic'
loop_
_space_group_symop_operation_xyz
x,y,z
-x,y,-z
-x,-y,-z
x,-y,z
1/2+x,1/2+y,z
1/2-x,1/2+y,-z
1/2-x,1/2-y,-z
1/2+x,1/2-y,z
loop_
_atom_site_type_symbol
_atom_site_label
_atom_site_fract_x
_atom_site_fract_y
_atom_site_fract_z
Si Si1 0.076552 0.379342 0.311672
Si Si2 0.257391 0.910482 0.510208
Si Si3 0.440318 0.047267 0.230860
Si Si4 0.816520 0.178330 0.373466
Si Si5 0.019612 0.863237 0.261188
Si Si6 0.341870 0.713080 0.744503
Si Si7 0.332629 0.200568 0.879234
Si Si8 0.462131 0.452252 0.309418
O O1 0.172501 0.401941 0.350545
O O2 0.110199 0.344169 0.142158
O O3 0.000000 0.354952 0.500000
O O4 0.006868 0.417492 0.289482
O O5 0.326261 0.934445 0.314379
O O6 0.230852 0.861576 0.480017
O O7 0.154381 0.935921 0.614821
O O8 0.438189 0.000000 0.318407
O O9 0.500000 0.043589 0.000000
O O10 0.842814 0.211786 0.519093
O O11 0.743551 0.193135 0.252566
O O12 0.920164 0.158025 0.232929
O O13 0.107456 0.828972 0.199188
O O14 0.000000 0.865959 0.500000
O O15 0.027607 0.912210 0.190796
O O16 0.392012 0.756582 0.787947
O O17 0.229147 0.711720 0.896690
O O18 0.500000 0.455961 0.500000
O O19 0.469743 0.500000 0.223864
#
# Coordination Sequence:
#
# PCOD9194029 Si02
#       8
#     8   8   8   8   8   8   8   8
#     4   9  20  37  55  78 111 146 183 231 278 335
#     4   9  18  33  55  80 108 149 185 222 283 326
#     4  10  21  35  54  83 113 144 184 226 279 343
#     4   9  18  34  55  79 108 145 182 223 275 333
#     4   8  16  31  50  75 106 143 180 218 277 323
#     4  10  20  34  55  78 110 144 181 235 275 330
#     4  10  21  35  54  82 107 142 187 223 283 334
#     4   9  16  28  50  82 111 138 185 230 266 328
#
# _framework density 21.607689000000001
#
# number of rings (size 3 to 8) (size 9 to 14) (size 15 to 20)
#    0.000    2.750    0.000    1.500    1.750    4.750 
#    0.000    1.250    0.000    0.000    0.000    7.875 
#    0.000    0.000    0.000    0.000    0.000    0.000 
#
# Total GULP energy -178178.392282 kJ/mol
# GULP energy per Si atom -5568.074759 kJ/mol
# Density = 2.155851 g / cm^3
# Si number density = 21.607689 Si / 1000 Ang^3
#
#
#
# Elastic Constant Matrix: (Units=GPa)
#
#
# Indices 1 2 3 4 5 6 
#
# 1 55.3259 16.2363 -10.4803 0.0000 -5.5789 0.0000
# 2 16.2363 121.2462 15.3940 0.0000 -9.7349 0.0000
# 3 -10.4803 15.3940 32.9616 0.0000 3.2851 0.0000
# 4 0.0000 0.0000 0.0000 18.6435 0.0000 -7.8541
# 5 -5.5789 -9.7349 3.2851 0.0000 16.9550 0.0000
# 6 0.0000 0.0000 0.0000 -7.8541 0.0000 14.9749
#
#
#
# Elastic Compliance Matrix: (Units=1/GPa)
#
#
# Indices 1 2 3 4 5 6 
#
# 1 0.020967 -0.003558 0.007999 0.000000 0.003307 0.000000
# 2 -0.003558 0.010001 -0.006381 0.000000 0.005807 0.000000
# 3 0.007999 -0.006381 0.036672 0.000000 -0.008137 0.000000
# 4 0.000000 0.000000 0.000000 0.068851 0.000000 0.036111
# 5 0.003307 0.005807 -0.008137 0.000000 0.064979 0.000000
# 6 0.000000 0.000000 0.000000 0.036111 0.000000 0.085718
#
#
# Mechanical properties :
#
#
# Convention : Reuss Voigt Hill
#
# Bulk Modulus (GPa) = 15.68352 27.98152 21.83252
# Shear Modulus (GPa) = 16.00919 22.67360 19.34139
#
# Velocity S-wave (km/s) = 2.72491 3.24285 2.99510
# Velocity P-wave (km/s) = 4.14418 5.19609 4.69966
#
# Compressibility (1/GPa) = 0.06376119
#
# Stress axis : x y z
#
# Youngs Moduli (GPa) = 47.69293 99.99484 27.26841
#
# Poissons Ratio (x) = 0.35577 -0.21811
# Poissons Ratio (y) = 0.16969 0.17399
# Poissons Ratio (z) = -0.38149 0.63802
#
# Static dielectric constant tensor:
#      x y z
#    x 1.814820 0.000000 -0.014330 
#    y 0.000000 1.845950 0.000000 
#    z -0.014330 0.000000 1.900330 
# 
# From -- ./inp_files/68199.got.cif
#   From: 2010.05.17/outbox.cif.g08.bks.cpg/sg12_35_cif.got.tgz:68199.got - 2010.06.03 13:09:07.
