data_PCOD9194652
_publ_section_title
;
Structure prediction by ZEFSAII (Michael W. Deem and Ramdas Pophale) SiO2 
 PCOD9194652
Probable space group: C 2/M
;
_chemical_formula_sum "Si O2"
_cell_formula_units_Z 56
_cell_length_a 30.685072
_cell_length_b 20.709246
_cell_length_c 9.089432
_cell_angle_alpha 90.000000
_cell_angle_beta 149.644043
_cell_angle_gamma 90.000000
_cell_volume 2919.027292
_symmetry_space_group_name_H-M "C 2/M"
_symmetry_group_IT_number 12
_symmetry_cell_setting 'monoclinic'
loop_
_space_group_symop_operation_xyz
x,y,z
-x,y,-z
-x,-y,-z
x,-y,z
1/2+x,1/2+y,z
1/2-x,1/2+y,-z
1/2-x,1/2-y,-z
1/2+x,1/2-y,z
loop_
_atom_site_type_symbol
_atom_site_label
_atom_site_fract_x
_atom_site_fract_y
_atom_site_fract_z
Si Si1 0.701676 0.074757 0.091505
Si Si2 0.911225 0.730464 0.815229
Si Si3 0.593036 0.200612 0.848533
Si Si4 0.149658 0.864147 0.291551
Si Si5 0.194421 0.925054 0.897850
Si Si6 0.774088 0.185944 0.780483
Si Si7 0.502674 0.576410 0.340173
O O1 0.787944 0.089029 0.437778
O O2 0.733434 0.083405 0.015981
O O3 0.674469 0.000000 0.033203
O O4 0.632379 0.129476 0.932148
O O5 0.893184 0.806657 0.741811
O O6 0.826668 0.699407 0.498192
O O7 0.915936 0.713788 0.002740
O O8 0.000000 0.710839 0.000000
O O9 0.500000 0.208535 0.500000
O O10 0.663596 0.253757 0.999397
O O11 0.208729 0.829283 0.340611
O O12 0.072507 0.896475 0.978077
O O13 0.098197 0.912663 0.555545
O O14 0.195474 0.000000 0.950212
O O15 0.204836 0.876206 0.061487
O O16 0.500000 0.602912 0.500000
O O17 0.489228 0.500000 0.311186
#
# Coordination Sequence:
#
# PCOD9194652 Si02
#       7
#     8   8   8   8   8   8   8
#     4  11  24  43  63  90 129 169 210 261 318 370
#     4  11  25  42  64  96 126 158 211 269 311 374
#     4  11  25  43  66  95 125 169 214 257 314 370
#     4  11  21  38  62  90 126 168 204 252 319 375
#     4  10  24  39  61  96 130 164 210 261 312 376
#     4  11  22  43  66  90 129 164 213 257 307 377
#     4  10  20  34  56  92 128 164 208 249 303 378
#
# _framework density 19.184473000000001
#
# number of rings (size 3 to 8) (size 9 to 14) (size 15 to 20)
#    0.000    1.286    4.286    1.286    8.000    1.429 
#    0.000    2.143    0.000    0.857    0.000    0.000 
#    0.000    0.000    0.000    0.000    0.000    0.000 
#
# Total GULP energy -156369.786392 kJ/mol
# GULP energy per Si atom -5584.635228 kJ/mol
# Density = 1.914081 g / cm^3
# Si number density = 19.184473 Si / 1000 Ang^3
#
#
#
# Elastic Constant Matrix: (Units=GPa)
#
#
# Indices 1 2 3 4 5 6 
#
# 1 62.7184 44.7673 28.6784 0.0000 21.4691 0.0000
# 2 44.7673 82.7324 38.8753 0.0000 6.8987 0.0000
# 3 28.6784 38.8753 128.3727 0.0000 21.1163 0.0000
# 4 0.0000 0.0000 0.0000 25.4406 0.0000 -4.5114
# 5 21.4691 6.8987 21.1163 0.0000 29.9499 0.0000
# 6 0.0000 0.0000 0.0000 -4.5114 0.0000 14.3826
#
#
#
# Elastic Compliance Matrix: (Units=1/GPa)
#
#
# Indices 1 2 3 4 5 6 
#
# 1 0.036120 -0.018207 0.001147 0.000000 -0.022507 0.000000
# 2 -0.018207 0.023272 -0.004802 0.000000 0.011077 0.000000
# 3 0.001147 -0.004802 0.010114 0.000000 -0.006847 0.000000
# 4 0.000000 0.000000 0.000000 0.041622 0.000000 0.013056
# 5 -0.022507 0.011077 -0.006847 0.000000 0.051799 0.000000
# 6 0.000000 0.000000 0.000000 0.013056 0.000000 0.073623
#
#
# Mechanical properties :
#
#
# Convention : Reuss Voigt Hill
#
# Bulk Modulus (GPa) = 38.78781 55.38507 47.08644
# Shear Modulus (GPa) = 17.30886 24.72145 21.01515
#
# Velocity S-wave (km/s) = 3.00698 3.59363 3.31331
# Velocity P-wave (km/s) = 5.68490 6.79347 6.26376
#
# Compressibility (1/GPa) = 0.02578130
#
# Stress axis : x y z
#
# Youngs Moduli (GPa) = 27.68545 42.97010 98.87144
#
# Poissons Ratio (x) = 0.78236 -0.11337
# Poissons Ratio (y) = 0.50407 0.47479
# Poissons Ratio (z) = -0.03175 0.20635
#
# Static dielectric constant tensor:
#      x y z
#    x 1.684310 0.000000 0.008680 
#    y 0.000000 1.670580 0.000000 
#    z 0.008680 0.000000 1.672960 
# 
# From -- ./inp_files/113405.got.cif
#   From: 2010.05.17/outbox.cif.g08.bks.cpg/sg12_57_cif.got.tgz:113405.got - 2010.06.03 13:09:07.
