data_PCOD9194331
_publ_section_title
;
Structure prediction by ZEFSAII (Michael W. Deem and Ramdas Pophale) SiO2 
 PCOD9194331
Probable space group: C 2/M
;
_chemical_formula_sum "Si O2"
_cell_formula_units_Z 56
_cell_length_a 32.456722
_cell_length_b 8.869164
_cell_length_c 11.881740
_cell_angle_alpha 90.000000
_cell_angle_beta 121.617682
_cell_angle_gamma 90.000000
_cell_volume 2912.629773
_symmetry_space_group_name_H-M "C 2/M"
_symmetry_group_IT_number 12
_symmetry_cell_setting 'monoclinic'
loop_
_space_group_symop_operation_xyz
x,y,z
-x,y,-z
-x,-y,-z
x,-y,z
1/2+x,1/2+y,z
1/2-x,1/2+y,-z
1/2-x,1/2-y,-z
1/2+x,1/2-y,z
loop_
_atom_site_type_symbol
_atom_site_label
_atom_site_fract_x
_atom_site_fract_y
_atom_site_fract_z
Si Si1 0.049306 0.334046 0.005981
Si Si2 0.591075 0.319217 0.870761
Si Si3 0.684348 0.672718 0.157887
Si Si4 0.612463 0.665075 0.256551
Si Si5 0.766351 0.821691 0.402565
Si Si6 0.130283 0.325173 0.495529
Si Si7 0.942728 0.682054 0.407595
O O1 0.074263 0.500000 0.046067
O O2 0.050620 0.275809 0.880973
O O3 0.073217 0.196650 0.106458
O O4 0.000000 0.352194 0.000000
O O5 0.585206 0.500000 0.871821
O O6 0.583923 0.265338 0.733533
O O7 0.642793 0.282574 0.007363
O O8 0.698429 0.500000 0.151856
O O9 0.659743 0.671684 0.246691
O O10 0.730480 0.774939 0.249039
O O11 0.608544 0.500000 0.303464
O O12 0.608151 0.795042 0.340995
O O13 0.750000 0.750000 0.500000
O O14 0.819794 0.767270 0.442410
O O15 0.765658 0.000000 0.417277
O O16 0.142452 0.500000 0.529456
O O17 0.089890 0.282877 0.529291
O O18 0.941326 0.500000 0.388943
O O19 0.000000 0.723546 0.500000
#
# Coordination Sequence:
#
# PCOD9194331 Si02
#       7
#     8   8   8   8   8   8   8
#     4  10  21  35  55  82 116 157 200 248 306 371
#     4  10  22  40  62  88 119 156 202 256 309 364
#     4   9  19  37  59  87 123 158 194 242 302 365
#     4  10  20  34  55  85 122 156 194 249 302 360
#     4  12  23  36  60  93 128 163 202 250 307 372
#     4  11  23  39  61  88 123 163 206 253 306 368
#     4  10  24  45  66  88 119 163 212 259 305 365
#
# _framework density 19.226610000000001
#
# number of rings (size 3 to 8) (size 9 to 14) (size 15 to 20)
#    0.000    1.714    1.429    3.857    2.000    5.429 
#    0.000    0.714    0.000    0.000    0.000    0.000 
#    0.000    0.000    0.000    0.000    0.000    0.000 
#
# Total GULP energy -155902.175482 kJ/mol
# GULP energy per Si atom -5567.934839 kJ/mol
# Density = 1.918285 g / cm^3
# Si number density = 19.226610 Si / 1000 Ang^3
#
#
#
# Elastic Constant Matrix: (Units=GPa)
#
#
# Indices 1 2 3 4 5 6 
#
# 1 86.0722 40.6745 29.2659 0.0000 -1.7789 0.0000
# 2 40.6745 74.7885 27.4853 0.0000 2.0617 0.0000
# 3 29.2659 27.4853 81.3045 0.0000 -12.3279 0.0000
# 4 0.0000 0.0000 0.0000 32.3445 0.0000 -2.1555
# 5 -1.7789 2.0617 -12.3279 0.0000 17.9101 0.0000
# 6 0.0000 0.0000 0.0000 -2.1555 0.0000 21.8343
#
#
#
# Elastic Compliance Matrix: (Units=1/GPa)
#
#
# Indices 1 2 3 4 5 6 
#
# 1 0.016375 -0.007723 -0.003240 0.000000 0.000285 0.000000
# 2 -0.007723 0.019496 -0.004765 0.000000 -0.006291 0.000000
# 3 -0.003240 -0.004765 0.016872 0.000000 0.011840 0.000000
# 4 0.000000 0.000000 0.000000 0.031122 0.000000 0.003072
# 5 0.000285 -0.006291 0.011840 0.000000 0.064736 0.000000
# 6 0.000000 0.000000 0.000000 0.003072 0.000000 0.046103
#
#
# Mechanical properties :
#
#
# Convention : Reuss Voigt Hill
#
# Bulk Modulus (GPa) = 46.97692 48.55742 47.76717
# Shear Modulus (GPa) = 21.43571 24.06706 22.75139
#
# Velocity S-wave (km/s) = 3.34263 3.54186 3.44369
# Velocity P-wave (km/s) = 6.27566 6.48355 6.38045
#
# Compressibility (1/GPa) = 0.02128705
#
# Stress axis : x y z
#
# Youngs Moduli (GPa) = 61.06719 51.29341 59.27070
#
# Poissons Ratio (x) = 0.39614 0.19206
# Poissons Ratio (y) = 0.47162 0.28240
# Poissons Ratio (z) = 0.19788 0.24439
#
# Static dielectric constant tensor:
#      x y z
#    x 1.736380 0.000000 0.029530 
#    y 0.000000 1.673700 0.000000 
#    z 0.029530 0.000000 1.696850 
# 
# From -- ./inp_files/180634.got.cif
#   From: 2010.05.17/outbox.cif.g08.bks.cpg/sg12_91_cif.got.tgz:180634.got - 2010.06.03 13:09:07.
