data_PCOD9194130
_publ_section_title
;
Structure prediction by ZEFSAII (Michael W. Deem and Ramdas Pophale) SiO2 
 PCOD9194130
Probable space group: C 2/M
;
_chemical_formula_sum "Si O2"
_cell_formula_units_Z 48
_cell_length_a 11.748205
_cell_length_b 26.774118
_cell_length_c 11.996358
_cell_angle_alpha 90.000000
_cell_angle_beta 132.084768
_cell_angle_gamma 90.000000
_cell_volume 2800.465113
_symmetry_space_group_name_H-M "C 2/M"
_symmetry_group_IT_number 12
_symmetry_cell_setting 'monoclinic'
loop_
_space_group_symop_operation_xyz
x,y,z
-x,y,-z
-x,-y,-z
x,-y,z
1/2+x,1/2+y,z
1/2-x,1/2+y,-z
1/2-x,1/2-y,-z
1/2+x,1/2-y,z
loop_
_atom_site_type_symbol
_atom_site_label
_atom_site_fract_x
_atom_site_fract_y
_atom_site_fract_z
Si Si1 0.799247 0.134554 0.549019
Si Si2 0.313715 0.443082 0.370841
Si Si3 0.329480 0.187919 0.346536
Si Si4 0.827967 0.696596 0.080540
Si Si5 0.316300 0.790502 0.709241
Si Si6 0.665929 0.639629 0.789887
O O1 0.759954 0.087111 0.445239
O O2 0.722836 0.138989 0.619734
O O3 0.739258 0.182008 0.438840
O O4 0.982776 0.137223 0.678597
O O5 0.500000 0.443617 0.500000
O O6 0.259928 0.500000 0.330419
O O7 0.277321 0.409828 0.238002
O O8 0.500000 0.201124 0.500000
O O9 0.325126 0.186078 0.210515
O O10 0.215669 0.232066 0.309014
O O11 0.004463 0.699190 0.158191
O O12 0.750000 0.750000 0.000000
O O13 0.741869 0.653218 0.956462
O O14 0.215653 0.815296 0.740849
#
# Coordination Sequence:
#
# PCOD9194130 Si02
#       6
#     8   8   8   8   8   8
#     4  10  20  35  56  79 105 139 181 224 263 324
#     4   8  16  34  61  87 105 130 176 231 279 317
#     4  12  23  35  53  75 108 155 188 216 259 323
#     4  12  24  35  49  78 113 153 182 218 262 317
#     4  11  21  35  52  73 110 147 187 219 254 316
#     4  10  20  34  55  82 108 139 175 230 272 306
#
# _framework density 17.140008999999999
#
# number of rings (size 3 to 8) (size 9 to 14) (size 15 to 20)
#    0.000    1.500    3.333    4.500    0.000    2.000 
#    0.000    0.000    0.000    9.500    0.000    4.667 
#    0.000    0.000    0.000    0.000    0.000    0.000 
#
# Total GULP energy -133922.608864 kJ/mol
# GULP energy per Si atom -5580.108703 kJ/mol
# Density = 1.710100 g / cm^3
# Si number density = 17.140009 Si / 1000 Ang^3
#
#
#
# Elastic Constant Matrix: (Units=GPa)
#
#
# Indices 1 2 3 4 5 6 
#
# 1 38.9903 9.4571 28.2372 0.0000 -4.8064 0.0000
# 2 9.4571 87.2528 37.2663 0.0000 -12.6044 0.0000
# 3 28.2372 37.2663 121.0089 0.0000 -14.7183 0.0000
# 4 0.0000 0.0000 0.0000 13.4769 0.0000 2.4328
# 5 -4.8064 -12.6044 -14.7183 0.0000 38.0143 0.0000
# 6 0.0000 0.0000 0.0000 2.4328 0.0000 11.9549
#
#
#
# Elastic Compliance Matrix: (Units=1/GPa)
#
#
# Indices 1 2 3 4 5 6 
#
# 1 0.030915 -0.000190 -0.007018 0.000000 0.001128 0.000000
# 2 -0.000190 0.013519 -0.003753 0.000000 0.003005 0.000000
# 3 -0.007018 -0.003753 0.011332 0.000000 0.002256 0.000000
# 4 0.000000 0.000000 0.000000 0.077031 0.000000 -0.015675
# 5 0.001128 0.003005 0.002256 0.000000 0.028318 0.000000
# 6 0.000000 0.000000 0.000000 -0.015675 0.000000 0.086837
#
#
# Mechanical properties :
#
#
# Convention : Reuss Voigt Hill
#
# Bulk Modulus (GPa) = 29.54892 44.13036 36.83964
# Shear Modulus (GPa) = 17.78369 24.17532 20.97951
#
# Velocity S-wave (km/s) = 3.22460 3.75969 3.50238
# Velocity P-wave (km/s) = 5.58043 6.68206 6.15594
#
# Compressibility (1/GPa) = 0.03384218
#
# Stress axis : x y z
#
# Youngs Moduli (GPa) = 32.34645 73.97117 88.24749
#
# Poissons Ratio (x) = 0.01408 0.61933
# Poissons Ratio (y) = 0.00616 0.33123
# Poissons Ratio (z) = 0.22701 0.27764
#
# Static dielectric constant tensor:
#      x y z
#    x 1.600980 0.000000 -0.023570 
#    y 0.000000 1.562680 0.000000 
#    z -0.023570 0.000000 1.602750 
# 
# From -- ./inp_files/51942.got.cif
#   From: 2010.05.17/outbox.cif.g08.bks.cpg/sg12_26_cif.got.tgz:51942.got - 2010.06.03 13:09:07.
