data_PCOD9194884
_publ_section_title
;
Structure prediction by ZEFSAII (Michael W. Deem and Ramdas Pophale) SiO2 
 PCOD9194884
Probable space group: C 2/M
;
_chemical_formula_sum "Si O2"
_cell_formula_units_Z 56
_cell_length_a 23.600562
_cell_length_b 8.754306
_cell_length_c 19.380819
_cell_angle_alpha 90.000000
_cell_angle_beta 128.206536
_cell_angle_gamma 90.000000
_cell_volume 3146.448808
_symmetry_space_group_name_H-M "C 2/M"
_symmetry_group_IT_number 12
_symmetry_cell_setting 'monoclinic'
loop_
_space_group_symop_operation_xyz
x,y,z
-x,y,-z
-x,-y,-z
x,-y,z
1/2+x,1/2+y,z
1/2-x,1/2+y,-z
1/2-x,1/2-y,-z
1/2+x,1/2-y,z
loop_
_atom_site_type_symbol
_atom_site_label
_atom_site_fract_x
_atom_site_fract_y
_atom_site_fract_z
Si Si1 0.909265 0.676345 0.373886
Si Si2 0.090869 0.317863 0.338902
Si Si3 0.135414 0.183071 0.520223
Si Si4 0.217716 0.181028 0.906492
Si Si5 0.740925 0.674822 0.200291
Si Si6 0.056070 0.817358 0.742477
Si Si7 0.791856 0.184564 0.675721
O O1 0.933211 0.500000 0.393052
O O2 0.910917 0.751299 0.450508
O O3 0.824206 0.676932 0.289008
O O4 0.946134 0.768077 0.339683
O O5 0.098057 0.500000 0.342558
O O6 0.112317 0.254773 0.430437
O O7 0.143484 0.240926 0.323083
O O8 0.008456 0.266068 0.267154
O O9 0.217962 0.235880 0.595366
O O10 0.130596 0.000000 0.514840
O O11 0.261493 0.229511 0.871118
O O12 0.134540 0.228933 0.830523
O O13 0.217897 0.000000 0.912065
O O14 0.250000 0.250000 0.000000
O O15 0.722211 0.500000 0.169825
O O16 0.697588 0.725039 0.235511
O O17 0.048405 0.000000 0.741324
O O18 0.783092 0.000000 0.665103
#
# Coordination Sequence:
#
# PCOD9194884 Si02
#       7
#     8   8   8   8   8   8   8
#     4   9  17  32  52  75 103 136 173 217 264 312
#     4  12  24  36  51  73 103 142 181 221 264 309
#     4  11  21  34  52  75 103 138 182 228 264 303
#     4  10  20  34  58  86 111 134 163 204 253 309
#     4   8  16  31  53  78 105 134 167 207 255 304
#     4  10  21  37  54  77 106 138 173 212 261 317
#     4  10  20  36  55  76 104 140 180 222 261 305
#
# _framework density 17.797841999999999
#
# number of rings (size 3 to 8) (size 9 to 14) (size 15 to 20)
#    0.000    2.000    0.000    5.571    0.000    6.286 
#    0.000    2.857    0.000    0.857    0.000    6.000 
#    0.000    0.000    0.000    0.000    0.000    0.000 
#
# Total GULP energy -156365.141333 kJ/mol
# GULP energy per Si atom -5584.469333 kJ/mol
# Density = 1.775733 g / cm^3
# Si number density = 17.797842 Si / 1000 Ang^3
#
#
#
# Elastic Constant Matrix: (Units=GPa)
#
#
# Indices 1 2 3 4 5 6 
#
# 1 91.1304 21.3295 44.0893 0.0000 -8.8527 0.0000
# 2 21.3295 80.6042 35.7290 0.0000 -5.9319 0.0000
# 3 44.0893 35.7290 102.9120 0.0000 -18.6799 0.0000
# 4 0.0000 0.0000 0.0000 26.3861 0.0000 -5.6372
# 5 -8.8527 -5.9319 -18.6799 0.0000 16.8562 0.0000
# 6 0.0000 0.0000 0.0000 -5.6372 0.0000 30.7151
#
#
#
# Elastic Compliance Matrix: (Units=1/GPa)
#
#
# Indices 1 2 3 4 5 6 
#
# 1 0.013957 -0.001240 -0.005380 0.000000 0.000932 0.000000
# 2 -0.001240 0.014778 -0.004724 0.000000 -0.000686 0.000000
# 3 -0.005380 -0.004724 0.016082 0.000000 0.013334 0.000000
# 4 0.000000 0.000000 0.000000 0.039445 0.000000 0.007239
# 5 0.000932 -0.000686 0.013334 0.000000 0.074350 0.000000
# 6 0.000000 0.000000 0.000000 0.007239 0.000000 0.033886
#
#
# Mechanical properties :
#
#
# Convention : Reuss Voigt Hill
#
# Bulk Modulus (GPa) = 45.18782 52.99356 49.09069
# Shear Modulus (GPa) = 22.46564 26.35808 24.41186
#
# Velocity S-wave (km/s) = 3.55670 3.85251 3.70756
# Velocity P-wave (km/s) = 6.50472 7.04479 6.78013
#
# Compressibility (1/GPa) = 0.02212986
#
# Stress axis : x y z
#
# Youngs Moduli (GPa) = 71.64987 67.66880 62.18080
#
# Poissons Ratio (x) = 0.08391 0.33451
# Poissons Ratio (y) = 0.08885 0.29373
# Poissons Ratio (z) = 0.38545 0.31965
#
# Static dielectric constant tensor:
#      x y z
#    x 1.620040 0.000000 0.011100 
#    y 0.000000 1.596260 0.000000 
#    z 0.011100 0.000000 1.606040 
# 
# From -- ./inp_files/281595.got.cif
#   From: 2010.05.17/outbox.cif.g08.bks.cpg/sg12_141_cif.got.tgz:281595.got - 2010.06.03 13:09:07.
