data_PCOD9194565
_publ_section_title
;
Structure prediction by ZEFSAII (Michael W. Deem and Ramdas Pophale) SiO2 
 PCOD9194565
Probable space group: C 2/M
;
_chemical_formula_sum "Si O2"
_cell_formula_units_Z 56
_cell_length_a 20.292837
_cell_length_b 15.162376
_cell_length_c 8.190942
_cell_angle_alpha 90.000000
_cell_angle_beta 86.441357
_cell_angle_gamma 90.000000
_cell_volume 2515.391918
_symmetry_space_group_name_H-M "C 2/M"
_symmetry_group_IT_number 12
_symmetry_cell_setting 'monoclinic'
loop_
_space_group_symop_operation_xyz
x,y,z
-x,y,-z
-x,-y,-z
x,-y,z
1/2+x,1/2+y,z
1/2-x,1/2+y,-z
1/2-x,1/2-y,-z
1/2+x,1/2-y,z
loop_
_atom_site_type_symbol
_atom_site_label
_atom_site_fract_x
_atom_site_fract_y
_atom_site_fract_z
Si Si1 0.682362 0.905906 0.778351
Si Si2 0.968238 0.603349 0.824776
Si Si3 0.794251 0.836605 0.956136
Si Si4 0.857450 0.717859 0.702625
Si Si5 0.248764 0.903030 0.582395
Si Si6 0.884576 0.899285 0.240960
Si Si7 0.077429 0.278410 0.664103
O O1 0.736771 0.901813 0.908845
O O2 0.723529 0.903068 0.603808
O O3 0.633997 0.823218 0.769128
O O4 0.645108 0.000000 0.791737
O O5 0.962082 0.500000 0.786661
O O6 0.898720 0.652819 0.813965
O O7 0.016927 0.655655 0.696339
O O8 0.000000 0.611977 0.000000
O O9 0.841685 0.807141 0.800054
O O10 0.750000 0.750000 0.000000
O O11 0.840231 0.874910 0.090270
O O12 0.787691 0.672658 0.669618
O O13 0.896029 0.724832 0.524952
O O14 0.170644 0.892500 0.607423
O O15 0.264404 0.000000 0.651160
O O16 0.935220 0.820216 0.268082
O O17 0.908938 0.000000 0.228086
#
# Coordination Sequence:
#
# PCOD9194565 Si02
#       7
#     8   8   8   8   8   8   8
#     4  10  20  34  56  85 121 159 199 245 302 364
#     4  11  25  42  64  94 127 162 200 247 306 368
#     4  12  21  35  56  86 123 162 197 249 304 366
#     4  11  22  38  61  86 121 164 202 249 303 365
#     4   9  18  33  54  85 118 154 197 243 297 362
#     4  11  22  37  59  87 121 159 202 253 308 361
#     4  11  22  40  62  87 121 162 208 255 301 359
#
# _framework density 22.262933
#
# number of rings (size 3 to 8) (size 9 to 14) (size 15 to 20)
#    0.000    1.286    2.857    3.429    0.000    4.571 
#    0.000    0.714    0.000    6.429    0.000    0.000 
#    0.000    0.000    0.000    0.000    0.000    0.000 
#
# Total GULP energy -156486.658607 kJ/mol
# GULP energy per Si atom -5588.809236 kJ/mol
# Density = 2.221226 g / cm^3
# Si number density = 22.262933 Si / 1000 Ang^3
#
#
#
# Elastic Constant Matrix: (Units=GPa)
#
#
# Indices 1 2 3 4 5 6 
#
# 1 33.8402 15.5005 3.8534 0.0000 1.5577 0.0000
# 2 15.5005 131.5323 25.7227 0.0000 7.6678 0.0000
# 3 3.8534 25.7227 55.1789 0.0000 -1.6043 0.0000
# 4 0.0000 0.0000 0.0000 23.9939 0.0000 3.3187
# 5 1.5577 7.6678 -1.6043 0.0000 31.6169 0.0000
# 6 0.0000 0.0000 0.0000 3.3187 0.0000 22.7558
#
#
#
# Elastic Compliance Matrix: (Units=1/GPa)
#
#
# Indices 1 2 3 4 5 6 
#
# 1 0.031266 -0.003534 -0.000557 0.000000 -0.000712 0.000000
# 2 -0.003534 0.008925 -0.003977 0.000000 -0.002192 0.000000
# 3 -0.000557 -0.003977 0.020074 0.000000 0.002011 0.000000
# 4 0.000000 0.000000 0.000000 0.042535 0.000000 -0.006203
# 5 -0.000712 -0.002192 0.002011 0.000000 0.032297 0.000000
# 6 0.000000 0.000000 0.000000 -0.006203 0.000000 0.044850
#
#
# Mechanical properties :
#
#
# Convention : Reuss Voigt Hill
#
# Bulk Modulus (GPa) = 22.66110 34.52272 28.59191
# Shear Modulus (GPa) = 23.71996 27.37162 25.54579
#
# Velocity S-wave (km/s) = 3.26766 3.51018 3.39109
# Velocity P-wave (km/s) = 4.94345 5.65411 5.31068
#
# Compressibility (1/GPa) = 0.04412849
#
# Stress axis : x y z
#
# Youngs Moduli (GPa) = 31.98397 112.04718 49.81480
#
# Poissons Ratio (x) = 0.39600 0.02772
# Poissons Ratio (y) = 0.11304 0.19813
# Poissons Ratio (z) = 0.01780 0.44566
#
# Static dielectric constant tensor:
#      x y z
#    x 1.831200 0.000000 -0.022400 
#    y 0.000000 1.847500 0.000000 
#    z -0.022400 0.000000 1.855120 
# 
# From -- ./inp_files/86339.got.cif
#   From: 2010.05.17/outbox.cif.g08.bks.cpg/sg12_44_cif.got.tgz:86339.got - 2010.06.03 13:09:07.
