data_PCOD9194668
_publ_section_title
;
Structure prediction by ZEFSAII (Michael W. Deem and Ramdas Pophale) SiO2 
 PCOD9194668
Probable space group: C 2/M
;
_chemical_formula_sum "Si O2"
_cell_formula_units_Z 40
_cell_length_a 13.650360
_cell_length_b 25.788057
_cell_length_c 7.442745
_cell_angle_alpha 90.000000
_cell_angle_beta 46.783291
_cell_angle_gamma 90.000000
_cell_volume 1909.350834
_symmetry_space_group_name_H-M "C 2/M"
_symmetry_group_IT_number 12
_symmetry_cell_setting 'monoclinic'
loop_
_space_group_symop_operation_xyz
x,y,z
-x,y,-z
-x,-y,-z
x,-y,z
1/2+x,1/2+y,z
1/2-x,1/2+y,-z
1/2-x,1/2-y,-z
1/2+x,1/2-y,z
loop_
_atom_site_type_symbol
_atom_site_label
_atom_site_fract_x
_atom_site_fract_y
_atom_site_fract_z
Si Si1 0.500000 0.913424 0.500000
Si Si2 0.500000 0.741476 0.500000
Si Si3 0.137081 0.854209 0.145705
Si Si4 0.290059 0.000000 0.377836
Si Si5 0.592504 0.000000 0.160058
Si Si6 0.843431 0.109232 0.482717
Si Si7 0.673492 0.167674 0.427638
O O1 0.441281 0.876177 0.422027
O O2 0.607125 0.950563 0.269768
O O3 0.413765 0.702946 0.731548
O O4 0.401584 0.778231 0.507693
O O5 0.183335 0.881978 0.271478
O O6 0.002931 0.884653 0.252995
O O7 0.243877 0.846278 0.856081
O O8 0.211372 0.946421 0.513276
O O9 0.435473 0.000000 0.292316
O O10 0.319822 0.000000 0.126736
O O11 0.770286 0.156378 0.471376
#
# Coordination Sequence:
#
# PCOD9194668 Si02
#       7
#     4   4   8   4   4   8   8
#     4  10  20  35  56  90 112 151 194 240 280 344
#     4   9  22  39  62  88 112 147 196 241 286 348
#     4  10  23  40  58  85 119 152 192 237 283 342
#     4  11  20  37  58  84 117 156 190 230 286 338
#     4  10  20  34  57  81 122 148 191 241 281 326
#     4  10  22  39  58  86 117 153 193 234 278 347
#     4  11  20  39  62  84 117 151 189 239 295 333
#
# _framework density 20.949527
#
# number of rings (size 3 to 8) (size 9 to 14) (size 15 to 20)
#    0.000    2.000    2.000    2.400    0.000    4.800 
#    0.000    8.000    0.000    0.000    0.000    0.000 
#    0.000    0.000    0.000    0.000    0.000    0.000 
#
# Total GULP energy -111651.110570 kJ/mol
# GULP energy per Si atom -5582.555529 kJ/mol
# Density = 2.090185 g / cm^3
# Si number density = 20.949527 Si / 1000 Ang^3
#
#
#
# Elastic Constant Matrix: (Units=GPa)
#
#
# Indices 1 2 3 4 5 6 
#
# 1 82.5860 24.7924 -6.3409 0.0000 -0.2701 0.0000
# 2 24.7924 129.2735 10.9906 0.0000 -14.5427 0.0000
# 3 -6.3409 10.9906 39.1207 0.0000 -1.6333 0.0000
# 4 0.0000 0.0000 0.0000 74.7825 0.0000 -12.6168
# 5 -0.2701 -14.5427 -1.6333 0.0000 15.2916 0.0000
# 6 0.0000 0.0000 0.0000 -12.6168 0.0000 27.5460
#
#
#
# Elastic Compliance Matrix: (Units=1/GPa)
#
#
# Indices 1 2 3 4 5 6 
#
# 1 0.013240 -0.003051 0.002905 0.000000 -0.002358 0.000000
# 2 -0.003051 0.009541 -0.002811 0.000000 0.008719 0.000000
# 3 0.002905 -0.002811 0.026833 0.000000 0.000244 0.000000
# 4 0.000000 0.000000 0.000000 0.014492 0.000000 0.006638
# 5 -0.002358 0.008719 0.000244 0.000000 0.073672 0.000000
# 6 0.000000 0.000000 0.000000 0.006638 0.000000 0.039343
#
#
# Mechanical properties :
#
#
# Convention : Reuss Voigt Hill
#
# Bulk Modulus (GPa) = 22.88419 34.42937 28.65678
# Shear Modulus (GPa) = 25.30346 38.29322 31.79834
#
# Velocity S-wave (km/s) = 3.47915 4.28001 3.90019
# Velocity P-wave (km/s) = 5.20447 6.39490 5.83015
#
# Compressibility (1/GPa) = 0.04369828
#
# Stress axis : x y z
#
# Youngs Moduli (GPa) = 75.52901 104.81531 37.26799
#
# Poissons Ratio (x) = 0.31983 -0.10826
# Poissons Ratio (y) = 0.23047 0.10476
# Poissons Ratio (z) = -0.21940 0.29463
#
# Static dielectric constant tensor:
#      x y z
#    x 1.788830 0.000000 -0.006680 
#    y 0.000000 1.749520 0.000000 
#    z -0.006680 0.000000 1.726920 
# 
# From -- ./inp_files/64655.got.cif
#   From: 2010.05.17/outbox.cif.g08.bks.cpg/sg12_33_cif.got.tgz:64655.got - 2010.06.03 13:09:07.
