data_PCOD9194106
_publ_section_title
;
Structure prediction by ZEFSAII (Michael W. Deem and Ramdas Pophale) SiO2 
 PCOD9194106
Probable space group: C 2/M
;
_chemical_formula_sum "Si O2"
_cell_formula_units_Z 56
_cell_length_a 25.899879
_cell_length_b 14.153506
_cell_length_c 11.266892
_cell_angle_alpha 90.000000
_cell_angle_beta 136.668635
_cell_angle_gamma 90.000000
_cell_volume 2834.178184
_symmetry_space_group_name_H-M "C 2/M"
_symmetry_group_IT_number 12
_symmetry_cell_setting 'monoclinic'
loop_
_space_group_symop_operation_xyz
x,y,z
-x,y,-z
-x,-y,-z
x,-y,z
1/2+x,1/2+y,z
1/2-x,1/2+y,-z
1/2-x,1/2-y,-z
1/2+x,1/2-y,z
loop_
_atom_site_type_symbol
_atom_site_label
_atom_site_fract_x
_atom_site_fract_y
_atom_site_fract_z
Si Si1 0.502381 0.680322 0.369112
Si Si2 0.855227 0.391752 0.772555
Si Si3 0.335919 0.396159 0.075490
Si Si4 0.164555 0.102323 0.650216
Si Si5 0.446233 0.735132 0.797991
Si Si6 0.215405 0.249858 0.193767
Si Si7 0.692831 0.391272 0.373618
O O1 0.500000 0.724984 0.500000
O O2 0.425144 0.624048 0.222222
O O3 0.575281 0.613469 0.496532
O O4 0.515751 0.737929 0.268538
O O5 0.876982 0.500000 0.827135
O O6 0.909650 0.334756 0.775565
O O7 0.846200 0.330475 0.877744
O O8 0.771452 0.388262 0.575964
O O9 0.320008 0.500000 0.996004
O O10 0.312940 0.399429 0.174037
O O11 0.297658 0.308851 0.946301
O O12 0.206055 0.195276 0.673743
O O13 0.186533 0.000000 0.633249
O O14 0.378939 0.657677 0.684432
O O15 0.500000 0.709330 0.000000
O O16 0.207327 0.172897 0.283247
O O17 0.675796 0.500000 0.317523
#
# Coordination Sequence:
#
# PCOD9194106 Si02
#       7
#     8   8   8   8   8   8   8
#     4  10  20  36  58  82 111 147 185 226 273 330
#     4  10  21  37  56  77 105 144 188 228 269 326
#     4  10  21  35  52  79 112 144 180 225 278 332
#     4  10  20  34  55  81 109 145 186 224 268 328
#     4  11  22  36  56  84 115 145 182 228 281 331
#     4  11  19  33  54  80 111 140 179 228 280 327
#     4  10  21  36  55  79 108 142 179 224 277 331
#
# _framework density 19.758813
#
# number of rings (size 3 to 8) (size 9 to 14) (size 15 to 20)
#    0.000    1.714    0.000    6.857    0.000    4.571 
#    0.000    0.000    0.000    0.429    0.000    8.000 
#    0.000    0.000    0.000    0.000    0.000    0.000 
#
# Total GULP energy -156169.015888 kJ/mol
# GULP energy per Si atom -5577.464853 kJ/mol
# Density = 1.971384 g / cm^3
# Si number density = 19.758813 Si / 1000 Ang^3
#
#
#
# Elastic Constant Matrix: (Units=GPa)
#
#
# Indices 1 2 3 4 5 6 
#
# 1 75.3036 22.3018 18.7008 0.0000 0.1796 0.0000
# 2 22.3018 132.8515 29.3336 0.0000 8.9393 0.0000
# 3 18.7008 29.3336 71.7747 0.0000 -4.4347 0.0000
# 4 0.0000 0.0000 0.0000 13.7375 0.0000 2.6699
# 5 0.1796 8.9393 -4.4347 0.0000 19.2288 0.0000
# 6 0.0000 0.0000 0.0000 2.6699 0.0000 14.5967
#
#
#
# Elastic Compliance Matrix: (Units=1/GPa)
#
#
# Indices 1 2 3 4 5 6 
#
# 1 0.014566 -0.001764 -0.003076 0.000000 -0.000025 0.000000
# 2 -0.001764 0.008927 -0.003494 0.000000 -0.004939 0.000000
# 3 -0.003076 -0.003494 0.016499 0.000000 0.005458 0.000000
# 4 0.000000 0.000000 0.000000 0.075477 0.000000 -0.013805
# 5 -0.000025 -0.004939 0.005458 0.000000 0.055561 0.000000
# 6 0.000000 0.000000 0.000000 -0.013805 0.000000 0.071034
#
#
# Mechanical properties :
#
#
# Convention : Reuss Voigt Hill
#
# Bulk Modulus (GPa) = 42.87376 46.73358 44.80367
# Shear Modulus (GPa) = 18.76130 23.48550 21.12340
#
# Velocity S-wave (km/s) = 3.08476 3.45136 3.27320
# Velocity P-wave (km/s) = 5.86799 6.29173 6.08355
#
# Compressibility (1/GPa) = 0.02332429
#
# Stress axis : x y z
#
# Youngs Moduli (GPa) = 68.65318 112.01694 60.60974
#
# Poissons Ratio (x) = 0.19764 0.18641
# Poissons Ratio (y) = 0.12113 0.21177
# Poissons Ratio (z) = 0.21115 0.39138
#
# Static dielectric constant tensor:
#      x y z
#    x 1.759250 0.000000 -0.036570 
#    y 0.000000 1.685830 0.000000 
#    z -0.036570 0.000000 1.729550 
# 
# From -- ./inp_files/183566.got.cif
#   From: 2010.05.17/outbox.cif.g08.bks.cpg/sg12_92_cif.got.tgz:183566.got - 2010.06.03 13:09:07.
