data_PCOD9194598
_publ_section_title
;
Structure prediction by ZEFSAII (Michael W. Deem and Ramdas Pophale) SiO2 
 PCOD9194598
Probable space group: C 2/M
;
_chemical_formula_sum "Si O2"
_cell_formula_units_Z 56
_cell_length_a 29.516542
_cell_length_b 8.953459
_cell_length_c 13.048392
_cell_angle_alpha 90.000000
_cell_angle_beta 124.342229
_cell_angle_gamma 90.000000
_cell_volume 2847.256040
_symmetry_space_group_name_H-M "C 2/M"
_symmetry_group_IT_number 12
_symmetry_cell_setting 'monoclinic'
loop_
_space_group_symop_operation_xyz
x,y,z
-x,y,-z
-x,-y,-z
x,-y,z
1/2+x,1/2+y,z
1/2-x,1/2+y,-z
1/2-x,1/2-y,-z
1/2+x,1/2-y,z
loop_
_atom_site_type_symbol
_atom_site_label
_atom_site_fract_x
_atom_site_fract_y
_atom_site_fract_z
Si Si1 0.662167 0.678434 0.711333
Si Si2 0.949289 0.177250 0.732360
Si Si3 0.555871 0.173581 0.935315
Si Si4 0.864529 0.324765 0.766301
Si Si5 0.648495 0.676408 0.929873
Si Si6 0.271687 0.322503 0.776238
Si Si7 0.449745 0.178485 0.512018
O O1 0.659804 0.500000 0.694613
O O2 0.668506 0.709547 0.841091
O O3 0.713109 0.746057 0.714801
O O4 0.605919 0.753248 0.603983
O O5 0.893811 0.244223 0.709377
O O6 0.959476 0.247295 0.634237
O O7 0.001177 0.229265 0.866219
O O8 0.946183 0.000000 0.723641
O O9 0.595488 0.228407 0.894344
O O10 0.540834 0.000000 0.903852
O O11 0.592400 0.188869 0.084008
O O12 0.856279 0.500000 0.735647
O O13 0.808926 0.248364 0.734654
O O14 0.634105 0.500000 0.916713
O O15 0.694752 0.703930 0.074693
O O16 0.266530 0.500000 0.755596
O O17 0.500000 0.210783 0.500000
O O18 0.444946 0.000000 0.516807
#
# Coordination Sequence:
#
# PCOD9194598 Si02
#       7
#     8   8   8   8   8   8   8
#     4  11  22  37  58  85 117 154 194 236 286 338
#     4  12  24  38  59  85 115 152 192 236 287 341
#     4  10  20  34  56  86 119 154 191 234 285 340
#     4  10  21  38  59  85 118 153 191 236 285 338
#     4   9  19  34  55  85 120 155 191 235 285 339
#     4  10  20  36  58  86 119 154 193 235 283 338
#     4  11  25  44  64  86 113 148 191 237 284 337
#
# _framework density 19.668059
#
# number of rings (size 3 to 8) (size 9 to 14) (size 15 to 20)
#    0.000    1.571    0.000    5.143    0.000    8.571 
#    0.000    0.714    0.000    0.000    0.000    0.000 
#    0.000    0.000    0.000    0.000    0.000    0.000 
#
# Total GULP energy -156590.733923 kJ/mol
# GULP energy per Si atom -5592.526212 kJ/mol
# Density = 1.962329 g / cm^3
# Si number density = 19.668059 Si / 1000 Ang^3
#
#
#
# Elastic Constant Matrix: (Units=GPa)
#
#
# Indices 1 2 3 4 5 6 
#
# 1 163.8558 96.4392 32.9742 0.0000 3.4058 0.0000
# 2 96.4392 118.6130 40.4986 0.0000 2.3549 0.0000
# 3 32.9742 40.4986 27.2944 0.0000 2.5312 0.0000
# 4 0.0000 0.0000 0.0000 25.5906 0.0000 3.4837
# 5 3.4058 2.3549 2.5312 0.0000 27.7547 0.0000
# 6 0.0000 0.0000 0.0000 3.4837 0.0000 37.2965
#
#
#
# Elastic Compliance Matrix: (Units=1/GPa)
#
#
# Indices 1 2 3 4 5 6 
#
# 1 0.011714 -0.009526 0.000041 0.000000 -0.000633 0.000000
# 2 -0.009526 0.024854 -0.025499 0.000000 0.001386 0.000000
# 3 0.000041 -0.025499 0.074856 0.000000 -0.004668 0.000000
# 4 0.000000 0.000000 0.000000 0.039580 0.000000 -0.003697
# 5 -0.000633 0.001386 -0.004668 0.000000 0.036416 0.000000
# 6 0.000000 0.000000 0.000000 -0.003697 0.000000 0.027157
#
#
# Mechanical properties :
#
#
# Convention : Reuss Voigt Hill
#
# Bulk Modulus (GPa) = 24.12150 72.17634 48.14892
# Shear Modulus (GPa) = 16.75802 27.45175 22.10489
#
# Velocity S-wave (km/s) = 2.92214 3.74003 3.35610
# Velocity P-wave (km/s) = 4.86581 7.44495 6.28902
#
# Compressibility (1/GPa) = 0.04145680
#
# Stress axis : x y z
#
# Youngs Moduli (GPa) = 85.36480 40.23424 13.35906
#
# Poissons Ratio (x) = 0.38326 -0.00054
# Poissons Ratio (y) = 0.81317 0.34064
# Poissons Ratio (z) = -0.00347 1.02592
#
# Static dielectric constant tensor:
#      x y z
#    x 1.665160 0.000000 -0.007230 
#    y 0.000000 1.649230 0.000000 
#    z -0.007230 0.000000 1.705920 
# 
# From -- ./inp_files/248576.got.cif
#   From: 2010.05.17/outbox.cif.g08.bks.cpg/sg12_125_cif.got.tgz:248576.got - 2010.06.03 13:09:07.
