data_PCOD9194553
_publ_section_title
;
Structure prediction by ZEFSAII (Michael W. Deem and Ramdas Pophale) SiO2 
 PCOD9194553
Probable space group: C 2/M
;
_chemical_formula_sum "Si O2"
_cell_formula_units_Z 48
_cell_length_a 25.826807
_cell_length_b 16.813212
_cell_length_c 5.720436
_cell_angle_alpha 90.000000
_cell_angle_beta 55.838469
_cell_angle_gamma 90.000000
_cell_volume 2055.400128
_symmetry_space_group_name_H-M "C 2/M"
_symmetry_group_IT_number 12
_symmetry_cell_setting 'monoclinic'
loop_
_space_group_symop_operation_xyz
x,y,z
-x,y,-z
-x,-y,-z
x,-y,z
1/2+x,1/2+y,z
1/2-x,1/2+y,-z
1/2-x,1/2-y,-z
1/2+x,1/2-y,z
loop_
_atom_site_type_symbol
_atom_site_label
_atom_site_fract_x
_atom_site_fract_y
_atom_site_fract_z
Si Si1 0.069406 0.909571 0.922005
Si Si2 0.390545 0.091210 0.349587
Si Si3 0.778404 0.363854 0.347523
Si Si4 0.337922 0.703848 0.074717
Si Si5 0.928095 0.591021 0.751071
Si Si6 0.681480 0.416598 0.262543
O O1 0.097090 0.838263 0.012013
O O2 0.121437 0.915608 0.585577
O O3 0.066779 0.000000 0.034683
O O4 0.000000 0.892823 0.000000
O O5 0.318706 0.095646 0.447742
O O6 0.399434 0.128177 0.583830
O O7 0.411571 0.000000 0.324274
O O8 0.425507 0.122585 0.026342
O O9 0.716104 0.327355 0.615511
O O10 0.823953 0.296925 0.124221
O O11 0.747764 0.416776 0.226440
O O12 0.322044 0.664396 0.869949
O O13 0.901688 0.500000 0.841141
O O14 0.000000 0.586862 0.500000
O O15 0.677572 0.500000 0.132100
#
# Coordination Sequence:
#
# PCOD9194553 Si02
#       6
#     8   8   8   8   8   8
#     4   9  19  37  59  87 119 151 197 252 304 367
#     4  10  20  34  56  85 114 153 202 254 304 361
#     4  10  22  37  54  83 119 156 195 246 304 371
#     4  10  21  38  58  81 114 160 193 243 307 372
#     4   9  18  34  55  80 112 150 196 250 303 351
#     4  10  20  35  60  89 118 154 200 252 307 367
#
# _framework density 23.353117000000001
#
# number of rings (size 3 to 8) (size 9 to 14) (size 15 to 20)
#    0.000    2.333    0.000    2.000    2.333    4.667 
#    0.000    4.167    0.000    0.000    0.000    0.000 
#    0.000    0.000    0.000    0.000    0.000    0.000 
#
# Total GULP energy -133620.008787 kJ/mol
# GULP energy per Si atom -5567.500366 kJ/mol
# Density = 2.329996 g / cm^3
# Si number density = 23.353117 Si / 1000 Ang^3
#
#
#
# Elastic Constant Matrix: (Units=GPa)
#
#
# Indices 1 2 3 4 5 6 
#
# 1 168.3589 23.0965 39.0054 0.0000 3.5170 0.0000
# 2 23.0965 31.4872 24.5714 0.0000 -4.9997 0.0000
# 3 39.0054 24.5714 91.1149 0.0000 15.4359 0.0000
# 4 0.0000 0.0000 0.0000 31.7225 0.0000 -55.3601
# 5 3.5170 -4.9997 15.4359 0.0000 35.9783 0.0000
# 6 0.0000 0.0000 0.0000 -55.3601 0.0000 418.0859
#
#
#
# Elastic Compliance Matrix: (Units=1/GPa)
#
#
# Indices 1 2 3 4 5 6 
#
# 1 0.006886 -0.003615 -0.001913 0.000000 -0.000355 0.000000
# 2 -0.003615 0.046651 -0.013147 0.000000 0.012477 0.000000
# 3 -0.001913 -0.013147 0.016841 0.000000 -0.008865 0.000000
# 4 0.000000 0.000000 0.000000 0.040997 0.000000 0.005429
# 5 -0.000355 0.012477 -0.008865 0.000000 0.033367 0.000000
# 6 0.000000 0.000000 0.000000 0.005429 0.000000 0.003111
#
#
# Mechanical properties :
#
#
# Convention : Reuss Voigt Hill
#
# Bulk Modulus (GPa) = 30.27611 51.58974 40.93292
# Shear Modulus (GPa) = 25.48271 110.77651 68.12961
#
# Velocity S-wave (km/s) = 3.30690 6.89481 5.40713
# Velocity P-wave (km/s) = 5.25104 9.24790 7.51988
#
# Compressibility (1/GPa) = 0.03302934
#
# Stress axis : x y z
#
# Youngs Moduli (GPa) = 145.21810 21.43585 59.37743
#
# Poissons Ratio (x) = 0.07748 0.11359
# Poissons Ratio (y) = 0.52491 0.78063
# Poissons Ratio (z) = 0.27781 0.28181
#
# Static dielectric constant tensor:
#      x y z
#    x 1.881110 0.000000 0.032360 
#    y 0.000000 1.953670 0.000000 
#    z 0.032360 0.000000 1.928850 
# 
# From -- ./inp_files/24976.got.cif
#   From: 2010.05.17/outbox.cif.g08.bks.cpg/sg12_13_cif.got.tgz:24976.got - 2010.06.03 13:09:07.
