data_PCOD9194587
_publ_section_title
;
Structure prediction by ZEFSAII (Michael W. Deem and Ramdas Pophale) SiO2 
 PCOD9194587
Probable space group: C 2/M
;
_chemical_formula_sum "Si O2"
_cell_formula_units_Z 64
_cell_length_a 15.977875
_cell_length_b 7.596985
_cell_length_c 26.203793
_cell_angle_alpha 90.000000
_cell_angle_beta 66.040455
_cell_angle_gamma 90.000000
_cell_volume 2906.638405
_symmetry_space_group_name_H-M "C 2/M"
_symmetry_group_IT_number 12
_symmetry_cell_setting 'monoclinic'
loop_
_space_group_symop_operation_xyz
x,y,z
-x,y,-z
-x,-y,-z
x,-y,z
1/2+x,1/2+y,z
1/2-x,1/2+y,-z
1/2-x,1/2-y,-z
1/2+x,1/2-y,z
loop_
_atom_site_type_symbol
_atom_site_label
_atom_site_fract_x
_atom_site_fract_y
_atom_site_fract_z
Si Si1 0.795063 0.210279 0.748637
Si Si2 0.249751 0.790439 0.059692
Si Si3 0.399096 0.285377 0.823565
Si Si4 0.920629 0.213519 0.625904
Si Si5 0.914870 0.212316 0.180193
Si Si6 0.060622 0.798274 0.939776
Si Si7 0.822987 0.709028 0.545268
Si Si8 0.123251 0.201599 0.580776
O O1 0.844818 0.278150 0.787404
O O2 0.846722 0.276112 0.685597
O O3 0.687219 0.243113 0.777743
O O4 0.806918 0.000000 0.745954
O O5 0.157636 0.736160 0.111759
O O6 0.336059 0.702817 0.065538
O O7 0.259881 0.000000 0.063869
O O8 0.250000 0.750000 0.000000
O O9 0.399434 0.500000 0.821644
O O10 0.503816 0.227782 0.802925
O O11 0.886812 0.263096 0.578003
O O12 0.022699 0.280049 0.614073
O O13 0.924417 0.000000 0.625797
O O14 0.936724 0.279838 0.117519
O O15 0.918099 0.000000 0.176785
O O16 0.026331 0.000000 0.942414
O O17 0.000000 0.715541 0.000000
O O18 0.816933 0.500000 0.536412
O O19 0.861449 0.794134 0.484209
O O20 0.718448 0.776235 0.579516
O O21 0.118696 0.000000 0.600281
#
# Coordination Sequence:
#
# PCOD9194587 Si02
#       8
#     8   8   8   8   8   8   8   8
#     4  10  21  39  58  79 109 146 190 236 276 325
#     4  11  21  35  56  82 112 144 182 227 279 338
#     4   9  19  37  59  79 106 146 184 222 275 338
#     4  10  21  36  56  79 109 151 192 229 275 332
#     4  10  20  36  59  82 107 142 182 226 281 334
#     4  10  20  35  55  81 114 145 179 225 279 340
#     4  10  20  34  56  86 116 146 184 234 280 322
#     4   9  19  36  56  81 114 152 188 223 273 336
#
# _framework density 22.018563
#
# number of rings (size 3 to 8) (size 9 to 14) (size 15 to 20)
#    0.000    2.125    1.250    1.875    0.000    6.250 
#    0.000    5.625    0.000    0.000    0.000    0.000 
#    0.000    0.000    0.000    0.000    0.000    0.000 
#
# Total GULP energy -178714.303293 kJ/mol
# GULP energy per Si atom -5584.821978 kJ/mol
# Density = 2.196845 g / cm^3
# Si number density = 22.018563 Si / 1000 Ang^3
#
#
#
# Elastic Constant Matrix: (Units=GPa)
#
#
# Indices 1 2 3 4 5 6 
#
# 1 120.3340 -8.5395 10.7661 0.0000 -27.6143 0.0000
# 2 -8.5395 54.6410 -4.2407 -0.0001 -1.3209 -0.0001
# 3 10.7661 -4.2407 30.6511 0.0000 -25.4901 0.0000
# 4 0.0000 -0.0001 0.0000 15.9510 0.0000 -0.8267
# 5 -27.6143 -1.3209 -25.4901 0.0000 34.1490 0.0000
# 6 0.0000 -0.0001 0.0000 -0.8267 0.0000 24.8844
#
#
#
# Elastic Compliance Matrix: (Units=1/GPa)
#
#
# Indices 1 2 3 4 5 6 
#
# 1 0.011642 0.003128 0.011268 0.000000 0.017946 0.000000
# 2 0.003128 0.019983 0.011634 0.000000 0.011987 0.000000
# 3 0.011268 0.011634 0.100802 0.000000 0.084804 0.000000
# 4 0.000000 0.000000 0.000000 0.062800 0.000000 0.002086
# 5 0.017946 0.011987 0.084804 0.000000 0.107560 0.000000
# 6 0.000000 0.000000 0.000000 0.002086 0.000000 0.040255
#
#
# Mechanical properties :
#
#
# Convention : Reuss Voigt Hill
#
# Bulk Modulus (GPa) = 5.42044 22.39977 13.91011
# Shear Modulus (GPa) = 14.18530 28.83955 21.51242
#
# Velocity S-wave (km/s) = 2.54095 3.62302 3.12911
# Velocity P-wave (km/s) = 3.32801 5.26279 4.40299
#
# Compressibility (1/GPa) = 0.18448672
#
# Stress axis : x y z
#
# Youngs Moduli (GPa) = 85.89325 50.04302 9.92048
#
# Poissons Ratio (x) = -0.15653 -0.11178
# Poissons Ratio (y) = -0.26866 -0.11542
# Poissons Ratio (z) = -0.96783 -0.58221
#
# Static dielectric constant tensor:
#      x y z
#    x 1.765900 0.000000 -0.015270 
#    y 0.000000 1.875550 0.000000 
#    z -0.015270 0.000000 1.781220 
# 
# From -- ./inp_files/359767.got.cif
#   From: 2010.05.17/outbox.cif.g08.bks.cpg/sg12_180_cif.got.tgz:359767.got - 2010.06.03 13:09:07.
