data_PCOD9194142
_publ_section_title
;
Structure prediction by ZEFSAII (Michael W. Deem and Ramdas Pophale) SiO2 
 PCOD9194142
Probable space group: C 2/M
;
_chemical_formula_sum "Si O2"
_cell_formula_units_Z 56
_cell_length_a 18.382309
_cell_length_b 8.415665
_cell_length_c 19.135079
_cell_angle_alpha 90.000000
_cell_angle_beta 76.244731
_cell_angle_gamma 90.000000
_cell_volume 2875.286896
_symmetry_space_group_name_H-M "C 2/M"
_symmetry_group_IT_number 12
_symmetry_cell_setting 'monoclinic'
loop_
_space_group_symop_operation_xyz
x,y,z
-x,y,-z
-x,-y,-z
x,-y,z
1/2+x,1/2+y,z
1/2-x,1/2+y,-z
1/2-x,1/2-y,-z
1/2+x,1/2-y,z
loop_
_atom_site_type_symbol
_atom_site_label
_atom_site_fract_x
_atom_site_fract_y
_atom_site_fract_z
Si Si1 0.870222 0.807872 0.356636
Si Si2 0.916334 0.307818 0.498889
Si Si3 0.202349 0.306049 0.356882
Si Si4 0.653461 0.192419 0.213259
Si Si5 0.488514 0.690547 0.212091
Si Si6 0.774651 0.190534 0.070289
Si Si7 0.560493 0.190484 0.928637
O O1 0.893342 0.749966 0.427738
O O2 0.786449 0.754296 0.355936
O O3 0.929991 0.754526 0.284849
O O4 0.870037 0.000000 0.356819
O O5 0.916178 0.500000 0.498669
O O6 0.856502 0.254263 0.570701
O O7 0.000000 0.254843 0.500000
O O8 0.202405 0.500000 0.356684
O O9 0.177044 0.254993 0.285541
O O10 0.571535 0.252209 0.211786
O O11 0.714807 0.244439 0.142325
O O12 0.652081 0.000000 0.213364
O O13 0.487229 0.500000 0.211108
O O14 0.463552 0.752099 0.142281
O O15 0.857263 0.249112 0.070579
O O16 0.774695 0.000000 0.070147
O O17 0.750000 0.250000 0.000000
O O18 0.561075 0.000000 0.929292
O O19 0.500000 0.245836 0.000000
#
# Coordination Sequence:
#
# PCOD9194142 Si02
#       7
#     8   8   8   8   8   8   8
#     4  10  21  37  56  80 112 148 185 228 281 338
#     4  10  20  34  55  82 109 142 186 232 279 334
#     4   9  18  35  57  79 108 146 186 230 281 338
#     4  10  21  39  61  83 112 151 190 231 285 343
#     4  11  23  38  58  85 115 149 191 237 285 337
#     4  11  23  39  61  88 118 153 191 234 286 341
#     4  11  24  41  61  86 116 152 193 235 283 338
#
# _framework density 19.476317000000002
#
# number of rings (size 3 to 8) (size 9 to 14) (size 15 to 20)
#    0.000    1.714    0.000    4.286    0.000   10.571 
#    0.000    1.429    0.000    0.000    0.000    0.000 
#    0.000    0.000    0.000    0.000    0.000    0.000 
#
# Total GULP energy -156547.013506 kJ/mol
# GULP energy per Si atom -5590.964768 kJ/mol
# Density = 1.943199 g / cm^3
# Si number density = 19.476317 Si / 1000 Ang^3
#
#
#
# Elastic Constant Matrix: (Units=GPa)
#
#
# Indices 1 2 3 4 5 6 
#
# 1 246.0207 30.8690 152.2422 0.0000 -0.6302 0.0000
# 2 30.8690 18.2838 33.1560 0.0000 -2.9517 0.0000
# 3 152.2422 33.1560 247.0005 0.0000 -1.7850 0.0000
# 4 0.0000 0.0000 0.0000 26.7819 0.0000 6.8554
# 5 -0.6302 -2.9517 -1.7850 0.0000 47.2272 0.0000
# 6 0.0000 0.0000 0.0000 6.8554 0.0000 29.7487
#
#
#
# Elastic Compliance Matrix: (Units=1/GPa)
#
#
# Indices 1 2 3 4 5 6 
#
# 1 0.006936 -0.005304 -0.003566 0.000000 -0.000374 0.000000
# 2 -0.005304 0.077170 -0.007057 0.000000 0.004486 0.000000
# 3 -0.003566 -0.007057 0.007192 0.000000 -0.000217 0.000000
# 4 0.000000 0.000000 0.000000 0.039679 0.000000 -0.009144
# 5 -0.000374 0.004486 -0.000217 0.000000 0.021441 0.000000
# 6 0.000000 0.000000 0.000000 -0.009144 0.000000 0.035722
#
#
# Mechanical properties :
#
#
# Convention : Reuss Voigt Hill
#
# Bulk Modulus (GPa) = 16.82264 104.87106 60.84685
# Shear Modulus (GPa) = 20.84995 40.42075 30.63535
#
# Velocity S-wave (km/s) = 3.27544 4.56058 3.97035
# Velocity P-wave (km/s) = 4.79176 9.03848 7.23378
#
# Compressibility (1/GPa) = 0.05944371
#
# Stress axis : x y z
#
# Youngs Moduli (GPa) = 144.18010 12.95844 139.04232
#
# Poissons Ratio (x) = 0.06873 0.49578
# Poissons Ratio (y) = 0.76476 0.98124
# Poissons Ratio (z) = 0.51410 0.09145
#
# Static dielectric constant tensor:
#      x y z
#    x 1.634540 0.000000 -0.022820 
#    y 0.000000 1.678230 0.000000 
#    z -0.022820 0.000000 1.653020 
# 
# From -- ./inp_files/275062.got.cif
#   From: 2010.05.17/outbox.cif.g08.bks.cpg/sg12_138_cif.got.tgz:275062.got - 2010.06.03 13:09:07.
