data_PCOD9194896
_publ_section_title
;
Structure prediction by ZEFSAII (Michael W. Deem and Ramdas Pophale) SiO2 
 PCOD9194896
Probable space group: C 2/M
;
_chemical_formula_sum "Si O2"
_cell_formula_units_Z 50
_cell_length_a 28.666331
_cell_length_b 9.302958
_cell_length_c 12.664662
_cell_angle_alpha 90.000000
_cell_angle_beta 56.477542
_cell_angle_gamma 90.000000
_cell_volume 2815.662813
_symmetry_space_group_name_H-M "C 2/M"
_symmetry_group_IT_number 12
_symmetry_cell_setting 'monoclinic'
loop_
_space_group_symop_operation_xyz
x,y,z
-x,y,-z
-x,-y,-z
x,-y,z
1/2+x,1/2+y,z
1/2-x,1/2+y,-z
1/2-x,1/2-y,-z
1/2+x,1/2-y,z
loop_
_atom_site_type_symbol
_atom_site_label
_atom_site_fract_x
_atom_site_fract_y
_atom_site_fract_z
Si Si1 0.902770 0.173123 0.929069
Si Si2 0.711291 0.328286 0.331295
Si Si3 0.366928 0.828521 0.405490
Si Si4 0.000000 0.000000 0.500000
Si Si5 0.842199 0.671320 0.192305
Si Si6 0.805167 0.827523 0.887910
Si Si7 0.478541 0.340533 0.311382
O O1 0.858453 0.211598 0.892315
O O2 0.965266 0.212573 0.815823
O O3 0.901492 0.000000 0.940376
O O4 0.881851 0.245560 0.062109
O O5 0.704902 0.500000 0.356622
O O6 0.679123 0.243689 0.461856
O O7 0.777295 0.294703 0.248960
O O8 0.687301 0.294016 0.245164
O O9 0.354615 0.794360 0.298435
O O10 0.426779 0.763935 0.362010
O O11 0.365529 0.000000 0.419265
O O12 0.992223 0.877197 0.416202
O O13 0.849286 0.500000 0.168551
O O14 0.797208 0.000000 0.905016
O O15 0.750000 0.750000 0.000000
O O16 0.463595 0.500000 0.284619
#
# Coordination Sequence:
#
# PCOD9194896 Si02
#       7
#     8   8   8   2   8   8   8
#     4  10  21  36  59  90 117 149 198 248 290 348
#     4  10  21  37  61  85 115 161 203 239 298 359
#     4  11  24  39  58  87 120 154 201 251 298 348
#     4   8  20  40  70  78 120 152 198 236 286 348
#     4  10  22  40  58  83 121 161 196 243 302 356
#     4  10  20  34  58  87 117 148 188 238 295 351
#     4   9  21  39  64  86 113 157 196 236 293 354
#
# _framework density 17.757808000000001
#
# number of rings (size 3 to 8) (size 9 to 14) (size 15 to 20)
#    0.480    1.600    1.600    0.960    2.240    3.840 
#    0.000    3.600    0.000    0.000    0.000    0.000 
#    0.000    0.000    0.000    0.000    0.000    0.000 
#
# Total GULP energy -139207.854980 kJ/mol
# GULP energy per Si atom -5568.314199 kJ/mol
# Density = 1.771739 g / cm^3
# Si number density = 17.757808 Si / 1000 Ang^3
#
#
#
# Elastic Constant Matrix: (Units=GPa)
#
#
# Indices 1 2 3 4 5 6 
#
# 1 26.2219 17.8443 37.3577 0.0000 4.5903 0.0000
# 2 17.8443 21.9741 36.7127 0.0000 3.9271 0.0000
# 3 37.3577 36.7127 109.6707 0.0000 12.1542 0.0000
# 4 0.0000 0.0000 0.0000 31.6707 0.0000 -1.0041
# 5 4.5903 3.9271 12.1542 0.0000 26.6112 0.0000
# 6 0.0000 0.0000 0.0000 -1.0041 0.0000 21.8461
#
#
#
# Elastic Compliance Matrix: (Units=1/GPa)
#
#
# Indices 1 2 3 4 5 6 
#
# 1 0.094854 -0.052318 -0.014577 0.000000 -0.001983 0.000000
# 2 -0.052318 0.132124 -0.026593 0.000000 0.001673 0.000000
# 3 -0.014577 -0.026593 0.023460 0.000000 -0.004276 0.000000
# 4 0.000000 0.000000 0.000000 0.031621 0.000000 0.001453
# 5 -0.001983 0.001673 -0.004276 0.000000 0.039626 0.000000
# 6 0.000000 0.000000 0.000000 0.001453 0.000000 0.045842
#
#
# Mechanical properties :
#
#
# Convention : Reuss Voigt Hill
#
# Bulk Modulus (GPa) = 15.75767 37.96623 26.86195
# Shear Modulus (GPa) = 8.68572 20.42240 14.55406
#
# Velocity S-wave (km/s) = 2.21401 3.39492 2.86595
# Velocity P-wave (km/s) = 3.92794 6.06579 5.10991
#
# Compressibility (1/GPa) = 0.06346116
#
# Stress axis : x y z
#
# Youngs Moduli (GPa) = 10.54249 7.56865 42.62633
#
# Poissons Ratio (x) = 0.39598 0.62137
# Poissons Ratio (y) = 0.55156 1.13356
# Poissons Ratio (z) = 0.15368 0.20127
#
# Static dielectric constant tensor:
#      x y z
#    x 1.603730 0.000000 0.002840 
#    y 0.000000 1.590280 0.000000 
#    z 0.002840 0.000000 1.581770 
# 
# From -- ./inp_files/179858.got.cif
#   From: 2010.05.17/outbox.cif.g08.bks.cpg/sg12_90_cif.got.tgz:179858.got - 2010.06.03 13:09:07.
