data_PCOD9194381
_publ_section_title
;
Structure prediction by ZEFSAII (Michael W. Deem and Ramdas Pophale) SiO2 
 PCOD9194381
Probable space group: C 2/M
;
_chemical_formula_sum "Si O2"
_cell_formula_units_Z 56
_cell_length_a 20.899362
_cell_length_b 13.934196
_cell_length_c 18.449494
_cell_angle_alpha 90.000000
_cell_angle_beta 148.247697
_cell_angle_gamma 90.000000
_cell_volume 2827.417532
_symmetry_space_group_name_H-M "C 2/M"
_symmetry_group_IT_number 12
_symmetry_cell_setting 'monoclinic'
loop_
_space_group_symop_operation_xyz
x,y,z
-x,y,-z
-x,-y,-z
x,-y,z
1/2+x,1/2+y,z
1/2-x,1/2+y,-z
1/2-x,1/2-y,-z
1/2+x,1/2-y,z
loop_
_atom_site_type_symbol
_atom_site_label
_atom_site_fract_x
_atom_site_fract_y
_atom_site_fract_z
Si Si1 0.128770 0.737794 0.648042
Si Si2 0.412796 0.884619 0.251363
Si Si3 0.271238 0.109426 0.880618
Si Si4 0.742073 0.271011 0.612252
Si Si5 0.339747 0.390906 0.068814
Si Si6 0.034905 0.613391 0.113673
Si Si7 0.070488 0.225385 0.327912
O O1 0.096191 0.654942 0.674814
O O2 0.212307 0.815509 0.769204
O O3 0.194605 0.711363 0.635700
O O4 0.000000 0.782053 0.500000
O O5 0.516386 0.827459 0.305631
O O6 0.428641 0.000000 0.262718
O O7 0.280669 0.858855 0.089905
O O8 0.195575 0.108409 0.880852
O O9 0.273734 0.000000 0.852893
O O10 0.410175 0.134045 0.036049
O O11 0.841616 0.344079 0.738408
O O12 0.821189 0.219577 0.626342
O O13 0.628483 0.315765 0.458571
O O14 0.365692 0.500000 0.070183
O O15 0.458858 0.327245 0.182200
O O16 0.049537 0.500000 0.125382
O O17 0.000000 0.649159 0.000000
#
# Coordination Sequence:
#
# PCOD9194381 Si02
#       7
#     8   8   8   8   8   8   8
#     4  12  23  41  62  93 125 166 210 258 317 370
#     4  11  24  42  68  93 120 169 222 261 302 366
#     4  10  20  36  62  96 127 160 202 251 310 377
#     4  11  24  38  60  91 124 164 207 253 315 371
#     4  10  21  39  64  93 121 156 203 254 314 374
#     4  10  20  34  55  88 126 161 198 241 300 375
#     4  11  23  42  62  90 124 162 208 260 316 368
#
# _framework density 19.806059999999999
#
# number of rings (size 3 to 8) (size 9 to 14) (size 15 to 20)
#    0.000    1.286    4.286    1.286    2.000    2.857 
#    0.000    2.857    0.000    1.714    0.000    0.000 
#    0.000    0.000    0.000    0.000    0.000    0.000 
#
# Total GULP energy -156062.462932 kJ/mol
# GULP energy per Si atom -5573.659390 kJ/mol
# Density = 1.976098 g / cm^3
# Si number density = 19.806060 Si / 1000 Ang^3
#
#
#
# Elastic Constant Matrix: (Units=GPa)
#
#
# Indices 1 2 3 4 5 6 
#
# 1 99.2408 8.8465 8.5062 0.0000 -0.7693 0.0000
# 2 8.8465 44.3076 31.7746 0.0000 2.7225 0.0000
# 3 8.5062 31.7746 116.3688 0.0000 -4.2396 0.0000
# 4 0.0000 0.0000 0.0000 -4.7871 0.0000 8.6085
# 5 -0.7693 2.7225 -4.2396 0.0000 34.0350 0.0000
# 6 0.0000 0.0000 0.0000 8.6085 0.0000 10.4779
#
#
#
# Elastic Compliance Matrix: (Units=1/GPa)
#
#
# Indices 1 2 3 4 5 6 
#
# 1 0.010269 -0.001919 -0.000213 0.000000 0.000359 0.000000
# 2 -0.001919 0.028778 -0.007839 0.000000 -0.003322 0.000000
# 3 -0.000213 -0.007839 0.010821 0.000000 0.001970 0.000000
# 4 0.000000 0.000000 0.000000 -0.084319 0.000000 0.069275
# 5 0.000359 -0.003322 0.001970 0.000000 0.029901 0.000000
# 6 0.000000 0.000000 0.000000 0.069275 0.000000 0.038524
#
#
# Mechanical properties :
#
#
# Convention : Reuss Voigt Hill
#
# Bulk Modulus (GPa) = 33.41661 39.79688 36.60675
# Shear Modulus (GPa) = 78.25822 21.99781 50.12801
#
# Velocity S-wave (km/s) = 6.29270 3.33627 5.03631
# Velocity P-wave (km/s) = 8.34901 5.91421 7.23477
#
# Compressibility (1/GPa) = 0.02992523
#
# Stress axis : x y z
#
# Youngs Moduli (GPa) = 97.38361 34.74857 92.41204
#
# Poissons Ratio (x) = 0.06669 0.01973
# Poissons Ratio (y) = 0.18690 0.72439
# Poissons Ratio (z) = 0.02079 0.27238
#
# Static dielectric constant tensor:
#      x y z
#    x 1.773660 0.000000 0.001130 
#    y 0.000000 1.703650 0.000000 
#    z 0.001130 0.000000 1.724940 
# 
# From -- ./inp_files/284605.got.cif
#   From: 2010.05.17/outbox.cif.g08.bks.cpg/sg12_143_cif.got.tgz:284605.got - 2010.06.03 13:09:07.
