data_PCOD9194650
_publ_section_title
;
Structure prediction by ZEFSAII (Michael W. Deem and Ramdas Pophale) SiO2 
 PCOD9194650
Probable space group: C 2/M
;
_chemical_formula_sum "Si O2"
_cell_formula_units_Z 56
_cell_length_a 8.117585
_cell_length_b 13.474630
_cell_length_c 28.959973
_cell_angle_alpha 90.000000
_cell_angle_beta 124.537440
_cell_angle_gamma 90.000000
_cell_volume 2609.398336
_symmetry_space_group_name_H-M "C 2/M"
_symmetry_group_IT_number 12
_symmetry_cell_setting 'monoclinic'
loop_
_space_group_symop_operation_xyz
x,y,z
-x,y,-z
-x,-y,-z
x,-y,z
1/2+x,1/2+y,z
1/2-x,1/2+y,-z
1/2-x,1/2-y,-z
1/2+x,1/2-y,z
loop_
_atom_site_type_symbol
_atom_site_label
_atom_site_fract_x
_atom_site_fract_y
_atom_site_fract_z
Si Si1 0.925459 0.000000 0.059866
Si Si2 0.696858 0.815459 0.781648
Si Si3 0.075953 0.324611 0.859512
Si Si4 0.781624 0.311089 0.957446
Si Si5 0.302309 0.683760 0.702139
Si Si6 0.343515 0.000000 0.073660
Si Si7 0.400591 0.613740 0.433844
Si Si8 0.598031 0.301276 0.378717
O O1 0.874298 0.898341 0.076577
O O2 0.145907 0.000000 0.074750
O O3 0.763219 0.000000 0.992191
O O4 0.637835 0.869270 0.819796
O O5 0.507938 0.742758 0.743241
O O6 0.745628 0.870820 0.741093
O O7 0.888067 0.746533 0.822333
O O8 0.259322 0.264043 0.911488
O O9 0.030551 0.405519 0.891297
O O10 0.750000 0.250000 0.000000
O O11 0.000000 0.354242 0.000000
O O12 0.323432 0.639048 0.653955
O O13 0.124600 0.763290 0.668217
O O14 0.500000 0.616975 0.500000
O O15 0.325289 0.500000 0.414117
O O16 0.566680 0.638970 0.421022
O O17 0.234556 0.701875 0.405841
#
# Coordination Sequence:
#
# PCOD9194650 Si02
#       8
#     4   8   8   8   8   4   8   8
#     4  11  23  38  54  80 108 136 176 224 250 332
#     4   9  18  34  58  80 103 138 182 233 285 334
#     4  11  21  35  57  80 105 142 173 221 282 340
#     4  12  23  38  57  82 106 138 176 212 273 337
#     4   8  16  33  61  79 107 147 195 235 288 329
#     4  11  22  36  56  76 110 140 176 212 265 336
#     4  10  20  34  56  90 129 164 203 246 294 348
#     4   9  17  34  61  86 117 163 201 244 290 345
#
# _framework density 21.460885999999999
#
# number of rings (size 3 to 8) (size 9 to 14) (size 15 to 20)
#    0.000    2.000    1.429    3.214    0.000    0.000 
#    0.000    2.857   59.714    7.714    0.000    0.000 
#    0.000    0.000    0.000    0.000    0.000    0.000 
#
# Total GULP energy -155964.500932 kJ/mol
# GULP energy per Si atom -5570.160748 kJ/mol
# Density = 2.141204 g / cm^3
# Si number density = 21.460886 Si / 1000 Ang^3
#
#
#
# Elastic Constant Matrix: (Units=GPa)
#
#
# Indices 1 2 3 4 5 6 
#
# 1 82.7947 7.7571 30.5743 0.0000 -19.8546 0.0000
# 2 7.7571 70.5996 17.9922 0.0000 -3.7239 0.0000
# 3 30.5743 17.9922 90.6952 0.0000 -24.8312 0.0000
# 4 0.0000 0.0000 0.0000 2.2071 0.0000 2.9421
# 5 -19.8546 -3.7239 -24.8312 0.0000 53.0060 0.0000
# 6 0.0000 0.0000 0.0000 2.9421 0.0000 18.4307
#
#
#
# Elastic Compliance Matrix: (Units=1/GPa)
#
#
# Indices 1 2 3 4 5 6 
#
# 1 0.014373 -0.000427 -0.003780 0.000000 0.003583 0.000000
# 2 -0.000427 0.014938 -0.002955 0.000000 -0.000495 0.000000
# 3 -0.003780 -0.002955 0.014272 0.000000 0.005063 0.000000
# 4 0.000000 0.000000 0.000000 0.575551 0.000000 -0.091874
# 5 0.003583 -0.000495 0.005063 0.000000 0.022545 0.000000
# 6 0.000000 0.000000 0.000000 -0.091874 0.000000 0.068923
#
#
# Mechanical properties :
#
#
# Convention : Reuss Voigt Hill
#
# Bulk Modulus (GPa) = 34.17563 39.63740 36.90651
# Shear Modulus (GPa) = 6.80569 27.24647 17.02608
#
# Velocity S-wave (km/s) = 1.78272 3.56699 2.81971
# Velocity P-wave (km/s) = 4.49407 5.95603 5.27593
#
# Compressibility (1/GPa) = 0.02926062
#
# Stress axis : x y z
#
# Youngs Moduli (GPa) = 69.57467 66.94209 70.06526
#
# Poissons Ratio (x) = 0.02859 0.26482
# Poissons Ratio (y) = 0.02971 0.20704
# Poissons Ratio (z) = 0.26296 0.19781
#
# Static dielectric constant tensor:
#      x y z
#    x 1.832440 0.000000 -0.064820 
#    y 0.000000 1.825340 0.000000 
#    z -0.064820 0.000000 1.786770 
# 
# From -- ./inp_files/372407.got.cif
#   From: 2010.05.17/outbox.cif.g08.bks.cpg/sg12_187_cif.got.tgz:372407.got - 2010.06.03 13:09:07.
