data_PCOD9194926
_publ_section_title
;
Structure prediction by ZEFSAII (Michael W. Deem and Ramdas Pophale) SiO2 
 PCOD9194926
Probable space group: C 2/M
;
_chemical_formula_sum "Si O2"
_cell_formula_units_Z 40
_cell_length_a 7.983399
_cell_length_b 20.529385
_cell_length_c 10.848288
_cell_angle_alpha 90.000000
_cell_angle_beta 90.047650
_cell_angle_gamma 90.000000
_cell_volume 1777.971646
_symmetry_space_group_name_H-M "C 2/M"
_symmetry_group_IT_number 12
_symmetry_cell_setting 'monoclinic'
loop_
_space_group_symop_operation_xyz
x,y,z
-x,y,-z
-x,-y,-z
x,-y,z
1/2+x,1/2+y,z
1/2-x,1/2+y,-z
1/2-x,1/2-y,-z
1/2+x,1/2-y,z
loop_
_atom_site_type_symbol
_atom_site_label
_atom_site_fract_x
_atom_site_fract_y
_atom_site_fract_z
Si Si1 0.940212 0.605149 0.133733
Si Si2 0.952851 0.750207 0.210296
Si Si3 0.246266 0.428107 0.315498
Si Si4 0.804602 0.706144 0.611278
Si Si5 0.054534 0.108282 0.139273
O O1 0.746900 0.587032 0.161049
O O2 0.941672 0.684457 0.133668
O O3 0.080488 0.581420 0.230297
O O4 0.000000 0.582190 0.000000
O O5 0.011471 0.725842 0.346308
O O6 0.045139 0.812778 0.154079
O O7 0.776103 0.780599 0.252653
O O8 0.245936 0.500000 0.369556
O O9 0.233643 0.369143 0.412417
O O10 0.414805 0.419124 0.233356
O O11 0.750000 0.750000 0.500000
O O12 0.000000 0.091699 0.000000
#
# Coordination Sequence:
#
# PCOD9194926 Si02
#       5
#     8   8   8   8   8
#     4  11  21  36  58  91 126 168 207 251 307 370
#     4  10  20  34  58  90 120 152 200 264 320 362
#     4  10  24  41  59  89 127 167 208 254 309 371
#     4  10  20  37  63  87 115 153 207 266 315 367
#     4  11  21  36  58  91 126 168 207 251 307 370
#
# _framework density 22.497546
#
# number of rings (size 3 to 8) (size 9 to 14) (size 15 to 20)
#    0.000    1.600    4.000    1.200    0.000    3.200 
#    0.000    0.000    0.000   19.200    0.000    0.000 
#    0.000    0.000    0.000    0.000    0.000    0.000 
#
# Total GULP energy -111516.898198 kJ/mol
# GULP energy per Si atom -5575.844910 kJ/mol
# Density = 2.244634 g / cm^3
# Si number density = 22.497546 Si / 1000 Ang^3
#
#
#
# Elastic Constant Matrix: (Units=GPa)
#
#
# Indices 1 2 3 4 5 6 
#
# 1 146.1325 9.1488 28.7321 0.0000 -17.3107 0.0000
# 2 9.1488 129.8444 23.2698 0.0000 8.8386 0.0000
# 3 28.7321 23.2698 47.8101 0.0000 -2.3484 0.0000
# 4 0.0000 0.0000 0.0000 3.7848 0.0000 0.7046
# 5 -17.3107 8.8386 -2.3484 0.0000 19.8142 0.0000
# 6 0.0000 0.0000 0.0000 0.7046 0.0000 3.6199
#
#
#
# Elastic Compliance Matrix: (Units=1/GPa)
#
#
# Indices 1 2 3 4 5 6 
#
# 1 0.008625 -0.000245 -0.004716 0.000000 0.007086 0.000000
# 2 -0.000245 0.008821 -0.004375 0.000000 -0.004667 0.000000
# 3 -0.004716 -0.004375 0.025924 0.000000 0.000904 0.000000
# 4 0.000000 0.000000 0.000000 0.274149 0.000000 -0.053359
# 5 0.007086 -0.004667 0.000904 0.000000 0.058848 0.000000
# 6 0.000000 0.000000 0.000000 -0.053359 0.000000 0.286638
#
#
# Mechanical properties :
#
#
# Convention : Reuss Voigt Hill
#
# Bulk Modulus (GPa) = 40.49001 49.56539 45.02770
# Shear Modulus (GPa) = 7.24733 22.95287 15.10010
#
# Velocity S-wave (km/s) = 1.79677 3.19758 2.59354
# Velocity P-wave (km/s) = 4.72664 5.97595 5.38763
#
# Compressibility (1/GPa) = 0.02469745
#
# Stress axis : x y z
#
# Youngs Moduli (GPa) = 115.94130 113.37151 38.57404
#
# Poissons Ratio (x) = 0.02776 0.18192
# Poissons Ratio (y) = 0.02839 0.16877
# Poissons Ratio (z) = 0.54680 0.49602
#
# Static dielectric constant tensor:
#      x y z
#    x 1.989310 0.000000 -0.008590 
#    y 0.000000 1.914420 0.000000 
#    z -0.008590 0.000000 1.792730 
# 
# From -- ./inp_files/120141.got.cif
#   From: 2010.05.17/outbox.cif.g08.bks.cpg/sg12_61_cif.got.tgz:120141.got - 2010.06.03 13:09:07.
