data_PCOD9194696
_publ_section_title
;
Structure prediction by ZEFSAII (Michael W. Deem and Ramdas Pophale) SiO2 
 PCOD9194696
Probable space group: C 2/M
;
_chemical_formula_sum "Si O2"
_cell_formula_units_Z 40
_cell_length_a 21.328346
_cell_length_b 7.668745
_cell_length_c 31.899423
_cell_angle_alpha 90.000000
_cell_angle_beta 19.480241
_cell_angle_gamma 90.000000
_cell_volume 1739.948474
_symmetry_space_group_name_H-M "C 2/M"
_symmetry_group_IT_number 12
_symmetry_cell_setting 'monoclinic'
loop_
_space_group_symop_operation_xyz
x,y,z
-x,y,-z
-x,-y,-z
x,-y,z
1/2+x,1/2+y,z
1/2-x,1/2+y,-z
1/2-x,1/2-y,-z
1/2+x,1/2-y,z
loop_
_atom_site_type_symbol
_atom_site_label
_atom_site_fract_x
_atom_site_fract_y
_atom_site_fract_z
Si Si1 0.273418 0.712272 0.689510
Si Si2 0.312303 0.287156 0.568160
Si Si3 0.081572 0.706820 0.637357
Si Si4 0.362938 0.209638 0.971414
Si Si5 0.815075 0.293824 0.094008
O O1 0.272787 0.500000 0.691694
O O2 0.477262 0.768617 0.577945
O O3 0.274719 0.762914 0.639642
O O4 0.079441 0.772656 0.831812
O O5 0.311654 0.500000 0.567838
O O6 0.154735 0.223197 0.635964
O O7 0.065942 0.500000 0.649465
O O8 0.250000 0.750000 0.500000
O O9 0.873261 0.773471 0.760182
O O10 0.366532 0.000000 0.970255
O O11 0.250000 0.250000 0.000000
O O12 0.285147 0.274855 0.065297
O O13 0.847455 0.500000 0.068987
O O14 0.000000 0.219843 0.000000
#
# Coordination Sequence:
#
# PCOD9194696 Si02
#       5
#     8   8   8   8   8
#     4   8  14  27  50  80 106 137 184 234 280 335
#     4   8  15  28  50  79 109 139 183 235 282 338
#     4  11  23  38  60  86 116 156 198 246 298 356
#     4  10  20  34  57  84 115 154 196 244 297 355
#     4  10  23  41  61  87 121 162 206 251 297 355
#
# _framework density 22.989187000000001
#
# number of rings (size 3 to 8) (size 9 to 14) (size 15 to 20)
#    0.000    2.600    0.000    3.000    2.800    2.800 
#    0.000    0.000    0.000    0.000    0.000    7.000 
#    0.000    0.000    0.000    0.000    0.000    0.000 
#
# Total GULP energy -111647.537810 kJ/mol
# GULP energy per Si atom -5582.376891 kJ/mol
# Density = 2.293686 g / cm^3
# Si number density = 22.989187 Si / 1000 Ang^3
#
#
#
# Elastic Constant Matrix: (Units=GPa)
#
#
# Indices 1 2 3 4 5 6 
#
# 1 82.4184 7.9938 45.9364 0.0778 -16.6733 -0.2476
# 2 7.9938 44.0893 -5.5378 -0.0438 -1.1163 0.0872
# 3 45.9364 -5.5378 155.3309 0.1302 -14.7846 -0.3070
# 4 0.0778 -0.0438 0.1302 12.2818 0.0798 1.0954
# 5 -16.6733 -1.1163 -14.7846 0.0798 32.7325 -0.1698
# 6 -0.2476 0.0872 -0.3070 1.0954 -0.1698 12.1413
#
#
#
# Elastic Compliance Matrix: (Units=1/GPa)
#
#
# Indices 1 2 3 4 5 6 
#
# 1 0.016089 -0.003301 -0.004290 -0.000139 0.006147 0.000342
# 2 -0.003301 0.023506 0.001808 0.000104 -0.000065 -0.000201
# 3 -0.004290 0.001808 0.007909 -0.000071 0.001450 0.000126
# 4 -0.000139 0.000104 -0.000071 0.082087 -0.000338 -0.007416
# 5 0.006147 -0.000065 0.001450 -0.000338 0.034339 0.000673
# 6 0.000342 -0.000201 0.000126 -0.007416 0.000673 0.083054
#
#
# Mechanical properties :
#
#
# Convention : Reuss Voigt Hill
#
# Bulk Modulus (GPa) = 27.82619 42.06928 34.94774
# Shear Modulus (GPa) = 18.48226 26.99418 22.73822
#
# Velocity S-wave (km/s) = 2.83849 3.43040 3.14838
# Velocity P-wave (km/s) = 4.78257 5.83348 5.33397
#
# Compressibility (1/GPa) = 0.03593737
#
# Stress axis : x y z
#
# Youngs Moduli (GPa) = 62.15372 42.54292 126.43408
#
# Poissons Ratio (x) = 0.14044 0.54238
# Poissons Ratio (y) = 0.20518 -0.22854
# Poissons Ratio (z) = 0.26663 -0.07690
#
# Static dielectric constant tensor:
#      x y z
#    x 1.871550 -0.000120 0.000070 
#    y -0.000120 1.860420 0.000070 
#    z 0.000070 0.000070 1.860760 
# 
# From -- ./inp_files/380512.got.cif
#   From: 2010.05.17/outbox.cif.g08.bks.cpg/sg12_191_cif.got.tgz:380512.got - 2010.06.03 13:09:07.
