data_PCOD9194749
_publ_section_title
;
Structure prediction by ZEFSAII (Michael W. Deem and Ramdas Pophale) SiO2 
 PCOD9194749
Probable space group: C 2/M
;
_chemical_formula_sum "Si O2"
_cell_formula_units_Z 60
_cell_length_a 21.053467
_cell_length_b 9.093234
_cell_length_c 19.160057
_cell_angle_alpha 90.000000
_cell_angle_beta 130.083876
_cell_angle_gamma 90.000000
_cell_volume 2806.457612
_symmetry_space_group_name_H-M "C 2/M"
_symmetry_group_IT_number 12
_symmetry_cell_setting 'monoclinic'
loop_
_space_group_symop_operation_xyz
x,y,z
-x,y,-z
-x,-y,-z
x,-y,z
1/2+x,1/2+y,z
1/2-x,1/2+y,-z
1/2-x,1/2-y,-z
1/2+x,1/2-y,z
loop_
_atom_site_type_symbol
_atom_site_label
_atom_site_fract_x
_atom_site_fract_y
_atom_site_fract_z
Si Si1 0.000000 0.244994 0.000000
Si Si2 0.961626 0.328557 0.396261
Si Si3 0.926437 0.166494 0.802387
Si Si4 0.835413 0.667234 0.955522
Si Si5 0.667190 0.323697 0.774460
Si Si6 0.283195 0.172726 0.634489
Si Si7 0.583007 0.178601 0.847959
Si Si8 0.367315 0.825998 0.542244
O O1 0.960172 0.163204 0.905551
O O2 0.922294 0.331907 0.976481
O O3 0.943796 0.500000 0.369415
O O4 0.878281 0.238279 0.325596
O O5 0.000000 0.316068 0.500000
O O6 0.037459 0.279867 0.399769
O O7 0.836706 0.240962 0.729701
O O8 0.992450 0.265948 0.806971
O O9 0.924384 0.000000 0.773614
O O10 0.810667 0.500000 0.952354
O O11 0.760934 0.729552 0.856669
O O12 0.855817 0.731618 0.045883
O O13 0.663593 0.500000 0.770250
O O14 0.614451 0.255066 0.800651
O O15 0.334133 0.191383 0.597427
O O16 0.193842 0.239601 0.552678
O O17 0.278304 0.000000 0.647506
O O18 0.583211 0.000000 0.843062
O O19 0.363306 0.000000 0.522350
#
# Coordination Sequence:
#
# PCOD9194749 Si02
#       8
#     4   8   8   8   8   8   8   8
#     4  10  22  40  58  80 115 160 199 234 277 334
#     4  10  22  40  59  80 110 152 196 236 284 342
#     4  11  22  37  57  84 118 154 194 239 286 335
#     4   9  20  37  59  87 118 152 190 234 284 340
#     4  11  22  37  59  88 117 147 189 241 293 341
#     4  10  20  34  57  87 114 146 188 232 285 343
#     4  10  20  37  60  86 116 152 192 234 285 342
#     4   9  19  37  58  81 112 144 183 236 286 337
#
# _framework density 21.379266000000001
#
# number of rings (size 3 to 8) (size 9 to 14) (size 15 to 20)
#    0.000    2.000    0.000    3.200    0.000    5.067 
#    0.000   10.000    0.000    0.000    0.000    0.000 
#    0.000    0.000    0.000    0.000    0.000    0.000 
#
# Total GULP energy -167494.454737 kJ/mol
# GULP energy per Si atom -5583.148491 kJ/mol
# Density = 2.133061 g / cm^3
# Si number density = 21.379266 Si / 1000 Ang^3
#
#
#
# Elastic Constant Matrix: (Units=GPa)
#
#
# Indices 1 2 3 4 5 6 
#
# 1 29.3005 4.0290 22.2024 0.0000 4.1673 0.0000
# 2 4.0290 75.1988 54.8945 0.0000 10.7661 0.0000
# 3 22.2024 54.8945 153.5699 0.0000 33.9405 0.0000
# 4 0.0000 0.0000 0.0000 11.0853 0.0000 -4.2352
# 5 4.1673 10.7661 33.9405 0.0000 28.7030 0.0000
# 6 0.0000 0.0000 0.0000 -4.2352 0.0000 9.7872
#
#
#
# Elastic Compliance Matrix: (Units=1/GPa)
#
#
# Indices 1 2 3 4 5 6 
#
# 1 0.038785 0.002765 -0.006934 0.000000 0.001531 0.000000
# 2 0.002765 0.018219 -0.007193 0.000000 0.001270 0.000000
# 3 -0.006934 -0.007193 0.012545 0.000000 -0.011129 0.000000
# 4 0.000000 0.000000 0.000000 0.108078 0.000000 0.046769
# 5 0.001531 0.001270 -0.011129 0.000000 0.047301 0.000000
# 6 0.000000 0.000000 0.000000 0.046769 0.000000 0.122413
#
#
# Mechanical properties :
#
#
# Convention : Reuss Voigt Hill
#
# Bulk Modulus (GPa) = 21.35634 46.70231 34.02932
# Shear Modulus (GPa) = 12.96430 21.71131 17.33781
#
# Velocity S-wave (km/s) = 2.46518 3.19020 2.85083
# Velocity P-wave (km/s) = 4.25603 5.95499 5.17570
#
# Compressibility (1/GPa) = 0.04682451
#
# Stress axis : x y z
#
# Youngs Moduli (GPa) = 25.78293 54.88826 79.71283
#
# Poissons Ratio (x) = -0.15174 0.55273
# Poissons Ratio (y) = -0.07128 0.57336
# Poissons Ratio (z) = 0.17878 0.39480
#
# Static dielectric constant tensor:
#      x y z
#    x 1.777820 0.000000 -0.024240 
#    y 0.000000 1.738850 0.000000 
#    z -0.024240 0.000000 1.819830 
# 
# From -- ./inp_files/320518.got.cif
#   From: 2010.05.17/outbox.cif.g08.bks.cpg/sg12_161_cif.got.tgz:320518.got - 2010.06.03 13:09:07.
