data_PCOD9194738
_publ_section_title
;
Structure prediction by ZEFSAII (Michael W. Deem and Ramdas Pophale) SiO2 
 PCOD9194738
Probable space group: C 2/M
;
_chemical_formula_sum "Si O2"
_cell_formula_units_Z 56
_cell_length_a 29.495920
_cell_length_b 9.161117
_cell_length_c 21.795467
_cell_angle_alpha 90.000000
_cell_angle_beta 150.420799
_cell_angle_gamma 90.000000
_cell_volume 2907.198968
_symmetry_space_group_name_H-M "C 2/M"
_symmetry_group_IT_number 12
_symmetry_cell_setting 'monoclinic'
loop_
_space_group_symop_operation_xyz
x,y,z
-x,y,-z
-x,-y,-z
x,-y,z
1/2+x,1/2+y,z
1/2-x,1/2+y,-z
1/2-x,1/2-y,-z
1/2+x,1/2-y,z
loop_
_atom_site_type_symbol
_atom_site_label
_atom_site_fract_x
_atom_site_fract_y
_atom_site_fract_z
Si Si1 0.107076 0.674150 0.114515
Si Si2 0.795167 0.674092 0.642748
Si Si3 0.580700 0.827786 0.546502
Si Si4 0.213875 0.173666 0.896423
Si Si5 0.614601 0.173056 0.377772
Si Si6 0.500716 0.328009 0.337867
Si Si7 0.272493 0.326856 0.842087
O O1 0.117938 0.500000 0.116787
O O2 0.163985 0.711831 0.243070
O O3 0.146470 0.761847 0.103576
O O4 0.000000 0.702878 0.000000
O O5 0.774798 0.500000 0.617712
O O6 0.704275 0.762081 0.517554
O O7 0.868551 0.701456 0.674499
O O8 0.500000 0.793261 0.500000
O O9 0.564808 0.735206 0.466947
O O10 0.678265 0.801850 0.693018
O O11 0.573327 0.000000 0.522693
O O12 0.104054 0.198915 0.765596
O O13 0.260670 0.245129 0.892403
O O14 0.229761 0.000000 0.916639
O O15 0.250000 0.250000 0.000000
O O16 0.527616 0.249024 0.306442
O O17 0.609967 0.000000 0.381507
O O18 0.514699 0.500000 0.347605
O O19 0.282444 0.500000 0.863365
#
# Coordination Sequence:
#
# PCOD9194738 Si02
#       7
#     8   8   8   8   8   8   8
#     4  10  22  40  61  85 116 155 201 247 297 355
#     4   9  19  37  58  83 114 150 194 244 296 350
#     4  10  20  36  60  89 121 156 194 240 295 352
#     4  11  25  43  62  85 117 158 200 242 292 351
#     4  10  20  34  57  86 117 153 192 238 296 353
#     4  11  23  37  57  88 121 155 197 241 292 352
#     4  11  23  40  63  91 122 156 198 248 301 353
#
# _framework density 19.262526999999999
#
# number of rings (size 3 to 8) (size 9 to 14) (size 15 to 20)
#    0.000    1.714    1.429    2.571    0.000    8.000 
#    0.000    1.429    0.000    0.000    0.000    0.000 
#    0.000    0.000    0.000    0.000    0.000    0.000 
#
# Total GULP energy -156523.541894 kJ/mol
# GULP energy per Si atom -5590.126496 kJ/mol
# Density = 1.921868 g / cm^3
# Si number density = 19.262527 Si / 1000 Ang^3
#
#
#
# Elastic Constant Matrix: (Units=GPa)
#
#
# Indices 1 2 3 4 5 6 
#
# 1 159.4837 81.5365 42.2389 0.0000 -8.0873 0.0000
# 2 81.5365 71.4610 42.0235 0.0000 -7.8851 0.0000
# 3 42.2389 42.0235 47.0064 0.0000 -13.4152 0.0000
# 4 0.0000 0.0000 0.0000 25.6286 0.0000 0.3871
# 5 -8.0873 -7.8851 -13.4152 0.0000 27.3874 0.0000
# 6 0.0000 0.0000 0.0000 0.3871 0.0000 39.7220
#
#
#
# Elastic Compliance Matrix: (Units=1/GPa)
#
#
# Indices 1 2 3 4 5 6 
#
# 1 0.015406 -0.020006 0.004298 0.000000 0.000894 0.000000
# 2 -0.020006 0.056123 -0.034028 0.000000 -0.006417 0.000000
# 3 0.004298 -0.034028 0.052777 0.000000 0.017324 0.000000
# 4 0.000000 0.000000 0.000000 0.039025 0.000000 -0.000380
# 5 0.000894 -0.006417 0.017324 0.000000 0.043415 0.000000
# 6 0.000000 0.000000 0.000000 -0.000380 0.000000 0.025179
#
#
# Mechanical properties :
#
#
# Convention : Reuss Voigt Hill
#
# Bulk Modulus (GPa) = 40.27026 67.72766 53.99896
# Shear Modulus (GPa) = 14.71994 26.02442 20.37218
#
# Velocity S-wave (km/s) = 2.76737 3.67964 3.25562
# Velocity P-wave (km/s) = 5.58234 7.29997 6.49816
#
# Compressibility (1/GPa) = 0.02483222
#
# Stress axis : x y z
#
# Youngs Moduli (GPa) = 64.91119 17.81796 18.94768
#
# Poissons Ratio (x) = 0.35647 -0.08143
# Poissons Ratio (y) = 1.29863 0.64475
# Poissons Ratio (z) = -0.27896 0.60631
#
# Static dielectric constant tensor:
#      x y z
#    x 1.673350 0.000000 0.010760 
#    y 0.000000 1.639450 0.000000 
#    z 0.010760 0.000000 1.652420 
# 
# From -- ./inp_files/329614.got.cif
#   From: 2010.05.17/outbox.cif.g08.bks.cpg/sg12_165_cif.got.tgz:329614.got - 2010.06.03 13:09:07.
