data_PCOD9194404
_publ_section_title
;
Structure prediction by ZEFSAII (Michael W. Deem and Ramdas Pophale) SiO2 
 PCOD9194404
Probable space group: C 2/M
;
_chemical_formula_sum "Si O2"
_cell_formula_units_Z 48
_cell_length_a 17.173421
_cell_length_b 18.915043
_cell_length_c 14.285971
_cell_angle_alpha 90.000000
_cell_angle_beta 147.035015
_cell_angle_gamma 90.000000
_cell_volume 2525.071677
_symmetry_space_group_name_H-M "C 2/M"
_symmetry_group_IT_number 12
_symmetry_cell_setting 'monoclinic'
loop_
_space_group_symop_operation_xyz
x,y,z
-x,y,-z
-x,-y,-z
x,-y,z
1/2+x,1/2+y,z
1/2-x,1/2+y,-z
1/2-x,1/2-y,-z
1/2+x,1/2-y,z
loop_
_atom_site_type_symbol
_atom_site_label
_atom_site_fract_x
_atom_site_fract_y
_atom_site_fract_z
Si Si1 0.509369 0.341145 0.718092
Si Si2 0.784599 0.808895 0.337937
Si Si3 0.518709 0.719672 0.122722
Si Si4 0.364434 0.080660 0.932166
Si Si5 0.290451 0.917985 0.059079
Si Si6 0.311872 0.220091 0.199024
O O1 0.388423 0.344808 0.517219
O O2 0.438171 0.329222 0.747742
O O3 0.593099 0.270259 0.769777
O O4 0.631260 0.399827 0.858035
O O5 0.635263 0.781352 0.230998
O O6 0.751937 0.866227 0.225663
O O7 0.842216 0.740600 0.338028
O O8 0.500000 0.686604 0.000000
O O9 0.355751 0.741424 0.980184
O O10 0.313630 0.000000 0.874214
O O11 0.500000 0.087439 0.000000
O O12 0.390886 0.092989 0.068977
O O13 0.321090 0.860121 0.170594
O O14 0.298892 0.000000 0.096823
#
# Coordination Sequence:
#
# PCOD9194404 Si02
#       6
#     8   8   8   8   8   8
#     4  11  21  34  54  87 110 140 179 233 281 318
#     4  11  21  33  55  82 117 142 173 229 282 325
#     4   9  19  33  53  76 105 143 180 219 262 320
#     4  10  21  34  52  80 113 151 185 219 273 338
#     4  10  21  36  56  79 109 149 189 227 267 324
#     4  10  20  34  56  80 106 144 189 224 262 321
#
# _framework density 19.009360000000001
#
# number of rings (size 3 to 8) (size 9 to 14) (size 15 to 20)
#    0.000    1.833    1.667    4.500    4.667    0.667 
#    0.000    1.667    0.000   34.000    0.000    0.000 
#    0.000    0.000    0.000    0.000    0.000    0.000 
#
# Total GULP energy -133624.217399 kJ/mol
# GULP energy per Si atom -5567.675725 kJ/mol
# Density = 1.896609 g / cm^3
# Si number density = 19.009360 Si / 1000 Ang^3
#
#
#
# Elastic Constant Matrix: (Units=GPa)
#
#
# Indices 1 2 3 4 5 6 
#
# 1 69.0705 26.1846 -0.2688 0.0000 -10.7299 0.0000
# 2 26.1846 100.2575 9.1539 0.0000 -2.2934 0.0000
# 3 -0.2688 9.1539 32.7607 0.0000 -12.6321 0.0000
# 4 0.0000 0.0000 0.0000 7.2480 0.0000 -0.9216
# 5 -10.7299 -2.2934 -12.6321 0.0000 30.9768 0.0000
# 6 0.0000 0.0000 0.0000 -0.9216 0.0000 26.7704
#
#
#
# Elastic Compliance Matrix: (Units=1/GPa)
#
#
# Indices 1 2 3 4 5 6 
#
# 1 0.017473 -0.004791 0.004365 0.000000 0.007478 0.000000
# 2 -0.004791 0.011555 -0.004246 0.000000 -0.002535 0.000000
# 3 0.004365 -0.004246 0.038218 0.000000 0.016783 0.000000
# 4 0.000000 0.000000 0.000000 0.138576 0.000000 0.004771
# 5 0.007478 -0.002535 0.016783 0.000000 0.041529 0.000000
# 6 0.000000 0.000000 0.000000 0.004771 0.000000 0.037519
#
#
# Mechanical properties :
#
#
# Convention : Reuss Voigt Hill
#
# Bulk Modulus (GPa) = 17.27017 30.24756 23.75887
# Shear Modulus (GPa) = 15.94829 24.13363 20.04096
#
# Velocity S-wave (km/s) = 2.89964 3.56696 3.25047
# Velocity P-wave (km/s) = 4.50726 5.73679 5.15879
#
# Compressibility (1/GPa) = 0.05790332
#
# Stress axis : x y z
#
# Youngs Moduli (GPa) = 57.23163 86.54081 26.16592
#
# Poissons Ratio (x) = 0.41461 -0.11423
# Poissons Ratio (y) = 0.27420 0.11109
# Poissons Ratio (z) = -0.24984 0.36742
#
# Static dielectric constant tensor:
#      x y z
#    x 1.745600 0.000000 -0.008280 
#    y 0.000000 1.670880 0.000000 
#    z -0.008280 0.000000 1.712860 
# 
# From -- ./inp_files/226944.got.cif
#   From: 2010.05.17/outbox.cif.g08.bks.cpg/sg12_114_cif.got.tgz:226944.got - 2010.06.03 13:09:07.
