data_PCOD9194638
_publ_section_title
;
Structure prediction by ZEFSAII (Michael W. Deem and Ramdas Pophale) SiO2 
 PCOD9194638
Probable space group: C 2/M
;
_chemical_formula_sum "Si O2"
_cell_formula_units_Z 64
_cell_length_a 19.971198
_cell_length_b 8.056463
_cell_length_c 24.888282
_cell_angle_alpha 90.000000
_cell_angle_beta 49.373802
_cell_angle_gamma 90.000000
_cell_volume 3039.276145
_symmetry_space_group_name_H-M "C 2/M"
_symmetry_group_IT_number 12
_symmetry_cell_setting 'monoclinic'
loop_
_space_group_symop_operation_xyz
x,y,z
-x,y,-z
-x,-y,-z
x,-y,z
1/2+x,1/2+y,z
1/2-x,1/2+y,-z
1/2-x,1/2-y,-z
1/2+x,1/2-y,z
loop_
_atom_site_type_symbol
_atom_site_label
_atom_site_fract_x
_atom_site_fract_y
_atom_site_fract_z
Si Si1 0.255588 0.306416 0.396782
Si Si2 0.589064 0.188618 0.619466
Si Si3 0.070710 0.195850 0.226256
Si Si4 0.451478 0.297759 0.880499
Si Si5 0.748531 0.701339 0.818870
Si Si6 0.092280 0.202699 0.979514
Si Si7 0.153964 0.202113 0.760216
Si Si8 0.440243 0.306709 0.482116
O O1 0.233671 0.500000 0.400688
O O2 0.324332 0.292131 0.409934
O O3 0.307868 0.243898 0.316805
O O4 0.163436 0.213990 0.451368
O O5 0.513490 0.219232 0.702938
O O6 0.548840 0.226480 0.582132
O O7 0.618838 0.000000 0.604839
O O8 0.156937 0.228535 0.215806
O O9 0.088225 0.253415 0.155948
O O10 0.050201 0.000000 0.235142
O O11 0.449590 0.500000 0.883543
O O12 0.407569 0.240161 0.958745
O O13 0.553964 0.245708 0.824344
O O14 0.752753 0.500000 0.817781
O O15 0.715515 0.752188 0.777352
O O16 0.675205 0.755548 0.900645
O O17 0.092735 0.000000 0.978942
O O18 0.000000 0.252463 0.000000
O O19 0.151475 0.000000 0.760222
O O20 0.500000 0.238987 0.500000
O O21 0.462855 0.500000 0.464565
#
# Coordination Sequence:
#
# PCOD9194638 Si02
#       8
#     8   8   8   8   8   8   8   8
#     4  11  22  40  66  94 125 164 206 248 299 359
#     4  12  25  43  67  92 121 159 205 253 302 359
#     4  11  23  39  58  83 121 163 199 244 308 369
#     4   9  16  31  55  83 113 153 200 245 296 357
#     4  10  20  34  56  89 120 152 201 257 304 354
#     4   9  15  27  53  85 115 148 198 256 303 351
#     4   9  17  32  57  87 117 152 198 248 295 348
#     4  11  26  46  66  94 130 163 198 244 298 356
#
# _framework density 21.057645999999998
#
# number of rings (size 3 to 8) (size 9 to 14) (size 15 to 20)
#    0.000    1.750    2.500    2.625    1.750    1.500 
#    0.000    0.625    0.000    1.125    0.000    0.000 
#    0.000    0.000    0.000    0.000    0.000    0.000 
#
# Total GULP energy -178793.508780 kJ/mol
# GULP energy per Si atom -5587.297149 kJ/mol
# Density = 2.100972 g / cm^3
# Si number density = 21.057646 Si / 1000 Ang^3
#
#
#
# Elastic Constant Matrix: (Units=GPa)
#
#
# Indices 1 2 3 4 5 6 
#
# 1 105.4422 -5.5216 15.0982 -0.0001 15.1440 0.0006
# 2 -5.5216 20.6215 2.4356 -0.0002 6.3310 0.0007
# 3 15.0982 2.4356 79.8789 -0.0001 18.9543 0.0000
# 4 -0.0001 -0.0002 -0.0001 10.9071 0.0000 -6.0650
# 5 15.1440 6.3310 18.9543 0.0000 37.5987 0.0000
# 6 0.0006 0.0007 0.0000 -6.0650 0.0000 14.5730
#
#
#
# Elastic Compliance Matrix: (Units=1/GPa)
#
#
# Indices 1 2 3 4 5 6 
#
# 1 0.010495 0.004291 -0.001068 0.000000 -0.004411 -0.000001
# 2 0.004291 0.052912 0.000113 -0.000001 -0.010695 -0.000003
# 3 -0.001068 0.000113 0.014335 0.000000 -0.006815 0.000000
# 4 0.000000 -0.000001 0.000000 0.119289 0.000000 0.049645
# 5 -0.004411 -0.010695 -0.006815 0.000000 0.033610 0.000001
# 6 -0.000001 -0.000003 0.000000 0.049645 0.000001 0.089281
#
#
# Mechanical properties :
#
#
# Convention : Reuss Voigt Hill
#
# Bulk Modulus (GPa) = 11.84638 25.55190 18.69914
# Shear Modulus (GPa) = 14.64613 25.54446 20.09530
#
# Velocity S-wave (km/s) = 2.64014 3.48670 3.09253
# Velocity P-wave (km/s) = 3.86416 5.32635 4.65305
#
# Compressibility (1/GPa) = 0.08441394
#
# Stress axis : x y z
#
# Youngs Moduli (GPa) = 95.28335 18.89932 69.76170
#
# Poissons Ratio (x) = -0.08109 0.07449
# Poissons Ratio (y) = -0.40882 -0.00791
# Poissons Ratio (z) = 0.10174 -0.00214
#
# Static dielectric constant tensor:
#      x y z
#    x 1.730570 0.000000 0.033260 
#    y 0.000000 1.743010 0.000000 
#    z 0.033260 0.000000 1.746370 
# 
# From -- ./inp_files/346052.got.cif
#   From: 2010.05.17/outbox.cif.g08.bks.cpg/sg12_174_cif.got.tgz:346052.got - 2010.06.03 13:09:07.
