data_PCOD9194823
_publ_section_title
;
Structure prediction by ZEFSAII (Michael W. Deem and Ramdas Pophale) SiO2 
 PCOD9194823
Probable space group: C 2/M
;
_chemical_formula_sum "Si O2"
_cell_formula_units_Z 48
_cell_length_a 15.435698
_cell_length_b 14.694248
_cell_length_c 30.876014
_cell_angle_alpha 90.000000
_cell_angle_beta 160.802287
_cell_angle_gamma 90.000000
_cell_volume 2302.846098
_symmetry_space_group_name_H-M "C 2/M"
_symmetry_group_IT_number 12
_symmetry_cell_setting 'monoclinic'
loop_
_space_group_symop_operation_xyz
x,y,z
-x,y,-z
-x,-y,-z
x,-y,z
1/2+x,1/2+y,z
1/2-x,1/2+y,-z
1/2-x,1/2-y,-z
1/2+x,1/2-y,z
loop_
_atom_site_type_symbol
_atom_site_label
_atom_site_fract_x
_atom_site_fract_y
_atom_site_fract_z
Si Si1 0.349007 0.720661 0.830445
Si Si2 0.673855 0.240608 0.281648
Si Si3 0.696357 0.396801 0.051976
Si Si4 0.744122 0.747966 0.548992
Si Si5 0.042239 0.600428 0.070988
Si Si6 0.357692 0.398405 0.663179
O O1 0.331735 0.727625 0.770836
O O2 0.502602 0.810595 0.921346
O O3 0.041697 0.716761 0.702263
O O4 0.521815 0.638233 0.929486
O O5 0.444146 0.167516 0.177842
O O6 0.624591 0.327094 0.289220
O O7 0.966796 0.200118 0.429607
O O8 0.783742 0.500000 0.086553
O O9 0.500000 0.391632 0.000000
O O10 0.750000 0.750000 0.500000
O O11 0.700941 0.846460 0.551302
O O12 0.923136 0.500000 0.024781
O O13 0.355221 0.591549 0.221967
O O14 0.000000 0.618911 0.000000
O O15 0.275091 0.500000 0.636920
#
# Coordination Sequence:
#
# PCOD9194823 Si02
#       6
#     8   8   8   8   8   8
#     4  10  20  38  60  85 117 154 195 245 299 354
#     4  11  22  37  60  88 119 156 193 242 302 356
#     4  11  24  41  59  80 113 161 211 253 294 346
#     4   9  20  38  60  86 119 154 190 236 297 358
#     4   9  17  31  55  85 115 148 188 238 293 348
#     4  10  20  34  57  89 120 149 184 230 289 353
#
# _framework density 20.843771
#
# number of rings (size 3 to 8) (size 9 to 14) (size 15 to 20)
#    0.000    2.000    0.000    4.500    0.000    2.667 
#    0.000    7.500    0.000    5.000    0.000    0.000 
#    0.000    0.000    0.000    0.000    0.000    0.000 
#
# Total GULP energy -133762.163487 kJ/mol
# GULP energy per Si atom -5573.423479 kJ/mol
# Density = 2.079633 g / cm^3
# Si number density = 20.843771 Si / 1000 Ang^3
#
#
#
# Elastic Constant Matrix: (Units=GPa)
#
#
# Indices 1 2 3 4 5 6 
#
# 1 74.3069 57.4239 11.8366 -0.1509 -20.0535 0.0108
# 2 57.4239 138.2708 59.7123 -0.0423 -1.7927 -0.0021
# 3 11.8366 59.7123 107.6735 -2.1499 10.3084 0.1193
# 4 -0.1509 -0.0423 -2.1499-1029.8099 0.0941 61.1003
# 5 -20.0535 -1.7927 10.3084 0.0941 40.4141 -0.0118
# 6 0.0108 -0.0021 0.1193 61.1003 -0.0118 2.3003
#
#
#
# Elastic Compliance Matrix: (Units=1/GPa)
#
#
# Indices 1 2 3 4 5 6 
#
# 1 0.024702 -0.011151 0.002401 -0.000007 0.011150 -0.000001
# 2 -0.011151 0.014674 -0.006606 0.000015 -0.003197 0.000002
# 3 0.002401 -0.006606 0.012916 -0.000027 -0.002396 0.000010
# 4 -0.000007 0.000015 -0.000027 -0.000377 0.000008 0.010013
# 5 0.011150 -0.003197 -0.002396 0.000008 0.030746 0.000023
# 6 -0.000001 0.000002 0.000010 0.010013 0.000023 0.168762
#
#
# Mechanical properties :
#
#
# Convention : Reuss Voigt Hill
#
# Bulk Modulus (GPa) = 46.33903 64.24411 55.29157
# Shear Modulus (GPa) = 17.28147 -184.66720 -83.69286
#
# Velocity S-wave (km/s) = 2.88253 -9.42275 -6.34347
# Velocity P-wave (km/s) = 5.77568 9.35391 5.20275
#
# Compressibility (1/GPa) = 0.02158008
#
# Stress axis : x y z
#
# Youngs Moduli (GPa) = 40.48313 68.14601 77.42589
#
# Poissons Ratio (x) = 0.75989 -0.18589
# Poissons Ratio (y) = 0.45142 0.51145
# Poissons Ratio (z) = -0.09719 0.45015
#
# Static dielectric constant tensor:
#      x y z
#    x 1.767520 0.000000 0.035510 
#    y 0.000000 1.783520 -0.000020 
#    z 0.035510 -0.000020 1.821290 
# 
# From -- ./inp_files/376652.got.cif
#   From: 2010.05.17/outbox.cif.g08.bks.cpg/sg12_189_cif.got.tgz:376652.got - 2010.06.03 13:09:07.
