data_PCOD9194559
_publ_section_title
;
Structure prediction by ZEFSAII (Michael W. Deem and Ramdas Pophale) SiO2 
 PCOD9194559
Probable space group: C 2/M
;
_chemical_formula_sum "Si O2"
_cell_formula_units_Z 56
_cell_length_a 27.130521
_cell_length_b 12.952346
_cell_length_c 20.721849
_cell_angle_alpha 90.000000
_cell_angle_beta 22.660888
_cell_angle_gamma 90.000000
_cell_volume 2805.480501
_symmetry_space_group_name_H-M "C 2/M"
_symmetry_group_IT_number 12
_symmetry_cell_setting 'monoclinic'
loop_
_space_group_symop_operation_xyz
x,y,z
-x,y,-z
-x,-y,-z
x,-y,z
1/2+x,1/2+y,z
1/2-x,1/2+y,-z
1/2-x,1/2-y,-z
1/2+x,1/2-y,z
loop_
_atom_site_type_symbol
_atom_site_label
_atom_site_fract_x
_atom_site_fract_y
_atom_site_fract_z
Si Si1 0.820664 0.118495 0.262411
Si Si2 0.687532 0.619331 0.009388
Si Si3 0.097032 0.754041 0.232895
Si Si4 0.414114 0.383169 0.538561
Si Si5 0.376812 0.190458 0.105662
Si Si6 0.023843 0.769935 0.813034
Si Si7 0.927915 0.618382 0.352599
O O1 0.846003 0.195767 0.172706
O O2 0.677628 0.119557 0.463539
O O3 0.897649 0.166214 0.229482
O O4 0.855076 0.000000 0.206389
O O5 0.718408 0.500000 0.965730
O O6 0.800475 0.693883 0.847661
O O7 0.663274 0.654593 0.112461
O O8 0.558038 0.649594 0.129433
O O9 0.977151 0.801143 0.414372
O O10 0.051516 0.668905 0.236067
O O11 0.500000 0.374110 0.500000
O O12 0.433666 0.500000 0.490856
O O13 0.260816 0.365804 0.728263
O O14 0.500000 0.151368 0.000000
O O15 0.428849 0.199846 0.970496
O O16 0.101645 0.694286 0.671504
O O17 0.944615 0.500000 0.311657
#
# Coordination Sequence:
#
# PCOD9194559 Si02
#       7
#     8   8   8   8   8   8   8
#     4  10  20  37  61  85 117 160 201 245 303 361
#     4  10  20  34  56  85 116 150 192 246 303 357
#     4  10  20  37  58  82 116 153 198 246 296 363
#     4  11  23  40  62  86 119 160 204 248 303 364
#     4  10  22  40  61  88 124 162 202 251 300 359
#     4  10  21  35  57  86 122 152 198 249 296 357
#     4  10  20  36  60  85 115 155 200 249 300 355
#
# _framework density 19.960930000000001
#
# number of rings (size 3 to 8) (size 9 to 14) (size 15 to 20)
#    0.000    1.857    1.429    2.571    0.000    4.000 
#    0.000    5.714    0.000    2.143    0.000    0.000 
#    0.000    0.000    0.000    0.000    0.000    0.000 
#
# Total GULP energy -156082.905341 kJ/mol
# GULP energy per Si atom -5574.389476 kJ/mol
# Density = 1.991550 g / cm^3
# Si number density = 19.960930 Si / 1000 Ang^3
#
#
#
# Elastic Constant Matrix: (Units=GPa)
#
#
# Indices 1 2 3 4 5 6 
#
# 1 31.9566 21.4108 2.4348 0.0000 -6.0312 0.0000
# 2 21.4108 95.7771 15.9823 0.0000 -9.6589 0.0000
# 3 2.4348 15.9823 90.4682 0.0000 -6.3426 0.0000
# 4 0.0000 0.0000 0.0000 20.3395 0.0000 1.2804
# 5 -6.0312 -9.6589 -6.3426 0.0000 28.7973 0.0000
# 6 0.0000 0.0000 0.0000 1.2804 0.0000 18.0900
#
#
#
# Elastic Compliance Matrix: (Units=1/GPa)
#
#
# Indices 1 2 3 4 5 6 
#
# 1 0.037602 -0.007994 0.000776 0.000000 0.005365 0.000000
# 2 -0.007994 0.012764 -0.001886 0.000000 0.002191 0.000000
# 3 0.000776 -0.001886 0.011511 0.000000 0.002065 0.000000
# 4 0.000000 0.000000 0.000000 0.049385 0.000000 -0.003496
# 5 0.005365 0.002191 0.002065 0.000000 0.037039 0.000000
# 6 0.000000 0.000000 0.000000 -0.003496 0.000000 0.055527
#
#
# Mechanical properties :
#
#
# Convention : Reuss Voigt Hill
#
# Bulk Modulus (GPa) = 22.89983 33.09530 27.99756
# Shear Modulus (GPa) = 21.13345 25.33696 23.23520
#
# Velocity S-wave (km/s) = 3.25736 3.56663 3.41550
# Velocity P-wave (km/s) = 5.06403 5.79458 5.44158
#
# Compressibility (1/GPa) = 0.04366845
#
# Stress axis : x y z
#
# Youngs Moduli (GPa) = 26.59427 78.34667 86.87561
#
# Poissons Ratio (x) = 0.62634 -0.06746
# Poissons Ratio (y) = 0.21261 0.16386
# Poissons Ratio (z) = -0.02065 0.14777
#
# Static dielectric constant tensor:
#      x y z
#    x 1.712890 0.000000 -0.018860 
#    y 0.000000 1.683670 0.000000 
#    z -0.018860 0.000000 1.755520 
# 
# From -- ./inp_files/165016.got.cif
#   From: 2010.05.17/outbox.cif.g08.bks.cpg/sg12_83_cif.got.tgz:165016.got - 2010.06.03 13:09:07.
