data_PCOD9194223
_publ_section_title
;
Structure prediction by ZEFSAII (Michael W. Deem and Ramdas Pophale) SiO2 
 PCOD9194223
Probable space group: C 2/M
;
_chemical_formula_sum "Si O2"
_cell_formula_units_Z 64
_cell_length_a 28.634561
_cell_length_b 7.601541
_cell_length_c 18.895332
_cell_angle_alpha 90.000000
_cell_angle_beta 45.466471
_cell_angle_gamma 90.000000
_cell_volume 2931.830498
_symmetry_space_group_name_H-M "C 2/M"
_symmetry_group_IT_number 12
_symmetry_cell_setting 'monoclinic'
loop_
_space_group_symop_operation_xyz
x,y,z
-x,y,-z
-x,-y,-z
x,-y,z
1/2+x,1/2+y,z
1/2-x,1/2+y,-z
1/2-x,1/2-y,-z
1/2+x,1/2-y,z
loop_
_atom_site_type_symbol
_atom_site_label
_atom_site_fract_x
_atom_site_fract_y
_atom_site_fract_z
Si Si1 0.907639 0.795779 0.471935
Si Si2 0.350321 0.206153 0.683232
Si Si3 0.485075 0.212544 0.096445
Si Si4 0.841803 0.712900 0.227835
Si Si5 0.553905 0.714421 0.290061
Si Si6 0.206313 0.792348 0.872965
Si Si7 0.097284 0.208077 0.089880
Si Si8 0.724198 0.711370 0.449854
O O1 0.883331 0.788204 0.578780
O O2 0.848113 0.717623 0.489493
O O3 0.980033 0.721465 0.384230
O O4 0.913418 0.000000 0.444859
O O5 0.397532 0.227202 0.699836
O O6 0.278444 0.280737 0.779109
O O7 0.342457 0.000000 0.674756
O O8 0.410183 0.268522 0.190236
O O9 0.537496 0.272243 0.098251
O O10 0.487603 0.000000 0.093916
O O11 0.500000 0.269930 0.000000
O O12 0.841197 0.500000 0.228594
O O13 0.836466 0.770734 0.152475
O O14 0.777951 0.777904 0.336930
O O15 0.553867 0.500000 0.290977
O O16 0.577981 0.776791 0.187489
O O17 0.215522 0.000000 0.876756
O O18 0.162956 0.717754 0.983215
O O19 0.108176 0.000000 0.087320
O O20 0.721489 0.500000 0.443747
O O21 0.750000 0.750000 0.500000
#
# Coordination Sequence:
#
# PCOD9194223 Si02
#       8
#     8   8   8   8   8   8   8   8
#     4  10  21  40  63  85 113 151 193 232 277 341
#     4  11  23  39  61  88 113 143 188 242 292 338
#     4  10  20  34  55  83 114 147 186 229 274 330
#     4  10  20  36  56  81 113 152 192 229 277 337
#     4  10  23  41  60  84 114 150 190 235 285 341
#     4  10  21  37  58  85 115 147 190 239 281 331
#     4  10  22  39  58  83 116 153 192 232 280 338
#     4  10  22  37  56  84 118 152 188 230 280 333
#
# _framework density 21.829366
#
# number of rings (size 3 to 8) (size 9 to 14) (size 15 to 20)
#    0.000    1.875    2.500    0.750    1.750    5.250 
#    0.000    0.000    0.000    0.000    0.000    0.000 
#    0.000    0.000    0.000    0.000    0.000    0.000 
#
# Total GULP energy -178787.164749 kJ/mol
# GULP energy per Si atom -5587.098898 kJ/mol
# Density = 2.177968 g / cm^3
# Si number density = 21.829366 Si / 1000 Ang^3
#
#
#
# Elastic Constant Matrix: (Units=GPa)
#
#
# Indices 1 2 3 4 5 6 
#
# 1 96.5767 -18.6376 56.7889 0.0392 7.1926 -0.0834
# 2 -18.6376 46.3695 -5.8117 0.0210 -6.4007 -0.0224
# 3 56.7889 -5.8117 135.9042 0.0196 -14.9608 -0.0521
# 4 0.0392 0.0210 0.0196 2.3393 -0.0213 2.6897
# 5 7.1926 -6.4007 -14.9608 -0.0213 33.6960 0.0406
# 6 -0.0834 -0.0224 -0.0521 2.6897 0.0406 25.3977
#
#
#
# Elastic Compliance Matrix: (Units=1/GPa)
#
#
# Indices 1 2 3 4 5 6 
#
# 1 0.015807 0.004701 -0.007020 -0.000406 -0.005598 0.000094
# 2 0.004701 0.023833 -0.000586 -0.000333 0.003263 0.000065
# 3 -0.007020 -0.000586 0.010955 0.000114 0.006251 -0.000023
# 4 -0.000406 -0.000333 0.000114 0.486765 0.000444 -0.051552
# 5 -0.005598 0.003263 0.006251 0.000444 0.034268 -0.000104
# 6 0.000094 0.000065 -0.000023 -0.051552 -0.000104 0.044834
#
#
# Mechanical properties :
#
#
# Convention : Reuss Voigt Hill
#
# Bulk Modulus (GPa) = 22.32955 38.16998 30.24977
# Shear Modulus (GPa) = 7.84684 28.72065 18.28375
#
# Velocity S-wave (km/s) = 1.89801 3.63118 2.89723
# Velocity P-wave (km/s) = 3.88002 5.92488 5.00793
#
# Compressibility (1/GPa) = 0.04478371
#
# Stress axis : x y z
#
# Youngs Moduli (GPa) = 63.26363 41.95942 91.28535
#
# Poissons Ratio (x) = -0.19725 0.64084
# Poissons Ratio (y) = -0.29740 0.05348
# Poissons Ratio (z) = 0.44413 0.02458
#
# Static dielectric constant tensor:
#      x y z
#    x 1.751160 -0.000010 -0.033230 
#    y -0.000010 1.833500 0.000020 
#    z -0.033230 0.000020 1.813290 
# 
# From -- ./inp_files/295638.got.cif
#   From: 2010.05.17/outbox.cif.g08.bks.cpg/sg12_148_cif.got.tgz:295638.got - 2010.06.03 13:09:07.
