data_PCOD9194629
_publ_section_title
;
Structure prediction by ZEFSAII (Michael W. Deem and Ramdas Pophale) SiO2 
 PCOD9194629
Probable space group: C 2/M
;
_chemical_formula_sum "Si O2"
_cell_formula_units_Z 40
_cell_length_a 7.199629
_cell_length_b 14.425640
_cell_length_c 14.725014
_cell_angle_alpha 90.000000
_cell_angle_beta 82.787344
_cell_angle_gamma 90.000000
_cell_volume 1517.227408
_symmetry_space_group_name_H-M "C 2/M"
_symmetry_group_IT_number 12
_symmetry_cell_setting 'monoclinic'
loop_
_space_group_symop_operation_xyz
x,y,z
-x,y,-z
-x,-y,-z
x,-y,z
1/2+x,1/2+y,z
1/2-x,1/2+y,-z
1/2-x,1/2-y,-z
1/2+x,1/2-y,z
loop_
_atom_site_type_symbol
_atom_site_label
_atom_site_fract_x
_atom_site_fract_y
_atom_site_fract_z
Si Si1 0.711975 0.643108 0.519261
Si Si2 0.824994 0.394302 0.327373
Si Si3 0.353321 0.694987 0.090180
Si Si4 0.963429 0.389999 0.131825
Si Si5 0.567652 0.389535 0.718679
O O1 0.500000 0.614717 0.500000
O O2 0.750000 0.750000 0.500000
O O3 0.851692 0.606176 0.433195
O O4 0.713066 0.623633 0.626102
O O5 0.783691 0.500000 0.309616
O O6 0.627027 0.348347 0.311493
O O7 0.972913 0.371707 0.240723
O O8 0.164631 0.638309 0.081606
O O9 0.330619 0.806674 0.104930
O O10 0.408699 0.658425 0.186407
O O11 0.500000 0.679460 0.000000
O O12 0.921896 0.500000 0.117563
O O13 0.567086 0.500000 0.735949
#
# Coordination Sequence:
#
# PCOD9194629 Si02
#       5
#     8   8   8   8   8
#     4  10  20  34  56  87 124 168 215 265 325 395
#     4   9  19  38  63  92 127 165 210 266 327 395
#     4  12  26  46  69  97 134 176 226 281 336 397
#     4  11  25  45  70 100 134 174 223 279 339 403
#     4  10  21  39  65  95 130 176 226 276 335 400
#
# _framework density 26.363880000000002
#
# number of rings (size 3 to 8) (size 9 to 14) (size 15 to 20)
#    0.000    1.600    0.000    4.200    0.000    9.200 
#    0.000    3.000    0.000    4.800    0.000    0.000 
#    0.000    0.000    0.000    0.000    0.000    0.000 
#
# Total GULP energy -111603.991905 kJ/mol
# GULP energy per Si atom -5580.199595 kJ/mol
# Density = 2.630387 g / cm^3
# Si number density = 26.363880 Si / 1000 Ang^3
#
#
#
# Elastic Constant Matrix: (Units=GPa)
#
#
# Indices 1 2 3 4 5 6 
#
# 1 38.6840 6.4859 47.8842 0.0000 -17.0344 0.0000
# 2 6.4859 171.7151 55.3093 0.0000 -10.7102 0.0000
# 3 47.8842 55.3093 289.7312 0.0000 -15.5535 0.0000
# 4 0.0000 0.0000 0.0000 74.2323 0.0000 15.5950
# 5 -17.0344 -10.7102 -15.5535 0.0000 51.8771 0.0000
# 6 0.0000 0.0000 0.0000 15.5950 0.0000 35.8767
#
#
#
# Elastic Compliance Matrix: (Units=1/GPa)
#
#
# Indices 1 2 3 4 5 6 
#
# 1 0.037701 0.001143 -0.005866 0.000000 0.010857 0.000000
# 2 0.001143 0.006285 -0.001320 0.000000 0.001277 0.000000
# 3 -0.005866 -0.001320 0.004629 0.000000 -0.000811 0.000000
# 4 0.000000 0.000000 0.000000 0.014825 0.000000 -0.006444
# 5 0.010857 0.001277 -0.000811 0.000000 0.022862 0.000000
# 6 0.000000 0.000000 0.000000 -0.006444 0.000000 0.030674
#
#
# Mechanical properties :
#
#
# Convention : Reuss Voigt Hill
#
# Bulk Modulus (GPa) = 27.37600 79.94322 53.65961
# Shear Modulus (GPa) = 35.40057 58.42726 46.91391
#
# Velocity S-wave (km/s) = 3.66835 4.71275 4.22296
# Velocity P-wave (km/s) = 5.32437 7.74610 6.64647
#
# Compressibility (1/GPa) = 0.03652835
#
# Stress axis : x y z
#
# Youngs Moduli (GPa) = 26.52450 159.10114 216.00711
#
# Poissons Ratio (x) = -0.18179 1.26714
# Poissons Ratio (y) = -0.03031 0.28516
# Poissons Ratio (z) = 0.15560 0.21004
#
# Static dielectric constant tensor:
#      x y z
#    x 2.348160 0.000000 0.033300 
#    y 0.000000 2.044180 0.000000 
#    z 0.033300 0.000000 2.147910 
# 
# From -- ./inp_files/194425.got.cif
#   From: 2010.05.17/outbox.cif.g08.bks.cpg/sg12_98_cif.got.tgz:194425.got - 2010.06.03 13:09:07.
