data_PCOD9194132
_publ_section_title
;
Structure prediction by ZEFSAII (Michael W. Deem and Ramdas Pophale) SiO2 
 PCOD9194132
Probable space group: C 2/M
;
_chemical_formula_sum "Si O2"
_cell_formula_units_Z 56
_cell_length_a 19.962191
_cell_length_b 9.038101
_cell_length_c 27.825675
_cell_angle_alpha 90.000000
_cell_angle_beta 141.973944
_cell_angle_gamma 90.000000
_cell_volume 3092.614269
_symmetry_space_group_name_H-M "C 2/M"
_symmetry_group_IT_number 12
_symmetry_cell_setting 'monoclinic'
loop_
_space_group_symop_operation_xyz
x,y,z
-x,y,-z
-x,-y,-z
x,-y,z
1/2+x,1/2+y,z
1/2-x,1/2+y,-z
1/2-x,1/2-y,-z
1/2+x,1/2-y,z
loop_
_atom_site_type_symbol
_atom_site_label
_atom_site_fract_x
_atom_site_fract_y
_atom_site_fract_z
Si Si1 0.352352 0.322141 0.824050
Si Si2 0.739496 0.177166 0.861009
Si Si3 0.941754 0.669492 0.019416
Si Si4 0.306439 0.322424 0.690788
Si Si5 0.493955 0.321981 0.263072
Si Si6 0.868412 0.177513 0.565563
Si Si7 0.399387 0.322086 0.475437
O O1 0.364854 0.500000 0.831633
O O2 0.278758 0.282272 0.828748
O O3 0.470591 0.249324 0.897430
O O4 0.302874 0.278847 0.744736
O O5 0.621602 0.243298 0.804731
O O6 0.738918 0.000000 0.863941
O O7 0.829950 0.243729 0.947924
O O8 0.922634 0.500000 0.023040
O O9 0.000000 0.668600 0.000000
O O10 0.293719 0.500000 0.680305
O O11 0.423232 0.286337 0.733367
O O12 0.211535 0.247717 0.606614
O O13 0.478187 0.500000 0.255053
O O14 0.556437 0.277583 0.347444
O O15 0.750000 0.250000 0.500000
O O16 0.917976 0.214912 0.541702
O O17 0.855493 0.000000 0.561296
O O18 0.500000 0.271757 0.500000
O O19 0.390793 0.500000 0.466913
#
# Coordination Sequence:
#
# PCOD9194132 Si02
#       7
#     8   8   8   8   8   8   8
#     4   9  19  35  55  80 109 139 174 219 267 313
#     4  10  20  34  55  82 109 138 175 219 264 313
#     4   9  17  32  55  82 109 139 175 214 261 315
#     4  10  21  38  56  77 107 143 179 218 267 316
#     4  10  21  36  54  77 107 141 179 221 263 313
#     4  10  20  36  56  77 104 141 181 220 265 314
#     4  10  22  37  54  79 109 140 177 223 270 316
#
# _framework density 18.107658000000001
#
# number of rings (size 3 to 8) (size 9 to 14) (size 15 to 20)
#    0.000    2.286    1.429    0.857    2.000    4.286 
#    0.000    0.714    0.000    0.000    0.000    0.000 
#    0.000    0.000    0.000    0.000    0.000    0.000 
#
# Total GULP energy -156232.435410 kJ/mol
# GULP energy per Si atom -5579.729836 kJ/mol
# Density = 1.806644 g / cm^3
# Si number density = 18.107658 Si / 1000 Ang^3
#
#
#
# Elastic Constant Matrix: (Units=GPa)
#
#
# Indices 1 2 3 4 5 6 
#
# 1 62.1587 13.7201 -1.0533 0.0000 15.7782 0.0000
# 2 13.7201 17.2335 8.0506 0.0000 10.0914 0.0000
# 3 -1.0533 8.0506 37.2062 0.0000 18.5591 0.0000
# 4 0.0000 0.0000 0.0000 32.2097 0.0000 7.5488
# 5 15.7782 10.0914 18.5591 0.0000 35.9573 0.0000
# 6 0.0000 0.0000 0.0000 7.5488 0.0000 21.2027
#
#
#
# Elastic Compliance Matrix: (Units=1/GPa)
#
#
# Indices 1 2 3 4 5 6 
#
# 1 0.022349 -0.016218 0.009108 0.000000 -0.009957 0.000000
# 2 -0.016218 0.082645 -0.013901 0.000000 -0.008903 0.000000
# 3 0.009108 -0.013901 0.040659 0.000000 -0.021081 0.000000
# 4 0.000000 0.000000 0.000000 0.033873 0.000000 -0.012060
# 5 -0.009957 -0.008903 -0.021081 0.000000 0.045559 0.000000
# 6 0.000000 0.000000 0.000000 -0.012060 0.000000 0.051457
#
#
# Mechanical properties :
#
#
# Convention : Reuss Voigt Hill
#
# Bulk Modulus (GPa) = 9.64942 17.55925 13.60433
# Shear Modulus (GPa) = 14.16004 24.26601 19.21302
#
# Velocity S-wave (km/s) = 2.79944 3.66470 3.26090
# Velocity P-wave (km/s) = 3.97362 5.25594 4.65911
#
# Compressibility (1/GPa) = 0.10363322
#
# Stress axis : x y z
#
# Youngs Moduli (GPa) = 44.74417 12.09997 24.59505
#
# Poissons Ratio (x) = 0.19623 -0.22402
# Poissons Ratio (y) = 0.72564 0.34189
# Poissons Ratio (z) = -0.40755 0.16820
#
# Static dielectric constant tensor:
#      x y z
#    x 1.627160 0.000000 -0.018270 
#    y 0.000000 1.608900 0.000000 
#    z -0.018270 0.000000 1.584630 
# 
# From -- ./inp_files/280446.got.cif
#   From: 2010.05.17/outbox.cif.g08.bks.cpg/sg12_141_cif.got.tgz:280446.got - 2010.06.03 13:09:07.
