data_PCOD9194301
_publ_section_title
;
Structure prediction by ZEFSAII (Michael W. Deem and Ramdas Pophale) SiO2 
 PCOD9194301
Probable space group: C 2/M
;
_chemical_formula_sum "Si O2"
_cell_formula_units_Z 56
_cell_length_a 14.143879
_cell_length_b 23.155646
_cell_length_c 15.851319
_cell_angle_alpha 90.000000
_cell_angle_beta 36.985162
_cell_angle_gamma 90.000000
_cell_volume 3123.234344
_symmetry_space_group_name_H-M "C 2/M"
_symmetry_group_IT_number 12
_symmetry_cell_setting 'monoclinic'
loop_
_space_group_symop_operation_xyz
x,y,z
-x,y,-z
-x,-y,-z
x,-y,z
1/2+x,1/2+y,z
1/2-x,1/2+y,-z
1/2-x,1/2-y,-z
1/2+x,1/2-y,z
loop_
_atom_site_type_symbol
_atom_site_label
_atom_site_fract_x
_atom_site_fract_y
_atom_site_fract_z
Si Si1 0.479945 0.763775 0.612522
Si Si2 0.735904 0.654800 0.008888
Si Si3 0.163479 0.251878 0.928361
Si Si4 0.975180 0.930542 0.259503
Si Si5 0.372451 0.931446 0.525010
Si Si6 0.590772 0.366444 0.521192
Si Si7 0.060847 0.636395 0.682612
O O1 0.500000 0.778395 0.500000
O O2 0.296445 0.763912 0.766156
O O3 0.543349 0.698925 0.579388
O O4 0.559934 0.807215 0.622009
O O5 0.654491 0.699101 0.001213
O O6 0.901764 0.636524 0.849388
O O7 0.776485 0.692836 0.062158
O O8 0.620233 0.602717 0.114021
O O9 0.000000 0.262820 0.000000
O O10 0.808098 0.911604 0.336760
O O11 0.957262 0.908981 0.368825
O O12 0.990164 0.000000 0.244441
O O13 0.500000 0.908484 0.500000
O O14 0.429831 0.915382 0.390914
O O15 0.366556 0.000000 0.538458
O O16 0.500000 0.380699 0.500000
O O17 0.779643 0.366102 0.377348
#
# Coordination Sequence:
#
# PCOD9194301 Si02
#       7
#     8   8   8   8   8   8   8
#     4  10  20  34  55  85 109 145 186 231 286 337
#     4  10  22  37  54  85 114 150 191 225 283 343
#     4  10  22  37  56  80 117 153 182 233 284 337
#     4  10  21  39  61  82 114 152 188 234 279 333
#     4   9  19  37  59  83 111 148 190 236 283 330
#     4  10  21  36  55  82 109 148 192 235 278 330
#     4  10  21  34  55  82 116 144 184 238 282 336
#
# _framework density 17.930130999999999
#
# number of rings (size 3 to 8) (size 9 to 14) (size 15 to 20)
#    0.000    2.143    1.429    0.857    4.000    5.429 
#    0.000    0.000    0.000    6.000    0.000    0.000 
#    0.000    0.000    0.000    0.000    0.000    0.000 
#
# Total GULP energy -156205.496522 kJ/mol
# GULP energy per Si atom -5578.767733 kJ/mol
# Density = 1.788932 g / cm^3
# Si number density = 17.930131 Si / 1000 Ang^3
#
#
#
# Elastic Constant Matrix: (Units=GPa)
#
#
# Indices 1 2 3 4 5 6 
#
# 1 141.0221 38.6028 71.1578 -0.0004 -15.8736 -0.0006
# 2 38.6028 66.1079 51.8189 -0.0022 -13.2859 0.0007
# 3 71.1578 51.8189 119.8862 -0.0024 -4.6361 0.0030
# 4 -0.0004 -0.0022 -0.0024 16.0683 -0.0004 0.9821
# 5 -15.8736 -13.2859 -4.6361 -0.0004 16.3355 0.0000
# 6 -0.0006 0.0007 0.0030 0.9821 0.0000 7.9793
#
#
#
# Elastic Compliance Matrix: (Units=1/GPa)
#
#
# Indices 1 2 3 4 5 6 
#
# 1 0.011353 0.000417 -0.006551 -0.000001 0.009512 0.000003
# 2 0.000417 0.027924 -0.011550 0.000003 0.019838 0.000002
# 3 -0.006551 -0.011550 0.016797 0.000001 -0.010993 -0.000006
# 4 -0.000001 0.000003 0.000001 0.062706 0.000003 -0.007718
# 5 0.009512 0.019838 -0.010993 0.000003 0.083475 0.000003
# 6 0.000003 0.000002 -0.000006 -0.007718 0.000003 0.126274
#
#
# Mechanical properties :
#
#
# Convention : Reuss Voigt Hill
#
# Bulk Modulus (GPa) = 48.29551 72.24169 60.26860
# Shear Modulus (GPa) = 13.48443 19.10574 16.29509
#
# Velocity S-wave (km/s) = 2.74534 3.26784 3.01792
# Velocity P-wave (km/s) = 6.08630 7.39030 6.76977
#
# Compressibility (1/GPa) = 0.02070586
#
# Stress axis : x y z
#
# Youngs Moduli (GPa) = 88.08109 35.81204 59.53501
#
# Poissons Ratio (x) = -0.01494 0.39002
# Poissons Ratio (y) = -0.03676 0.68763
# Poissons Ratio (z) = 0.57703 0.41363
#
# Static dielectric constant tensor:
#      x y z
#    x 1.615570 0.000000 -0.003510 
#    y 0.000000 1.615140 0.000000 
#    z -0.003510 0.000000 1.599350 
# 
# From -- ./inp_files/219096.got.cif
#   From: 2010.05.17/outbox.cif.g08.bks.cpg/sg12_110_cif.got.tgz:219096.got - 2010.06.03 13:09:07.
