data_PCOD9194803
_publ_section_title
;
Structure prediction by ZEFSAII (Michael W. Deem and Ramdas Pophale) SiO2 
 PCOD9194803
Probable space group: C 2/M
;
_chemical_formula_sum "Si O2"
_cell_formula_units_Z 64
_cell_length_a 28.312542
_cell_length_b 13.352678
_cell_length_c 9.281722
_cell_angle_alpha 90.000000
_cell_angle_beta 110.056535
_cell_angle_gamma 90.000000
_cell_volume 3296.138120
_symmetry_space_group_name_H-M "C 2/M"
_symmetry_group_IT_number 12
_symmetry_cell_setting 'monoclinic'
loop_
_space_group_symop_operation_xyz
x,y,z
-x,y,-z
-x,-y,-z
x,-y,z
1/2+x,1/2+y,z
1/2-x,1/2+y,-z
1/2-x,1/2-y,-z
1/2+x,1/2-y,z
loop_
_atom_site_type_symbol
_atom_site_label
_atom_site_fract_x
_atom_site_fract_y
_atom_site_fract_z
Si Si1 0.759375 0.880800 0.906827
Si Si2 0.899259 0.248549 0.636913
Si Si3 0.337172 0.886484 0.366521
Si Si4 0.495096 0.881192 0.821123
Si Si5 0.335537 0.246131 0.843000
Si Si6 0.601269 0.804687 0.821316
Si Si7 0.256561 0.618052 0.238427
Si Si8 0.376253 0.617809 0.358886
O O1 0.714551 0.847058 0.755720
O O2 0.810561 0.838710 0.898871
O O3 0.759579 0.000000 0.905274
O O4 0.750750 0.852998 0.063408
O O5 0.859840 0.320936 0.515487
O O6 0.873053 0.219498 0.758352
O O7 0.905469 0.157255 0.531314
O O8 0.948420 0.314345 0.719490
O O9 0.375867 0.878614 0.274064
O O10 0.330137 0.000000 0.406040
O O11 0.544885 0.835799 0.799928
O O12 0.489153 0.000000 0.780594
O O13 0.500000 0.873522 0.000000
O O14 0.288222 0.180680 0.735150
O O15 0.366754 0.187942 0.998325
O O16 0.608654 0.694785 0.753909
O O17 0.245906 0.500000 0.245270
O O18 0.316194 0.629868 0.330204
O O19 0.384353 0.500000 0.335708
#
# Coordination Sequence:
#
# PCOD9194803 Si02
#       8
#     8   8   8   8   8   8   8   8
#     4  10  20  34  57  88 120 157 202 248 291 349
#     4  11  25  41  59  88 126 162 197 249 311 362
#     4  10  21  37  57  89 126 158 197 246 300 363
#     4  11  24  43  66  93 123 153 194 248 306 367
#     4  12  21  35  60  89 122 159 202 247 298 352
#     4  11  21  38  66  91 114 158 210 250 297 355
#     4  10  20  34  58  91 123 160 205 245 290 356
#     4  10  23  43  64  89 124 162 203 253 303 354
#
# _framework density 19.416663
#
# number of rings (size 3 to 8) (size 9 to 14) (size 15 to 20)
#    0.000    1.375    3.750    2.625    0.000    6.000 
#    0.000    6.875    0.000    0.750    0.000    0.000 
#    0.000    0.000    0.000    0.000    0.000    0.000 
#
# Total GULP energy -178616.119943 kJ/mol
# GULP energy per Si atom -5581.753748 kJ/mol
# Density = 1.937247 g / cm^3
# Si number density = 19.416663 Si / 1000 Ang^3
#
#
#
# Elastic Constant Matrix: (Units=GPa)
#
#
# Indices 1 2 3 4 5 6 
#
# 1 107.4122 13.5456 18.8497 0.0000 8.3886 0.0000
# 2 13.5456 83.0892 0.8635 0.0000 14.3425 0.0000
# 3 18.8497 0.8635 54.1683 0.0000 11.2811 0.0000
# 4 0.0000 0.0000 0.0000 20.0205 0.0000 7.1522
# 5 8.3886 14.3425 11.2811 0.0000 28.8895 0.0000
# 6 0.0000 0.0000 0.0000 7.1522 0.0000 18.6570
#
#
#
# Elastic Compliance Matrix: (Units=1/GPa)
#
#
# Indices 1 2 3 4 5 6 
#
# 1 0.010148 -0.001460 -0.003315 0.000000 -0.000927 0.000000
# 2 -0.001460 0.013452 0.001737 0.000000 -0.006933 0.000000
# 3 -0.003315 0.001737 0.021298 0.000000 -0.008217 0.000000
# 4 0.000000 0.000000 0.000000 0.057875 0.000000 -0.022187
# 5 -0.000927 -0.006933 -0.008217 0.000000 0.041534 0.000000
# 6 0.000000 0.000000 0.000000 -0.022187 0.000000 0.062104
#
#
# Mechanical properties :
#
#
# Convention : Reuss Voigt Hill
#
# Bulk Modulus (GPa) = 25.75768 34.57635 30.16701
# Shear Modulus (GPa) = 22.18004 27.60746 24.89375
#
# Velocity S-wave (km/s) = 3.38349 3.77483 3.58450
# Velocity P-wave (km/s) = 5.34402 6.07003 5.71856
#
# Compressibility (1/GPa) = 0.03882338
#
# Stress axis : x y z
#
# Youngs Moduli (GPa) = 98.53953 74.33878 46.95265
#
# Poissons Ratio (x) = 0.10852 0.15565
# Poissons Ratio (y) = 0.14385 -0.08158
# Poissons Ratio (z) = 0.32666 -0.12916
#
# Static dielectric constant tensor:
#      x y z
#    x 1.661890 0.000000 0.016030 
#    y 0.000000 1.703510 0.000000 
#    z 0.016030 0.000000 1.699930 
# 
# From -- ./inp_files/104686.got.cif
#   From: 2010.05.17/outbox.cif.g08.bks.cpg/sg12_53_cif.got.tgz:104686.got - 2010.06.03 13:09:07.
