data_PCOD9194302
_publ_section_title
;
Structure prediction by ZEFSAII (Michael W. Deem and Ramdas Pophale) SiO2 
 PCOD9194302
Probable space group: C 2/M
;
_chemical_formula_sum "Si O2"
_cell_formula_units_Z 48
_cell_length_a 14.586805
_cell_length_b 7.570990
_cell_length_c 18.973168
_cell_angle_alpha 90.000000
_cell_angle_beta 102.666979
_cell_angle_gamma 90.000000
_cell_volume 2044.333216
_symmetry_space_group_name_H-M "C 2/M"
_symmetry_group_IT_number 12
_symmetry_cell_setting 'monoclinic'
loop_
_space_group_symop_operation_xyz
x,y,z
-x,y,-z
-x,-y,-z
x,-y,z
1/2+x,1/2+y,z
1/2-x,1/2+y,-z
1/2-x,1/2-y,-z
1/2+x,1/2-y,z
loop_
_atom_site_type_symbol
_atom_site_label
_atom_site_fract_x
_atom_site_fract_y
_atom_site_fract_z
Si Si1 0.609075 0.500000 0.100807
Si Si2 0.102106 0.703135 0.207882
Si Si3 0.879450 0.000000 0.057999
Si Si4 0.381282 0.794917 0.317726
Si Si5 0.293176 0.212124 0.629468
Si Si6 0.047924 0.283086 0.436215
Si Si7 0.873877 0.704828 0.165709
O O1 0.635874 0.330333 0.151509
O O2 0.494371 0.500000 0.077971
O O3 0.646838 0.500000 0.028158
O O4 0.126635 0.500000 0.198656
O O5 0.145419 0.755722 0.290458
O O6 0.988368 0.712595 0.191053
O O7 0.847242 0.829435 0.096662
O O8 0.308543 0.784611 0.369516
O O9 0.478405 0.721502 0.362463
O O10 0.342717 0.723186 0.237458
O O11 0.398555 0.000000 0.304335
O O12 0.348324 0.273390 0.569404
O O13 0.285762 0.000000 0.625384
O O14 0.047640 0.500000 0.437068
O O15 0.000000 0.223675 0.500000
O O16 0.846871 0.500000 0.150377
#
# Coordination Sequence:
#
# PCOD9194302 Si02
#       7
#     4   8   4   8   8   8   8
#     4   9  18  30  50  84 114 145 188 237 297 348
#     4   9  17  32  53  77 110 149 191 239 284 344
#     4   9  18  30  50  84 114 145 188 237 297 348
#     4  10  20  34  55  85 110 146 198 237 282 344
#     4  10  20  34  55  85 110 146 198 237 282 344
#     4   9  18  36  59  81 115 154 186 229 290 352
#     4   9  17  32  53  77 110 149 191 239 284 344
#
# _framework density 23.479538999999999
#
# number of rings (size 3 to 8) (size 9 to 14) (size 15 to 20)
#    0.000    2.667    1.667    0.000    2.333    1.333 
#    0.000    4.167    0.000    2.000    0.000    0.000 
#    0.000    0.000    0.000    0.000    0.000    0.000 
#
# Total GULP energy -134120.130054 kJ/mol
# GULP energy per Si atom -5588.338752 kJ/mol
# Density = 2.342610 g / cm^3
# Si number density = 23.479539 Si / 1000 Ang^3
#
#
#
# Elastic Constant Matrix: (Units=GPa)
#
#
# Indices 1 2 3 4 5 6 
#
# 1 73.0114 4.8731 21.0289 0.0000 -16.8921 0.0000
# 2 4.8731 63.4353 32.7397 0.0000 -12.1924 0.0000
# 3 21.0289 32.7397 103.7127 0.0000 -38.2697 0.0000
# 4 0.0000 0.0000 0.0000 11.0094 0.0000 -12.4162
# 5 -16.8921 -12.1924 -38.2697 0.0000 38.0286 0.0000
# 6 0.0000 0.0000 0.0000 -12.4162 0.0000 15.6776
#
#
#
# Elastic Compliance Matrix: (Units=1/GPa)
#
#
# Indices 1 2 3 4 5 6 
#
# 1 0.015338 0.000522 -0.001112 0.000000 0.005862 0.000000
# 2 0.000522 0.018850 -0.005950 0.000000 0.000287 0.000000
# 3 -0.001112 -0.005950 0.017274 0.000000 0.014982 0.000000
# 4 0.000000 0.000000 0.000000 0.850209 0.000000 0.673340
# 5 0.005862 0.000287 0.014982 0.000000 0.044069 0.000000
# 6 0.000000 0.000000 0.000000 0.673340 0.000000 0.597050
#
#
# Mechanical properties :
#
#
# Convention : Reuss Voigt Hill
#
# Bulk Modulus (GPa) = 26.05374 39.71589 32.88482
# Shear Modulus (GPa) = 3.18743 25.04431 14.11587
#
# Velocity S-wave (km/s) = 1.16640 3.26949 2.45460
# Velocity P-wave (km/s) = 3.59645 5.58611 4.69782
#
# Compressibility (1/GPa) = 0.03838220
#
# Stress axis : x y z
#
# Youngs Moduli (GPa) = 65.19747 53.04948 57.88973
#
# Poissons Ratio (x) = -0.02770 0.06437
# Poissons Ratio (y) = -0.03405 0.34447
# Poissons Ratio (z) = 0.07249 0.31567
#
# Static dielectric constant tensor:
#      x y z
#    x 1.918200 0.000000 -0.012130 
#    y 0.000000 1.844490 0.000000 
#    z -0.012130 0.000000 1.880410 
# 
# From -- ./inp_files/267750.got.cif
#   From: 2010.05.17/outbox.cif.g08.bks.cpg/sg12_134_cif.got.tgz:267750.got - 2010.06.03 13:09:07.
