data_PCOD9194808
_publ_section_title
;
Structure prediction by ZEFSAII (Michael W. Deem and Ramdas Pophale) SiO2 
 PCOD9194808
Probable space group: C 2/M
;
_chemical_formula_sum "Si O2"
_cell_formula_units_Z 44
_cell_length_a 24.968309
_cell_length_b 9.221041
_cell_length_c 10.458524
_cell_angle_alpha 90.000000
_cell_angle_beta 119.279960
_cell_angle_gamma 90.000000
_cell_volume 2100.272630
_symmetry_space_group_name_H-M "C 2/M"
_symmetry_group_IT_number 12
_symmetry_cell_setting 'monoclinic'
loop_
_space_group_symop_operation_xyz
x,y,z
-x,y,-z
-x,-y,-z
x,-y,z
1/2+x,1/2+y,z
1/2-x,1/2+y,-z
1/2-x,1/2-y,-z
1/2+x,1/2-y,z
loop_
_atom_site_type_symbol
_atom_site_label
_atom_site_fract_x
_atom_site_fract_y
_atom_site_fract_z
Si Si1 0.065526 0.664110 0.687923
Si Si2 0.241338 0.828223 0.128682
Si Si3 0.000000 0.754937 0.000000
Si Si4 0.957275 0.162901 0.675669
Si Si5 0.151899 0.830739 0.604095
Si Si6 0.625636 0.843569 0.035675
O O1 0.066026 0.500000 0.635433
O O2 0.098903 0.783229 0.641478
O O3 0.998384 0.718841 0.650309
O O4 0.104326 0.658269 0.863772
O O5 0.291363 0.767266 0.286988
O O6 0.174733 0.783543 0.105175
O O7 0.247661 0.000000 0.119027
O O8 0.250000 0.750000 0.000000
O O9 0.018719 0.836651 0.151266
O O10 0.062410 0.670270 0.039243
O O11 0.884724 0.193526 0.571887
O O12 0.967427 0.000000 0.635610
O O13 0.167914 0.000000 0.634294
O O14 0.655071 0.000000 0.097958
#
# Coordination Sequence:
#
# PCOD9194808 Si02
#       6
#     8   8   4   8   8   8
#     4  10  20  34  57  88 123 160 199 249 311 370
#     4  12  24  39  62  92 126 164 203 249 307 369
#     4  10  22  42  68  90 120 160 212 258 306 362
#     4  10  22  38  59  87 120 161 207 257 308 360
#     4  11  22  37  58  87 124 161 202 253 309 366
#     4  10  21  39  63  92 124 161 206 252 303 363
#
# _framework density 20.949662
#
# number of rings (size 3 to 8) (size 9 to 14) (size 15 to 20)
#    0.000    1.455    1.818    3.818    0.000    8.000 
#    0.000    0.909    0.000    0.000    0.000    0.000 
#    0.000    0.000    0.000    0.000    0.000    0.000 
#
# Total GULP energy -122746.709305 kJ/mol
# GULP energy per Si atom -5579.395878 kJ/mol
# Density = 2.090198 g / cm^3
# Si number density = 20.949662 Si / 1000 Ang^3
#
#
#
# Elastic Constant Matrix: (Units=GPa)
#
#
# Indices 1 2 3 4 5 6 
#
# 1 64.9895 25.0334 28.5735 0.0000 17.4139 0.0000
# 2 25.0334 141.0532 46.0903 0.0000 20.3866 0.0000
# 3 28.5735 46.0903 92.9503 0.0000 33.1482 0.0000
# 4 0.0000 0.0000 0.0000 29.0148 0.0000 11.2449
# 5 17.4139 20.3866 33.1482 0.0000 33.1890 0.0000
# 6 0.0000 0.0000 0.0000 11.2449 0.0000 0.1231
#
#
#
# Elastic Compliance Matrix: (Units=1/GPa)
#
#
# Indices 1 2 3 4 5 6 
#
# 1 0.018871 -0.001531 -0.002868 0.000000 -0.006097 0.000000
# 2 -0.001531 0.008637 -0.003427 0.000000 -0.001079 0.000000
# 3 -0.002868 -0.003427 0.018720 0.000000 -0.015087 0.000000
# 4 0.000000 0.000000 0.000000 -0.001002 0.000000 0.091514
# 5 -0.006097 -0.001079 -0.015087 0.000000 0.049061 0.000000
# 6 0.000000 0.000000 0.000000 0.091514 0.000000 -0.236129
#
#
# Mechanical properties :
#
#
# Convention : Reuss Voigt Hill
#
# Bulk Modulus (GPa) = 32.70514 55.37638 44.04076
# Shear Modulus (GPa) = -43.10444 25.75174 -8.67635
#
# Velocity S-wave (km/s) = -4.54092 3.50983 -2.03728
# Velocity P-wave (km/s) = 3.44210 6.55100 3.94129
#
# Compressibility (1/GPa) = 0.03057624
#
# Stress axis : x y z
#
# Youngs Moduli (GPa) = 52.99040 115.77966 53.41931
#
# Poissons Ratio (x) = 0.17725 0.15319
# Poissons Ratio (y) = 0.08112 0.18309
# Poissons Ratio (z) = 0.15196 0.39682
#
# Static dielectric constant tensor:
#      x y z
#    x 1.754820 0.000000 0.008640 
#    y 0.000000 1.750270 0.000000 
#    z 0.008640 0.000000 1.826450 
# 
# From -- ./inp_files/181280.got.cif
#   From: 2010.05.17/outbox.cif.g08.bks.cpg/sg12_91_cif.got.tgz:181280.got - 2010.06.03 13:09:07.
