data_PCOD9194982
_publ_section_title
;
Structure prediction by ZEFSAII (Michael W. Deem and Ramdas Pophale) SiO2 
 PCOD9194982
Probable space group: C 2/M
;
_chemical_formula_sum "Si O2"
_cell_formula_units_Z 56
_cell_length_a 27.967955
_cell_length_b 24.908188
_cell_length_c 12.331672
_cell_angle_alpha 90.000000
_cell_angle_beta 19.706653
_cell_angle_gamma 90.000000
_cell_volume 2896.798403
_symmetry_space_group_name_H-M "C 2/M"
_symmetry_group_IT_number 12
_symmetry_cell_setting 'monoclinic'
loop_
_space_group_symop_operation_xyz
x,y,z
-x,y,-z
-x,-y,-z
x,-y,z
1/2+x,1/2+y,z
1/2-x,1/2+y,-z
1/2-x,1/2-y,-z
1/2+x,1/2-y,z
loop_
_atom_site_type_symbol
_atom_site_label
_atom_site_fract_x
_atom_site_fract_y
_atom_site_fract_z
Si Si1 0.370052 0.864321 0.591437
Si Si2 0.362239 0.936694 0.032293
Si Si3 0.173248 0.439417 0.131142
Si Si4 0.601785 0.249897 0.376289
Si Si5 0.747449 0.816446 0.368761
Si Si6 0.061788 0.779315 0.703254
Si Si7 0.157803 0.882589 0.633275
O O1 0.289294 0.897816 0.855991
O O2 0.435503 0.811412 0.508916
O O3 0.267021 0.845420 0.716098
O O4 0.496316 0.900316 0.271344
O O5 0.257591 0.921881 0.352665
O O6 0.399283 0.000000 0.953483
O O7 0.286731 0.925792 0.077286
O O8 0.218770 0.500000 0.059575
O O9 0.000000 0.439123 0.500000
O O10 0.500000 0.271247 0.500000
O O11 0.606121 0.279296 0.482419
O O12 0.750000 0.250000 0.000000
O O13 0.619764 0.773879 0.638380
O O14 0.759668 0.859717 0.438061
O O15 0.892388 0.782750 0.066830
O O16 0.124259 0.830609 0.630802
O O17 0.000000 0.904092 0.000000
#
# Coordination Sequence:
#
# PCOD9194982 Si02
#       7
#     8   8   8   8   8   8   8
#     4  10  20  34  59  86 129 153 197 250 309 362
#     4  10  21  38  64  92 119 159 210 261 319 372
#     4   8  15  31  56  86 117 153 193 241 306 374
#     4  11  22  33  53  87 126 161 191 240 306 364
#     4  10  22  40  59  89 121 167 209 253 303 363
#     4  10  22  39  59  84 122 165 209 245 300 374
#     4  10  23  41  61  84 118 165 215 259 311 365
#
# _framework density 19.331686000000001
#
# number of rings (size 3 to 8) (size 9 to 14) (size 15 to 20)
#    0.000    2.143    0.000    4.714    8.000    0.857 
#    0.000    2.143    0.000    1.714    0.000    8.000 
#    0.000    0.000    0.000    0.000    0.000    0.000 
#
# Total GULP energy -156248.981901 kJ/mol
# GULP energy per Si atom -5580.320782 kJ/mol
# Density = 1.928769 g / cm^3
# Si number density = 19.331686 Si / 1000 Ang^3
#
#
#
# Elastic Constant Matrix: (Units=GPa)
#
#
# Indices 1 2 3 4 5 6 
#
# 1 94.2852 12.2169 17.0491 -0.0006 0.2221 -0.0001
# 2 12.2169 45.7744 11.1658 -0.0002 -3.9156 -0.0011
# 3 17.0491 11.1658 62.3912 -0.0046 12.0214 -0.0011
# 4 -0.0006 -0.0002 -0.0046 22.4596 -0.0012 12.6375
# 5 0.2221 -3.9156 12.0214 -0.0012 31.2704 0.0008
# 6 -0.0001 -0.0011 -0.0011 12.6375 0.0008 24.3923
#
#
#
# Elastic Compliance Matrix: (Units=1/GPa)
#
#
# Indices 1 2 3 4 5 6 
#
# 1 0.011416 -0.002289 -0.002850 0.000000 0.000728 0.000000
# 2 -0.002289 0.023986 -0.004589 -0.000001 0.004784 0.000001
# 3 -0.002850 -0.004589 0.019154 0.000004 -0.007918 -0.000001
# 4 0.000000 -0.000001 0.000004 0.062845 0.000002 -0.032560
# 5 0.000728 0.004784 -0.007918 0.000002 0.035617 -0.000002
# 6 0.000000 0.000001 -0.000001 -0.032560 -0.000002 0.057865
#
#
# Mechanical properties :
#
#
# Convention : Reuss Voigt Hill
#
# Bulk Modulus (GPa) = 28.49080 31.47938 29.98509
# Shear Modulus (GPa) = 20.65780 26.42573 23.54176
#
# Velocity S-wave (km/s) = 3.27249 3.70126 3.49346
# Velocity P-wave (km/s) = 5.38969 5.88090 5.64064
#
# Compressibility (1/GPa) = 0.03509905
#
# Stress axis : x y z
#
# Youngs Moduli (GPa) = 87.59299 41.69127 52.20972
#
# Poissons Ratio (x) = 0.09545 0.14881
# Poissons Ratio (y) = 0.20054 0.23958
# Poissons Ratio (z) = 0.24966 0.19131
#
# Static dielectric constant tensor:
#      x y z
#    x 1.664500 0.000010 -0.012840 
#    y 0.000010 1.688750 0.000020 
#    z -0.012840 0.000020 1.615110 
# 
# From -- ./inp_files/185132.got.cif
#   From: 2010.05.17/outbox.cif.g08.bks.cpg/sg12_93_cif.got.tgz:185132.got - 2010.06.03 13:09:07.
