data_PCOD9194558
_publ_section_title
;
Structure prediction by ZEFSAII (Michael W. Deem and Ramdas Pophale) SiO2 
 PCOD9194558
Probable space group: C 2/M
;
_chemical_formula_sum "Si O2"
_cell_formula_units_Z 64
_cell_length_a 24.888299
_cell_length_b 8.777175
_cell_length_c 16.663057
_cell_angle_alpha 90.000000
_cell_angle_beta 91.325126
_cell_angle_gamma 90.000000
_cell_volume 3639.053928
_symmetry_space_group_name_H-M "C 2/M"
_symmetry_group_IT_number 12
_symmetry_cell_setting 'monoclinic'
loop_
_space_group_symop_operation_xyz
x,y,z
-x,y,-z
-x,-y,-z
x,-y,z
1/2+x,1/2+y,z
1/2-x,1/2+y,-z
1/2-x,1/2-y,-z
1/2+x,1/2-y,z
loop_
_atom_site_type_symbol
_atom_site_label
_atom_site_fract_x
_atom_site_fract_y
_atom_site_fract_z
Si Si1 0.866424 0.680652 0.118219
Si Si2 0.941150 0.814305 0.527985
Si Si3 0.045385 0.181620 0.770396
Si Si4 0.676371 0.818759 0.204099
Si Si5 0.806286 0.181311 0.971100
Si Si6 0.374474 0.682145 0.374697
Si Si7 0.073028 0.815493 0.287968
Si Si8 0.285803 0.819023 0.263318
O O1 0.865531 0.500000 0.103755
O O2 0.922516 0.731848 0.159157
O O3 0.821243 0.715376 0.184663
O O4 0.850654 0.769058 0.037567
O O5 0.896398 0.767306 0.461800
O O6 0.930029 0.768510 0.618711
O O7 0.000000 0.764021 0.500000
O O8 0.942163 0.000000 0.526832
O O9 0.077884 0.208954 0.688522
O O10 0.983647 0.225160 0.755502
O O11 0.048146 0.000000 0.785555
O O12 0.680804 0.747082 0.115696
O O13 0.623323 0.757920 0.245793
O O14 0.729379 0.764956 0.253618
O O15 0.675628 0.000000 0.197981
O O16 0.801632 0.000000 0.966625
O O17 0.750000 0.250000 0.000000
O O18 0.364942 0.500000 0.375892
O O19 0.322068 0.764607 0.338838
O O20 0.077568 0.000000 0.285728
O O21 0.277403 0.000000 0.265829
#
# Coordination Sequence:
#
# PCOD9194558 Si02
#       8
#     8   8   8   8   8   8   8   8
#     4  10  20  34  56  85 116 147 184 233 282 331
#     4   9  15  29  56  88 115 146 190 237 280 332
#     4   9  17  31  54  83 115 150 187 231 282 337
#     4  12  25  40  58  81 114 153 191 233 284 340
#     4  12  23  38  61  88 115 144 186 234 281 335
#     4   9  16  29  54  86 115 143 186 235 281 333
#     4  10  20  36  58  84 117 154 192 234 285 343
#     4  10  20  35  55  80 113 149 187 231 284 338
#
# _framework density 17.586988999999999
#
# number of rings (size 3 to 8) (size 9 to 14) (size 15 to 20)
#    0.000    1.875    2.500    3.000    0.000    1.500 
#    0.000    1.875    0.000    4.500    0.000    0.000 
#    0.000    0.000    0.000    0.000    0.000    0.000 
#
# Total GULP energy -178686.135211 kJ/mol
# GULP energy per Si atom -5583.941725 kJ/mol
# Density = 1.754696 g / cm^3
# Si number density = 17.586989 Si / 1000 Ang^3
#
#
#
# Elastic Constant Matrix: (Units=GPa)
#
#
# Indices 1 2 3 4 5 6 
#
# 1 144.8652 66.9275 82.0376 0.0000 10.9650 0.0000
# 2 66.9275 69.8415 49.7738 0.0000 4.6539 0.0000
# 3 82.0376 49.7738 118.9302 0.0000 9.4577 0.0000
# 4 0.0000 0.0000 0.0000 20.0067 0.0000 1.9839
# 5 10.9650 4.6539 9.4577 0.0000 28.9452 0.0000
# 6 0.0000 0.0000 0.0000 1.9839 0.0000 28.8706
#
#
#
# Elastic Compliance Matrix: (Units=1/GPa)
#
#
# Indices 1 2 3 4 5 6 
#
# 1 0.015143 -0.010040 -0.006073 0.000000 -0.002138 0.000000
# 2 -0.010040 0.027068 -0.004475 0.000000 0.000914 0.000000
# 3 -0.006073 -0.004475 0.014610 0.000000 -0.001753 0.000000
# 4 0.000000 0.000000 0.000000 0.050326 0.000000 -0.003458
# 5 -0.002138 0.000914 -0.001753 0.000000 0.035784 0.000000
# 6 0.000000 0.000000 0.000000 -0.003458 0.000000 0.034875
#
#
# Mechanical properties :
#
#
# Convention : Reuss Voigt Hill
#
# Bulk Modulus (GPa) = 63.92637 81.23497 72.58067
# Shear Modulus (GPa) = 22.30174 24.55770 23.42972
#
# Velocity S-wave (km/s) = 3.56488 3.74084 3.65392
# Velocity P-wave (km/s) = 7.30562 8.05910 7.69159
#
# Compressibility (1/GPa) = 0.01564300
#
# Stress axis : x y z
#
# Youngs Moduli (GPa) = 66.03834 36.94426 68.44556
#
# Poissons Ratio (x) = 0.37092 0.41570
# Poissons Ratio (y) = 0.66303 0.30631
# Poissons Ratio (z) = 0.40108 0.16533
#
# Static dielectric constant tensor:
#      x y z
#    x 1.582650 0.000000 0.015040 
#    y 0.000000 1.591710 0.000000 
#    z 0.015040 0.000000 1.588090 
# 
# From -- ./inp_files/238753.got.cif
#   From: 2010.05.17/outbox.cif.g08.bks.cpg/sg12_120_cif.got.tgz:238753.got - 2010.06.03 13:09:07.
