data_PCOD9194862
_publ_section_title
;
Structure prediction by ZEFSAII (Michael W. Deem and Ramdas Pophale) SiO2 
 PCOD9194862
Probable space group: C 2/M
;
_chemical_formula_sum "Si O2"
_cell_formula_units_Z 48
_cell_length_a 20.906558
_cell_length_b 19.143656
_cell_length_c 16.137172
_cell_angle_alpha 90.000000
_cell_angle_beta 23.131558
_cell_angle_gamma 90.000000
_cell_volume 2537.199547
_symmetry_space_group_name_H-M "C 2/M"
_symmetry_group_IT_number 12
_symmetry_cell_setting 'monoclinic'
loop_
_space_group_symop_operation_xyz
x,y,z
-x,y,-z
-x,-y,-z
x,-y,z
1/2+x,1/2+y,z
1/2-x,1/2+y,-z
1/2-x,1/2-y,-z
1/2+x,1/2-y,z
loop_
_atom_site_type_symbol
_atom_site_label
_atom_site_fract_x
_atom_site_fract_y
_atom_site_fract_z
Si Si1 0.844238 0.917443 0.421637
Si Si2 0.635853 0.192608 0.593863
Si Si3 0.058452 0.293503 0.336565
Si Si4 0.804306 0.417991 0.224039
Si Si5 0.722192 0.418567 0.989524
Si Si6 0.781381 0.341209 0.082503
O O1 0.738742 0.878111 0.479191
O O2 0.779721 0.896323 0.589822
O O3 0.035672 0.903159 0.187502
O O4 0.818688 0.000000 0.445988
O O5 0.750000 0.250000 0.500000
O O6 0.583304 0.210412 0.563244
O O7 0.468152 0.181440 0.844256
O O8 0.171218 0.225394 0.192919
O O9 0.000000 0.295849 0.500000
O O10 0.160140 0.363435 0.194777
O O11 0.764179 0.500000 0.256538
O O12 0.754278 0.370136 0.206701
O O13 0.000000 0.413660 0.000000
O O14 0.757078 0.500000 0.931429
O O15 0.741779 0.401881 0.063712
#
# Coordination Sequence:
#
# PCOD9194862 Si02
#       6
#     8   8   8   8   8   8
#     4  10  21  38  62  91 123 156 197 249 306 369
#     4  11  22  39  61  85 120 162 206 247 302 362
#     4  11  26  42  61  90 124 162 209 261 303 362
#     4  10  20  34  57  96 129 153 194 245 306 373
#     4  10  22  42  64  88 120 163 208 253 307 365
#     4  11  22  37  61  89 125 162 200 249 308 369
#
# _framework density 18.918495
#
# number of rings (size 3 to 8) (size 9 to 14) (size 15 to 20)
#    0.000    1.500    1.667    4.500    4.667    3.000 
#    0.000    5.000    0.000    2.000    0.000    0.000 
#    0.000    0.000    0.000    0.000    0.000    0.000 
#
# Total GULP energy -134140.761135 kJ/mol
# GULP energy per Si atom -5589.198381 kJ/mol
# Density = 1.887544 g / cm^3
# Si number density = 18.918495 Si / 1000 Ang^3
#
#
#
# Elastic Constant Matrix: (Units=GPa)
#
#
# Indices 1 2 3 4 5 6 
#
# 1 118.3496 55.5918 40.6238 0.0017 -20.7463 -0.0002
# 2 55.5918 71.4965 35.2463 0.0086 -13.8590 -0.0053
# 3 40.6238 35.2463 49.9083 0.0043 -16.9747 -0.0048
# 4 0.0017 0.0086 0.0043 18.7370 -0.0061 -3.9974
# 5 -20.7463 -13.8590 -16.9747 -0.0061 26.0118 0.0026
# 6 -0.0002 -0.0053 -0.0048 -3.9974 0.0026 33.2101
#
#
#
# Elastic Compliance Matrix: (Units=1/GPa)
#
#
# Indices 1 2 3 4 5 6 
#
# 1 0.014694 -0.008311 -0.004641 0.000005 0.004263 -0.000002
# 2 -0.008311 0.026237 -0.011908 -0.000008 -0.000420 0.000001
# 3 -0.004641 -0.011908 0.037025 0.000002 0.014116 0.000003
# 4 0.000005 -0.000008 0.000002 0.054777 0.000013 0.006593
# 5 0.004263 -0.000420 0.014116 0.000013 0.050832 0.000000
# 6 -0.000002 0.000001 0.000003 0.006593 0.000000 0.030905
#
#
# Mechanical properties :
#
#
# Convention : Reuss Voigt Hill
#
# Bulk Modulus (GPa) = 35.41445 55.85313 45.63379
# Shear Modulus (GPa) = 18.27480 22.81127 20.54304
#
# Velocity S-wave (km/s) = 3.11139 3.47618 3.29883
# Velocity P-wave (km/s) = 5.62741 6.76010 6.21959
#
# Compressibility (1/GPa) = 0.02823706
#
# Stress axis : x y z
#
# Youngs Moduli (GPa) = 68.05704 38.11349 27.00886
#
# Poissons Ratio (x) = 0.31675 0.12535
# Poissons Ratio (y) = 0.56560 0.32161
# Poissons Ratio (z) = 0.31586 0.45384
#
# Static dielectric constant tensor:
#      x y z
#    x 1.638530 0.000000 -0.006890 
#    y 0.000000 1.673030 0.000000 
#    z -0.006890 0.000000 1.648980 
# 
# From -- ./inp_files/63597.got.cif
#   From: 2010.05.17/outbox.cif.g08.bks.cpg/sg12_32_cif.got.tgz:63597.got - 2010.06.03 13:09:07.
