data_PCOD9194155
_publ_section_title
;
Structure prediction by ZEFSAII (Michael W. Deem and Ramdas Pophale) SiO2 
 PCOD9194155
Probable space group: C 2/M
;
_chemical_formula_sum "Si O2"
_cell_formula_units_Z 56
_cell_length_a 16.249682
_cell_length_b 9.096607
_cell_length_c 17.165695
_cell_angle_alpha 90.000000
_cell_angle_beta 102.989918
_cell_angle_gamma 90.000000
_cell_volume 2472.448528
_symmetry_space_group_name_H-M "C 2/M"
_symmetry_group_IT_number 12
_symmetry_cell_setting 'monoclinic'
loop_
_space_group_symop_operation_xyz
x,y,z
-x,y,-z
-x,-y,-z
x,-y,z
1/2+x,1/2+y,z
1/2-x,1/2+y,-z
1/2-x,1/2-y,-z
1/2+x,1/2-y,z
loop_
_atom_site_type_symbol
_atom_site_label
_atom_site_fract_x
_atom_site_fract_y
_atom_site_fract_z
Si Si1 0.918250 0.324752 0.035973
Si Si2 0.121150 0.328653 0.802804
Si Si3 0.240314 0.666397 0.616902
Si Si4 0.866154 0.325880 0.749081
Si Si5 0.683294 0.671528 0.109206
Si Si6 0.494106 0.675586 0.329947
Si Si7 0.115024 0.167591 0.488164
O O1 0.900256 0.500000 0.030774
O O2 0.928124 0.283900 0.128549
O O3 0.843046 0.236077 0.979350
O O4 0.000000 0.297618 0.000000
O O5 0.102956 0.500000 0.782956
O O6 0.218282 0.315118 0.848664
O O7 0.093393 0.236425 0.721990
O O8 0.232157 0.500000 0.645798
O O9 0.279611 0.774017 0.689051
O O10 0.154649 0.725166 0.560217
O O11 0.311670 0.662415 0.563465
O O12 0.875275 0.500000 0.749238
O O13 0.864647 0.265549 0.835773
O O14 0.938936 0.249371 0.714439
O O15 0.660549 0.500000 0.109220
O O16 0.497440 0.500000 0.324633
O O17 0.530265 0.711562 0.423609
O O18 0.106689 0.000000 0.516416
#
# Coordination Sequence:
#
# PCOD9194155 Si02
#       7
#     8   8   8   8   8   8   8
#     4  10  21  38  60  85 111 141 179 222 269 322
#     4  10  22  38  56  81 114 148 180 219 269 323
#     4   9  16  27  46  74 106 139 178 224 272 323
#     4  11  21  34  54  78 108 145 184 229 279 325
#     4  11  23  38  56  80 111 146 185 225 266 319
#     4  10  20  34  55  82 111 143 183 228 271 323
#     4   8  15  27  44  72 107 140 175 218 269 322
#
# _framework density 22.649612999999999
#
# number of rings (size 3 to 8) (size 9 to 14) (size 15 to 20)
#    0.000    2.143    0.000    4.714    0.000    7.143 
#    0.000    0.000    0.000    0.857    0.000    6.000 
#    0.000    0.000    0.000    0.000    0.000    0.000 
#
# Total GULP energy -156641.066201 kJ/mol
# GULP energy per Si atom -5594.323793 kJ/mol
# Density = 2.259806 g / cm^3
# Si number density = 22.649613 Si / 1000 Ang^3
#
#
#
# Elastic Constant Matrix: (Units=GPa)
#
#
# Indices 1 2 3 4 5 6 
#
# 1 68.1294 33.9313 32.4562 0.0000 9.8618 0.0000
# 2 33.9313 78.9549 60.7426 0.0000 17.5170 0.0000
# 3 32.4562 60.7426 130.9827 0.0000 19.2482 0.0000
# 4 0.0000 0.0000 0.0000 35.3615 0.0000 13.8727
# 5 9.8618 17.5170 19.2482 0.0000 47.5217 0.0000
# 6 0.0000 0.0000 0.0000 13.8727 0.0000 20.9817
#
#
#
# Elastic Compliance Matrix: (Units=1/GPa)
#
#
# Indices 1 2 3 4 5 6 
#
# 1 0.018873 -0.006876 -0.001366 0.000000 -0.000829 0.000000
# 2 -0.006876 0.022857 -0.008366 0.000000 -0.003610 0.000000
# 3 -0.001366 -0.008366 0.012077 0.000000 -0.001524 0.000000
# 4 0.000000 0.000000 0.000000 0.038184 0.000000 -0.025246
# 5 -0.000829 -0.003610 -0.001524 0.000000 0.023163 0.000000
# 6 0.000000 0.000000 0.000000 -0.025246 0.000000 0.064353
#
#
# Mechanical properties :
#
#
# Convention : Reuss Voigt Hill
#
# Bulk Modulus (GPa) = 48.56333 59.14749 53.85541
# Shear Modulus (GPa) = 22.77004 30.83544 26.80274
#
# Velocity S-wave (km/s) = 3.17411 3.69373 3.44374
# Velocity P-wave (km/s) = 5.90940 6.66051 6.29616
#
# Compressibility (1/GPa) = 0.02059167
#
# Stress axis : x y z
#
# Youngs Moduli (GPa) = 52.98501 43.74944 82.80438
#
# Poissons Ratio (x) = 0.30082 0.11312
# Poissons Ratio (y) = 0.36433 0.69272
# Poissons Ratio (z) = 0.07238 0.36599
#
# Static dielectric constant tensor:
#      x y z
#    x 1.947120 0.000000 -0.007850 
#    y 0.000000 1.755850 0.000000 
#    z -0.007850 0.000000 1.831930 
# 
# From -- ./inp_files/275673.got.cif
#   From: 2010.05.17/outbox.cif.g08.bks.cpg/sg12_138_cif.got.tgz:275673.got - 2010.06.03 13:09:07.
