data_PCOD9194799
_publ_section_title
;
Structure prediction by ZEFSAII (Michael W. Deem and Ramdas Pophale) SiO2 
 PCOD9194799
Probable space group: C 2/M
;
_chemical_formula_sum "Si O2"
_cell_formula_units_Z 48
_cell_length_a 21.112311
_cell_length_b 8.555377
_cell_length_c 17.931423
_cell_angle_alpha 90.000000
_cell_angle_beta 53.736305
_cell_angle_gamma 90.000000
_cell_volume 2611.488332
_symmetry_space_group_name_H-M "C 2/M"
_symmetry_group_IT_number 12
_symmetry_cell_setting 'monoclinic'
loop_
_space_group_symop_operation_xyz
x,y,z
-x,y,-z
-x,-y,-z
x,-y,z
1/2+x,1/2+y,z
1/2-x,1/2+y,-z
1/2-x,1/2-y,-z
1/2+x,1/2-y,z
loop_
_atom_site_type_symbol
_atom_site_label
_atom_site_fract_x
_atom_site_fract_y
_atom_site_fract_z
Si Si1 0.052422 0.809529 0.394021
Si Si2 0.774127 0.812903 0.098717
Si Si3 0.021765 0.812612 0.711431
Si Si4 0.197575 0.687409 0.604674
Si Si5 0.232891 0.810913 0.284168
Si Si6 0.624464 0.813026 0.103803
O O1 0.142225 0.759202 0.340403
O O2 0.000000 0.757371 0.500000
O O3 0.014427 0.759639 0.342689
O O4 0.052582 0.000000 0.394148
O O5 0.777031 0.753974 0.181069
O O6 0.690657 0.763912 0.118985
O O7 0.777860 0.000000 0.093627
O O8 0.841188 0.743227 0.998915
O O9 0.108201 0.744081 0.660676
O O10 0.959000 0.758790 0.816674
O O11 0.026812 0.000000 0.707575
O O12 0.200113 0.500000 0.600700
O O13 0.250000 0.750000 0.500000
O O14 0.232379 0.738456 0.660509
O O15 0.234818 0.000000 0.279868
O O16 0.619344 0.000000 0.108527
#
# Coordination Sequence:
#
# PCOD9194799 Si02
#       6
#     8   8   8   8   8   8
#     4   9  17  31  54  82 109 142 189 237 282 337
#     4  10  20  34  57  88 120 151 189 239 293 343
#     4  11  21  36  60  86 117 153 193 241 291 344
#     4  11  24  41  61  84 117 159 199 239 289 348
#     4  10  20  37  59  83 114 154 196 237 288 347
#     4  10  20  35  57  86 121 154 190 234 289 351
#
# _framework density 18.380324000000002
#
# number of rings (size 3 to 8) (size 9 to 14) (size 15 to 20)
#    0.000    1.833    1.667    3.000    0.000    5.333 
#    0.000    0.833    0.000    7.500    0.000    0.000 
#    0.000    0.000    0.000    0.000    0.000    0.000 
#
# Total GULP energy -134059.260069 kJ/mol
# GULP energy per Si atom -5585.802503 kJ/mol
# Density = 1.833849 g / cm^3
# Si number density = 18.380324 Si / 1000 Ang^3
#
#
#
# Elastic Constant Matrix: (Units=GPa)
#
#
# Indices 1 2 3 4 5 6 
#
# 1 149.9795 34.5822 94.5609 0.0000 2.9598 0.0001
# 2 34.5822 35.9404 34.4343 -0.0001 2.1829 0.0001
# 3 94.5609 34.4343 179.3124 0.0000 3.7624 0.0000
# 4 0.0000 -0.0001 0.0000 30.8604 0.0000 -1.5901
# 5 2.9598 2.1829 3.7624 0.0000 33.6008 0.0000
# 6 0.0001 0.0001 0.0000 -1.5901 0.0000 25.9520
#
#
#
# Elastic Compliance Matrix: (Units=1/GPa)
#
#
# Indices 1 2 3 4 5 6 
#
# 1 0.010999 -0.006157 -0.004617 0.000000 -0.000052 0.000000
# 2 -0.006157 0.037618 -0.003946 0.000000 -0.001460 0.000000
# 3 -0.004617 -0.003946 0.008776 0.000000 -0.000320 0.000000
# 4 0.000000 0.000000 0.000000 0.032507 0.000000 0.001992
# 5 -0.000052 -0.001460 -0.000320 0.000000 0.029896 0.000000
# 6 0.000000 0.000000 0.000000 0.001992 0.000000 0.038655
#
#
# Mechanical properties :
#
#
# Convention : Reuss Voigt Hill
#
# Bulk Modulus (GPa) = 35.77499 76.93189 56.35344
# Shear Modulus (GPa) = 25.35377 31.52631 28.44004
#
# Velocity S-wave (km/s) = 3.71805 4.14601 3.93785
# Velocity P-wave (km/s) = 6.15937 8.05392 7.16950
#
# Compressibility (1/GPa) = 0.02795249
#
# Stress axis : x y z
#
# Youngs Moduli (GPa) = 90.91500 26.58316 113.94383
#
# Poissons Ratio (x) = 0.16367 0.52609
# Poissons Ratio (y) = 0.55975 0.44968
# Poissons Ratio (z) = 0.41976 0.10491
#
# Static dielectric constant tensor:
#      x y z
#    x 1.619910 0.000000 0.008680 
#    y 0.000000 1.625460 0.000000 
#    z 0.008680 0.000000 1.611370 
# 
# From -- ./inp_files/274602.got.cif
#   From: 2010.05.17/outbox.cif.g08.bks.cpg/sg12_138_cif.got.tgz:274602.got - 2010.06.03 13:09:07.
