data_PCOD9194935
_publ_section_title
;
Structure prediction by ZEFSAII (Michael W. Deem and Ramdas Pophale) SiO2 
 PCOD9194935
Probable space group: C 2/M
;
_chemical_formula_sum "Si O2"
_cell_formula_units_Z 34
_cell_length_a 13.830795
_cell_length_b 7.390054
_cell_length_c 12.447043
_cell_angle_alpha 90.000000
_cell_angle_beta 70.701443
_cell_angle_gamma 90.000000
_cell_volume 1200.729518
_symmetry_space_group_name_H-M "C 2/M"
_symmetry_group_IT_number 12
_symmetry_cell_setting 'monoclinic'
loop_
_space_group_symop_operation_xyz
x,y,z
-x,y,-z
-x,-y,-z
x,-y,z
1/2+x,1/2+y,z
1/2-x,1/2+y,-z
1/2-x,1/2-y,-z
1/2+x,1/2-y,z
loop_
_atom_site_type_symbol
_atom_site_label
_atom_site_fract_x
_atom_site_fract_y
_atom_site_fract_z
Si Si1 0.394964 0.794555 0.792942
Si Si2 0.500000 0.500000 0.500000
Si Si3 0.617629 0.217213 0.973134
Si Si4 0.341533 0.219376 0.575067
Si Si5 0.370823 0.712264 0.268827
O O1 0.373703 0.714116 0.684829
O O2 0.518444 0.801216 0.761889
O O3 0.357291 0.000000 0.799962
O O4 0.352153 0.711251 0.919743
O O5 0.421505 0.340433 0.482542
O O6 0.667636 0.260777 0.840842
O O7 0.616290 0.000000 0.983125
O O8 0.500000 0.279825 0.000000
O O9 0.221476 0.271262 0.619400
O O10 0.353610 0.000000 0.561264
O O11 0.385838 0.500000 0.274007
#
# Coordination Sequence:
#
# PCOD9194935 Si02
#       5
#     8   2   8   8   8
#     4   9  19  37  60  85 125 164 195 238 293 352
#     4  12  26  44  72  86 108 158 206 256 316 360
#     4   8  15  29  52  85 123 164 196 228 280 351
#     4  10  24  44  64  88 121 154 196 260 305 353
#     4  10  20  34  58  90 126 158 195 243 293 349
#
# _framework density 28.316117999999999
#
# number of rings (size 3 to 8) (size 9 to 14) (size 15 to 20)
#    0.000    2.588    0.000    2.471    4.941    5.176 
#    0.000    1.176    0.000    0.000    0.000    0.000 
#    0.000    0.000    0.000    0.000    0.000    0.000 
#
# Total GULP energy -94926.028258 kJ/mol
# GULP energy per Si atom -5583.884015 kJ/mol
# Density = 2.825167 g / cm^3
# Si number density = 28.316118 Si / 1000 Ang^3
#
#
#
# Elastic Constant Matrix: (Units=GPa)
#
#
# Indices 1 2 3 4 5 6 
#
# 1 124.0465 16.6661 1.8048 0.0000 -15.4487 0.0000
# 2 16.6661 152.3067 -0.2097 0.0000 -10.4824 0.0000
# 3 1.8048 -0.2097 129.6251 0.0000 -17.4962 0.0000
# 4 0.0000 0.0000 0.0000 19.2086 0.0000 -6.2947
# 5 -15.4487 -10.4824 -17.4962 0.0000 66.9299 0.0000
# 6 0.0000 0.0000 0.0000 -6.2947 0.0000 33.9471
#
#
#
# Elastic Compliance Matrix: (Units=1/GPa)
#
#
# Indices 1 2 3 4 5 6 
#
# 1 0.008396 -0.000791 0.000131 0.000000 0.001848 0.000000
# 2 -0.000791 0.006715 0.000144 0.000000 0.000907 0.000000
# 3 0.000131 0.000144 0.008002 0.000000 0.002145 0.000000
# 4 0.000000 0.000000 0.000000 0.055428 0.000000 0.010278
# 5 0.001848 0.000907 0.002145 0.000000 0.016070 0.000000
# 6 0.000000 0.000000 0.000000 0.010278 0.000000 0.031363
#
#
# Mechanical properties :
#
#
# Convention : Reuss Voigt Hill
#
# Bulk Modulus (GPa) = 45.28594 49.16672 47.22633
# Shear Modulus (GPa) = 37.21141 49.86492 43.53816
#
# Velocity S-wave (km/s) = 3.62904 4.20099 3.92545
# Velocity P-wave (km/s) = 5.79548 6.39783 6.10409
#
# Compressibility (1/GPa) = 0.02208191
#
# Stress axis : x y z
#
# Youngs Moduli (GPa) = 119.10294 148.92269 124.96157
#
# Poissons Ratio (x) = 0.11785 -0.01641
# Poissons Ratio (y) = 0.09425 -0.01803
# Poissons Ratio (z) = -0.01564 -0.02148
#
# Static dielectric constant tensor:
#      x y z
#    x 2.328800 0.000000 0.046430 
#    y 0.000000 2.042940 0.000000 
#    z 0.046430 0.000000 2.467610 
# 
# From -- ./inp_files/220090.got.cif
#   From: 2010.05.17/outbox.cif.g08.bks.cpg/sg12_111_cif.got.tgz:220090.got - 2010.06.03 13:09:07.
