data_PCOD9194476
_publ_section_title
;
Structure prediction by ZEFSAII (Michael W. Deem and Ramdas Pophale) SiO2 
 PCOD9194476
Probable space group: C 2/M
;
_chemical_formula_sum "Si O2"
_cell_formula_units_Z 56
_cell_length_a 19.984850
_cell_length_b 7.629002
_cell_length_c 28.217567
_cell_angle_alpha 90.000000
_cell_angle_beta 141.335813
_cell_angle_gamma 90.000000
_cell_volume 2687.804856
_symmetry_space_group_name_H-M "C 2/M"
_symmetry_group_IT_number 12
_symmetry_cell_setting 'monoclinic'
loop_
_space_group_symop_operation_xyz
x,y,z
-x,y,-z
-x,-y,-z
x,-y,z
1/2+x,1/2+y,z
1/2-x,1/2+y,-z
1/2-x,1/2-y,-z
1/2+x,1/2-y,z
loop_
_atom_site_type_symbol
_atom_site_label
_atom_site_fract_x
_atom_site_fract_y
_atom_site_fract_z
Si Si1 0.545256 0.790837 0.876614
Si Si2 0.688388 0.793181 0.868480
Si Si3 0.154853 0.211786 0.296291
Si Si4 0.616063 0.799347 0.557868
Si Si5 0.010429 0.211499 0.304045
Si Si6 0.429367 0.796345 0.003614
Si Si7 0.138098 0.790673 0.463309
O O1 0.629697 0.722718 0.883833
O O2 0.427068 0.759636 0.790440
O O3 0.563314 0.000000 0.888312
O O4 0.557111 0.718759 0.936108
O O5 0.604140 0.766512 0.779451
O O6 0.803410 0.710941 0.922983
O O7 0.705538 0.000000 0.884035
O O8 0.276192 0.278710 0.359844
O O9 0.097883 0.273104 0.313487
O O10 0.160447 0.000000 0.301954
O O11 0.500000 0.713851 0.500000
O O12 0.635867 0.799209 0.512700
O O13 0.607592 0.000000 0.571155
O O14 0.045695 0.268591 0.375690
O O15 0.013679 0.000000 0.305673
O O16 0.463198 0.000000 0.026438
O O17 0.500000 0.718744 0.000000
O O18 0.250000 0.750000 0.500000
O O19 0.129123 0.000000 0.465427
#
# Coordination Sequence:
#
# PCOD9194476 Si02
#       7
#     8   8   8   8   8   8   8
#     4   9  19  35  56  82 105 135 180 224 266 316
#     4  10  20  34  56  84 109 134 176 228 269 314
#     4   9  17  33  55  79 107 142 181 222 273 324
#     4  10  21  38  56  78 114 153 190 231 280 335
#     4   9  18  34  55  80 109 141 180 224 272 327
#     4  10  21  38  57  77 109 148 177 210 266 327
#     4  11  21  35  58  84 112 146 190 235 279 331
#
# _framework density 20.834845999999999
#
# number of rings (size 3 to 8) (size 9 to 14) (size 15 to 20)
#    0.000    2.286    1.429    1.286    0.000    3.429 
#    2.571    0.000    0.000    0.000    0.000    0.000 
#    0.000    0.000    0.000    0.000    0.000    0.000 
#
# Total GULP energy -156260.697507 kJ/mol
# GULP energy per Si atom -5580.739197 kJ/mol
# Density = 2.078742 g / cm^3
# Si number density = 20.834846 Si / 1000 Ang^3
#
#
#
# Elastic Constant Matrix: (Units=GPa)
#
#
# Indices 1 2 3 4 5 6 
#
# 1 88.7434 -6.7743 57.4034 0.0000 20.5556 0.0001
# 2 -6.7743 47.6029 -12.3515 0.0000 -3.1519 -0.0002
# 3 57.4034 -12.3515 115.9083 0.0000 15.1715 0.0001
# 4 0.0000 0.0000 0.0000 21.9957 0.0000 0.7544
# 5 20.5556 -3.1519 15.1715 0.0000 31.6769 0.0000
# 6 0.0001 -0.0002 0.0001 0.7544 0.0000 6.6856
#
#
#
# Elastic Compliance Matrix: (Units=1/GPa)
#
#
# Indices 1 2 3 4 5 6 
#
# 1 0.018320 -0.000007 -0.008020 0.000000 -0.008047 0.000000
# 2 -0.000007 0.021642 0.002163 0.000000 0.001122 0.000001
# 3 -0.008020 0.002163 0.012931 0.000000 -0.000774 0.000000
# 4 0.000000 0.000000 0.000000 0.045640 0.000000 -0.005150
# 5 -0.008047 0.001122 -0.000774 0.000000 0.037273 0.000000
# 6 0.000000 0.000001 0.000000 -0.005150 0.000000 0.150157
#
#
# Mechanical properties :
#
#
# Convention : Reuss Voigt Hill
#
# Bulk Modulus (GPa) = 24.29308 36.53443 30.41375
# Shear Modulus (GPa) = 16.05588 26.33677 21.19632
#
# Velocity S-wave (km/s) = 2.77903 3.55924 3.19305
# Velocity P-wave (km/s) = 4.68855 5.87062 5.31256
#
# Compressibility (1/GPa) = 0.04116399
#
# Stress axis : x y z
#
# Youngs Moduli (GPa) = 54.58565 46.20731 77.33191
#
# Poissons Ratio (x) = 0.00031 0.62022
# Poissons Ratio (y) = 0.00037 -0.16725
# Poissons Ratio (z) = 0.43779 -0.09993
#
# Static dielectric constant tensor:
#      x y z
#    x 1.741520 0.000000 0.003110 
#    y 0.000000 1.811770 0.000000 
#    z 0.003110 0.000000 1.745330 
# 
# From -- ./inp_files/363091.got.cif
#   From: 2010.05.17/outbox.cif.g08.bks.cpg/sg12_182_cif.got.tgz:363091.got - 2010.06.03 13:09:07.
