data_PCOD9194814
_publ_section_title
;
Structure prediction by ZEFSAII (Michael W. Deem and Ramdas Pophale) SiO2 
 PCOD9194814
Probable space group: C 2/M
;
_chemical_formula_sum "Si O2"
_cell_formula_units_Z 64
_cell_length_a 15.831389
_cell_length_b 23.584575
_cell_length_c 17.985388
_cell_angle_alpha 90.000000
_cell_angle_beta 30.438462
_cell_angle_gamma 90.000000
_cell_volume 3402.067391
_symmetry_space_group_name_H-M "C 2/M"
_symmetry_group_IT_number 12
_symmetry_cell_setting 'monoclinic'
loop_
_space_group_symop_operation_xyz
x,y,z
-x,y,-z
-x,-y,-z
x,-y,z
1/2+x,1/2+y,z
1/2-x,1/2+y,-z
1/2-x,1/2-y,-z
1/2+x,1/2-y,z
loop_
_atom_site_type_symbol
_atom_site_label
_atom_site_fract_x
_atom_site_fract_y
_atom_site_fract_z
Si Si1 0.855715 0.784221 0.168880
Si Si2 0.067204 0.435102 0.864808
Si Si3 0.378488 0.060731 0.523221
Si Si4 0.198730 0.831675 0.351698
Si Si5 0.378518 0.137820 0.755987
Si Si6 0.206518 0.313535 0.551228
Si Si7 0.245428 0.431754 0.010094
Si Si8 0.078970 0.865900 0.744720
O O1 0.761027 0.726900 0.265593
O O2 0.735827 0.828461 0.215700
O O3 0.926639 0.815806 0.189251
O O4 0.000000 0.770338 0.000000
O O5 0.126870 0.500000 0.805371
O O6 0.206665 0.386790 0.751551
O O7 0.915063 0.424374 0.922027
O O8 0.000000 0.433337 0.000000
O O9 0.500000 0.055256 0.500000
O O10 0.486867 0.098488 0.386584
O O11 0.207011 0.087817 0.680259
O O12 0.343318 0.000000 0.514755
O O13 0.246334 0.829255 0.401793
O O14 0.000000 0.835555 0.500000
O O15 0.506238 0.181170 0.697457
O O16 0.287257 0.098530 0.885500
O O17 0.250000 0.250000 0.500000
O O18 0.322563 0.346936 0.404014
O O19 0.274524 0.500000 0.994578
O O20 0.405656 0.396892 0.859224
#
# Coordination Sequence:
#
# PCOD9194814 Si02
#       8
#     8   8   8   8   8   8   8   8
#     4  12  24  42  62  97 136 178 213 268 324 394
#     4  10  24  49  73  97 132 169 213 279 344 394
#     4  10  20  34  57  88 126 173 217 259 309 373
#     4  12  26  44  70  99 127 170 225 271 336 398
#     4  11  22  40  63  91 130 174 217 267 326 385
#     4  11  23  42  63  93 130 171 218 277 326 388
#     4  11  23  43  68  96 132 174 223 273 327 391
#     4  11  23  39  62  92 135 170 225 266 323 383
#
# _framework density 18.812090000000001
#
# number of rings (size 3 to 8) (size 9 to 14) (size 15 to 20)
#    0.000    1.000    5.000    1.875    3.500    0.250 
#    2.250    3.125    0.000    0.000    0.000    0.000 
#    0.000    0.000    0.000    0.000    0.000    0.000 
#
# Total GULP energy -178397.717849 kJ/mol
# GULP energy per Si atom -5574.928683 kJ/mol
# Density = 1.876927 g / cm^3
# Si number density = 18.812090 Si / 1000 Ang^3
#
#
#
# Elastic Constant Matrix: (Units=GPa)
#
#
# Indices 1 2 3 4 5 6 
#
# 1 65.8674 29.9202 21.3484 -0.0049 9.0844 0.0030
# 2 29.9202 134.2042 62.7155 -0.0090 -7.3013 0.0015
# 3 21.3484 62.7155 109.4837 -0.0212 0.2074 0.0003
# 4 -0.0049 -0.0090 -0.0212 -4.6948 0.0152 7.0534
# 5 9.0844 -7.3013 0.2074 0.0152 29.8598 -0.0037
# 6 0.0030 0.0015 0.0003 7.0534 -0.0037 22.5239
#
#
#
# Elastic Compliance Matrix: (Units=1/GPa)
#
#
# Indices 1 2 3 4 5 6 
#
# 1 0.018234 -0.003770 -0.001384 -0.000021 -0.006460 0.000003
# 2 -0.003770 0.011149 -0.005659 0.000015 0.003912 -0.000004
# 3 -0.001384 -0.005659 0.012647 -0.000033 -0.001051 0.000010
# 4 -0.000021 0.000015 -0.000033 -0.144853 0.000090 0.045361
# 5 -0.006460 0.003912 -0.001051 0.000090 0.036419 -0.000022
# 6 0.000003 -0.000004 0.000010 0.045361 -0.000022 0.030192
#
#
# Mechanical properties :
#
#
# Convention : Reuss Voigt Hill
#
# Bulk Modulus (GPa) = 49.00722 59.72482 54.36602
# Shear Modulus (GPa) = -642.28714 22.57587 -309.85564
#
# Velocity S-wave (km/s) = -18.49767 3.46796 -12.84790
# Velocity P-wave (km/s) = 20.73911 6.91757 13.82494
#
# Compressibility (1/GPa) = 0.02040516
#
# Stress axis : x y z
#
# Youngs Moduli (GPa) = 54.84293 89.69292 79.06938
#
# Poissons Ratio (x) = 0.33814 0.10941
# Poissons Ratio (y) = 0.20676 0.44744
# Poissons Ratio (z) = 0.07588 0.50756
#
# Static dielectric constant tensor:
#      x y z
#    x 1.656090 -0.000020 -0.035700 
#    y -0.000020 1.744590 0.000010 
#    z -0.035700 0.000010 1.614040 
# 
# From -- ./inp_files/272813.got.cif
#   From: 2010.05.17/outbox.cif.g08.bks.cpg/sg12_137_cif.got.tgz:272813.got - 2010.06.03 13:09:07.
