data_PCOD9194158
_publ_section_title
;
Structure prediction by ZEFSAII (Michael W. Deem and Ramdas Pophale) SiO2 
 PCOD9194158
Probable space group: C 2/M
;
_chemical_formula_sum "Si O2"
_cell_formula_units_Z 48
_cell_length_a 29.728910
_cell_length_b 11.623952
_cell_length_c 21.588968
_cell_angle_alpha 90.000000
_cell_angle_beta 19.150976
_cell_angle_gamma 90.000000
_cell_volume 2447.462001
_symmetry_space_group_name_H-M "C 2/M"
_symmetry_group_IT_number 12
_symmetry_cell_setting 'monoclinic'
loop_
_space_group_symop_operation_xyz
x,y,z
-x,y,-z
-x,-y,-z
x,-y,z
1/2+x,1/2+y,z
1/2-x,1/2+y,-z
1/2-x,1/2-y,-z
1/2+x,1/2-y,z
loop_
_atom_site_type_symbol
_atom_site_label
_atom_site_fract_x
_atom_site_fract_y
_atom_site_fract_z
Si Si1 0.587577 0.246801 0.577784
Si Si2 0.475087 0.370810 0.602347
Si Si3 0.153527 0.861476 0.814554
Si Si4 0.363899 0.368670 0.027160
Si Si5 0.831826 0.130860 0.407915
Si Si6 0.807930 0.700838 0.988662
O O1 0.537867 0.295163 0.576174
O O2 0.729037 0.180530 0.383784
O O3 0.616497 0.349863 0.588558
O O4 0.465375 0.169951 0.767077
O O5 0.500000 0.326147 0.500000
O O6 0.533831 0.500000 0.528422
O O7 0.312256 0.377938 0.828541
O O8 0.150394 0.000000 0.818463
O O9 0.188275 0.823453 0.839379
O O10 0.000000 0.819948 0.000000
O O11 0.319254 0.500000 0.077840
O O12 0.529842 0.367817 0.812955
O O13 0.319176 0.297819 0.026381
O O14 0.750000 0.250000 0.500000
O O15 0.771575 0.000000 0.479948
O O16 0.750000 0.750000 0.000000
#
# Coordination Sequence:
#
# PCOD9194158 Si02
#       6
#     8   8   8   8   8   8
#     4  10  20  35  56  81 111 143 181 229 280 333
#     4  10  20  35  55  77 106 144 181 220 273 338
#     4  10  20  34  55  82 111 146 186 230 282 339
#     4   9  18  34  54  76 106 145 186 227 278 339
#     4  10  20  35  57  82 110 147 190 236 284 336
#     4   9  19  33  52  78 103 136 179 225 273 325
#
# _framework density 19.612152999999999
#
# number of rings (size 3 to 8) (size 9 to 14) (size 15 to 20)
#    0.000    2.333    0.000    2.500    0.000    6.667 
#    0.000    5.000    0.000   22.000    0.000    0.000 
#    0.000    0.000    0.000    0.000    0.000    0.000 
#
# Total GULP energy -133621.298062 kJ/mol
# GULP energy per Si atom -5567.554086 kJ/mol
# Density = 1.956751 g / cm^3
# Si number density = 19.612153 Si / 1000 Ang^3
#
#
#
# Elastic Constant Matrix: (Units=GPa)
#
#
# Indices 1 2 3 4 5 6 
#
# 1 84.5891 29.2237 28.9330 0.0000 13.1946 0.0000
# 2 29.2237 59.1817 20.2597 0.0000 -4.3964 0.0000
# 3 28.9330 20.2597 120.9201 0.0000 10.2970 0.0001
# 4 0.0000 0.0000 0.0000 22.6575 0.0000 -4.4133
# 5 13.1946 -4.3964 10.2970 0.0000 34.2671 0.0000
# 6 0.0000 0.0000 0.0001 -4.4133 0.0000 -18.3074
#
#
#
# Elastic Compliance Matrix: (Units=1/GPa)
#
#
# Indices 1 2 3 4 5 6 
#
# 1 0.016254 -0.007833 -0.002010 0.000000 -0.006660 0.000000
# 2 -0.007833 0.022068 -0.002382 0.000000 0.006563 0.000000
# 3 -0.002010 -0.002382 0.009349 0.000000 -0.002341 0.000000
# 4 0.000000 0.000000 0.000000 0.042156 0.000000 -0.010162
# 5 -0.006660 0.006563 -0.002341 0.000000 0.033292 0.000000
# 6 0.000000 0.000000 0.000000 -0.010162 0.000000 -0.052173
#
#
# Mechanical properties :
#
#
# Convention : Reuss Voigt Hill
#
# Bulk Modulus (GPa) = 43.06271 46.83595 44.94933
# Shear Modulus (GPa) = 48.47894 20.14172 34.31033
#
# Velocity S-wave (km/s) = 4.97720 3.20816 4.18717
# Velocity P-wave (km/s) = 7.41854 6.13645 6.80775
#
# Compressibility (1/GPa) = 0.02322195
#
# Stress axis : x y z
#
# Youngs Moduli (GPa) = 61.52246 45.31438 106.96038
#
# Poissons Ratio (x) = 0.35495 0.21496
# Poissons Ratio (y) = 0.48191 0.25479
# Poissons Ratio (z) = 0.12364 0.10794
#
# Static dielectric constant tensor:
#      x y z
#    x 1.296900 0.000000 -0.127040 
#    y 0.000000 1.709030 0.000000 
#    z -0.127040 0.000000 1.681630 
# 
# From -- ./inp_files/153634.got.cif
#   From: 2010.05.17/outbox.cif.g08.bks.cpg/sg12_77_cif.got.tgz:153634.got - 2010.06.03 13:09:07.
