data_PCOD9194557
_publ_section_title
;
Structure prediction by ZEFSAII (Michael W. Deem and Ramdas Pophale) SiO2 
 PCOD9194557
Probable space group: C 2/M
;
_chemical_formula_sum "Si O2"
_cell_formula_units_Z 50
_cell_length_a 20.511390
_cell_length_b 7.656145
_cell_length_c 17.871688
_cell_angle_alpha 90.000000
_cell_angle_beta 121.684267
_cell_angle_gamma 90.000000
_cell_volume 2388.237969
_symmetry_space_group_name_H-M "C 2/M"
_symmetry_group_IT_number 12
_symmetry_cell_setting 'monoclinic'
loop_
_space_group_symop_operation_xyz
x,y,z
-x,y,-z
-x,-y,-z
x,-y,z
1/2+x,1/2+y,z
1/2-x,1/2+y,-z
1/2-x,1/2-y,-z
1/2+x,1/2-y,z
loop_
_atom_site_type_symbol
_atom_site_label
_atom_site_fract_x
_atom_site_fract_y
_atom_site_fract_z
Si Si1 0.941778 0.702664 0.245470
Si Si2 0.334559 0.291503 0.578689
Si Si3 0.000000 0.000000 0.000000
Si Si4 0.472763 0.702488 0.561653
Si Si5 0.773530 0.794115 0.098498
Si Si6 0.576358 0.203408 0.224012
Si Si7 0.885254 0.287731 0.919931
O O1 0.963171 0.500000 0.268181
O O2 0.854198 0.711567 0.168999
O O3 0.960832 0.790115 0.336056
O O4 0.000284 0.777664 0.218207
O O5 0.343394 0.500000 0.589146
O O6 0.250000 0.250000 0.500000
O O7 0.397791 0.222664 0.557710
O O8 0.357265 0.220577 0.673952
O O9 0.057614 0.158005 0.002894
O O10 0.500000 0.782659 0.500000
O O11 0.453543 0.500000 0.534296
O O12 0.701429 0.750656 0.107560
O O13 0.785460 0.000000 0.111668
O O14 0.750000 0.750000 0.000000
O O15 0.600926 0.271740 0.158000
O O16 0.561020 0.000000 0.200559
O O17 0.898364 0.500000 0.937765
#
# Coordination Sequence:
#
# PCOD9194557 Si02
#       7
#     8   8   2   8   8   8   8
#     4  10  21  37  61  87 117 156 197 248 302 356
#     4  10  20  34  56  85 115 151 196 244 296 359
#     4  12  26  40  72  90 124 160 204 260 304 374
#     4   9  19  37  58  82 113 154 198 237 293 359
#     4  11  25  42  62  88 125 160 202 254 302 361
#     4   9  20  40  61  83 118 156 199 249 303 362
#     4  10  25  44  63  94 124 160 207 253 307 367
#
# _framework density 20.935938
#
# number of rings (size 3 to 8) (size 9 to 14) (size 15 to 20)
#    0.000    2.080    0.000    1.680    5.600    2.880 
#    0.000    6.400    0.000    0.000    0.000    0.000 
#    0.000    0.000    0.000    0.000    0.000    0.000 
#
# Total GULP energy -139260.346337 kJ/mol
# GULP energy per Si atom -5570.413853 kJ/mol
# Density = 2.088829 g / cm^3
# Si number density = 20.935938 Si / 1000 Ang^3
#
#
#
# Elastic Constant Matrix: (Units=GPa)
#
#
# Indices 1 2 3 4 5 6 
#
# 1 123.8332 17.5287 80.5807 0.0000 -4.1398 0.0000
# 2 17.5287 60.1086 -9.2341 0.0000 0.7064 0.0000
# 3 80.5807 -9.2341 102.6606 0.0000 -3.9149 0.0000
# 4 0.0000 0.0000 0.0000 20.2442 0.0000 7.1430
# 5 -4.1398 0.7064 -3.9149 0.0000 47.1816 0.0000
# 6 0.0000 0.0000 0.0000 7.1430 0.0000 17.9365
#
#
#
# Elastic Compliance Matrix: (Units=1/GPa)
#
#
# Indices 1 2 3 4 5 6 
#
# 1 0.019922 -0.008330 -0.016367 0.000000 0.000515 0.000000
# 2 -0.008330 0.020353 0.008356 0.000000 -0.000342 0.000000
# 3 -0.016367 0.008356 0.023354 0.000000 0.000377 0.000000
# 4 0.000000 0.000000 0.000000 0.057473 0.000000 -0.022888
# 5 0.000515 -0.000342 0.000377 0.000000 0.021276 0.000000
# 6 0.000000 0.000000 0.000000 -0.022888 0.000000 0.064867
#
#
# Mechanical properties :
#
#
# Convention : Reuss Voigt Hill
#
# Bulk Modulus (GPa) = 32.31280 51.59478 41.95379
# Shear Modulus (GPa) = 19.98067 30.25427 25.11747
#
# Velocity S-wave (km/s) = 3.09264 3.80556 3.46747
# Velocity P-wave (km/s) = 5.31227 6.63380 6.00947
#
# Compressibility (1/GPa) = 0.03094748
#
# Stress axis : x y z
#
# Youngs Moduli (GPa) = 50.19597 49.13171 42.82010
#
# Poissons Ratio (x) = 0.40927 0.70083
# Poissons Ratio (y) = 0.41813 -0.35781
# Poissons Ratio (z) = 0.82155 -0.41055
#
# Static dielectric constant tensor:
#      x y z
#    x 1.762410 0.000000 -0.011620 
#    y 0.000000 1.808970 0.000000 
#    z -0.011620 0.000000 1.738880 
# 
# From -- ./inp_files/275802.got.cif
#   From: 2010.05.17/outbox.cif.g08.bks.cpg/sg12_138_cif.got.tgz:275802.got - 2010.06.03 13:09:07.
