data_PCOD9194981
_publ_section_title
;
Structure prediction by ZEFSAII (Michael W. Deem and Ramdas Pophale) SiO2 
 PCOD9194981
Probable space group: C 2/M
;
_chemical_formula_sum "Si O2"
_cell_formula_units_Z 60
_cell_length_a 14.567908
_cell_length_b 20.564970
_cell_length_c 14.821465
_cell_angle_alpha 90.000000
_cell_angle_beta 47.917505
_cell_angle_gamma 90.000000
_cell_volume 3295.535708
_symmetry_space_group_name_H-M "C 2/M"
_symmetry_group_IT_number 12
_symmetry_cell_setting 'monoclinic'
loop_
_space_group_symop_operation_xyz
x,y,z
-x,y,-z
-x,-y,-z
x,-y,z
1/2+x,1/2+y,z
1/2-x,1/2+y,-z
1/2-x,1/2-y,-z
1/2+x,1/2-y,z
loop_
_atom_site_type_symbol
_atom_site_label
_atom_site_fract_x
_atom_site_fract_y
_atom_site_fract_z
Si Si1 0.848011 0.196262 0.404075
Si Si2 0.209327 0.852389 0.994518
Si Si3 0.641473 0.883791 0.790044
Si Si4 0.372013 0.072724 0.004524
Si Si5 0.306422 0.741265 0.249033
Si Si6 0.625469 0.253345 0.208017
Si Si7 0.500000 0.669495 0.000000
Si Si8 0.624998 0.575053 0.476095
O O1 0.750000 0.250000 0.500000
O O2 0.803277 0.187972 0.329922
O O3 0.858495 0.131139 0.458154
O O4 0.981704 0.231079 0.313997
O O5 0.318651 0.813676 0.869756
O O6 0.267204 0.915394 0.000999
O O7 0.169029 0.805794 0.104093
O O8 0.092828 0.865971 0.007135
O O9 0.652244 0.882151 0.892297
O O10 0.648953 0.811361 0.746032
O O11 0.755333 0.920458 0.668584
O O12 0.504460 0.913049 0.871855
O O13 0.370724 0.000000 0.041477
O O14 0.186478 0.755677 0.267445
O O15 0.411123 0.716263 0.113870
O O16 0.500000 0.588005 0.500000
O O17 0.616231 0.500000 0.515798
#
# Coordination Sequence:
#
# PCOD9194981 Si02
#       8
#     8   8   8   8   8   8   4   8
#     4  12  24  37  59  91 122 157 203 253 296 353
#     4  10  20  35  58  84 117 151 191 239 305 359
#     4  11  20  37  57  88 120 154 197 247 302 356
#     4  11  22  34  56  87 119 155 195 244 299 360
#     4  11  20  35  60  89 119 148 193 250 302 352
#     4  10  21  37  58  86 117 152 188 247 305 349
#     4  10  20  34  59  86 117 146 188 250 306 352
#     4  11  25  42  60  84 126 175 207 243 302 366
#
# _framework density 18.206448000000002
#
# number of rings (size 3 to 8) (size 9 to 14) (size 15 to 20)
#    0.000    1.200    4.000    4.000    1.867    0.000 
#    0.000    0.333    0.000    3.200    0.000    0.933 
#    0.000    0.000    0.000    0.000    0.000    0.000 
#
# Total GULP energy -167104.615022 kJ/mol
# GULP energy per Si atom -5570.153834 kJ/mol
# Density = 1.816501 g / cm^3
# Si number density = 18.206448 Si / 1000 Ang^3
#
#
#
# Elastic Constant Matrix: (Units=GPa)
#
#
# Indices 1 2 3 4 5 6 
#
# 1 139.3119 45.9097 43.6406 0.0000 -1.9616 0.0000
# 2 45.9097 76.5825 27.1998 0.0000 2.4907 0.0000
# 3 43.6406 27.1998 92.9242 0.0000 -9.6940 0.0000
# 4 0.0000 0.0000 0.0000 8.1298 0.0000 5.4487
# 5 -1.9616 2.4907 -9.6940 0.0000 24.6409 0.0000
# 6 0.0000 0.0000 0.0000 5.4487 0.0000 22.4280
#
#
#
# Elastic Compliance Matrix: (Units=1/GPa)
#
#
# Indices 1 2 3 4 5 6 
#
# 1 0.009726 -0.004696 -0.003194 0.000000 -0.000008 0.000000
# 2 -0.004696 0.017100 -0.003148 0.000000 -0.003341 0.000000
# 3 -0.003194 -0.003148 0.013754 0.000000 0.005475 0.000000
# 4 0.000000 0.000000 0.000000 0.146926 0.000000 -0.035694
# 5 -0.000008 -0.003341 0.005475 0.000000 0.043074 0.000000
# 6 0.000000 0.000000 0.000000 -0.035694 0.000000 0.053259
#
#
# Mechanical properties :
#
#
# Convention : Reuss Voigt Hill
#
# Bulk Modulus (GPa) = 54.04403 60.25764 57.15084
# Shear Modulus (GPa) = 16.02136 23.84432 19.93284
#
# Velocity S-wave (km/s) = 2.96967 3.62285 3.31240
# Velocity P-wave (km/s) = 6.44259 7.11820 6.78881
#
# Compressibility (1/GPa) = 0.01850343
#
# Stress axis : x y z
#
# Youngs Moduli (GPa) = 102.81609 58.48014 72.70505
#
# Poissons Ratio (x) = 0.27462 0.23222
# Poissons Ratio (y) = 0.48282 0.22891
# Poissons Ratio (z) = 0.32839 0.18412
#
# Static dielectric constant tensor:
#      x y z
#    x 1.692710 0.000000 0.014410 
#    y 0.000000 1.614210 0.000000 
#    z 0.014410 0.000000 1.634870 
# 
# From -- ./inp_files/217901.got.cif
#   From: 2010.05.17/outbox.cif.g08.bks.cpg/sg12_109_cif.got.tgz:217901.got - 2010.06.03 13:09:07.
