data_PCOD9194892
_publ_section_title
;
Structure prediction by ZEFSAII (Michael W. Deem and Ramdas Pophale) SiO2 
 PCOD9194892
Probable space group: C 2/M
;
_chemical_formula_sum "Si O2"
_cell_formula_units_Z 64
_cell_length_a 14.593858
_cell_length_b 18.532876
_cell_length_c 17.769333
_cell_angle_alpha 90.000000
_cell_angle_beta 41.605975
_cell_angle_gamma 90.000000
_cell_volume 3191.206321
_symmetry_space_group_name_H-M "C 2/M"
_symmetry_group_IT_number 12
_symmetry_cell_setting 'monoclinic'
loop_
_space_group_symop_operation_xyz
x,y,z
-x,y,-z
-x,-y,-z
x,-y,z
1/2+x,1/2+y,z
1/2-x,1/2+y,-z
1/2-x,1/2-y,-z
1/2+x,1/2-y,z
loop_
_atom_site_type_symbol
_atom_site_label
_atom_site_fract_x
_atom_site_fract_y
_atom_site_fract_z
Si Si1 0.341725 0.133971 0.601156
Si Si2 0.772763 0.418131 0.808851
Si Si3 0.463238 0.796664 0.886949
Si Si4 0.745486 0.770738 0.116651
Si Si5 0.943828 0.417816 0.274028
Si Si6 0.706213 0.412716 0.529120
Si Si7 0.574217 0.580733 0.374040
Si Si8 0.225425 0.774755 0.289828
O O1 0.500000 0.108169 0.500000
O O2 0.275887 0.102189 0.718580
O O3 0.259456 0.112504 0.577204
O O4 0.341328 0.220946 0.609581
O O5 0.720363 0.500000 0.851887
O O6 0.704829 0.353595 0.899866
O O7 0.930779 0.417258 0.742660
O O8 0.370059 0.765692 0.876492
O O9 0.501238 0.875607 0.832371
O O10 0.611266 0.760886 0.806004
O O11 0.369026 0.782429 0.017341
O O12 0.678204 0.750297 0.236607
O O13 0.911929 0.500000 0.273437
O O14 0.811529 0.385727 0.399205
O O15 0.715000 0.500000 0.521511
O O16 0.547911 0.394832 0.607403
O O17 0.500000 0.575053 0.500000
O O18 0.623053 0.500000 0.323317
O O19 0.688399 0.641509 0.314503
#
# Coordination Sequence:
#
# PCOD9194892 Si02
#       8
#     8   8   8   8   8   8   8   8
#     4  11  21  33  52  91 127 153 189 234 290 350
#     4   9  17  32  55  84 118 150 186 233 286 354
#     4  10  20  38  59  80 108 153 186 244 297 339
#     4   9  21  38  58  84 113 141 194 245 300 345
#     4   9  17  31  55  86 113 147 193 233 283 348
#     4  10  20  34  58  86 122 163 193 234 287 345
#     4  10  22  41  58  80 118 162 203 239 282 340
#     4  11  23  37  58  83 113 155 195 241 293 346
#
# _framework density 20.055112000000001
#
# number of rings (size 3 to 8) (size 9 to 14) (size 15 to 20)
#    0.000    2.125    1.250    1.875    1.750    2.000 
#    0.000    2.500    0.000    9.000    0.000    0.000 
#    0.000    0.000    0.000    0.000    0.000    0.000 
#
# Total GULP energy -178388.555260 kJ/mol
# GULP energy per Si atom -5574.642352 kJ/mol
# Density = 2.000947 g / cm^3
# Si number density = 20.055112 Si / 1000 Ang^3
#
#
#
# Elastic Constant Matrix: (Units=GPa)
#
#
# Indices 1 2 3 4 5 6 
#
# 1 101.5580 16.5788 16.0819 0.0001 0.8909 0.0000
# 2 16.5788 74.0582 18.7781 0.0000 -3.3369 0.0000
# 3 16.0819 18.7781 40.5019 0.0003 -4.5235 -0.0001
# 4 0.0001 0.0000 0.0003 23.0916 -0.0002 7.1688
# 5 0.8909 -3.3369 -4.5235 -0.0002 22.6874 0.0000
# 6 0.0000 0.0000 -0.0001 7.1688 0.0000 18.4983
#
#
#
# Elastic Compliance Matrix: (Units=1/GPa)
#
#
# Indices 1 2 3 4 5 6 
#
# 1 0.010692 -0.001519 -0.003695 0.000000 -0.001380 0.000000
# 2 -0.001519 0.015534 -0.006481 0.000000 0.001052 0.000000
# 3 -0.003695 -0.006481 0.029734 0.000000 0.005120 0.000000
# 4 0.000000 0.000000 0.000000 0.049229 0.000000 -0.019078
# 5 -0.001380 0.001052 0.005120 0.000000 0.045307 0.000000
# 6 0.000000 0.000000 0.000000 -0.019078 0.000000 0.061452
#
#
# Mechanical properties :
#
#
# Convention : Reuss Voigt Hill
#
# Bulk Modulus (GPa) = 30.70414 35.44397 33.07405
# Shear Modulus (GPa) = 20.30910 23.83409 22.07160
#
# Velocity S-wave (km/s) = 3.18569 3.45110 3.32105
# Velocity P-wave (km/s) = 5.37351 5.79584 5.58867
#
# Compressibility (1/GPa) = 0.03256890
#
# Stress axis : x y z
#
# Youngs Moduli (GPa) = 93.52979 64.37618 33.63112
#
# Poissons Ratio (x) = 0.09777 0.12428
# Poissons Ratio (y) = 0.14204 0.21798
# Poissons Ratio (z) = 0.34563 0.41725
#
# Static dielectric constant tensor:
#      x y z
#    x 1.721900 0.000000 -0.015950 
#    y 0.000000 1.776240 0.000000 
#    z -0.015950 0.000000 1.695640 
# 
# From -- ./inp_files/271707.got.cif
#   From: 2010.05.17/outbox.cif.g08.bks.cpg/sg12_136_cif.got.tgz:271707.got - 2010.06.03 13:09:07.
