data_PCOD9194399
_publ_section_title
;
Structure prediction by ZEFSAII (Michael W. Deem and Ramdas Pophale) SiO2 
 PCOD9194399
Probable space group: C 2/M
;
_chemical_formula_sum "Si O2"
_cell_formula_units_Z 40
_cell_length_a 23.893765
_cell_length_b 13.197138
_cell_length_c 11.587990
_cell_angle_alpha 90.000000
_cell_angle_beta 34.462738
_cell_angle_gamma 90.000000
_cell_volume 2067.708171
_symmetry_space_group_name_H-M "C 2/M"
_symmetry_group_IT_number 12
_symmetry_cell_setting 'monoclinic'
loop_
_space_group_symop_operation_xyz
x,y,z
-x,y,-z
-x,-y,-z
x,-y,z
1/2+x,1/2+y,z
1/2-x,1/2+y,-z
1/2-x,1/2-y,-z
1/2+x,1/2-y,z
loop_
_atom_site_type_symbol
_atom_site_label
_atom_site_fract_x
_atom_site_fract_y
_atom_site_fract_z
Si Si1 0.497990 0.279757 0.132990
Si Si2 0.340194 0.115583 0.735421
Si Si3 0.717359 0.382297 0.490958
Si Si4 0.790058 0.190808 0.246129
Si Si5 0.455714 0.884494 0.754273
O O1 0.395657 0.339408 0.325592
O O2 0.518283 0.192326 0.189535
O O3 0.500000 0.237198 0.000000
O O4 0.598027 0.346000 0.964792
O O5 0.269748 0.175345 0.769032
O O6 0.444630 0.111409 0.491085
O O7 0.368116 0.151459 0.816816
O O8 0.303133 0.000000 0.808355
O O9 0.722711 0.500000 0.452192
O O10 0.781492 0.308055 0.301280
O O11 0.748589 0.366280 0.572567
O O12 0.434023 0.000000 0.828535
#
# Coordination Sequence:
#
# PCOD9194399 Si02
#       5
#     8   8   8   8   8
#     4  10  21  35  53  80 110 141 176 218 270 321
#     4   9  17  32  56  78 100 137 180 220 263 313
#     4  10  21  37  54  78 114 145 176 220 268 321
#     4  10  20  34  56  80 103 143 184 217 265 321
#     4   9  18  33  53  78 106 135 174 224 268 309
#
# _framework density 19.345089000000002
#
# number of rings (size 3 to 8) (size 9 to 14) (size 15 to 20)
#    0.000    2.400    2.000    1.800    0.000    6.400 
#    0.000    0.000    0.000    2.400    0.000    0.000 
#    0.000    0.000    0.000    0.000    0.000    0.000 
#
# Total GULP energy -111409.595626 kJ/mol
# GULP energy per Si atom -5570.479781 kJ/mol
# Density = 1.930106 g / cm^3
# Si number density = 19.345089 Si / 1000 Ang^3
#
#
#
# Elastic Constant Matrix: (Units=GPa)
#
#
# Indices 1 2 3 4 5 6 
#
# 1 127.5839 42.0491 -0.1823 0.0000 -1.3767 0.0000
# 2 42.0491 78.8666 5.0873 0.0000 10.2727 0.0000
# 3 -0.1823 5.0873 30.5116 0.0000 -14.2580 0.0000
# 4 0.0000 0.0000 0.0000 3.5872 0.0000 0.7816
# 5 -1.3767 10.2727 -14.2580 0.0000 23.7843 0.0000
# 6 0.0000 0.0000 0.0000 0.7816 0.0000 19.5960
#
#
#
# Elastic Compliance Matrix: (Units=1/GPa)
#
#
# Indices 1 2 3 4 5 6 
#
# 1 0.009967 -0.006264 0.003664 0.000000 0.005479 0.000000
# 2 -0.006264 0.018499 -0.009759 0.000000 -0.014202 0.000000
# 3 0.003664 -0.009759 0.050693 0.000000 0.034816 0.000000
# 4 0.000000 0.000000 0.000000 0.281216 0.000000 -0.011216
# 5 0.005479 -0.014202 0.034816 0.000000 0.069367 0.000000
# 6 0.000000 0.000000 0.000000 -0.011216 0.000000 0.051478
#
#
# Mechanical properties :
#
#
# Convention : Reuss Voigt Hill
#
# Bulk Modulus (GPa) = 18.36818 36.76335 27.56577
# Shear Modulus (GPa) = 9.54047 22.06068 15.80057
#
# Velocity S-wave (km/s) = 2.22316 3.38061 2.86103
# Velocity P-wave (km/s) = 4.01317 5.85519 5.01940
#
# Compressibility (1/GPa) = 0.05444197
#
# Stress axis : x y z
#
# Youngs Moduli (GPa) = 100.33270 54.05742 19.72664
#
# Poissons Ratio (x) = 0.33862 -0.07229
# Poissons Ratio (y) = 0.62849 0.19250
# Poissons Ratio (z) = -0.36765 0.52752
#
# Static dielectric constant tensor:
#      x y z
#    x 1.722960 0.000000 -0.018170 
#    y 0.000000 1.680220 0.000000 
#    z -0.018170 0.000000 1.711310 
# 
# From -- ./inp_files/140474.got.cif
#   From: 2010.05.17/outbox.cif.g08.bks.cpg/sg12_71_cif.got.tgz:140474.got - 2010.06.03 13:09:07.
