data_PCOD9194219
_publ_section_title
;
Structure prediction by ZEFSAII (Michael W. Deem and Ramdas Pophale) SiO2 
 PCOD9194219
Probable space group: C 2/M
;
_chemical_formula_sum "Si O2"
_cell_formula_units_Z 56
_cell_length_a 28.013364
_cell_length_b 9.600160
_cell_length_c 10.783948
_cell_angle_alpha 90.000000
_cell_angle_beta 78.598827
_cell_angle_gamma 90.000000
_cell_volume 2842.928649
_symmetry_space_group_name_H-M "C 2/M"
_symmetry_group_IT_number 12
_symmetry_cell_setting 'monoclinic'
loop_
_space_group_symop_operation_xyz
x,y,z
-x,y,-z
-x,-y,-z
x,-y,z
1/2+x,1/2+y,z
1/2-x,1/2+y,-z
1/2-x,1/2-y,-z
1/2+x,1/2-y,z
loop_
_atom_site_type_symbol
_atom_site_label
_atom_site_fract_x
_atom_site_fract_y
_atom_site_fract_z
Si Si1 0.634220 0.840989 0.820776
Si Si2 0.373684 0.337575 0.760678
Si Si3 0.460348 0.664146 0.129691
Si Si4 0.516209 0.669129 0.353455
Si Si5 0.293730 0.653424 0.339660
Si Si6 0.699929 0.837623 0.031042
Si Si7 0.211858 0.149543 0.364070
O O1 0.585530 0.758786 0.879142
O O2 0.661047 0.755055 0.700255
O O3 0.623852 0.000000 0.792496
O O4 0.672871 0.838997 0.912500
O O5 0.374902 0.500000 0.804540
O O6 0.428655 0.288714 0.710598
O O7 0.339609 0.242162 0.863252
O O8 0.343705 0.337264 0.647621
O O9 0.446932 0.500000 0.142541
O O10 0.481846 0.705170 0.254026
O O11 0.500000 0.678200 0.000000
O O12 0.500000 0.716901 0.500000
O O13 0.516834 0.500000 0.358142
O O14 0.303128 0.500000 0.282983
O O15 0.246062 0.724751 0.305572
O O16 0.284604 0.641753 0.490508
O O17 0.708142 0.000000 0.062839
O O18 0.750000 0.750000 0.000000
O O19 0.229757 0.000000 0.302487
#
# Coordination Sequence:
#
# PCOD9194219 Si02
#       7
#     8   8   8   8   8   8   8
#     4  11  24  39  57  82 115 154 193 237 292 349
#     4  10  20  36  60  86 115 152 194 240 295 354
#     4  10  21  38  62  90 116 150 203 256 299 355
#     4   9  19  35  60  90 121 156 199 252 306 358
#     4  10  20  34  55  83 113 148 190 234 280 340
#     4  11  24  40  59  86 120 157 197 243 296 357
#     4   9  19  34  54  82 116 150 184 228 286 347
#
# _framework density 19.697997000000001
#
# number of rings (size 3 to 8) (size 9 to 14) (size 15 to 20)
#    0.000    2.000    0.000    3.000    2.000    8.286 
#    0.000    0.714    0.000    0.857    0.000    0.000 
#    0.000    0.000    0.000    0.000    0.000    0.000 
#
# Total GULP energy -156181.477637 kJ/mol
# GULP energy per Si atom -5577.909916 kJ/mol
# Density = 1.965316 g / cm^3
# Si number density = 19.697997 Si / 1000 Ang^3
#
#
#
# Elastic Constant Matrix: (Units=GPa)
#
#
# Indices 1 2 3 4 5 6 
#
# 1 101.7972 63.5248 26.2228 0.0000 -16.9274 0.0000
# 2 63.5248 128.0880 36.7077 0.0000 -19.8497 0.0000
# 3 26.2228 36.7077 70.0490 0.0000 -9.4459 0.0000
# 4 0.0000 0.0000 0.0000 17.6338 0.0000 -8.8342
# 5 -16.9274 -19.8497 -9.4459 0.0000 33.2026 0.0000
# 6 0.0000 0.0000 0.0000 -8.8342 0.0000 25.7167
#
#
#
# Elastic Compliance Matrix: (Units=1/GPa)
#
#
# Indices 1 2 3 4 5 6 
#
# 1 0.014757 -0.006305 -0.001783 0.000000 0.003247 0.000000
# 2 -0.006305 0.012507 -0.003764 0.000000 0.003192 0.000000
# 3 -0.001783 -0.003764 0.017147 0.000000 0.001719 0.000000
# 4 0.000000 0.000000 0.000000 0.068497 0.000000 0.023530
# 5 0.003247 0.003192 0.001719 0.000000 0.034171 0.000000
# 6 0.000000 0.000000 0.000000 0.023530 0.000000 0.046968
#
#
# Mechanical properties :
#
#
# Convention : Reuss Voigt Hill
#
# Bulk Modulus (GPa) = 48.28643 61.42722 54.85682
# Shear Modulus (GPa) = 22.25660 26.87588 24.56624
#
# Velocity S-wave (km/s) = 3.36503 3.69778 3.53532
# Velocity P-wave (km/s) = 6.29798 7.03446 6.67638
#
# Compressibility (1/GPa) = 0.02070975
#
# Stress axis : x y z
#
# Youngs Moduli (GPa) = 67.76522 79.95457 58.31893
#
# Poissons Ratio (x) = 0.50408 0.10396
# Poissons Ratio (y) = 0.42723 0.21948
# Poissons Ratio (z) = 0.12080 0.30091
#
# Static dielectric constant tensor:
#      x y z
#    x 1.683570 0.000000 0.020700 
#    y 0.000000 1.710950 0.000000 
#    z 0.020700 0.000000 1.732180 
# 
# From -- ./inp_files/180756.got.cif
#   From: 2010.05.17/outbox.cif.g08.bks.cpg/sg12_91_cif.got.tgz:180756.got - 2010.06.03 13:09:07.
