data_PCOD9194947
_publ_section_title
;
Structure prediction by ZEFSAII (Michael W. Deem and Ramdas Pophale) SiO2 
 PCOD9194947
Probable space group: C 2/M
;
_chemical_formula_sum "Si O2"
_cell_formula_units_Z 64
_cell_length_a 18.862337
_cell_length_b 14.234697
_cell_length_c 25.623978
_cell_angle_alpha 90.000000
_cell_angle_beta 27.395357
_cell_angle_gamma 90.000000
_cell_volume 3165.692953
_symmetry_space_group_name_H-M "C 2/M"
_symmetry_group_IT_number 12
_symmetry_cell_setting 'monoclinic'
loop_
_space_group_symop_operation_xyz
x,y,z
-x,y,-z
-x,-y,-z
x,-y,z
1/2+x,1/2+y,z
1/2-x,1/2+y,-z
1/2-x,1/2-y,-z
1/2+x,1/2-y,z
loop_
_atom_site_type_symbol
_atom_site_label
_atom_site_fract_x
_atom_site_fract_y
_atom_site_fract_z
Si Si1 0.443658 0.889663 0.955204
Si Si2 0.267986 0.104095 0.590871
Si Si3 0.520608 0.390229 0.842261
Si Si4 0.985943 0.787246 0.450817
Si Si5 0.820530 0.754348 0.831938
Si Si6 0.663093 0.890571 0.087706
Si Si7 0.813123 0.242120 0.185717
Si Si8 0.370647 0.665284 0.420792
O O1 0.446243 0.877356 0.890622
O O2 0.592269 0.838894 0.881636
O O3 0.434847 0.000000 0.972463
O O4 0.293099 0.834145 0.072394
O O5 0.124284 0.126032 0.723239
O O6 0.388226 0.189607 0.517220
O O7 0.205482 0.098982 0.572487
O O8 0.329154 0.000000 0.565170
O O9 0.537980 0.500000 0.844039
O O10 0.582435 0.327038 0.848740
O O11 0.339146 0.372859 0.953580
O O12 0.908186 0.853252 0.457172
O O13 0.000000 0.826407 0.500000
O O14 0.155571 0.761150 0.319508
O O15 0.865936 0.680812 0.846665
O O16 0.729434 0.705160 0.843732
O O17 0.969804 0.800594 0.708776
O O18 0.653626 0.000000 0.110074
O O19 0.250000 0.750000 0.500000
#
# Coordination Sequence:
#
# PCOD9194947 Si02
#       8
#     8   8   8   8   8   8   8   8
#     4  11  24  40  61  88 118 158 208 251 292 347
#     4  10  20  36  61  90 119 152 196 250 296 347
#     4  10  20  34  58  92 123 155 197 242 298 360
#     4  10  20  37  59  84 118 156 196 240 293 360
#     4  11  22  37  61  86 121 159 198 243 300 354
#     4  10  22  38  59  89 120 154 197 245 296 356
#     4  11  23  37  57  89 120 162 196 242 302 357
#     4   9  21  37  57  88 115 154 195 236 292 349
#
# _framework density 20.216743000000001
#
# number of rings (size 3 to 8) (size 9 to 14) (size 15 to 20)
#    0.000    1.750    2.500    1.500    1.750    3.750 
#    0.000    8.125    0.000    1.500    0.000    0.000 
#    0.000    0.000    0.000    0.000    0.000    0.000 
#
# Total GULP energy -178646.225975 kJ/mol
# GULP energy per Si atom -5582.694562 kJ/mol
# Density = 2.017073 g / cm^3
# Si number density = 20.216743 Si / 1000 Ang^3
#
#
#
# Elastic Constant Matrix: (Units=GPa)
#
#
# Indices 1 2 3 4 5 6 
#
# 1 100.0495 15.7679 2.4953 -0.0001 18.0924 0.0000
# 2 15.7679 40.2661 9.9135 -0.0010 11.7868 0.0001
# 3 2.4953 9.9135 44.9898 -0.0034 13.3107 0.0009
# 4 -0.0001 -0.0010 -0.0034 -1.6095 0.0013 -5.6208
# 5 18.0924 11.7868 13.3107 0.0013 30.9286 -0.0005
# 6 0.0000 0.0001 0.0009 -5.6208 -0.0005 14.9695
#
#
#
# Elastic Compliance Matrix: (Units=1/GPa)
#
#
# Indices 1 2 3 4 5 6 
#
# 1 0.011604 -0.003142 0.001951 -0.000003 -0.006431 -0.000001
# 2 -0.003142 0.029278 -0.004033 -0.000007 -0.007584 -0.000003
# 3 0.001951 -0.004033 0.026231 -0.000024 -0.010893 -0.000011
# 4 -0.000003 -0.000007 -0.000024 -0.268813 0.000024 -0.100935
# 5 -0.006431 -0.007584 -0.010893 0.000024 0.043672 0.000011
# 6 -0.000001 -0.000003 -0.000011 -0.100935 0.000011 0.028903
#
#
# Mechanical properties :
#
#
# Convention : Reuss Voigt Hill
#
# Bulk Modulus (GPa) = 17.64772 26.85098 22.24935
# Shear Modulus (GPa) = -50.10644 19.33298 -15.38673
#
# Velocity S-wave (km/s) = -4.98382 3.09574 -2.76178
# Velocity P-wave (km/s) = 4.93657 5.10769 0.92705
#
# Compressibility (1/GPa) = 0.05666453
#
# Stress axis : x y z
#
# Youngs Moduli (GPa) = 86.17362 34.15509 38.12340
#
# Poissons Ratio (x) = 0.10732 -0.07439
# Poissons Ratio (y) = 0.27078 0.15377
# Poissons Ratio (z) = -0.16815 0.13776
#
# Static dielectric constant tensor:
#      x y z
#    x 1.762390 0.000000 0.014830 
#    y 0.000000 1.684620 0.000000 
#    z 0.014830 0.000000 1.693050 
# 
# From -- ./inp_files/343995.got.cif
#   From: 2010.05.17/outbox.cif.g08.bks.cpg/sg12_172_cif.got.tgz:343995.got - 2010.06.03 13:09:07.
