data_PCOD9194280
_publ_section_title
;
Structure prediction by ZEFSAII (Michael W. Deem and Ramdas Pophale) SiO2 
 PCOD9194280
Probable space group: C 2/M
;
_chemical_formula_sum "Si O2"
_cell_formula_units_Z 64
_cell_length_a 30.296751
_cell_length_b 7.636344
_cell_length_c 15.193161
_cell_angle_alpha 90.000000
_cell_angle_beta 52.305884
_cell_angle_gamma 90.000000
_cell_volume 2781.399323
_symmetry_space_group_name_H-M "C 2/M"
_symmetry_group_IT_number 12
_symmetry_cell_setting 'monoclinic'
loop_
_space_group_symop_operation_xyz
x,y,z
-x,y,-z
-x,-y,-z
x,-y,z
1/2+x,1/2+y,z
1/2-x,1/2+y,-z
1/2-x,1/2-y,-z
1/2+x,1/2-y,z
loop_
_atom_site_type_symbol
_atom_site_label
_atom_site_fract_x
_atom_site_fract_y
_atom_site_fract_z
Si Si1 0.967180 0.787462 0.890727
Si Si2 0.693318 0.207569 0.117451
Si Si3 0.079352 0.799509 0.229176
Si Si4 0.862217 0.296500 0.491890
Si Si5 0.268549 0.784830 0.737055
Si Si6 0.904960 0.708240 0.251611
Si Si7 0.857535 0.202814 0.126125
Si Si8 0.934101 0.203204 0.566278
O O1 0.958425 0.723660 0.800965
O O2 0.029168 0.740544 0.844525
O O3 0.964881 0.000000 0.893599
O O4 0.913373 0.723005 0.011110
O O5 0.643642 0.297285 0.123579
O O6 0.701475 0.267920 0.208576
O O7 0.684360 0.000000 0.126976
O O8 0.750000 0.250000 0.000000
O O9 0.084214 0.713680 0.318855
O O10 0.060145 0.000000 0.266528
O O11 0.850212 0.500000 0.489478
O O12 0.806758 0.224853 0.608209
O O13 0.884752 0.223038 0.371941
O O14 0.910432 0.287079 0.507350
O O15 0.204346 0.723307 0.815099
O O16 0.268354 0.000000 0.735820
O O17 0.896908 0.500000 0.258931
O O18 0.870213 0.788339 0.214331
O O19 0.854642 0.000000 0.101792
O O20 0.000000 0.207752 0.500000
O O21 0.916234 0.000000 0.582392
#
# Coordination Sequence:
#
# PCOD9194280 Si02
#       8
#     8   8   8   8   8   8   8   8
#     4  10  21  39  62  86 116 154 196 239 288 355
#     4  11  21  35  57  83 116 154 192 233 282 338
#     4  10  20  35  56  85 117 147 188 233 279 337
#     4  10  21  39  59  82 116 155 194 236 286 351
#     4   9  19  38  61  83 112 152 195 237 285 347
#     4  11  24  39  58  86 118 150 190 247 303 346
#     4  10  21  39  63  85 108 149 200 243 290 351
#     4  10  20  34  55  84 117 151 188 235 283 330
#
# _framework density 23.010003000000001
#
# number of rings (size 3 to 8) (size 9 to 14) (size 15 to 20)
#    0.000    1.875    1.250    2.625    0.000    7.250 
#    0.000    3.125    0.000    0.000    0.000    0.000 
#    0.000    0.000    0.000    0.000    0.000    0.000 
#
# Total GULP energy -178653.162980 kJ/mol
# GULP energy per Si atom -5582.911343 kJ/mol
# Density = 2.295763 g / cm^3
# Si number density = 23.010003 Si / 1000 Ang^3
#
#
#
# Elastic Constant Matrix: (Units=GPa)
#
#
# Indices 1 2 3 4 5 6 
#
# 1 98.8386 -2.3970 6.5654 0.0000 -5.6295 0.0000
# 2 -2.3970 56.1832 9.2912 -0.0003 -4.0460 0.0006
# 3 6.5654 9.2912 88.7342 0.0000 -1.8096 0.0000
# 4 0.0000 -0.0003 0.0000 16.7958 0.0000 -2.5952
# 5 -5.6295 -4.0460 -1.8096 0.0000 39.1476 0.0000
# 6 0.0000 0.0006 0.0000 -2.5952 0.0000 13.0952
#
#
#
# Elastic Compliance Matrix: (Units=1/GPa)
#
#
# Indices 1 2 3 4 5 6 
#
# 1 0.010273 0.000679 -0.000800 0.000000 0.001511 0.000000
# 2 0.000679 0.018283 -0.001926 0.000000 0.001898 -0.000001
# 3 -0.000800 -0.001926 0.011535 0.000000 0.000219 0.000000
# 4 0.000000 0.000000 0.000000 0.061419 0.000000 0.012172
# 5 0.001511 0.001898 0.000219 0.000000 0.025968 0.000000
# 6 0.000000 -0.000001 0.000000 0.012172 0.000000 0.078776
#
#
# Mechanical properties :
#
#
# Convention : Reuss Voigt Hill
#
# Bulk Modulus (GPa) = 27.77981 30.07501 28.92741
# Shear Modulus (GPa) = 22.48729 29.16082 25.82406
#
# Velocity S-wave (km/s) = 3.12954 3.56379 3.35370
# Velocity P-wave (km/s) = 5.01576 5.48023 5.25313
#
# Compressibility (1/GPa) = 0.03599736
#
# Stress axis : x y z
#
# Youngs Moduli (GPa) = 97.34080 54.69535 86.69293
#
# Poissons Ratio (x) = -0.03716 0.06939
# Poissons Ratio (y) = -0.06614 0.16697
# Poissons Ratio (z) = 0.07792 0.10534
#
# Static dielectric constant tensor:
#      x y z
#    x 1.841020 0.000000 -0.036830 
#    y 0.000000 1.888770 0.000000 
#    z -0.036830 0.000000 2.028430 
# 
# From -- ./inp_files/249683.got.cif
#   From: 2010.05.17/outbox.cif.g08.bks.cpg/sg12_125_cif.got.tgz:249683.got - 2010.06.03 13:09:07.
