data_PCOD9194247
_publ_section_title
;
Structure prediction by ZEFSAII (Michael W. Deem and Ramdas Pophale) SiO2 
 PCOD9194247
Probable space group: C 2/M
;
_chemical_formula_sum "Si O2"
_cell_formula_units_Z 58
_cell_length_a 29.102816
_cell_length_b 7.791412
_cell_length_c 12.218317
_cell_angle_alpha 90.000000
_cell_angle_beta 76.731143
_cell_angle_gamma 90.000000
_cell_volume 2696.565529
_symmetry_space_group_name_H-M "C 2/M"
_symmetry_group_IT_number 12
_symmetry_cell_setting 'monoclinic'
loop_
_space_group_symop_operation_xyz
x,y,z
-x,y,-z
-x,-y,-z
x,-y,z
1/2+x,1/2+y,z
1/2-x,1/2+y,-z
1/2-x,1/2-y,-z
1/2+x,1/2-y,z
loop_
_atom_site_type_symbol
_atom_site_label
_atom_site_fract_x
_atom_site_fract_y
_atom_site_fract_z
Si Si1 0.761480 0.193963 0.118129
Si Si2 0.143960 0.698313 0.824454
Si Si3 0.000000 0.500000 0.500000
Si Si4 0.337597 0.701137 0.769388
Si Si5 0.098966 0.705833 0.067922
Si Si6 0.072074 0.209870 0.429711
Si Si7 0.582822 0.700287 0.674059
Si Si8 0.997117 0.797793 0.124077
O O1 0.803353 0.291125 0.157087
O O2 0.712485 0.206676 0.210951
O O3 0.778236 0.000000 0.103209
O O4 0.750000 0.250000 0.000000
O O5 0.132070 0.500000 0.816843
O O6 0.130981 0.782368 0.716379
O O7 0.110378 0.770544 0.939386
O O8 0.968989 0.343726 0.578954
O O9 0.327723 0.500000 0.764929
O O10 0.358723 0.740481 0.877117
O O11 0.379996 0.743098 0.663714
O O12 0.096511 0.500000 0.066921
O O13 0.050088 0.779235 0.139034
O O14 0.082155 0.263532 0.550791
O O15 0.061746 0.000000 0.426292
O O16 0.572068 0.500000 0.668102
O O17 0.541776 0.777838 0.773453
O O18 0.986274 0.000000 0.117862
O O19 0.000000 0.720741 0.000000
#
# Coordination Sequence:
#
# PCOD9194247 Si02
#       8
#     8   8   2   8   8   8   8   8
#     4  12  24  40  66  97 130 168 218 272 341 403
#     4  11  23  39  61  93 128 167 213 265 330 400
#     4  12  26  44  76  94 134 188 234 272 340 390
#     4  11  24  43  66  91 132 169 214 279 331 392
#     4  11  23  35  56  90 128 163 209 263 320 393
#     4  10  26  46  67 101 136 180 231 280 333 398
#     4  10  22  42  63  87 130 172 219 273 326 396
#     4  10  20  34  55  83 118 163 206 250 312 383
#
# _framework density 21.508842000000001
#
# number of rings (size 3 to 8) (size 9 to 14) (size 15 to 20)
#    0.000    1.241    2.759    2.690    4.828    1.931 
#    0.000    0.690    0.000    0.000    0.000    0.000 
#    0.000    0.000    0.000    0.000    0.000    0.000 
#
# Total GULP energy -161723.859262 kJ/mol
# GULP energy per Si atom -5576.684802 kJ/mol
# Density = 2.145989 g / cm^3
# Si number density = 21.508842 Si / 1000 Ang^3
#
#
#
# Elastic Constant Matrix: (Units=GPa)
#
#
# Indices 1 2 3 4 5 6 
#
# 1 80.4628 6.8205 2.9161 0.0000 -6.0070 0.0000
# 2 6.8205 56.6058 17.4556 0.0000 -22.3364 0.0000
# 3 2.9161 17.4556 71.4403 0.0000 -1.4490 0.0000
# 4 0.0000 0.0000 0.0000 15.2951 0.0000 -4.1414
# 5 -6.0070 -22.3364 -1.4490 0.0000 26.6135 0.0000
# 6 0.0000 0.0000 0.0000 -4.1414 0.0000 24.5748
#
#
#
# Elastic Compliance Matrix: (Units=1/GPa)
#
#
# Indices 1 2 3 4 5 6 
#
# 1 0.012663 -0.000441 -0.000359 0.000000 0.002468 0.000000
# 2 -0.000441 0.029286 -0.006649 0.000000 0.024118 0.000000
# 3 -0.000359 -0.006649 0.015539 0.000000 -0.004815 0.000000
# 4 0.000000 0.000000 0.000000 0.068506 0.000000 0.011545
# 5 0.002468 0.024118 -0.004815 0.000000 0.058112 0.000000
# 6 0.000000 0.000000 0.000000 0.011545 0.000000 0.042638
#
#
# Mechanical properties :
#
#
# Convention : Reuss Voigt Hill
#
# Bulk Modulus (GPa) = 23.47913 29.21036 26.34474
# Shear Modulus (GPa) = 19.54358 25.38447 22.46403
#
# Velocity S-wave (km/s) = 3.01762 3.43911 3.23524
# Velocity P-wave (km/s) = 4.80428 5.42034 5.12158
#
# Compressibility (1/GPa) = 0.04259102
#
# Stress axis : x y z
#
# Youngs Moduli (GPa) = 78.97162 34.14566 64.35330
#
# Poissons Ratio (x) = 0.01506 0.02311
# Poissons Ratio (y) = 0.03482 0.42786
# Poissons Ratio (z) = 0.02836 0.22702
#
# Static dielectric constant tensor:
#      x y z
#    x 1.235610 0.000000 -0.509510 
#    y 0.000000 1.771310 0.000000 
#    z -0.509510 0.000000 1.350640 
# 
# From -- ./inp_files/186542.got.cif
#   From: 2010.05.17/outbox.cif.g08.bks.cpg/sg12_94_cif.got.tgz:186542.got - 2010.06.03 13:09:07.
