data_PCOD9194576
_publ_section_title
;
Structure prediction by ZEFSAII (Michael W. Deem and Ramdas Pophale) SiO2 
 PCOD9194576
Probable space group: C 2/M
;
_chemical_formula_sum "Si O2"
_cell_formula_units_Z 64
_cell_length_a 29.589801
_cell_length_b 20.909788
_cell_length_c 14.664773
_cell_angle_alpha 90.000000
_cell_angle_beta 19.937374
_cell_angle_gamma 90.000000
_cell_volume 3093.942672
_symmetry_space_group_name_H-M "C 2/M"
_symmetry_group_IT_number 12
_symmetry_cell_setting 'monoclinic'
loop_
_space_group_symop_operation_xyz
x,y,z
-x,y,-z
-x,-y,-z
x,-y,z
1/2+x,1/2+y,z
1/2-x,1/2+y,-z
1/2-x,1/2-y,-z
1/2+x,1/2-y,z
loop_
_atom_site_type_symbol
_atom_site_label
_atom_site_fract_x
_atom_site_fract_y
_atom_site_fract_z
Si Si1 0.024361 0.576224 0.058462
Si Si2 0.280868 0.384366 0.692089
Si Si3 0.146967 0.922968 0.242356
Si Si4 0.377568 0.926502 0.685072
Si Si5 0.031613 0.071820 0.099870
Si Si6 0.322463 0.897091 0.598012
Si Si7 0.062889 0.785998 0.973452
Si Si8 0.663136 0.756243 0.468399
O O1 0.044614 0.500000 0.014458
O O2 0.894067 0.589627 0.366502
O O3 0.149760 0.602425 0.879087
O O4 0.000000 0.599286 0.000000
O O5 0.286871 0.405800 0.785803
O O6 0.405327 0.418005 0.404728
O O7 0.305750 0.308599 0.642642
O O8 0.000000 0.897555 0.500000
O O9 0.135485 0.000000 0.264585
O O10 0.240232 0.899981 0.982816
O O11 0.500000 0.892697 0.500000
O O12 0.396876 0.927390 0.541225
O O13 0.373600 0.000000 0.724581
O O14 0.022459 0.000000 0.076066
O O15 0.173383 0.076432 0.881390
O O16 0.040645 0.136975 0.023083
O O17 0.329154 0.821310 0.602216
O O18 0.216174 0.767610 0.689452
O O19 0.000000 0.762866 0.000000
O O20 0.977703 0.753937 0.215707
#
# Coordination Sequence:
#
# PCOD9194576 Si02
#       8
#     8   8   8   8   8   8   8   8
#     4  11  24  40  61  89 118 155 200 244 298 352
#     4  11  22  40  61  86 123 158 193 245 288 339
#     4  10  20  35  59  89 116 147 190 237 292 353
#     4  10  20  34  56  86 114 145 188 236 294 354
#     4  10  21  36  58  85 113 151 189 234 304 355
#     4  11  22  40  60  83 120 157 192 244 292 344
#     4  10  21  37  57  80 109 147 196 248 285 332
#     4  10  23  38  56  80 110 155 199 229 283 347
#
# _framework density 20.685580000000002
#
# number of rings (size 3 to 8) (size 9 to 14) (size 15 to 20)
#    0.000    1.625    0.000    4.875    0.000    8.250 
#    0.000    1.250    0.000    0.000    0.000    0.000 
#    0.000    0.000    0.000    0.000    0.000    0.000 
#
# Total GULP energy -178441.526223 kJ/mol
# GULP energy per Si atom -5576.297694 kJ/mol
# Density = 2.063850 g / cm^3
# Si number density = 20.685580 Si / 1000 Ang^3
#
#
#
# Elastic Constant Matrix: (Units=GPa)
#
#
# Indices 1 2 3 4 5 6 
#
# 1 89.0887 -2.5429 32.0393 0.0003 2.7499 -0.0001
# 2 -2.5429 92.6593 11.5834 0.0002 -1.2852 0.0000
# 3 32.0393 11.5834 89.0362 0.0002 -13.4508 -0.0001
# 4 0.0003 0.0002 0.0002 16.7744 -0.0001 -5.5693
# 5 2.7499 -1.2852 -13.4508 -0.0001 19.6333 0.0001
# 6 -0.0001 0.0000 -0.0001 -5.5693 0.0001 -1.3632
#
#
#
# Elastic Compliance Matrix: (Units=1/GPa)
#
#
# Indices 1 2 3 4 5 6 
#
# 1 0.013557 0.001028 -0.005900 0.000000 -0.005873 0.000000
# 2 0.001028 0.011050 -0.001919 0.000000 -0.000735 0.000000
# 3 -0.005900 -0.001919 0.015293 0.000000 0.011178 0.000000
# 4 0.000000 0.000000 0.000000 0.025299 0.000001 -0.103359
# 5 -0.005873 -0.000735 0.011178 0.000001 0.059366 0.000001
# 6 0.000000 0.000000 0.000000 -0.103359 0.000001 -0.311311
#
#
# Mechanical properties :
#
#
# Convention : Reuss Voigt Hill
#
# Bulk Modulus (GPa) = 37.99440 39.21599 38.60519
# Shear Modulus (GPa) = -30.41493 22.32253 -4.04620
#
# Velocity S-wave (km/s) = -3.83867 3.28858 -1.40011
# Velocity P-wave (km/s) = 1.11342 5.78092 4.01119
#
# Compressibility (1/GPa) = 0.02631967
#
# Stress axis : x y z
#
# Youngs Moduli (GPa) = 73.76228 90.49697 65.39137
#
# Poissons Ratio (x) = -0.09304 0.38578
# Poissons Ratio (y) = -0.07584 0.12546
# Poissons Ratio (z) = 0.43516 0.17363
#
# Static dielectric constant tensor:
#      x y z
#    x 1.744800 0.000000 0.046420 
#    y 0.000000 1.742660 0.000000 
#    z 0.046420 0.000000 1.973160 
# 
# From -- ./inp_files/251923.got.cif
#   From: 2010.05.17/outbox.cif.g08.bks.cpg/sg12_126_cif.got.tgz:251923.got - 2010.06.03 13:09:07.
