data_PCOD9194544
_publ_section_title
;
Structure prediction by ZEFSAII (Michael W. Deem and Ramdas Pophale) SiO2 
 PCOD9194544
Probable space group: C 2/M
;
_chemical_formula_sum "Si O2"
_cell_formula_units_Z 64
_cell_length_a 33.000899
_cell_length_b 7.593638
_cell_length_c 25.474875
_cell_angle_alpha 90.000000
_cell_angle_beta 26.734874
_cell_angle_gamma 90.000000
_cell_volume 2871.889256
_symmetry_space_group_name_H-M "C 2/M"
_symmetry_group_IT_number 12
_symmetry_cell_setting 'monoclinic'
loop_
_space_group_symop_operation_xyz
x,y,z
-x,y,-z
-x,-y,-z
x,-y,z
1/2+x,1/2+y,z
1/2-x,1/2+y,-z
1/2-x,1/2-y,-z
1/2+x,1/2-y,z
loop_
_atom_site_type_symbol
_atom_site_label
_atom_site_fract_x
_atom_site_fract_y
_atom_site_fract_z
Si Si1 0.028291 0.784974 0.408784
Si Si2 0.766228 0.213318 0.833589
Si Si3 0.828084 0.709691 0.950894
Si Si4 0.528640 0.702724 0.718383
Si Si5 0.628116 0.705313 0.907449
Si Si6 0.680699 0.797256 0.732114
Si Si7 0.524560 0.702650 0.839211
Si Si8 0.115324 0.216359 0.512118
O O1 0.130690 0.728917 0.279162
O O2 0.000000 0.730888 0.500000
O O3 0.956275 0.726072 0.448891
O O4 0.028191 0.000000 0.408162
O O5 0.720658 0.275839 0.832683
O O6 0.765820 0.000000 0.833320
O O7 0.705605 0.271418 0.952950
O O8 0.841160 0.500000 0.938085
O O9 0.923139 0.792708 0.825797
O O10 0.750000 0.750000 0.000000
O O11 0.559280 0.500000 0.687736
O O12 0.534072 0.783556 0.770359
O O13 0.584244 0.778285 0.605576
O O14 0.607567 0.500000 0.922058
O O15 0.636939 0.788239 0.840285
O O16 0.551045 0.782222 0.034838
O O17 0.617361 0.704550 0.763355
O O18 0.782635 0.728665 0.617501
O O19 0.685451 0.000000 0.709850
O O20 0.495022 0.500000 0.864717
O O21 0.113033 0.000000 0.514037
#
# Coordination Sequence:
#
# PCOD9194544 Si02
#       8
#     8   8   8   8   8   8   8   8
#     4   9  16  29  52  81 112 146 187 234 280 330
#     4  10  20  34  56  85 113 147 192 240 285 335
#     4  11  22  35  55  84 118 154 195 240 289 342
#     4  10  20  39  62  82 113 155 198 242 292 351
#     4  11  22  38  59  85 118 154 190 236 297 358
#     4  11  23  38  60  88 114 149 196 246 292 347
#     4  10  22  39  59  84 115 153 192 239 302 359
#     4   9  19  36  58  84 115 153 198 243 292 347
#
# _framework density 22.284981999999999
#
# number of rings (size 3 to 8) (size 9 to 14) (size 15 to 20)
#    0.000    1.875    1.250    3.000    0.000    8.000 
#    0.000    1.250    0.000    4.125    0.000    0.000 
#    0.000    0.000    0.000    0.000    0.000    0.000 
#
# Total GULP energy -178896.644798 kJ/mol
# GULP energy per Si atom -5590.520150 kJ/mol
# Density = 2.223426 g / cm^3
# Si number density = 22.284982 Si / 1000 Ang^3
#
#
#
# Elastic Constant Matrix: (Units=GPa)
#
#
# Indices 1 2 3 4 5 6 
#
# 1 134.0048 -5.0699 43.0652 -0.1213 4.8866 -0.1461
# 2 -5.0699 53.3213 4.6293 -0.3692 3.0663 -0.3619
# 3 43.0652 4.6293 103.8755 -0.6594 10.8871 -0.6836
# 4 -0.1213 -0.3692 -0.6594 -178.4661 0.1326 -188.6465
# 5 4.8866 3.0663 10.8871 0.1326 41.0752 0.1396
# 6 -0.1461 -0.3619 -0.6836 -188.6465 0.1396 -151.6905
#
#
#
# Elastic Compliance Matrix: (Units=1/GPa)
#
#
# Indices 1 2 3 4 5 6 
#
# 1 0.008679 0.001150 -0.003633 0.000001 -0.000155 0.000004
# 2 0.001150 0.019038 -0.001195 -0.000025 -0.001241 -0.000011
# 3 -0.003633 -0.001195 0.011450 -0.000035 -0.002513 -0.000004
# 4 0.000001 -0.000025 -0.000035 0.017813 0.000029 -0.022152
# 5 -0.000155 -0.001241 -0.002513 0.000029 0.025123 0.000002
# 6 0.000004 -0.000011 -0.000004 -0.022152 0.000002 0.020957
#
#
# Mechanical properties :
#
#
# Convention : Reuss Voigt Hill
#
# Bulk Modulus (GPa) = 31.43702 41.82788 36.63245
# Shear Modulus (GPa) = 41.31530 -41.24450 0.03540
#
# Velocity S-wave (km/s) = 4.31043 -4.30673 0.12618
# Velocity P-wave (km/s) = 6.23783 2.43317 4.06142
#
# Compressibility (1/GPa) = 0.03180963
#
# Stress axis : x y z
#
# Youngs Moduli (GPa) = 115.21821 52.52535 87.33935
#
# Poissons Ratio (x) = -0.06038 0.31732
# Poissons Ratio (y) = -0.13246 0.10439
# Poissons Ratio (z) = 0.41861 0.06278
#
# Static dielectric constant tensor:
#      x y z
#    x 1.782830 0.000020 0.015430 
#    y 0.000020 1.530390 0.000120 
#    z 0.015430 0.000120 1.806110 
# 
# From -- ./inp_files/353293.got.cif
#   From: 2010.05.17/outbox.cif.g08.bks.cpg/sg12_177_cif.got.tgz:353293.got - 2010.06.03 13:09:07.
