data_PCOD9194667
_publ_section_title
;
Structure prediction by ZEFSAII (Michael W. Deem and Ramdas Pophale) SiO2 
 PCOD9194667
Probable space group: C 2/M
;
_chemical_formula_sum "Si O2"
_cell_formula_units_Z 50
_cell_length_a 12.064857
_cell_length_b 13.169143
_cell_length_c 15.232881
_cell_angle_alpha 90.000000
_cell_angle_beta 73.494349
_cell_angle_gamma 90.000000
_cell_volume 2320.523740
_symmetry_space_group_name_H-M "C 2/M"
_symmetry_group_IT_number 12
_symmetry_cell_setting 'monoclinic'
loop_
_space_group_symop_operation_xyz
x,y,z
-x,y,-z
-x,-y,-z
x,-y,z
1/2+x,1/2+y,z
1/2-x,1/2+y,-z
1/2-x,1/2-y,-z
1/2+x,1/2-y,z
loop_
_atom_site_type_symbol
_atom_site_label
_atom_site_fract_x
_atom_site_fract_y
_atom_site_fract_z
Si Si1 0.762996 0.879508 0.761777
Si Si2 0.531921 0.877532 0.717169
Si Si3 0.331895 0.617537 0.947921
Si Si4 0.877376 0.814768 0.571243
Si Si5 0.000000 0.500000 0.000000
Si Si6 0.842381 0.615075 0.483772
Si Si7 0.900181 0.672079 0.902479
O O1 0.642812 0.839372 0.748805
O O2 0.776866 0.868083 0.862673
O O3 0.864707 0.839078 0.676483
O O4 0.760145 0.000000 0.747968
O O5 0.561347 0.852546 0.610102
O O6 0.422448 0.835589 0.793805
O O7 0.527026 0.000000 0.720279
O O8 0.371558 0.500000 0.945934
O O9 0.417878 0.712809 0.932085
O O10 0.228347 0.637458 0.039589
O O11 0.843829 0.698274 0.558595
O O12 0.777918 0.877673 0.542276
O O13 0.000000 0.837836 0.500000
O O14 0.981337 0.589106 0.929949
O O15 0.861970 0.500000 0.508294
#
# Coordination Sequence:
#
# PCOD9194667 Si02
#       7
#     8   8   8   8   2   8   8
#     4   9  19  34  56  80 111 144 190 237 277 332
#     4   9  16  31  55  83 106 145 193 233 277 337
#     4  10  21  37  53  87 121 148 182 241 291 336
#     4  10  20  34  57  81 107 151 192 233 283 348
#     4  12  20  36  58  92 100 152 198 218 272 344
#     4   9  20  36  54  81 117 147 187 244 289 337
#     4  11  21  32  62  85 114 148 190 234 277 345
#
# _framework density 21.546861
#
# number of rings (size 3 to 8) (size 9 to 14) (size 15 to 20)
#    0.000    2.240    1.600    2.400    4.480    1.600 
#    0.000    0.400    1.760    0.000    0.000    0.000 
#    0.000    0.000    0.000    0.000    0.000    0.000 
#
# Total GULP energy -139279.488224 kJ/mol
# GULP energy per Si atom -5571.179529 kJ/mol
# Density = 2.149782 g / cm^3
# Si number density = 21.546861 Si / 1000 Ang^3
#
#
#
# Elastic Constant Matrix: (Units=GPa)
#
#
# Indices 1 2 3 4 5 6 
#
# 1 33.3902 7.9953 7.3124 0.0000 -0.6139 0.0000
# 2 7.9953 132.5229 21.0659 0.0000 2.5640 0.0000
# 3 7.3124 21.0659 74.9793 0.0000 -25.1955 0.0000
# 4 0.0000 0.0000 0.0000 33.3286 0.0000 3.9777
# 5 -0.6139 2.5640 -25.1955 0.0000 27.4278 0.0000
# 6 0.0000 0.0000 0.0000 3.9777 0.0000 11.8235
#
#
#
# Elastic Compliance Matrix: (Units=1/GPa)
#
#
# Indices 1 2 3 4 5 6 
#
# 1 0.030967 -0.001273 -0.003456 0.000000 -0.002363 0.000000
# 2 -0.001273 0.008269 -0.003571 0.000000 -0.004082 0.000000
# 3 -0.003456 -0.003571 0.021356 0.000000 0.019874 0.000000
# 4 0.000000 0.000000 0.000000 0.031259 0.000000 -0.010516
# 5 -0.002363 -0.004082 0.019874 0.000000 0.055044 0.000000
# 6 0.000000 0.000000 0.000000 -0.010516 0.000000 0.088116
#
#
# Mechanical properties :
#
#
# Convention : Reuss Voigt Hill
#
# Bulk Modulus (GPa) = 22.73164 34.84886 28.79025
# Shear Modulus (GPa) = 18.77752 28.15056 23.46404
#
# Velocity S-wave (km/s) = 2.95528 3.61845 3.30355
# Velocity P-wave (km/s) = 4.71356 5.80226 5.28601
#
# Compressibility (1/GPa) = 0.04399154
#
# Stress axis : x y z
#
# Youngs Moduli (GPa) = 32.29219 120.93005 46.82613
#
# Poissons Ratio (x) = 0.15396 0.16185
# Poissons Ratio (y) = 0.04111 0.16720
# Poissons Ratio (z) = 0.11162 0.43180
#
# Static dielectric constant tensor:
#      x y z
#    x 1.847950 0.000000 0.005190 
#    y 0.000000 1.782830 0.000000 
#    z 0.005190 0.000000 1.818120 
# 
# From -- ./inp_files/268540.got.cif
#   From: 2010.05.17/outbox.cif.g08.bks.cpg/sg12_135_cif.got.tgz:268540.got - 2010.06.03 13:09:07.
