data_PCOD9194924
_publ_section_title
;
Structure prediction by ZEFSAII (Michael W. Deem and Ramdas Pophale) SiO2 
 PCOD9194924
Probable space group: C 2/M
;
_chemical_formula_sum "Si O2"
_cell_formula_units_Z 48
_cell_length_a 10.582828
_cell_length_b 15.997364
_cell_length_c 12.375993
_cell_angle_alpha 90.000000
_cell_angle_beta 97.713899
_cell_angle_gamma 90.000000
_cell_volume 2076.262472
_symmetry_space_group_name_H-M "C 2/M"
_symmetry_group_IT_number 12
_symmetry_cell_setting 'monoclinic'
loop_
_space_group_symop_operation_xyz
x,y,z
-x,y,-z
-x,-y,-z
x,-y,z
1/2+x,1/2+y,z
1/2-x,1/2+y,-z
1/2-x,1/2-y,-z
1/2+x,1/2-y,z
loop_
_atom_site_type_symbol
_atom_site_label
_atom_site_fract_x
_atom_site_fract_y
_atom_site_fract_z
Si Si1 0.276101 0.898675 0.142323
Si Si2 0.721634 0.332140 0.373362
Si Si3 0.789538 0.636234 0.605129
Si Si4 0.681064 0.397621 0.909534
Si Si5 0.465994 0.594575 0.310408
Si Si6 0.560381 0.900882 0.175960
O O1 0.245498 0.865539 0.256786
O O2 0.420314 0.869762 0.131050
O O3 0.275643 0.000000 0.145450
O O4 0.181927 0.873096 0.034555
O O5 0.800462 0.375673 0.478415
O O6 0.741806 0.233709 0.380521
O O7 0.572527 0.350053 0.378251
O O8 0.665394 0.591002 0.638897
O O9 0.908162 0.613117 0.694079
O O10 0.678691 0.500000 0.905176
O O11 0.571950 0.371991 0.813047
O O12 0.816429 0.368526 0.874412
O O13 0.516885 0.500000 0.306389
O O14 0.558538 0.000000 0.154410
#
# Coordination Sequence:
#
# PCOD9194924 Si02
#       6
#     8   8   8   8   8   8
#     4  10  20  34  58  90 119 147 185 237 291 344
#     4  11  24  37  56  84 118 152 189 243 299 341
#     4  10  23  40  57  79 114 157 195 237 292 346
#     4   8  16  34  60  87 114 149 190 232 283 341
#     4  10  21  40  65  86 111 155 204 240 280 351
#     4   9  18  35  60  84 111 150 193 232 276 345
#
# _framework density 23.118463999999999
#
# number of rings (size 3 to 8) (size 9 to 14) (size 15 to 20)
#    0.000    2.333    0.000    3.000    2.333    6.667 
#    0.000    7.500    7.333    0.000    0.000    0.000 
#    0.000    0.000    0.000    0.000    0.000    0.000 
#
# Total GULP energy -134080.081417 kJ/mol
# GULP energy per Si atom -5586.670059 kJ/mol
# Density = 2.306585 g / cm^3
# Si number density = 23.118464 Si / 1000 Ang^3
#
#
#
# Elastic Constant Matrix: (Units=GPa)
#
#
# Indices 1 2 3 4 5 6 
#
# 1 18.7107 10.9326 1.4809 0.0000 6.9497 0.0000
# 2 10.9326 28.8608 14.0863 0.0000 0.8772 0.0000
# 3 1.4809 14.0863 141.3691 0.0000 -1.6092 0.0000
# 4 0.0000 0.0000 0.0000 -44.0403 0.0000 2.2374
# 5 6.9497 0.8772 -1.6092 0.0000 28.1362 0.0000
# 6 0.0000 0.0000 0.0000 2.2374 0.0000 8.6265
#
#
#
# Elastic Compliance Matrix: (Units=1/GPa)
#
#
# Indices 1 2 3 4 5 6 
#
# 1 0.077359 -0.029703 0.001944 0.000000 -0.018071 0.000000
# 2 -0.029703 0.047876 -0.004396 0.000000 0.005593 0.000000
# 3 0.001944 -0.004396 0.007492 0.000000 0.000085 0.000000
# 4 0.000000 0.000000 0.000000 -0.022411 0.000000 0.005813
# 5 -0.018071 0.005593 0.000085 0.000000 0.039835 0.000000
# 6 0.000000 0.000000 0.000000 0.005813 0.000000 0.114414
#
#
# Mechanical properties :
#
#
# Convention : Reuss Voigt Hill
#
# Bulk Modulus (GPa) = 14.61629 26.88225 20.74927
# Shear Modulus (GPa) = 14.21745 9.37389 11.79567
#
# Velocity S-wave (km/s) = 2.48257 2.01582 2.26127
# Velocity P-wave (km/s) = 3.81492 4.13174 3.97649
#
# Compressibility (1/GPa) = 0.06841681
#
# Stress axis : x y z
#
# Youngs Moduli (GPa) = 12.92681 20.88728 133.47065
#
# Poissons Ratio (x) = 0.62042 -0.25941
# Poissons Ratio (y) = 0.38397 0.58669
# Poissons Ratio (z) = -0.02512 0.09181
#
# Static dielectric constant tensor:
#      x y z
#    x 1.864990 0.000000 -0.026420 
#    y 0.000000 1.851790 0.000000 
#    z -0.026420 0.000000 1.893880 
# 
# From -- ./inp_files/131206.got.cif
#   From: 2010.05.17/outbox.cif.g08.bks.cpg/sg12_66_cif.got.tgz:131206.got - 2010.06.03 13:09:07.
