data_PCOD9194334
_publ_section_title
;
Structure prediction by ZEFSAII (Michael W. Deem and Ramdas Pophale) SiO2 
 PCOD9194334
Probable space group: C 2/M
;
_chemical_formula_sum "Si O2"
_cell_formula_units_Z 64
_cell_length_a 31.632242
_cell_length_b 17.450373
_cell_length_c 12.135406
_cell_angle_alpha 90.000000
_cell_angle_beta 150.160579
_cell_angle_gamma 90.000000
_cell_volume 3333.066378
_symmetry_space_group_name_H-M "C 2/M"
_symmetry_group_IT_number 12
_symmetry_cell_setting 'monoclinic'
loop_
_space_group_symop_operation_xyz
x,y,z
-x,y,-z
-x,-y,-z
x,-y,z
1/2+x,1/2+y,z
1/2-x,1/2+y,-z
1/2-x,1/2-y,-z
1/2+x,1/2-y,z
loop_
_atom_site_type_symbol
_atom_site_label
_atom_site_fract_x
_atom_site_fract_y
_atom_site_fract_z
Si Si1 0.151275 0.585625 0.672222
Si Si2 0.432758 0.085024 0.947509
Si Si3 0.435232 0.701517 0.258079
Si Si4 0.289652 0.371901 0.808010
Si Si5 0.789883 0.686904 0.007733
Si Si6 0.232971 0.914787 0.480440
Si Si7 0.968101 0.710354 0.702318
Si Si8 0.305520 0.713590 0.428190
O O1 0.116846 0.500000 0.601787
O O2 0.216070 0.590345 0.715462
O O3 0.195113 0.612077 0.884854
O O4 0.083417 0.651144 0.491247
O O5 0.334916 0.093385 0.691645
O O6 0.440089 0.000000 0.017987
O O7 0.500000 0.084108 0.000000
O O8 0.460846 0.157656 0.081281
O O9 0.500000 0.679340 0.500000
O O10 0.378135 0.774784 0.166753
O O11 0.489098 0.725941 0.274710
O O12 0.368731 0.638228 0.068001
O O13 0.307550 0.410617 0.732311
O O14 0.256561 0.286779 0.699684
O O15 0.750000 0.750000 0.000000
O O16 0.727356 0.678012 0.762358
O O17 0.203336 0.847799 0.494979
O O18 0.218747 0.000000 0.495582
O O19 0.899225 0.750102 0.626399
#
# Coordination Sequence:
#
# PCOD9194334 Si02
#       8
#     8   8   8   8   8   8   8   8
#     4  11  21  35  59  89 124 161 198 245 300 364
#     4  10  20  34  55  85 124 157 189 242 302 360
#     4  11  20  35  61  89 116 150 198 252 304 346
#     4  10  21  37  62  88 118 158 211 249 289 363
#     4  11  18  38  58  87 120 158 202 242 293 359
#     4  11  23  41  61  86 124 164 202 249 307 365
#     4  11  21  35  57  91 120 153 196 245 303 359
#     4  10  21  36  62  85 119 163 209 245 290 360
#
# _framework density 19.201537999999999
#
# number of rings (size 3 to 8) (size 9 to 14) (size 15 to 20)
#    0.000    1.375    5.000    4.125    0.000    2.500 
#    0.000    1.875    0.000    3.750    0.000    0.000 
#    0.000    0.000    0.000    0.000    0.000    0.000 
#
# Total GULP energy -178597.163896 kJ/mol
# GULP energy per Si atom -5581.161372 kJ/mol
# Density = 1.915783 g / cm^3
# Si number density = 19.201538 Si / 1000 Ang^3
#
#
#
# Elastic Constant Matrix: (Units=GPa)
#
#
# Indices 1 2 3 4 5 6 
#
# 1 50.5314 10.3953 7.7799 0.0000 -5.4108 0.0000
# 2 10.3953 51.8489 2.5687 0.0000 -1.9076 0.0000
# 3 7.7799 2.5687 54.4282 0.0000 -5.7365 0.0000
# 4 0.0000 0.0000 0.0000 8.5297 0.0000 3.5523
# 5 -5.4108 -1.9076 -5.7365 0.0000 30.4738 0.0000
# 6 0.0000 0.0000 0.0000 3.5523 0.0000 11.9695
#
#
#
# Elastic Compliance Matrix: (Units=1/GPa)
#
#
# Indices 1 2 3 4 5 6 
#
# 1 0.021339 -0.004040 -0.002537 0.000000 0.003058 0.000000
# 2 -0.004040 0.020131 -0.000322 0.000000 0.000482 0.000000
# 3 -0.002537 -0.000322 0.019080 0.000000 0.003121 0.000000
# 4 0.000000 0.000000 0.000000 0.133771 0.000000 -0.039700
# 5 0.003058 0.000482 0.003121 0.000000 0.033976 0.000000
# 6 0.000000 0.000000 0.000000 -0.039700 0.000000 0.095327
#
#
# Mechanical properties :
#
#
# Convention : Reuss Voigt Hill
#
# Bulk Modulus (GPa) = 21.38987 22.03292 21.71140
# Shear Modulus (GPa) = 14.16410 19.26558 16.71484
#
# Velocity S-wave (km/s) = 2.71893 3.17098 2.95362
# Velocity P-wave (km/s) = 4.58482 4.99062 4.79202
#
# Compressibility (1/GPa) = 0.04675110
#
# Stress axis : x y z
#
# Youngs Moduli (GPa) = 46.86282 49.67583 52.41200
#
# Poissons Ratio (x) = 0.20069 0.13298
# Poissons Ratio (y) = 0.18933 0.01686
# Poissons Ratio (z) = 0.11890 0.01598
#
# Static dielectric constant tensor:
#      x y z
#    x 1.695300 0.000000 -0.065870 
#    y 0.000000 1.697940 0.000000 
#    z -0.065870 0.000000 1.855810 
# 
# From -- ./inp_files/190112.got.cif
#   From: 2010.05.17/outbox.cif.g08.bks.cpg/sg12_96_cif.got.tgz:190112.got - 2010.06.03 13:09:07.
