data_PCOD9194747
_publ_section_title
;
Structure prediction by ZEFSAII (Michael W. Deem and Ramdas Pophale) SiO2 
 PCOD9194747
Probable space group: C 2/M
;
_chemical_formula_sum "Si O2"
_cell_formula_units_Z 36
_cell_length_a 5.445198
_cell_length_b 28.616902
_cell_length_c 10.018618
_cell_angle_alpha 90.000000
_cell_angle_beta 88.336979
_cell_angle_gamma 90.000000
_cell_volume 1560.490562
_symmetry_space_group_name_H-M "C 2/M"
_symmetry_group_IT_number 12
_symmetry_cell_setting 'monoclinic'
loop_
_space_group_symop_operation_xyz
x,y,z
-x,y,-z
-x,-y,-z
x,-y,z
1/2+x,1/2+y,z
1/2-x,1/2+y,-z
1/2-x,1/2-y,-z
1/2+x,1/2-y,z
loop_
_atom_site_type_symbol
_atom_site_label
_atom_site_fract_x
_atom_site_fract_y
_atom_site_fract_z
Si Si1 0.040740 0.911111 0.350978
Si Si2 0.654616 0.856710 0.849144
Si Si3 0.500000 0.298326 0.000000
Si Si4 0.012136 0.263900 0.728038
Si Si5 0.463195 0.947914 0.755398
O O1 0.103449 0.871417 0.241557
O O2 0.293671 0.941599 0.341802
O O3 0.000000 0.892724 0.500000
O O4 0.796868 0.938742 0.311453
O O5 0.515039 0.818256 0.763931
O O6 0.507277 0.904990 0.855887
O O7 0.765374 0.831277 0.976529
O O8 0.519594 0.266027 0.868397
O O9 0.768877 0.248769 0.658483
O O10 0.465560 0.000000 0.812328
#
# Coordination Sequence:
#
# PCOD9194747 Si02
#       5
#     8   8   4   8   8
#     4  10  22  38  60  86 116 152 191 242 291 338
#     4   9  22  35  59  87 120 147 192 242 289 331
#     4  10  20  40  61  92 111 152 198 244 278 342
#     4  10  20  34  57  87 112 140 191 243 282 328
#     4  10  22  38  59  88 117 153 196 236 286 341
#
# _framework density 23.069669000000001
#
# number of rings (size 3 to 8) (size 9 to 14) (size 15 to 20)
#    1.333    0.889    0.000    4.000    6.222    2.667 
#    0.000    0.556    0.000    6.667    0.000    0.000 
#    0.000    0.000    0.000    0.000    0.000    0.000 
#
# Total GULP energy -100385.364850 kJ/mol
# GULP energy per Si atom -5576.964714 kJ/mol
# Density = 2.301716 g / cm^3
# Si number density = 23.069669 Si / 1000 Ang^3
#
#
#
# Elastic Constant Matrix: (Units=GPa)
#
#
# Indices 1 2 3 4 5 6 
#
# 1 175.3378 34.5661 24.2776 0.0000 8.4794 0.0000
# 2 34.5661 144.7499 22.1335 0.0000 -0.4630 0.0000
# 3 24.2776 22.1335 64.3690 0.0000 -3.8699 0.0000
# 4 0.0000 0.0000 0.0000 23.5401 0.0000 7.7454
# 5 8.4794 -0.4630 -3.8699 0.0000 6.1492 0.0000
# 6 0.0000 0.0000 0.0000 7.7454 0.0000 22.6326
#
#
#
# Elastic Compliance Matrix: (Units=1/GPa)
#
#
# Indices 1 2 3 4 5 6 
#
# 1 0.006896 -0.001246 -0.002858 0.000000 -0.011402 0.000000
# 2 -0.001246 0.007524 -0.002058 0.000000 0.000990 0.000000
# 3 -0.002858 -0.002058 0.018238 0.000000 0.015264 0.000000
# 4 0.000000 0.000000 0.000000 0.047871 0.000000 -0.016383
# 5 -0.011402 0.000990 0.015264 0.000000 0.188026 0.000000
# 6 0.000000 0.000000 0.000000 -0.016383 0.000000 0.049791
#
#
# Mechanical properties :
#
#
# Convention : Reuss Voigt Hill
#
# Bulk Modulus (GPa) = 49.17615 60.71235 54.94425
# Shear Modulus (GPa) = 14.81710 30.69634 22.75672
#
# Velocity S-wave (km/s) = 2.53707 3.65169 3.14416
# Velocity P-wave (km/s) = 5.47219 6.64484 6.08682
#
# Compressibility (1/GPa) = 0.02033506
#
# Stress axis : x y z
#
# Youngs Moduli (GPa) = 145.01044 132.91067 54.82917
#
# Poissons Ratio (x) = 0.16564 0.15670
# Poissons Ratio (y) = 0.18072 0.11281
# Poissons Ratio (z) = 0.41442 0.27347
#
# Static dielectric constant tensor:
#      x y z
#    x 2.026250 0.000000 -0.066590 
#    y 0.000000 1.837120 0.000000 
#    z -0.066590 0.000000 1.864090 
# 
# From -- ./inp_files/115331.got.cif
#   From: 2010.05.17/outbox.cif.g08.bks.cpg/sg12_58_cif.got.tgz:115331.got - 2010.06.03 13:09:07.
