data_PCOD9194659
_publ_section_title
;
Structure prediction by ZEFSAII (Michael W. Deem and Ramdas Pophale) SiO2 
 PCOD9194659
Probable space group: C 2/M
;
_chemical_formula_sum "Si O2"
_cell_formula_units_Z 64
_cell_length_a 22.759518
_cell_length_b 26.837052
_cell_length_c 5.440358
_cell_angle_alpha 90.000000
_cell_angle_beta 97.823362
_cell_angle_gamma 90.000000
_cell_volume 3292.033058
_symmetry_space_group_name_H-M "C 2/M"
_symmetry_group_IT_number 12
_symmetry_cell_setting 'monoclinic'
loop_
_space_group_symop_operation_xyz
x,y,z
-x,y,-z
-x,-y,-z
x,-y,z
1/2+x,1/2+y,z
1/2-x,1/2+y,-z
1/2-x,1/2-y,-z
1/2+x,1/2-y,z
loop_
_atom_site_type_symbol
_atom_site_label
_atom_site_fract_x
_atom_site_fract_y
_atom_site_fract_z
Si Si1 0.404681 0.288669 0.238115
Si Si2 0.153211 0.158605 0.410253
Si Si3 0.218419 0.943790 0.358407
Si Si4 0.704764 0.944612 0.096500
Si Si5 0.369248 0.152819 0.892536
Si Si6 0.570257 0.185716 0.558283
Si Si7 0.983879 0.858073 0.747466
Si Si8 0.194929 0.749988 0.155407
O O1 0.360243 0.331354 0.310527
O O2 0.410219 0.244017 0.438674
O O3 0.469166 0.311638 0.226391
O O4 0.368533 0.263665 0.001546
O O5 0.177552 0.104836 0.355791
O O6 0.084242 0.158419 0.280445
O O7 0.196457 0.204119 0.349459
O O8 0.257511 0.942077 0.629750
O O9 0.191250 0.000000 0.336433
O O10 0.255748 0.938684 0.127443
O O11 0.657660 0.901041 0.080974
O O12 0.678180 0.000000 0.069135
O O13 0.407377 0.156541 0.667018
O O14 0.316159 0.192020 0.796018
O O15 0.404072 0.166456 0.165542
O O16 0.500000 0.185046 0.500000
O O17 0.000000 0.883786 0.500000
O O18 0.000000 0.887877 0.000000
O O19 0.250000 0.750000 0.000000
#
# Coordination Sequence:
#
# PCOD9194659 Si02
#       8
#     8   8   8   8   8   8   8   8
#     4  10  22  36  54  82 117 168 202 230 289 362
#     4  11  21  36  58  83 120 156 193 253 294 350
#     4  10  23  39  63  88 115 156 205 247 295 348
#     4  10  22  44  65  85 116 161 202 242 291 365
#     4  11  23  38  59  90 119 155 200 243 297 356
#     4  11  22  38  59  86 126 157 200 243 290 351
#     4  10  20  34  57  79 109 152 209 230 275 345
#     4  11  23  34  52  86 124 157 187 244 305 358
#
# _framework density 19.440871999999999
#
# number of rings (size 3 to 8) (size 9 to 14) (size 15 to 20)
#    0.000    1.500    2.500    3.000    3.500    1.500 
#    0.000    0.000    0.000    6.000    0.000    0.000 
#    0.000    0.000    0.000    0.000    0.000    0.000 
#
# Total GULP energy -178188.348351 kJ/mol
# GULP energy per Si atom -5568.385886 kJ/mol
# Density = 1.939662 g / cm^3
# Si number density = 19.440872 Si / 1000 Ang^3
#
#
#
# Elastic Constant Matrix: (Units=GPa)
#
#
# Indices 1 2 3 4 5 6 
#
# 1 65.5664 48.9942 25.2731 0.0000 -14.2654 0.0000
# 2 48.9942 123.4359 32.6095 0.0000 -14.0408 0.0000
# 3 25.2731 32.6095 123.3796 0.0000 -8.5912 0.0000
# 4 0.0000 0.0000 0.0000 22.5109 0.0000 3.7000
# 5 -14.2654 -14.0408 -8.5912 0.0000 25.6506 0.0000
# 6 0.0000 0.0000 0.0000 3.7000 0.0000 -1.0921
#
#
#
# Elastic Compliance Matrix: (Units=1/GPa)
#
#
# Indices 1 2 3 4 5 6 
#
# 1 0.023811 -0.007939 -0.002211 0.000000 0.008156 0.000000
# 2 -0.007939 0.011797 -0.001382 0.000000 0.001580 0.000000
# 3 -0.002211 -0.001382 0.008995 0.000000 0.001026 0.000000
# 4 0.000000 0.000000 0.000000 0.028534 0.000000 0.096670
# 5 0.008156 0.001580 0.001026 0.000000 0.044730 0.000000
# 6 0.000000 0.000000 0.000000 0.096670 0.000000 -0.588145
#
#
# Mechanical properties :
#
#
# Convention : Reuss Voigt Hill
#
# Bulk Modulus (GPa) = 46.42805 58.45950 52.44378
# Shear Modulus (GPa) = -11.36275 23.11421 5.87573
#
# Velocity S-wave (km/s) = -2.42022 3.45186 1.74038
# Velocity P-wave (km/s) = 4.01542 6.78401 5.57433
#
# Compressibility (1/GPa) = 0.02153870
#
# Stress axis : x y z
#
# Youngs Moduli (GPa) = 41.99725 84.76501 111.17654
#
# Poissons Ratio (x) = 0.67297 0.24583
# Poissons Ratio (y) = 0.33342 0.15362
# Poissons Ratio (z) = 0.09286 0.11713
#
# Static dielectric constant tensor:
#      x y z
#    x 1.683670 0.000000 0.013290 
#    y 0.000000 1.711510 0.000000 
#    z 0.013290 0.000000 1.835020 
# 
# From -- ./inp_files/26076.got.cif
#   From: 2010.05.17/outbox.cif.g08.bks.cpg/sg12_14_cif.got.tgz:26076.got - 2010.06.03 13:09:07.
