data_PCOD9194209
_publ_section_title
;
Structure prediction by ZEFSAII (Michael W. Deem and Ramdas Pophale) SiO2 
 PCOD9194209
Probable space group: C 2/M
;
_chemical_formula_sum "Si O2"
_cell_formula_units_Z 60
_cell_length_a 8.537506
_cell_length_b 11.252124
_cell_length_c 30.078566
_cell_angle_alpha 90.000000
_cell_angle_beta 101.950280
_cell_angle_gamma 90.000000
_cell_volume 2826.877494
_symmetry_space_group_name_H-M "C 2/M"
_symmetry_group_IT_number 12
_symmetry_cell_setting 'monoclinic'
loop_
_space_group_symop_operation_xyz
x,y,z
-x,y,-z
-x,-y,-z
x,-y,z
1/2+x,1/2+y,z
1/2-x,1/2+y,-z
1/2-x,1/2-y,-z
1/2+x,1/2-y,z
loop_
_atom_site_type_symbol
_atom_site_label
_atom_site_fract_x
_atom_site_fract_y
_atom_site_fract_z
Si Si1 0.887353 0.701111 0.321208
Si Si2 0.133449 0.867272 0.167691
Si Si3 0.195213 0.203600 0.891257
Si Si4 0.142052 0.193906 0.587897
Si Si5 0.053573 0.135595 0.264676
Si Si6 0.608233 0.000000 0.378272
Si Si7 0.523165 0.865458 0.951565
Si Si8 0.709054 0.362524 0.465667
O O1 0.882026 0.796743 0.360764
O O2 0.936061 0.769520 0.279475
O O3 0.714279 0.644456 0.303490
O O4 0.013441 0.603564 0.344233
O O5 0.963012 0.866051 0.132335
O O6 0.098542 0.835615 0.216634
O O7 0.247648 0.778764 0.148063
O O8 0.202371 0.000000 0.171024
O O9 0.350492 0.134777 0.917452
O O10 0.140521 0.289489 0.928002
O O11 0.287601 0.104078 0.589390
O O12 0.189485 0.324120 0.572091
O O13 0.979350 0.148138 0.556072
O O14 0.991417 0.000000 0.262267
O O15 0.583878 0.000000 0.959157
O O16 0.500000 0.816750 0.000000
O O17 0.745118 0.500000 0.480197
O O18 0.750000 0.250000 0.500000
#
# Coordination Sequence:
#
# PCOD9194209 Si02
#       8
#     8   8   8   8   8   4   8   8
#     4  12  24  41  66  94 125 161 203 254 303 358
#     4  10  21  38  57  82 116 158 199 243 294 359
#     4  10  20  36  57  79 114 154 197 241 302 359
#     4  12  26  45  70  96 129 167 210 250 310 364
#     4  11  24  39  61  91 124 159 204 252 301 357
#     4  12  24  42  69  95 129 162 205 252 307 362
#     4  10  20  34  55  83 112 146 194 249 303 359
#     4  12  29  47  72 100 133 170 211 257 307 368
#
# _framework density 21.224833
#
# number of rings (size 3 to 8) (size 9 to 14) (size 15 to 20)
#    0.000    0.933    4.000    2.400    2.800    2.667 
#    0.000    0.000    1.467    6.400    0.000    0.000 
#    0.000    0.000    0.000    0.000    0.000    0.000 
#
# Total GULP energy -167128.303021 kJ/mol
# GULP energy per Si atom -5570.943434 kJ/mol
# Density = 2.117652 g / cm^3
# Si number density = 21.224833 Si / 1000 Ang^3
#
#
#
# Elastic Constant Matrix: (Units=GPa)
#
#
# Indices 1 2 3 4 5 6 
#
# 1 36.8688 17.9593 -13.6499 0.0000 1.5269 0.0000
# 2 17.9593 93.5030 14.3020 0.0000 -13.2355 0.0000
# 3 -13.6499 14.3020 64.6599 0.0000 -8.7189 0.0000
# 4 0.0000 0.0000 0.0000 7.0188 0.0000 -9.1726
# 5 1.5269 -13.2355 -8.7189 0.0000 33.4700 0.0000
# 6 0.0000 0.0000 0.0000 -9.1726 0.0000 -16.2037
#
#
#
# Elastic Compliance Matrix: (Units=1/GPa)
#
#
# Indices 1 2 3 4 5 6 
#
# 1 0.034551 -0.008347 0.008791 0.000000 -0.002587 0.000000
# 2 -0.008347 0.013593 -0.004138 0.000000 0.004678 0.000000
# 3 0.008791 -0.004138 0.018616 0.000000 0.002812 0.000000
# 4 0.000000 0.000000 0.000000 0.081892 0.000000 -0.046357
# 5 -0.002587 0.004678 0.002812 0.000000 0.032578 0.000000
# 6 0.000000 0.000000 0.000000 -0.046357 0.000000 -0.035472
#
#
# Mechanical properties :
#
#
# Convention : Reuss Voigt Hill
#
# Bulk Modulus (GPa) = 16.84277 25.80605 21.32441
# Shear Modulus (GPa) = 28.91228 16.61835 22.76532
#
# Velocity S-wave (km/s) = 3.69479 2.80119 3.27858
# Velocity P-wave (km/s) = 5.11416 4.75889 4.93972
#
# Compressibility (1/GPa) = 0.05937264
#
# Stress axis : x y z
#
# Youngs Moduli (GPa) = 28.94257 73.56593 53.71761
#
# Poissons Ratio (x) = 0.61407 -0.47225
# Poissons Ratio (y) = 0.24159 0.22228
# Poissons Ratio (z) = -0.25444 0.30441
#
# Static dielectric constant tensor:
#      x y z
#    x 1.779850 0.000000 -0.031990 
#    y 0.000000 1.746110 0.000000 
#    z -0.031990 0.000000 1.782610 
# 
# From -- ./inp_files/372192.got.cif
#   From: 2010.05.17/outbox.cif.g08.bks.cpg/sg12_187_cif.got.tgz:372192.got - 2010.06.03 13:09:07.
