data_PCOD9194665
_publ_section_title
;
Structure prediction by ZEFSAII (Michael W. Deem and Ramdas Pophale) SiO2 
 PCOD9194665
Probable space group: C 2/M
;
_chemical_formula_sum "Si O2"
_cell_formula_units_Z 40
_cell_length_a 14.179429
_cell_length_b 29.417840
_cell_length_c 10.355172
_cell_angle_alpha 90.000000
_cell_angle_beta 150.462060
_cell_angle_gamma 90.000000
_cell_volume 2129.480014
_symmetry_space_group_name_H-M "C 2/M"
_symmetry_group_IT_number 12
_symmetry_cell_setting 'monoclinic'
loop_
_space_group_symop_operation_xyz
x,y,z
-x,y,-z
-x,-y,-z
x,-y,z
1/2+x,1/2+y,z
1/2-x,1/2+y,-z
1/2-x,1/2-y,-z
1/2+x,1/2-y,z
loop_
_atom_site_type_symbol
_atom_site_label
_atom_site_fract_x
_atom_site_fract_y
_atom_site_fract_z
Si Si1 0.154604 0.793813 0.280095
Si Si2 0.221860 0.627461 0.068364
Si Si3 0.552792 0.776921 0.791925
Si Si4 0.564569 0.051496 0.227334
Si Si5 0.849007 0.127845 0.514482
O O1 0.363436 0.779833 0.473922
O O2 0.185085 0.829671 0.432246
O O3 0.045285 0.749735 0.205667
O O4 0.000000 0.815212 0.000000
O O5 0.253816 0.634730 0.260168
O O6 0.426821 0.623477 0.245810
O O7 0.115385 0.671850 0.891420
O O8 0.098169 0.582218 0.900835
O O9 0.750000 0.750000 0.000000
O O10 0.755124 0.082035 0.458340
O O11 0.584158 0.000000 0.298328
O O12 0.500000 0.048763 0.000000
#
# Coordination Sequence:
#
# PCOD9194665 Si02
#       5
#     8   8   8   8   8
#     4  11  25  36  54  81 114 149 186 226 273 331
#     4  10  20  34  57  80 112 143 183 226 278 328
#     4  11  23  38  55  81 111 150 191 225 271 328
#     4   9  18  33  55  82 111 141 180 231 284 331
#     4  10  20  36  55  82 110 147 180 227 277 332
#
# _framework density 18.783926999999998
#
# number of rings (size 3 to 8) (size 9 to 14) (size 15 to 20)
#    0.000    1.800    4.000    0.000    5.600    1.600 
#    0.000    4.000    0.000    0.600    0.000    1.400 
#    0.000    0.000    0.000    0.000    0.000    0.000 
#
# Total GULP energy -111483.346765 kJ/mol
# GULP energy per Si atom -5574.167338 kJ/mol
# Density = 1.874117 g / cm^3
# Si number density = 18.783927 Si / 1000 Ang^3
#
#
#
# Elastic Constant Matrix: (Units=GPa)
#
#
# Indices 1 2 3 4 5 6 
#
# 1 50.7365 27.5175 45.1109 0.0000 32.4419 0.0000
# 2 27.5175 134.5192 43.1184 0.0000 22.3267 0.0000
# 3 45.1109 43.1184 115.0074 0.0000 42.4807 0.0000
# 4 0.0000 0.0000 0.0000 20.5260 0.0000 3.9537
# 5 32.4419 22.3267 42.4807 0.0000 33.0899 0.0000
# 6 0.0000 0.0000 0.0000 3.9537 0.0000 21.4290
#
#
#
# Elastic Compliance Matrix: (Units=1/GPa)
#
#
# Indices 1 2 3 4 5 6 
#
# 1 0.053958 -0.002233 -0.002555 0.000000 -0.048114 0.000000
# 2 -0.002233 0.008713 -0.001955 0.000000 -0.001180 0.000000
# 3 -0.002555 -0.001955 0.017151 0.000000 -0.018193 0.000000
# 4 0.000000 0.000000 0.000000 0.050514 0.000000 -0.009320
# 5 -0.048114 -0.001180 -0.018193 0.000000 0.101545 0.000000
# 6 0.000000 0.000000 0.000000 -0.009320 0.000000 0.048385
#
#
# Mechanical properties :
#
#
# Convention : Reuss Voigt Hill
#
# Bulk Modulus (GPa) = 15.07507 59.08409 37.07958
# Shear Modulus (GPa) = 15.82960 27.31006 21.56983
#
# Velocity S-wave (km/s) = 2.90611 3.81715 3.39235
# Velocity P-wave (km/s) = 4.39359 7.13795 5.92680
#
# Compressibility (1/GPa) = 0.06633468
#
# Stress axis : x y z
#
# Youngs Moduli (GPa) = 18.53298 114.76892 58.30728
#
# Poissons Ratio (x) = 0.25627 0.14900
# Poissons Ratio (y) = 0.04138 0.11399
# Poissons Ratio (z) = 0.04736 0.22438
#
# Static dielectric constant tensor:
#      x y z
#    x 1.689990 0.000000 -0.004880 
#    y 0.000000 1.633830 0.000000 
#    z -0.004880 0.000000 1.736030 
# 
# From -- ./inp_files/149250.got.cif
#   From: 2010.05.17/outbox.cif.g08.bks.cpg/sg12_75_cif.got.tgz:149250.got - 2010.06.03 13:09:07.
