data_PCOD9194274
_publ_section_title
;
Structure prediction by ZEFSAII (Michael W. Deem and Ramdas Pophale) SiO2 
 PCOD9194274
Probable space group: C 2/M
;
_chemical_formula_sum "Si O2"
_cell_formula_units_Z 48
_cell_length_a 17.804769
_cell_length_b 13.964020
_cell_length_c 15.092223
_cell_angle_alpha 90.000000
_cell_angle_beta 138.124553
_cell_angle_gamma 90.000000
_cell_volume 2504.725255
_symmetry_space_group_name_H-M "C 2/M"
_symmetry_group_IT_number 12
_symmetry_cell_setting 'monoclinic'
loop_
_space_group_symop_operation_xyz
x,y,z
-x,y,-z
-x,-y,-z
x,-y,z
1/2+x,1/2+y,z
1/2-x,1/2+y,-z
1/2-x,1/2-y,-z
1/2+x,1/2-y,z
loop_
_atom_site_type_symbol
_atom_site_label
_atom_site_fract_x
_atom_site_fract_y
_atom_site_fract_z
Si Si1 0.609769 0.890934 0.751920
Si Si2 0.886405 0.269339 0.517107
Si Si3 0.039083 0.185451 0.126670
Si Si4 0.165778 0.314619 0.982805
Si Si5 0.674749 0.391797 0.397573
Si Si6 0.741450 0.260666 0.765695
O O1 0.503184 0.824422 0.633927
O O2 0.626349 0.888822 0.873218
O O3 0.713484 0.838752 0.792997
O O4 0.595724 0.000000 0.709524
O O5 0.789775 0.345345 0.461213
O O6 0.872589 0.179063 0.569478
O O7 0.857392 0.231937 0.393058
O O8 0.084967 0.113200 0.239282
O O9 0.145091 0.251463 0.191804
O O10 0.941110 0.251949 0.080076
O O11 0.000000 0.140253 0.000000
O O12 0.250000 0.250000 0.000000
O O13 0.233434 0.336480 0.133519
O O14 0.692888 0.500000 0.443615
#
# Coordination Sequence:
#
# PCOD9194274 Si02
#       6
#     8   8   8   8   8   8
#     4  11  21  35  60  89 118 152 193 243 298 348
#     4  10  20  36  56  83 118 155 187 244 290 338
#     4   9  17  34  57  81 111 146 184 236 287 334
#     4   9  18  36  57  80 113 153 189 230 285 345
#     4  10  20  34  55  84 115 150 192 233 289 351
#     4   9  20  34  57  80 115 152 189 235 289 342
#
# _framework density 19.163778000000001
#
# number of rings (size 3 to 8) (size 9 to 14) (size 15 to 20)
#    0.000    2.333    1.667    1.000    0.000    4.333 
#    0.000    7.500    0.000    6.500    0.000    0.000 
#    0.000    0.000    0.000    0.000    0.000    0.000 
#
# Total GULP energy -133616.520836 kJ/mol
# GULP energy per Si atom -5567.355035 kJ/mol
# Density = 1.912016 g / cm^3
# Si number density = 19.163778 Si / 1000 Ang^3
#
#
#
# Elastic Constant Matrix: (Units=GPa)
#
#
# Indices 1 2 3 4 5 6 
#
# 1 95.5188 23.2148 25.4959 0.0000 2.4701 0.0000
# 2 23.2148 60.7192 25.2241 0.0000 2.6995 0.0000
# 3 25.4959 25.2241 106.0246 0.0000 -19.6954 0.0000
# 4 0.0000 0.0000 0.0000 5.5557 0.0000 -0.0973
# 5 2.4701 2.6995 -19.6954 0.0000 35.1279 0.0000
# 6 0.0000 0.0000 0.0000 -0.0973 0.0000 8.9144
#
#
#
# Elastic Compliance Matrix: (Units=1/GPa)
#
#
# Indices 1 2 3 4 5 6 
#
# 1 0.012015 -0.003505 -0.002414 0.000000 -0.001929 0.000000
# 2 -0.003505 0.019896 -0.004609 0.000000 -0.003866 0.000000
# 3 -0.002414 -0.004609 0.012509 0.000000 0.007537 0.000000
# 4 0.000000 0.000000 0.000000 0.180029 0.000000 0.001966
# 5 -0.001929 -0.003866 0.007537 0.000000 0.033126 0.000000
# 6 0.000000 0.000000 0.000000 0.001966 0.000000 0.112200
#
#
# Mechanical properties :
#
#
# Convention : Reuss Voigt Hill
#
# Bulk Modulus (GPa) = 42.80002 45.57025 44.18513
# Shear Modulus (GPa) = 12.54335 22.47480 17.50907
#
# Velocity S-wave (km/s) = 2.56116 3.42830 3.02595
# Velocity P-wave (km/s) = 5.57928 6.28506 5.94266
#
# Compressibility (1/GPa) = 0.02336448
#
# Stress axis : x y z
#
# Youngs Moduli (GPa) = 83.22784 50.26159 79.94388
#
# Poissons Ratio (x) = 0.17618 0.19296
# Poissons Ratio (y) = 0.29174 0.36844
# Poissons Ratio (z) = 0.20088 0.23164
#
# Static dielectric constant tensor:
#      x y z
#    x 1.676330 0.000000 -0.019460 
#    y 0.000000 1.618680 0.000000 
#    z -0.019460 0.000000 1.764310 
# 
# From -- ./inp_files/166860.got.cif
#   From: 2010.05.17/outbox.cif.g08.bks.cpg/sg12_84_cif.got.tgz:166860.got - 2010.06.03 13:09:07.
