data_PCOD9194443
_publ_section_title
;
Structure prediction by ZEFSAII (Michael W. Deem and Ramdas Pophale) SiO2 
 PCOD9194443
Probable space group: C 2/M
;
_chemical_formula_sum "Si O2"
_cell_formula_units_Z 48
_cell_length_a 22.085137
_cell_length_b 9.118801
_cell_length_c 28.294101
_cell_angle_alpha 90.000000
_cell_angle_beta 157.381513
_cell_angle_gamma 90.000000
_cell_volume 2191.468938
_symmetry_space_group_name_H-M "C 2/M"
_symmetry_group_IT_number 12
_symmetry_cell_setting 'monoclinic'
loop_
_space_group_symop_operation_xyz
x,y,z
-x,y,-z
-x,-y,-z
x,-y,z
1/2+x,1/2+y,z
1/2-x,1/2+y,-z
1/2-x,1/2-y,-z
1/2+x,1/2-y,z
loop_
_atom_site_type_symbol
_atom_site_label
_atom_site_fract_x
_atom_site_fract_y
_atom_site_fract_z
Si Si1 0.837489 0.730556 0.903394
Si Si2 0.001725 0.839425 0.312244
Si Si3 0.401730 0.323139 0.517376
Si Si4 0.954975 0.325164 0.752539
Si Si5 0.985676 0.677105 0.102795
Si Si6 0.718621 0.834699 0.721705
O O1 0.674368 0.647768 0.793487
O O2 0.786972 0.839472 0.825038
O O3 0.000000 0.661592 0.000000
O O4 0.886741 0.766627 0.992540
O O5 0.100224 0.783672 0.428051
O O6 0.995074 0.744143 0.260712
O O7 0.061656 0.000000 0.342289
O O8 0.429459 0.500000 0.534150
O O9 0.230089 0.289853 0.373904
O O10 0.544458 0.233478 0.597591
O O11 0.966115 0.500000 0.756620
O O12 0.045762 0.282001 0.865628
O O13 0.962778 0.500000 0.080082
O O14 0.164952 0.722415 0.220487
O O15 0.721649 0.000000 0.704820
#
# Coordination Sequence:
#
# PCOD9194443 Si02
#       6
#     8   8   8   8   8   8
#     4   9  20  37  59  81 107 141 182 226 272 328
#     4  10  20  34  56  83 107 142 189 233 276 322
#     4   9  19  37  59  81 110 148 189 228 272 330
#     4  10  22  38  55  80 114 152 188 225 272 328
#     4  10  21  37  57  80 112 153 190 222 268 333
#     4  10  21  36  58  87 113 140 182 236 286 323
#
# _framework density 21.903117000000002
#
# number of rings (size 3 to 8) (size 9 to 14) (size 15 to 20)
#    0.000    2.333    0.000    1.500    0.000   16.333 
#    0.000    3.333    0.000    0.000    0.000    0.000 
#    0.000    0.000    0.000    0.000    0.000    0.000 
#
# Total GULP energy -133703.031409 kJ/mol
# GULP energy per Si atom -5570.959642 kJ/mol
# Density = 2.185326 g / cm^3
# Si number density = 21.903117 Si / 1000 Ang^3
#
#
#
# Elastic Constant Matrix: (Units=GPa)
#
#
# Indices 1 2 3 4 5 6 
#
# 1 39.4599 2.7314 31.6924 -0.0048 -24.8884 -0.0024
# 2 2.7314 16.4413 5.2557 0.0022 3.7896 0.0003
# 3 31.6924 5.2557 60.3463 0.0249 -12.0576 -0.0018
# 4 -0.0048 0.0022 0.0249 -14.0833 0.0155 -1.6460
# 5 -24.8884 3.7896 -12.0576 0.0155 37.9259 -0.0011
# 6 -0.0024 0.0003 -0.0018 -1.6460 -0.0011 12.4220
#
#
#
# Elastic Compliance Matrix: (Units=1/GPa)
#
#
# Indices 1 2 3 4 5 6 
#
# 1 0.078658 -0.012832 -0.031631 -0.000039 0.042844 0.000009
# 2 -0.012832 0.067350 -0.002300 -0.000006 -0.015882 -0.000007
# 3 -0.031631 -0.002300 0.031268 0.000054 -0.010587 0.000005
# 4 -0.000039 -0.000006 0.000054 -0.069923 0.000020 -0.009265
# 5 0.042844 -0.015882 -0.010587 0.000020 0.052704 0.000014
# 6 0.000009 -0.000007 0.000005 -0.009265 0.000014 0.079274
#
#
# Mechanical properties :
#
#
# Convention : Reuss Voigt Hill
#
# Bulk Modulus (GPa) = 11.94028 21.73409 16.83718
# Shear Modulus (GPa) = 13.85905 12.35745 13.10825
#
# Velocity S-wave (km/s) = 2.51817 2.37784 2.44901
# Velocity P-wave (km/s) = 3.73070 4.18129 3.96241
#
# Compressibility (1/GPa) = 0.08375016
#
# Stress axis : x y z
#
# Youngs Moduli (GPa) = 12.71320 14.84781 31.98161
#
# Poissons Ratio (x) = 0.19052 1.01162
# Poissons Ratio (y) = 0.16313 0.07356
# Poissons Ratio (z) = 0.40214 0.03415
#
# Static dielectric constant tensor:
#      x y z
#    x 1.828970 0.000000 -0.021730 
#    y 0.000000 1.804920 0.000000 
#    z -0.021730 0.000000 1.842710 
# 
# From -- ./inp_files/365535.got.cif
#   From: 2010.05.17/outbox.cif.g08.bks.cpg/sg12_183_cif.got.tgz:365535.got - 2010.06.03 13:09:07.
