data_PCOD9194171
_publ_section_title
;
Structure prediction by ZEFSAII (Michael W. Deem and Ramdas Pophale) SiO2 
 PCOD9194171
Probable space group: C 2/M
;
_chemical_formula_sum "Si O2"
_cell_formula_units_Z 64
_cell_length_a 31.511832
_cell_length_b 8.774051
_cell_length_c 17.773883
_cell_angle_alpha 90.000000
_cell_angle_beta 41.564167
_cell_angle_gamma 90.000000
_cell_volume 3260.392050
_symmetry_space_group_name_H-M "C 2/M"
_symmetry_group_IT_number 12
_symmetry_cell_setting 'monoclinic'
loop_
_space_group_symop_operation_xyz
x,y,z
-x,y,-z
-x,-y,-z
x,-y,z
1/2+x,1/2+y,z
1/2-x,1/2+y,-z
1/2-x,1/2-y,-z
1/2+x,1/2-y,z
loop_
_atom_site_type_symbol
_atom_site_label
_atom_site_fract_x
_atom_site_fract_y
_atom_site_fract_z
Si Si1 0.859141 0.320106 0.577375
Si Si2 0.412215 0.182429 0.670394
Si Si3 0.077506 0.822419 0.100975
Si Si4 0.486987 0.818617 0.102936
Si Si5 0.648191 0.317749 0.667635
Si Si6 0.016927 0.177095 0.630575
Si Si7 0.180038 0.184350 0.080941
Si Si8 0.233579 0.181552 0.409472
O O1 0.847460 0.500000 0.591981
O O2 0.882573 0.274381 0.629469
O O3 0.919883 0.276507 0.445554
O O4 0.798113 0.233593 0.626131
O O5 0.476924 0.262934 0.612238
O O6 0.362208 0.235216 0.799492
O O7 0.422271 0.000000 0.657481
O O8 0.145999 0.779882 0.046081
O O9 0.047444 0.726357 0.074065
O O10 0.028349 0.810275 0.236685
O O11 0.079615 0.000000 0.075825
O O12 0.422091 0.747863 0.223725
O O13 0.479105 0.000000 0.112815
O O14 0.500000 0.766524 0.000000
O O15 0.643733 0.500000 0.673999
O O16 0.698952 0.259977 0.662333
O O17 0.683137 0.273036 0.542704
O O18 0.034287 0.000000 0.598279
O O19 0.177760 0.000000 0.092090
O O20 0.250000 0.250000 0.000000
O O21 0.241172 0.000000 0.402459
#
# Coordination Sequence:
#
# PCOD9194171 Si02
#       8
#     8   8   8   8   8   8   8   8
#     4  11  22  34  51  81 117 152 189 227 277 338
#     4  10  21  36  53  78 113 149 188 232 278 334
#     4   9  20  38  59  85 112 145 191 234 281 343
#     4  11  24  40  59  87 119 151 193 244 295 345
#     4  10  21  39  62  85 112 149 191 236 291 349
#     4  10  20  34  55  82 113 148 188 234 282 335
#     4  10  21  39  62  86 112 147 191 237 286 341
#     4  10  21  37  59  86 115 149 191 238 287 347
#
# _framework density 19.629541
#
# number of rings (size 3 to 8) (size 9 to 14) (size 15 to 20)
#    0.000    1.875    0.000    4.500    0.000   12.000 
#    2.250    0.000    0.000    0.000    0.000    0.000 
#    0.000    0.000    0.000    0.000    0.000    0.000 
#
# Total GULP energy -178711.026977 kJ/mol
# GULP energy per Si atom -5584.719593 kJ/mol
# Density = 1.958486 g / cm^3
# Si number density = 19.629541 Si / 1000 Ang^3
#
#
#
# Elastic Constant Matrix: (Units=GPa)
#
#
# Indices 1 2 3 4 5 6 
#
# 1 121.0204 23.1630 20.5281 0.0023 -7.5935 -0.0012
# 2 23.1630 28.5144 7.4658 0.0144 7.0957 -0.0118
# 3 20.5281 7.4658 33.5183 0.0145 -11.1736 -0.0115
# 4 0.0023 0.0144 0.0145 20.9671 -0.0052 2.3879
# 5 -7.5935 7.0957 -11.1736 -0.0052 25.5675 0.0033
# 6 -0.0012 -0.0118 -0.0115 2.3879 0.0033 25.1535
#
#
#
# Elastic Compliance Matrix: (Units=1/GPa)
#
#
# Indices 1 2 3 4 5 6 
#
# 1 0.010797 -0.009021 -0.003160 0.000009 0.004329 -0.000007
# 2 -0.009021 0.051695 -0.013655 -0.000034 -0.022994 0.000024
# 3 -0.003160 -0.013655 0.041860 -0.000015 0.021145 0.000011
# 4 0.000009 -0.000034 -0.000015 0.048215 0.000016 -0.004577
# 5 0.004329 -0.022994 0.021145 0.000016 0.056020 -0.000010
# 6 -0.000007 0.000024 0.000011 -0.004577 -0.000010 0.040190
#
#
# Mechanical properties :
#
#
# Convention : Reuss Voigt Hill
#
# Bulk Modulus (GPa) = 18.98226 31.70745 25.34486
# Shear Modulus (GPa) = 15.72278 23.13071 19.42675
#
# Velocity S-wave (km/s) = 2.83322 3.43645 3.14931
# Velocity P-wave (km/s) = 4.51598 5.65098 5.11506
#
# Compressibility (1/GPa) = 0.05268077
#
# Stress axis : x y z
#
# Youngs Moduli (GPa) = 92.61527 19.34422 23.88907
#
# Poissons Ratio (x) = 0.17450 0.07550
# Poissons Ratio (y) = 0.83547 0.32620
# Poissons Ratio (z) = 0.29269 0.26414
#
# Static dielectric constant tensor:
#      x y z
#    x 1.707230 0.000000 0.005120 
#    y 0.000000 1.657110 0.000000 
#    z 0.005120 0.000000 1.672060 
# 
# From -- ./inp_files/295661.got.cif
#   From: 2010.05.17/outbox.cif.g08.bks.cpg/sg12_148_cif.got.tgz:295661.got - 2010.06.03 13:09:07.
