data_PCOD9194518
_publ_section_title
;
Structure prediction by ZEFSAII (Michael W. Deem and Ramdas Pophale) SiO2 
 PCOD9194518
Probable space group: C 2/M
;
_chemical_formula_sum "Si O2"
_cell_formula_units_Z 52
_cell_length_a 13.601883
_cell_length_b 20.913961
_cell_length_c 12.273026
_cell_angle_alpha 90.000000
_cell_angle_beta 129.711510
_cell_angle_gamma 90.000000
_cell_volume 2685.755460
_symmetry_space_group_name_H-M "C 2/M"
_symmetry_group_IT_number 12
_symmetry_cell_setting 'monoclinic'
loop_
_space_group_symop_operation_xyz
x,y,z
-x,y,-z
-x,-y,-z
x,-y,z
1/2+x,1/2+y,z
1/2-x,1/2+y,-z
1/2-x,1/2-y,-z
1/2+x,1/2-y,z
loop_
_atom_site_type_symbol
_atom_site_label
_atom_site_fract_x
_atom_site_fract_y
_atom_site_fract_z
Si Si1 0.739851 0.073351 0.809891
Si Si2 0.467052 0.073478 0.692784
Si Si3 0.180910 0.332217 0.571208
Si Si4 0.111457 0.201152 0.649494
Si Si5 0.553511 0.718043 0.255408
Si Si6 0.393883 0.848126 0.829785
Si Si7 0.500000 0.363157 0.000000
O O1 0.620619 0.081187 0.806565
O O2 0.712099 0.118865 0.689253
O O3 0.742028 0.000000 0.776695
O O4 0.878772 0.094253 0.946891
O O5 0.412929 0.126853 0.571202
O O6 0.406790 0.088372 0.766943
O O7 0.441358 0.000000 0.639034
O O8 0.135567 0.267130 0.598641
O O9 0.312938 0.311631 0.605987
O O10 0.247315 0.165986 0.758721
O O11 0.000000 0.166769 0.500000
O O12 0.052642 0.214204 0.726847
O O13 0.572275 0.790050 0.228480
O O14 0.525595 0.680067 0.124009
O O15 0.500000 0.847414 0.000000
#
# Coordination Sequence:
#
# PCOD9194518 Si02
#       7
#     8   8   8   8   8   8   4
#     4  10  20  34  56  84 115 151 197 245 292 343
#     4  11  23  39  61  83 116 159 201 247 292 347
#     4  10  20  37  59  91 116 151 196 247 297 351
#     4  11  22  37  63  91 123 157 193 247 305 358
#     4  10  21  38  60  89 121 154 192 238 305 360
#     4  11  24  39  58  90 121 158 199 244 295 357
#     4  10  21  36  56  86 119 156 192 240 294 362
#
# _framework density 19.361405999999999
#
# number of rings (size 3 to 8) (size 9 to 14) (size 15 to 20)
#    0.000    1.538    0.769    4.846    2.154    4.615 
#    0.000    0.000    0.000    5.077    0.000    0.000 
#    0.000    0.000    0.000    0.000    0.000    0.000 
#
# Total GULP energy -145065.436465 kJ/mol
# GULP energy per Si atom -5579.439864 kJ/mol
# Density = 1.931734 g / cm^3
# Si number density = 19.361406 Si / 1000 Ang^3
#
#
#
# Elastic Constant Matrix: (Units=GPa)
#
#
# Indices 1 2 3 4 5 6 
#
# 1 143.1533 37.4634 41.1961 0.0000 6.9646 0.0000
# 2 37.4634 66.0521 27.0776 0.0000 9.3975 0.0000
# 3 41.1961 27.0776 77.8543 0.0000 19.9441 0.0000
# 4 0.0000 0.0000 0.0000 8.0150 0.0000 0.5525
# 5 6.9646 9.3975 19.9441 0.0000 30.7307 0.0000
# 6 0.0000 0.0000 0.0000 0.5525 0.0000 15.1283
#
#
#
# Elastic Compliance Matrix: (Units=1/GPa)
#
#
# Indices 1 2 3 4 5 6 
#
# 1 0.009003 -0.003748 -0.003875 0.000000 0.001621 0.000000
# 2 -0.003748 0.019292 -0.004117 0.000000 -0.002378 0.000000
# 3 -0.003875 -0.004117 0.018926 0.000000 -0.010146 0.000000
# 4 0.000000 0.000000 0.000000 0.125080 0.000000 -0.004568
# 5 0.001621 -0.002378 -0.010146 0.000000 0.039485 0.000000
# 6 0.000000 0.000000 0.000000 -0.004568 0.000000 0.066268
#
#
# Mechanical properties :
#
#
# Convention : Reuss Voigt Hill
#
# Bulk Modulus (GPa) = 42.12456 55.39266 48.75861
# Shear Modulus (GPa) = 16.15777 22.86297 19.51037
#
# Velocity S-wave (km/s) = 2.89197 3.44008 3.17786
# Velocity P-wave (km/s) = 5.74069 6.66715 6.22119
#
# Compressibility (1/GPa) = 0.02373912
#
# Stress axis : x y z
#
# Youngs Moduli (GPa) = 111.07653 51.83621 52.83705
#
# Poissons Ratio (x) = 0.19429 0.20477
# Poissons Ratio (y) = 0.41633 0.21754
# Poissons Ratio (z) = 0.43047 0.21342
#
# Static dielectric constant tensor:
#      x y z
#    x 1.711390 0.000000 0.030310 
#    y 0.000000 1.662670 0.000000 
#    z 0.030310 0.000000 1.722760 
# 
# From -- ./inp_files/134043.got.cif
#   From: 2010.05.17/outbox.cif.g08.bks.cpg/sg12_68_cif.got.tgz:134043.got - 2010.06.03 13:09:07.
