data_PCOD9194635
_publ_section_title
;
Structure prediction by ZEFSAII (Michael W. Deem and Ramdas Pophale) SiO2 
 PCOD9194635
Probable space group: C 2/M
;
_chemical_formula_sum "Si O2"
_cell_formula_units_Z 58
_cell_length_a 18.797208
_cell_length_b 8.007868
_cell_length_c 17.867429
_cell_angle_alpha 90.000000
_cell_angle_beta 88.251310
_cell_angle_gamma 90.000000
_cell_volume 2688.252231
_symmetry_space_group_name_H-M "C 2/M"
_symmetry_group_IT_number 12
_symmetry_cell_setting 'monoclinic'
loop_
_space_group_symop_operation_xyz
x,y,z
-x,y,-z
-x,-y,-z
x,-y,z
1/2+x,1/2+y,z
1/2-x,1/2+y,-z
1/2-x,1/2-y,-z
1/2+x,1/2-y,z
loop_
_atom_site_type_symbol
_atom_site_label
_atom_site_fract_x
_atom_site_fract_y
_atom_site_fract_z
Si Si1 0.175969 0.692002 0.467196
Si Si2 0.548047 0.810065 0.590005
Si Si3 0.205706 0.806262 0.311458
Si Si4 0.679370 0.201144 0.884907
Si Si5 0.500000 0.500000 0.500000
Si Si6 0.136744 0.806202 0.722403
Si Si7 0.838724 0.798817 0.845835
Si Si8 0.077531 0.300342 0.018073
O O1 0.181958 0.500000 0.445448
O O2 0.250000 0.750000 0.500000
O O3 0.115474 0.706596 0.531191
O O4 0.165646 0.790044 0.390768
O O5 0.502567 0.650999 0.564933
O O6 0.581470 0.789735 0.671355
O O7 0.518061 0.000000 0.583237
O O8 0.282558 0.717778 0.311379
O O9 0.161179 0.746851 0.241134
O O10 0.223569 0.000000 0.297393
O O11 0.641499 0.248948 0.808282
O O12 0.761208 0.259136 0.878373
O O13 0.636572 0.265506 0.957931
O O14 0.682056 0.000000 0.887745
O O15 0.118565 0.000000 0.719380
O O16 0.841451 0.000000 0.848755
O O17 0.899147 0.733773 0.898265
O O18 0.075658 0.500000 0.007907
O O19 0.000000 0.233000 0.000000
#
# Coordination Sequence:
#
# PCOD9194635 Si02
#       8
#     8   8   8   8   2   8   8   8
#     4  11  22  34  58  92 124 156 196 251 318 367
#     4  11  24  42  62  89 124 164 210 268 313 360
#     4  10  20  34  56  88 125 158 190 249 318 366
#     4   9  19  36  58  85 117 149 193 250 304 359
#     4  12  26  44  64  82 116 172 224 246 302 390
#     4  11  20  34  58  90 119 153 205 253 307 370
#     4   9  19  35  56  84 116 153 193 244 303 352
#     4  10  21  37  58  84 115 155 194 237 298 367
#
# _framework density 21.575357
#
# number of rings (size 3 to 8) (size 9 to 14) (size 15 to 20)
#    0.000    1.793    2.069    3.517    1.931    3.586 
#    0.000    1.379    0.000    3.310    0.000    0.000 
#    0.000    0.000    0.000    0.000    0.000    0.000 
#
# Total GULP energy -161723.884749 kJ/mol
# GULP energy per Si atom -5576.685681 kJ/mol
# Density = 2.152625 g / cm^3
# Si number density = 21.575357 Si / 1000 Ang^3
#
#
#
# Elastic Constant Matrix: (Units=GPa)
#
#
# Indices 1 2 3 4 5 6 
#
# 1 31.5875 14.8174 31.0184 0.0000 16.1834 0.0000
# 2 14.8174 64.2973 -1.7083 0.0000 8.4227 0.0000
# 3 31.0184 -1.7083 123.1544 0.0000 27.9510 0.0000
# 4 0.0000 0.0000 0.0000 32.9531 0.0000 5.5340
# 5 16.1834 8.4227 27.9510 0.0000 34.2992 0.0000
# 6 0.0000 0.0000 0.0000 5.5340 0.0000 10.9652
#
#
#
# Elastic Compliance Matrix: (Units=1/GPa)
#
#
# Indices 1 2 3 4 5 6 
#
# 1 0.054651 -0.010990 -0.010646 0.000000 -0.014412 0.000000
# 2 -0.010990 0.018471 0.003530 0.000000 -0.002227 0.000000
# 3 -0.010646 0.003530 0.012155 0.000000 -0.005749 0.000000
# 4 0.000000 0.000000 0.000000 0.033156 0.000000 -0.016734
# 5 -0.014412 -0.002227 -0.005749 0.000000 0.041187 0.000000
# 6 0.000000 0.000000 0.000000 -0.016734 0.000000 0.099643
#
#
# Mechanical properties :
#
#
# Convention : Reuss Voigt Hill
#
# Bulk Modulus (GPa) = 20.38138 34.14379 27.26259
# Shear Modulus (GPa) = 16.03434 27.30428 21.66931
#
# Velocity S-wave (km/s) = 2.72909 3.56129 3.17259
# Velocity P-wave (km/s) = 4.40428 5.72452 5.10724
#
# Compressibility (1/GPa) = 0.04906438
#
# Stress axis : x y z
#
# Youngs Moduli (GPa) = 18.29780 54.13953 82.27024
#
# Poissons Ratio (x) = 0.59497 0.87588
# Poissons Ratio (y) = 0.20108 -0.29037
# Poissons Ratio (z) = 0.19481 -0.19109
#
# Static dielectric constant tensor:
#      x y z
#    x 1.793130 0.000000 -0.001070 
#    y 0.000000 1.853530 0.000000 
#    z -0.001070 0.000000 1.773750 
# 
# From -- ./inp_files/281555.got.cif
#   From: 2010.05.17/outbox.cif.g08.bks.cpg/sg12_141_cif.got.tgz:281555.got - 2010.06.03 13:09:07.
