data_PCOD9194318
_publ_section_title
;
Structure prediction by ZEFSAII (Michael W. Deem and Ramdas Pophale) SiO2 
 PCOD9194318
Probable space group: C 2/M
;
_chemical_formula_sum "Si O2"
_cell_formula_units_Z 64
_cell_length_a 18.315423
_cell_length_b 13.663401
_cell_length_c 12.467389
_cell_angle_alpha 90.000000
_cell_angle_beta 100.596878
_cell_angle_gamma 90.000000
_cell_volume 3066.766141
_symmetry_space_group_name_H-M "C 2/M"
_symmetry_group_IT_number 12
_symmetry_cell_setting 'monoclinic'
loop_
_space_group_symop_operation_xyz
x,y,z
-x,y,-z
-x,-y,-z
x,-y,z
1/2+x,1/2+y,z
1/2-x,1/2+y,-z
1/2-x,1/2-y,-z
1/2+x,1/2-y,z
loop_
_atom_site_type_symbol
_atom_site_label
_atom_site_fract_x
_atom_site_fract_y
_atom_site_fract_z
Si Si1 0.792029 0.887880 0.333521
Si Si2 0.661245 0.108362 0.138491
Si Si3 0.955714 0.613117 0.208072
Si Si4 0.223476 0.382743 0.534089
Si Si5 0.941649 0.381353 0.574459
Si Si6 0.921855 0.236711 0.007230
Si Si7 0.776587 0.886838 0.971110
Si Si8 0.310993 0.190219 0.254755
O O1 0.709272 0.885311 0.259138
O O2 0.782212 0.863126 0.455892
O O3 0.834038 0.802689 0.281369
O O4 0.818568 0.000000 0.327112
O O5 0.605351 0.195030 0.098619
O O6 0.626413 0.000000 0.124471
O O7 0.722076 0.113671 0.058635
O O8 0.960899 0.500000 0.174446
O O9 0.883598 0.622943 0.265941
O O10 0.026069 0.641874 0.299429
O O11 0.937133 0.686455 0.107050
O O12 0.220774 0.500000 0.543394
O O13 0.141497 0.348996 0.474232
O O14 0.236890 0.338883 0.654470
O O15 0.941625 0.500000 0.570589
O O16 0.000000 0.346579 0.500000
O O17 0.855269 0.163256 0.015044
O O18 0.000000 0.187817 0.000000
O O19 0.736180 0.828315 0.864686
O O20 0.785476 0.000000 0.941154
#
# Coordination Sequence:
#
# PCOD9194318 Si02
#       8
#     8   8   8   8   8   8   8   8
#     4  10  22  36  53  80 116 151 184 234 295 350
#     4  10  20  38  60  83 114 152 194 241 297 353
#     4  11  22  35  57  88 118 151 193 241 294 355
#     4  10  20  34  55  85 118 149 183 235 296 351
#     4   9  17  31  50  78 114 144 176 224 286 349
#     4  12  25  38  55  86 123 157 192 240 301 365
#     4  11  23  41  64  86 115 157 206 254 286 338
#     4  12  20  36  61  86 110 149 205 246 285 344
#
# _framework density 20.868887000000001
#
# number of rings (size 3 to 8) (size 9 to 14) (size 15 to 20)
#    0.000    1.375    3.750    3.000    1.750    1.250 
#    0.000    0.000    0.000    0.000    0.000    2.625 
#    0.000    0.000    0.000    0.000    0.000    0.000 
#
# Total GULP energy -178872.700556 kJ/mol
# GULP energy per Si atom -5589.771892 kJ/mol
# Density = 2.082139 g / cm^3
# Si number density = 20.868887 Si / 1000 Ang^3
#
#
#
# Elastic Constant Matrix: (Units=GPa)
#
#
# Indices 1 2 3 4 5 6 
#
# 1 68.4164 25.3665 0.6035 0.0000 -2.0470 0.0000
# 2 25.3665 83.1206 15.9559 0.0000 -10.1140 0.0000
# 3 0.6035 15.9559 89.0955 0.0000 -7.3386 0.0000
# 4 0.0000 0.0000 0.0000 26.2915 0.0000 0.0098
# 5 -2.0470 -10.1140 -7.3386 0.0000 21.0766 0.0000
# 6 0.0000 0.0000 0.0000 0.0098 0.0000 16.6137
#
#
#
# Elastic Compliance Matrix: (Units=1/GPa)
#
#
# Indices 1 2 3 4 5 6 
#
# 1 0.016547 -0.005279 0.000779 0.000000 -0.000655 0.000000
# 2 -0.005279 0.014759 -0.002127 0.000000 0.005829 0.000000
# 3 0.000779 -0.002127 0.011862 0.000000 0.003185 0.000000
# 4 0.000000 0.000000 0.000000 0.038035 0.000000 -0.000023
# 5 -0.000655 0.005829 0.003185 0.000000 0.051288 0.000000
# 6 0.000000 0.000000 0.000000 -0.000023 0.000000 0.060191
#
#
# Mechanical properties :
#
#
# Convention : Reuss Voigt Hill
#
# Bulk Modulus (GPa) = 33.42861 36.05382 34.74122
# Shear Modulus (GPa) = 23.15790 26.04349 24.60070
#
# Velocity S-wave (km/s) = 3.33481 3.53648 3.43712
# Velocity P-wave (km/s) = 5.55708 5.83004 5.69520
#
# Compressibility (1/GPa) = 0.02991449
#
# Stress axis : x y z
#
# Youngs Moduli (GPa) = 60.43311 67.75334 84.30312
#
# Poissons Ratio (x) = 0.35768 -0.06571
# Poissons Ratio (y) = 0.31903 0.17934
# Poissons Ratio (z) = -0.04710 0.14413
#
# Static dielectric constant tensor:
#      x y z
#    x 1.762750 0.000000 -0.035750 
#    y 0.000000 1.770830 0.000000 
#    z -0.035750 0.000000 1.786870 
# 
# From -- ./inp_files/156658.got.cif
#   From: 2010.05.17/outbox.cif.g08.bks.cpg/sg12_79_cif.got.tgz:156658.got - 2010.06.03 13:09:07.
