data_PCOD9194292
_publ_section_title
;
Structure prediction by ZEFSAII (Michael W. Deem and Ramdas Pophale) SiO2 
 PCOD9194292
Probable space group: C 2/M
;
_chemical_formula_sum "Si O2"
_cell_formula_units_Z 56
_cell_length_a 9.578377
_cell_length_b 29.555860
_cell_length_c 11.271618
_cell_angle_alpha 90.000000
_cell_angle_beta 121.123740
_cell_angle_gamma 90.000000
_cell_volume 2731.633548
_symmetry_space_group_name_H-M "C 2/M"
_symmetry_group_IT_number 12
_symmetry_cell_setting 'monoclinic'
loop_
_space_group_symop_operation_xyz
x,y,z
-x,y,-z
-x,-y,-z
x,-y,z
1/2+x,1/2+y,z
1/2-x,1/2+y,-z
1/2-x,1/2-y,-z
1/2+x,1/2-y,z
loop_
_atom_site_type_symbol
_atom_site_label
_atom_site_fract_x
_atom_site_fract_y
_atom_site_fract_z
Si Si1 0.111084 0.367195 0.938233
Si Si2 0.117895 0.721712 0.437628
Si Si3 0.045748 0.780916 0.228353
Si Si4 0.178321 0.376157 0.344519
Si Si5 0.780861 0.273736 0.113483
Si Si6 0.378198 0.448704 0.560486
Si Si7 0.088248 0.879490 0.777218
O O1 0.175946 0.325601 0.892069
O O2 0.982637 0.391925 0.797623
O O3 0.268256 0.389781 0.065988
O O4 0.000000 0.349507 0.000000
O O5 0.194310 0.771251 0.406792
O O6 0.152597 0.671914 0.396625
O O7 0.000000 0.721788 0.500000
O O8 0.963669 0.737757 0.269679
O O9 0.157238 0.766281 0.166792
O O10 0.011581 0.834269 0.233959
O O11 0.855559 0.770808 0.068699
O O12 0.235045 0.415140 0.457783
O O13 0.318842 0.368977 0.306473
O O14 0.500000 0.450695 0.500000
O O15 0.331062 0.500000 0.568336
O O16 0.475244 0.422494 0.705626
#
# Coordination Sequence:
#
# PCOD9194292 Si02
#       7
#     8   8   8   8   8   8   8
#     4  10  20  34  55  84 119 157 194 248 297 351
#     4  12  24  36  52  80 120 167 210 249 289 346
#     4  12  23  35  53  81 119 166 207 249 291 350
#     4  10  20  37  58  84 119 157 199 252 303 362
#     4  12  22  34  53  80 120 164 207 242 290 353
#     4   9  19  38  63  88 115 151 198 253 313 376
#     4  10  20  35  59  88 118 154 202 251 305 361
#
# _framework density 20.500554000000001
#
# number of rings (size 3 to 8) (size 9 to 14) (size 15 to 20)
#    0.000    1.286    2.857    4.714    0.000    1.143 
#    0.000    0.714    0.000    4.714    0.000    2.000 
#    0.000    0.000    0.000    0.000    0.000    0.000 
#
# Total GULP energy -156161.226976 kJ/mol
# GULP energy per Si atom -5577.186678 kJ/mol
# Density = 2.045389 g / cm^3
# Si number density = 20.500554 Si / 1000 Ang^3
#
#
#
# Elastic Constant Matrix: (Units=GPa)
#
#
# Indices 1 2 3 4 5 6 
#
# 1 75.5891 50.1351 34.1405 0.0000 19.2467 0.0000
# 2 50.1351 126.4852 67.1926 0.0000 11.5648 0.0000
# 3 34.1405 67.1926 170.7338 0.0000 20.0503 0.0000
# 4 0.0000 0.0000 0.0000 24.4398 0.0000 2.0425
# 5 19.2467 11.5648 20.0503 0.0000 44.1026 0.0000
# 6 0.0000 0.0000 0.0000 2.0425 0.0000 13.8751
#
#
#
# Elastic Compliance Matrix: (Units=1/GPa)
#
#
# Indices 1 2 3 4 5 6 
#
# 1 0.019738 -0.006999 -0.000419 0.000000 -0.006588 0.000000
# 2 -0.006999 0.012510 -0.003694 0.000000 0.001453 0.000000
# 3 -0.000419 -0.003694 0.007669 0.000000 -0.002335 0.000000
# 4 0.000000 0.000000 0.000000 0.041427 0.000000 -0.006098
# 5 -0.006588 0.001453 -0.002335 0.000000 0.026230 0.000000
# 6 0.000000 0.000000 0.000000 -0.006098 0.000000 0.072969
#
#
# Mechanical properties :
#
#
# Convention : Reuss Voigt Hill
#
# Bulk Modulus (GPa) = 56.52010 75.08272 65.80141
# Shear Modulus (GPa) = 23.96189 31.23948 27.60069
#
# Velocity S-wave (km/s) = 3.42254 3.90787 3.67323
# Velocity P-wave (km/s) = 6.57634 7.55421 7.08218
#
# Compressibility (1/GPa) = 0.01769282
#
# Stress axis : x y z
#
# Youngs Moduli (GPa) = 50.66356 79.93678 130.39496
#
# Poissons Ratio (x) = 0.55946 0.05461
# Poissons Ratio (y) = 0.35458 0.48174
# Poissons Ratio (z) = 0.02122 0.29533
#
# Static dielectric constant tensor:
#      x y z
#    x 1.780380 0.000000 0.110760 
#    y 0.000000 1.634430 0.000000 
#    z 0.110760 0.000000 2.033510 
# 
# From -- ./inp_files/137005.got.cif
#   From: 2010.05.17/outbox.cif.g08.bks.cpg/sg12_69_cif.got.tgz:137005.got - 2010.06.03 13:09:07.
