data_PCOD9194916
_publ_section_title
;
Structure prediction by ZEFSAII (Michael W. Deem and Ramdas Pophale) SiO2 
 PCOD9194916
Probable space group: C 2/M
;
_chemical_formula_sum "Si O2"
_cell_formula_units_Z 48
_cell_length_a 28.589198
_cell_length_b 9.180158
_cell_length_c 14.995600
_cell_angle_alpha 90.000000
_cell_angle_beta 140.858939
_cell_angle_gamma 90.000000
_cell_volume 2484.304605
_symmetry_space_group_name_H-M "C 2/M"
_symmetry_group_IT_number 12
_symmetry_cell_setting 'monoclinic'
loop_
_space_group_symop_operation_xyz
x,y,z
-x,y,-z
-x,-y,-z
x,-y,z
1/2+x,1/2+y,z
1/2-x,1/2+y,-z
1/2-x,1/2-y,-z
1/2+x,1/2-y,z
loop_
_atom_site_type_symbol
_atom_site_label
_atom_site_fract_x
_atom_site_fract_y
_atom_site_fract_z
Si Si1 0.350701 0.172001 0.075967
Si Si2 0.160413 0.326632 0.575008
Si Si3 0.409671 0.172472 0.713140
Si Si4 0.438812 0.328682 0.049864
Si Si5 0.316699 0.670789 0.714916
Si Si6 0.324720 0.671643 0.219720
O O1 0.402145 0.251778 0.080889
O O2 0.357202 0.243390 0.182944
O O3 0.366557 0.000000 0.102329
O O4 0.264764 0.190809 0.918847
O O5 0.161516 0.500000 0.596492
O O6 0.102548 0.299826 0.410044
O O7 0.240415 0.288805 0.650712
O O8 0.148712 0.238056 0.647756
O O9 0.482956 0.254061 0.853515
O O10 0.340024 0.233153 0.665425
O O11 0.415791 0.000000 0.735516
O O12 0.449306 0.500000 0.081700
O O13 0.381948 0.313111 0.884040
O O14 0.311513 0.500000 0.681746
O O15 0.340247 0.500000 0.236356
#
# Coordination Sequence:
#
# PCOD9194916 Si02
#       6
#     8   8   8   8   8   8
#     4  10  20  35  58  87 117 147 185 233 283 336
#     4  10  21  39  59  83 116 153 190 234 285 336
#     4  11  24  38  56  83 118 154 190 235 286 338
#     4  11  22  38  60  84 115 152 191 236 284 336
#     4  10  21  38  60  83 110 150 197 238 282 333
#     4  10  20  34  58  89 116 146 186 233 282 335
#
# _framework density 19.321301999999999
#
# number of rings (size 3 to 8) (size 9 to 14) (size 15 to 20)
#    0.000    1.667    1.667    3.000    0.000    6.667 
#    0.000    0.833    0.000    5.000    0.000    0.000 
#    0.000    0.000    0.000    0.000    0.000    0.000 
#
# Total GULP energy -134164.323708 kJ/mol
# GULP energy per Si atom -5590.180154 kJ/mol
# Density = 1.927733 g / cm^3
# Si number density = 19.321302 Si / 1000 Ang^3
#
#
#
# Elastic Constant Matrix: (Units=GPa)
#
#
# Indices 1 2 3 4 5 6 
#
# 1 66.4439 34.7004 -1.7965 0.0000 -21.1425 0.0000
# 2 34.7004 73.2458 25.9589 0.0000 -16.6504 0.0000
# 3 -1.7965 25.9589 34.1976 0.0000 -4.6611 0.0000
# 4 0.0000 0.0000 0.0000 24.8532 0.0000 -5.8215
# 5 -21.1425 -16.6504 -4.6611 0.0000 26.8656 0.0000
# 6 0.0000 0.0000 0.0000 -5.8215 0.0000 37.4148
#
#
#
# Elastic Compliance Matrix: (Units=1/GPa)
#
#
# Indices 1 2 3 4 5 6 
#
# 1 0.028401 -0.015337 0.015245 0.000000 0.015491 0.000000
# 2 -0.015337 0.029565 -0.022938 0.000000 0.002274 0.000000
# 3 0.015245 -0.022938 0.048294 0.000000 0.006160 0.000000
# 4 0.000000 0.000000 0.000000 0.041758 0.000000 0.006497
# 5 0.015491 0.002274 0.006160 0.000000 0.051891 0.000000
# 6 0.000000 0.000000 0.000000 0.006497 0.000000 0.027738
#
#
# Mechanical properties :
#
#
# Convention : Reuss Voigt Hill
#
# Bulk Modulus (GPa) = 16.61085 32.40143 24.50614
# Shear Modulus (GPa) = 17.01985 25.49504 21.25744
#
# Velocity S-wave (km/s) = 2.97119 3.63647 3.32054
# Velocity P-wave (km/s) = 4.51514 5.86840 5.23568
#
# Compressibility (1/GPa) = 0.06020162
#
# Stress axis : x y z
#
# Youngs Moduli (GPa) = 35.20950 33.82387 20.70635
#
# Poissons Ratio (x) = 0.51875 -0.31568
# Poissons Ratio (y) = 0.54001 0.47496
# Poissons Ratio (z) = -0.53679 0.77585
#
# Static dielectric constant tensor:
#      x y z
#    x 1.647490 0.000000 0.005010 
#    y 0.000000 1.636670 0.000000 
#    z 0.005010 0.000000 1.676560 
# 
# From -- ./inp_files/229909.got.cif
#   From: 2010.05.17/outbox.cif.g08.bks.cpg/sg12_115_cif.got.tgz:229909.got - 2010.06.03 13:09:07.
