data_PCOD9194116
_publ_section_title
;
Structure prediction by ZEFSAII (Michael W. Deem and Ramdas Pophale) SiO2 
 PCOD9194116
Probable space group: C 2/M
;
_chemical_formula_sum "Si O2"
_cell_formula_units_Z 56
_cell_length_a 31.655345
_cell_length_b 8.899084
_cell_length_c 18.593513
_cell_angle_alpha 90.000000
_cell_angle_beta 144.272568
_cell_angle_gamma 90.000000
_cell_volume 3058.542799
_symmetry_space_group_name_H-M "C 2/M"
_symmetry_group_IT_number 12
_symmetry_cell_setting 'monoclinic'
loop_
_space_group_symop_operation_xyz
x,y,z
-x,y,-z
-x,-y,-z
x,-y,z
1/2+x,1/2+y,z
1/2-x,1/2+y,-z
1/2-x,1/2-y,-z
1/2+x,1/2-y,z
loop_
_atom_site_type_symbol
_atom_site_label
_atom_site_fract_x
_atom_site_fract_y
_atom_site_fract_z
Si Si1 0.289936 0.679030 0.289839
Si Si2 0.267383 0.176791 0.409168
Si Si3 0.644605 0.320502 0.026386
Si Si4 0.830608 0.818256 0.102645
Si Si5 0.143845 0.322599 0.323220
Si Si6 0.015425 0.320132 0.938862
Si Si7 0.079569 0.182532 0.633329
O O1 0.281422 0.500000 0.273193
O O2 0.292244 0.730724 0.375065
O O3 0.220913 0.756593 0.158531
O O4 0.362101 0.722232 0.346886
O O5 0.188262 0.229713 0.325682
O O6 0.319584 0.205012 0.549275
O O7 0.267078 0.000000 0.392708
O O8 0.644723 0.500000 0.031903
O O9 0.638354 0.279561 0.933284
O O10 0.581800 0.256156 0.990275
O O11 0.885015 0.769207 0.241674
O O12 0.823627 0.000000 0.097111
O O13 0.750000 0.750000 0.000000
O O14 0.152603 0.500000 0.318379
O O15 0.059373 0.288760 0.205843
O O16 0.028215 0.500000 0.957654
O O17 0.000000 0.273294 0.000000
O O18 0.000000 0.236948 0.500000
O O19 0.075461 0.000000 0.631181
#
# Coordination Sequence:
#
# PCOD9194116 Si02
#       7
#     8   8   8   8   8   8   8
#     4  11  21  35  58  82 108 148 192 233 284 350
#     4  10  20  34  55  81 113 148 186 236 284 337
#     4  11  23  36  57  87 116 148 190 243 295 343
#     4  10  20  37  60  85 114 150 191 238 288 344
#     4   9  19  36  55  79 112 152 191 229 281 342
#     4  10  21  37  57  81 113 151 192 235 279 340
#     4   9  19  36  58  84 113 147 190 238 285 339
#
# _framework density 18.309372
#
# number of rings (size 3 to 8) (size 9 to 14) (size 15 to 20)
#    0.000    2.000    1.429    2.143    0.000    4.286 
#    0.000    1.429    0.000    3.857    0.000    0.000 
#    0.000    0.000    0.000    0.000    0.000    0.000 
#
# Total GULP energy -156309.041402 kJ/mol
# GULP energy per Si atom -5582.465764 kJ/mol
# Density = 1.826770 g / cm^3
# Si number density = 18.309372 Si / 1000 Ang^3
#
#
#
# Elastic Constant Matrix: (Units=GPa)
#
#
# Indices 1 2 3 4 5 6 
#
# 1 157.0491 51.8836 76.5678 0.0000 15.7483 0.0000
# 2 51.8836 27.6644 36.3552 0.0000 3.3116 0.0000
# 3 76.5678 36.3552 123.4383 0.0000 22.2825 0.0000
# 4 0.0000 0.0000 0.0000 17.8098 0.0000 15.6726
# 5 15.7483 3.3116 22.2825 0.0000 24.1770 0.0000
# 6 0.0000 0.0000 0.0000 15.6726 0.0000 -32.9273
#
#
#
# Elastic Compliance Matrix: (Units=1/GPa)
#
#
# Indices 1 2 3 4 5 6 
#
# 1 0.017891 -0.032274 -0.000344 0.000000 -0.006916 0.000000
# 2 -0.032274 0.119076 -0.019075 0.000000 0.022293 0.000000
# 3 -0.000344 -0.019075 0.016099 0.000000 -0.012001 0.000000
# 4 0.000000 0.000000 0.000000 0.039573 0.000000 0.018836
# 5 -0.006916 0.022293 -0.012001 0.000000 0.053873 0.000000
# 6 0.000000 0.000000 0.000000 0.018836 0.000000 -0.021405
#
#
# Mechanical properties :
#
#
# Convention : Reuss Voigt Hill
#
# Bulk Modulus (GPa) = 20.12907 70.86279 45.49593
# Shear Modulus (GPa) = 14.49054 11.36826 12.92940
#
# Velocity S-wave (km/s) = 2.81628 2.49449 2.66026
# Velocity P-wave (km/s) = 4.64683 6.86175 5.85989
#
# Compressibility (1/GPa) = 0.04967938
#
# Stress axis : x y z
#
# Youngs Moduli (GPa) = 55.89496 8.39802 62.11682
#
# Poissons Ratio (x) = 0.27104 0.02134
# Poissons Ratio (y) = 1.80395 1.18489
# Poissons Ratio (z) = 0.01920 0.16019
#
# Static dielectric constant tensor:
#      x y z
#    x 1.608240 0.000000 -0.022930 
#    y 0.000000 1.615940 0.000000 
#    z -0.022930 0.000000 1.631800 
# 
# From -- ./inp_files/292525.got.cif
#   From: 2010.05.17/outbox.cif.g08.bks.cpg/sg12_147_cif.got.tgz:292525.got - 2010.06.03 13:09:07.
