data_PCOD9194079
_publ_section_title
;
Structure prediction by ZEFSAII (Michael W. Deem and Ramdas Pophale) SiO2 
 PCOD9194079
Probable space group: C 2/M
;
_chemical_formula_sum "Si O2"
_cell_formula_units_Z 56
_cell_length_a 13.766237
_cell_length_b 13.959814
_cell_length_c 22.500571
_cell_angle_alpha 90.000000
_cell_angle_beta 38.846903
_cell_angle_gamma 90.000000
_cell_volume 2712.209614
_symmetry_space_group_name_H-M "C 2/M"
_symmetry_group_IT_number 12
_symmetry_cell_setting 'monoclinic'
loop_
_space_group_symop_operation_xyz
x,y,z
-x,y,-z
-x,-y,-z
x,-y,z
1/2+x,1/2+y,z
1/2-x,1/2+y,-z
1/2-x,1/2-y,-z
1/2+x,1/2-y,z
loop_
_atom_site_type_symbol
_atom_site_label
_atom_site_fract_x
_atom_site_fract_y
_atom_site_fract_z
Si Si1 0.056766 0.109100 0.380789
Si Si2 0.002878 0.707472 0.107167
Si Si3 0.329331 0.612053 0.933055
Si Si4 0.217794 0.886489 0.180688
Si Si5 0.177834 0.278278 0.685630
Si Si6 0.690045 0.888928 0.565707
Si Si7 0.827610 0.391397 0.557020
O O1 0.097228 0.128100 0.292263
O O2 0.156325 0.178383 0.373968
O O3 0.876174 0.113273 0.479740
O O4 0.109925 0.000000 0.367968
O O5 0.869002 0.676623 0.124901
O O6 0.928814 0.699319 0.207810
O O7 0.067986 0.816164 0.076008
O O8 0.150081 0.638300 0.030662
O O9 0.360506 0.500000 0.927930
O O10 0.347324 0.634220 0.853777
O O11 0.260691 0.000000 0.160668
O O12 0.122694 0.330257 0.652246
O O13 0.214278 0.169210 0.651943
O O14 0.654843 0.848735 0.517303
O O15 0.639301 0.000000 0.592803
O O16 0.767701 0.500000 0.578977
O O17 0.000000 0.394548 0.500000
#
# Coordination Sequence:
#
# PCOD9194079 Si02
#       7
#     8   8   8   8   8   8   8
#     4   9  18  32  54  86 112 135 177 230 281 331
#     4  10  22  36  56  91 115 143 188 242 286 343
#     4  10  21  39  63  85 113 151 191 237 290 343
#     4   9  18  35  62  87 113 148 190 238 287 337
#     4  11  21  34  54  82 112 144 175 229 286 329
#     4  10  20  34  55  80 111 145 182 227 273 326
#     4  10  22  38  53  73 108 155 197 223 256 321
#
# _framework density 20.647371
#
# number of rings (size 3 to 8) (size 9 to 14) (size 15 to 20)
#    0.000    2.143    0.000    3.000    2.000    4.571 
#    2.571    0.000    0.000    7.714    0.000    0.000 
#    0.000    0.000    0.000    0.000    0.000    0.000 
#
# Total GULP energy -156480.075807 kJ/mol
# GULP energy per Si atom -5588.574136 kJ/mol
# Density = 2.060038 g / cm^3
# Si number density = 20.647371 Si / 1000 Ang^3
#
#
#
# Elastic Constant Matrix: (Units=GPa)
#
#
# Indices 1 2 3 4 5 6 
#
# 1 51.8236 23.0558 -0.6760 0.0000 7.1840 0.0000
# 2 23.0558 80.8622 0.6951 0.0000 5.8091 0.0000
# 3 -0.6760 0.6951 57.8812 -0.0001 7.6163 0.0000
# 4 0.0000 0.0000 -0.0001 21.1870 0.0000 8.2373
# 5 7.1840 5.8091 7.6163 0.0000 22.3253 0.0000
# 6 0.0000 0.0000 0.0000 8.2373 0.0000 26.1250
#
#
#
# Elastic Compliance Matrix: (Units=1/GPa)
#
#
# Indices 1 2 3 4 5 6 
#
# 1 0.022875 -0.006089 0.001152 0.000000 -0.006170 0.000000
# 2 -0.006089 0.014228 -0.000013 0.000000 -0.001738 0.000000
# 3 0.001152 -0.000013 0.018154 0.000000 -0.006560 0.000000
# 4 0.000000 0.000000 0.000000 0.053793 0.000000 -0.016961
# 5 -0.006170 -0.001738 -0.006560 0.000000 0.049468 0.000000
# 6 0.000000 0.000000 0.000000 -0.016961 0.000000 0.043625
#
#
# Mechanical properties :
#
#
# Convention : Reuss Voigt Hill
#
# Bulk Modulus (GPa) = 22.04747 26.30185 24.17466
# Shear Modulus (GPa) = 22.01069 25.09361 23.55215
#
# Velocity S-wave (km/s) = 3.26855 3.48996 3.38107
# Velocity P-wave (km/s) = 4.99458 5.38572 5.19383
#
# Compressibility (1/GPa) = 0.04535668
#
# Stress axis : x y z
#
# Youngs Moduli (GPa) = 43.71495 70.28476 55.08535
#
# Poissons Ratio (x) = 0.42797 -0.06347
# Poissons Ratio (y) = 0.26618 0.00073
# Poissons Ratio (z) = -0.05037 0.00093
#
# Static dielectric constant tensor:
#      x y z
#    x 1.734150 0.000000 0.002250 
#    y 0.000000 1.756400 0.000000 
#    z 0.002250 0.000000 1.734990 
# 
# From -- ./inp_files/310790.got.cif
#   From: 2010.05.17/outbox.cif.g08.bks.cpg/sg12_156_cif.got.tgz:310790.got - 2010.06.03 13:09:07.
