data_PCOD9194242
_publ_section_title
;
Structure prediction by ZEFSAII (Michael W. Deem and Ramdas Pophale) SiO2 
 PCOD9194242
Probable space group: C 2/M
;
_chemical_formula_sum "Si O2"
_cell_formula_units_Z 56
_cell_length_a 11.823230
_cell_length_b 30.219913
_cell_length_c 15.328985
_cell_angle_alpha 90.000000
_cell_angle_beta 29.857537
_cell_angle_gamma 90.000000
_cell_volume 2726.697811
_symmetry_space_group_name_H-M "C 2/M"
_symmetry_group_IT_number 12
_symmetry_cell_setting 'monoclinic'
loop_
_space_group_symop_operation_xyz
x,y,z
-x,y,-z
-x,-y,-z
x,-y,z
1/2+x,1/2+y,z
1/2-x,1/2+y,-z
1/2-x,1/2-y,-z
1/2+x,1/2-y,z
loop_
_atom_site_type_symbol
_atom_site_label
_atom_site_fract_x
_atom_site_fract_y
_atom_site_fract_z
Si Si1 0.177969 0.446381 0.306406
Si Si2 0.968026 0.446953 0.260901
Si Si3 0.451947 0.246966 0.625381
Si Si4 0.655090 0.831793 0.813661
Si Si5 0.372934 0.184488 0.361670
Si Si6 0.068266 0.893297 0.585792
Si Si7 0.106113 0.946622 0.131390
O O1 0.173200 0.500000 0.307653
O O2 0.429463 0.434834 0.171728
O O3 0.000000 0.432159 0.500000
O O4 0.092995 0.432915 0.267754
O O5 0.947264 0.500000 0.276675
O O6 0.720240 0.425748 0.425327
O O7 0.138636 0.435557 0.068611
O O8 0.500000 0.224735 0.500000
O O9 0.246382 0.281521 0.764606
O O10 0.442037 0.210395 0.706578
O O11 0.670493 0.279539 0.486796
O O12 0.555360 0.831812 0.782438
O O13 0.867694 0.865336 0.675450
O O14 0.500000 0.842486 0.000000
O O15 0.251594 0.144008 0.491591
O O16 0.970962 0.921164 0.731114
O O17 0.090200 0.000000 0.154918
#
# Coordination Sequence:
#
# PCOD9194242 Si02
#       7
#     8   8   8   8   8   8   8
#     4   9  15  29  51  75 108 153 200 246 304 366
#     4  10  20  34  56  81 115 165 212 258 309 360
#     4   8  16  37  64  88 116 150 191 237 293 366
#     4  10  22  38  63  91 117 160 206 244 302 369
#     4   9  19  37  60  86 116 158 193 235 302 361
#     4  11  21  35  57  85 120 158 200 253 302 358
#     4  10  20  34  55  83 116 159 211 259 305 361
#
# _framework density 20.537663999999999
#
# number of rings (size 3 to 8) (size 9 to 14) (size 15 to 20)
#    0.000    2.429    1.429    2.143    2.000    2.286 
#    2.571    0.000    0.000    8.571    0.000    0.000 
#    0.000    0.000    0.000    0.000    0.000    0.000 
#
# Total GULP energy -156148.891150 kJ/mol
# GULP energy per Si atom -5576.746112 kJ/mol
# Density = 2.049092 g / cm^3
# Si number density = 20.537664 Si / 1000 Ang^3
#
#
#
# Elastic Constant Matrix: (Units=GPa)
#
#
# Indices 1 2 3 4 5 6 
#
# 1 68.4234 49.0115 46.7058 0.0000 15.1188 0.0000
# 2 49.0115 75.4100 54.0452 0.0000 14.0168 0.0000
# 3 46.7058 54.0452 144.3181 0.0000 18.6296 0.0000
# 4 0.0000 0.0000 0.0000 21.8212 0.0000 5.0589
# 5 15.1188 14.0168 18.6296 0.0000 23.7439 0.0000
# 6 0.0000 0.0000 0.0000 5.0589 0.0000 23.7611
#
#
#
# Elastic Compliance Matrix: (Units=1/GPa)
#
#
# Indices 1 2 3 4 5 6 
#
# 1 0.029375 -0.015853 -0.002630 0.000000 -0.007282 0.000000
# 2 -0.015853 0.027478 -0.004861 0.000000 -0.002313 0.000000
# 3 -0.002630 -0.004861 0.010030 0.000000 -0.003325 0.000000
# 4 0.000000 0.000000 0.000000 0.048206 0.000000 -0.010263
# 5 -0.007282 -0.002313 -0.003325 0.000000 0.050727 0.000000
# 6 0.000000 0.000000 0.000000 -0.010263 0.000000 0.044271
#
#
# Mechanical properties :
#
#
# Convention : Reuss Voigt Hill
#
# Bulk Modulus (GPa) = 49.51822 65.29740 57.40781
# Shear Modulus (GPa) = 18.97482 23.09117 21.03299
#
# Velocity S-wave (km/s) = 3.04288 3.35674 3.20366
# Velocity P-wave (km/s) = 6.04225 6.84738 6.45737
#
# Compressibility (1/GPa) = 0.02019459
#
# Stress axis : x y z
#
# Youngs Moduli (GPa) = 34.04287 36.39243 99.70259
#
# Poissons Ratio (x) = 0.57695 0.26218
# Poissons Ratio (y) = 0.53970 0.48466
# Poissons Ratio (z) = 0.08952 0.17690
#
# Static dielectric constant tensor:
#      x y z
#    x 1.792370 0.000000 -0.008450 
#    y 0.000000 1.736730 0.000000 
#    z -0.008450 0.000000 1.726300 
# 
# From -- ./inp_files/209970.got.cif
#   From: 2010.05.17/outbox.cif.g08.bks.cpg/sg12_105_cif.got.tgz:209970.got - 2010.06.03 13:09:07.
