data_PCOD9194338
_publ_section_title
;
Structure prediction by ZEFSAII (Michael W. Deem and Ramdas Pophale) SiO2 
 PCOD9194338
Probable space group: C 2/M
;
_chemical_formula_sum "Si O2"
_cell_formula_units_Z 60
_cell_length_a 9.087811
_cell_length_b 34.148611
_cell_length_c 11.595067
_cell_angle_alpha 90.000000
_cell_angle_beta 68.278575
_cell_angle_gamma 90.000000
_cell_volume 3342.863288
_symmetry_space_group_name_H-M "C 2/M"
_symmetry_group_IT_number 12
_symmetry_cell_setting 'monoclinic'
loop_
_space_group_symop_operation_xyz
x,y,z
-x,y,-z
-x,-y,-z
x,-y,z
1/2+x,1/2+y,z
1/2-x,1/2+y,-z
1/2-x,1/2-y,-z
1/2+x,1/2-y,z
loop_
_atom_site_type_symbol
_atom_site_label
_atom_site_fract_x
_atom_site_fract_y
_atom_site_fract_z
Si Si1 0.865878 0.264754 0.138281
Si Si2 0.531645 0.303885 0.190231
Si Si3 0.893197 0.866635 0.386545
Si Si4 0.712440 0.106014 0.216799
Si Si5 0.000000 0.867018 0.000000
Si Si6 0.959590 0.347694 0.147831
Si Si7 0.789520 0.104652 0.648822
Si Si8 0.533481 0.046227 0.626734
O O1 0.689376 0.277031 0.150048
O O2 0.919641 0.303236 0.191388
O O3 0.885292 0.224114 0.198663
O O4 0.000000 0.261091 0.000000
O O5 0.484112 0.327592 0.318777
O O6 0.554968 0.337304 0.085732
O O7 0.771013 0.878323 0.323059
O O8 0.809010 0.865837 0.534329
O O9 0.031150 0.899737 0.358525
O O10 0.599896 0.136964 0.186142
O O11 0.611797 0.066896 0.264468
O O12 0.865129 0.105685 0.091627
O O13 0.812408 0.375443 0.221216
O O14 0.000000 0.349270 0.000000
O O15 0.691947 0.068159 0.625746
O O16 0.500000 0.052795 0.500000
O O17 0.542625 0.000000 0.643899
#
# Coordination Sequence:
#
# PCOD9194338 Si02
#       8
#     8   8   8   8   4   8   8   8
#     4  11  21  33  51  78 116 153 197 255 300 331
#     4  11  22  34  52  82 116 152 205 248 297 334
#     4  10  21  37  58  83 114 159 198 239 285 345
#     4  10  21  35  61  87 119 151 195 234 289 348
#     4  10  20  34  55  86 114 158 196 242 279 354
#     4  10  21  35  58  86 113 155 200 242 295 346
#     4  10  20  40  61  80 118 155 192 235 288 346
#     4  10  20  39  64  94 117 143 187 239 291 349
#
# _framework density 17.948685000000001
#
# number of rings (size 3 to 8) (size 9 to 14) (size 15 to 20)
#    0.000    1.733    3.333    2.000    5.600    0.000 
#    0.000    3.000    0.000    6.400    0.000    0.000 
#    0.000    0.000    0.000    0.000    0.000    0.000 
#
# Total GULP energy -167183.414765 kJ/mol
# GULP energy per Si atom -5572.780492 kJ/mol
# Density = 1.790783 g / cm^3
# Si number density = 17.948685 Si / 1000 Ang^3
#
#
#
# Elastic Constant Matrix: (Units=GPa)
#
#
# Indices 1 2 3 4 5 6 
#
# 1 92.4073 34.4857 27.3381 0.0000 4.6214 0.0000
# 2 34.4857 91.9676 34.6401 0.0000 2.3552 0.0000
# 3 27.3381 34.6401 78.3640 0.0000 0.0375 0.0000
# 4 0.0000 0.0000 0.0000 21.3622 0.0000 6.7736
# 5 4.6214 2.3552 0.0375 0.0000 26.2005 0.0000
# 6 0.0000 0.0000 0.0000 6.7736 0.0000 12.5051
#
#
#
# Elastic Compliance Matrix: (Units=1/GPa)
#
#
# Indices 1 2 3 4 5 6 
#
# 1 0.013204 -0.003798 -0.002927 0.000000 -0.001983 0.000000
# 2 -0.003798 0.014174 -0.004940 0.000000 -0.000597 0.000000
# 3 -0.002927 -0.004940 0.015965 0.000000 0.000937 0.000000
# 4 0.000000 0.000000 0.000000 0.056519 0.000000 -0.030614
# 5 -0.001983 -0.000597 0.000937 0.000000 0.038569 0.000000
# 6 0.000000 0.000000 0.000000 -0.030614 0.000000 0.096550
#
#
# Mechanical properties :
#
#
# Convention : Reuss Voigt Hill
#
# Bulk Modulus (GPa) = 49.96624 50.62964 50.29794
# Shear Modulus (GPa) = 18.86923 23.09854 20.98388
#
# Velocity S-wave (km/s) = 3.24587 3.59126 3.42293
# Velocity P-wave (km/s) = 6.47661 6.74281 6.61105
#
# Compressibility (1/GPa) = 0.02001351
#
# Stress axis : x y z
#
# Youngs Moduli (GPa) = 75.73417 70.55378 62.63643
#
# Poissons Ratio (x) = 0.26797 0.18331
# Poissons Ratio (y) = 0.28765 0.30942
# Poissons Ratio (z) = 0.22164 0.34854
#
# Static dielectric constant tensor:
#      x y z
#    x 1.694110 0.000000 -0.005730 
#    y 0.000000 1.586920 0.000000 
#    z -0.005730 0.000000 1.632360 
# 
# From -- ./inp_files/125723.got.cif
#   From: 2010.05.17/outbox.cif.g08.bks.cpg/sg12_63_cif.got.tgz:125723.got - 2010.06.03 13:09:07.
