data_PCOD9194450
_publ_section_title
;
Structure prediction by ZEFSAII (Michael W. Deem and Ramdas Pophale) SiO2 
 PCOD9194450
Probable space group: C 2/M
;
_chemical_formula_sum "Si O2"
_cell_formula_units_Z 64
_cell_length_a 33.118707
_cell_length_b 7.871907
_cell_length_c 10.933088
_cell_angle_alpha 90.000000
_cell_angle_beta 94.549141
_cell_angle_gamma 90.000000
_cell_volume 2841.357256
_symmetry_space_group_name_H-M "C 2/M"
_symmetry_group_IT_number 12
_symmetry_cell_setting 'monoclinic'
loop_
_space_group_symop_operation_xyz
x,y,z
-x,y,-z
-x,-y,-z
x,-y,z
1/2+x,1/2+y,z
1/2-x,1/2+y,-z
1/2-x,1/2-y,-z
1/2+x,1/2-y,z
loop_
_atom_site_type_symbol
_atom_site_label
_atom_site_fract_x
_atom_site_fract_y
_atom_site_fract_z
Si Si1 0.020243 0.296872 0.630418
Si Si2 0.885819 0.206320 0.349669
Si Si3 0.336769 0.297924 0.572458
Si Si4 0.885794 0.704116 0.825553
Si Si5 0.687468 0.303013 0.814331
Si Si6 0.022289 0.291577 0.129585
Si Si7 0.694312 0.196705 0.076431
Si Si8 0.741588 0.305621 0.320729
O O1 0.014099 0.500000 0.628339
O O2 0.068091 0.263103 0.643311
O O3 0.000000 0.229560 0.500000
O O4 0.999594 0.233891 0.750774
O O5 0.862155 0.269193 0.464504
O O6 0.856892 0.262802 0.231879
O O7 0.885508 0.000000 0.351181
O O8 0.331457 0.500000 0.555025
O O9 0.365100 0.269635 0.697029
O O10 0.291545 0.230600 0.592835
O O11 0.887992 0.500000 0.815861
O O12 0.931072 0.765979 0.857620
O O13 0.853171 0.742846 0.922791
O O14 0.684849 0.500000 0.844834
O O15 0.716742 0.285596 0.703753
O O16 0.705519 0.216247 0.938372
O O17 0.021843 0.500000 0.129399
O O18 0.000000 0.237419 0.000000
O O19 0.717525 0.300894 0.185079
O O20 0.700067 0.000000 0.113824
O O21 0.750504 0.500000 0.354192
#
# Coordination Sequence:
#
# PCOD9194450 Si02
#       8
#     8   8   8   8   8   8   8   8
#     4  10  21  37  60  87 113 146 192 240 282 335
#     4  10  23  40  57  80 112 150 185 225 279 335
#     4   9  19  37  58  79 106 142 182 224 275 331
#     4   9  18  33  56  83 107 138 182 227 273 326
#     4  11  23  37  53  77 113 149 184 228 277 327
#     4   9  18  32  53  81 114 146 178 227 287 335
#     4  10  20  34  56  83 111 145 187 228 273 331
#     4  10  20  36  58  82 108 142 185 229 278 331
#
# _framework density 22.524446000000001
#
# number of rings (size 3 to 8) (size 9 to 14) (size 15 to 20)
#    0.000    2.250    0.000    2.250    1.750    4.250 
#    0.000    0.625    0.000    0.750    0.000    0.000 
#    0.000    0.000    0.000    0.000    0.000    0.000 
#
# Total GULP energy -178748.978106 kJ/mol
# GULP energy per Si atom -5585.905566 kJ/mol
# Density = 2.247318 g / cm^3
# Si number density = 22.524446 Si / 1000 Ang^3
#
#
#
# Elastic Constant Matrix: (Units=GPa)
#
#
# Indices 1 2 3 4 5 6 
#
# 1 139.0347 3.1739 38.5309 0.0000 -0.7141 0.0000
# 2 3.1739 29.0563 6.0371 0.0000 0.1521 0.0000
# 3 38.5309 6.0371 102.3185 0.0000 -8.0191 0.0000
# 4 0.0000 0.0000 0.0000 12.4782 0.0000 -0.4400
# 5 -0.7141 0.1521 -8.0191 0.0000 36.6677 0.0000
# 6 0.0000 0.0000 0.0000 -0.4400 0.0000 27.1098
#
#
#
# Elastic Compliance Matrix: (Units=1/GPa)
#
#
# Indices 1 2 3 4 5 6 
#
# 1 0.008042 -0.000241 -0.003054 0.000000 -0.000510 0.000000
# 2 -0.000241 0.034864 -0.002012 0.000000 -0.000589 0.000000
# 3 -0.003054 -0.002012 0.011231 0.000000 0.002405 0.000000
# 4 0.000000 0.000000 0.000000 0.080186 0.000000 0.001301
# 5 -0.000510 -0.000589 0.002405 0.000000 0.027790 0.000000
# 6 0.000000 0.000000 0.000000 0.001301 0.000000 0.036908
#
#
# Mechanical properties :
#
#
# Convention : Reuss Voigt Hill
#
# Bulk Modulus (GPa) = 22.97765 40.65482 31.81624
# Shear Modulus (GPa) = 22.30724 30.09564 26.20144
#
# Velocity S-wave (km/s) = 3.15041 3.65928 3.41434
# Velocity P-wave (km/s) = 4.84322 5.99518 5.44972
#
# Compressibility (1/GPa) = 0.04352055
#
# Stress axis : x y z
#
# Youngs Moduli (GPa) = 124.35147 28.68326 89.04127
#
# Poissons Ratio (x) = 0.00692 0.27194
# Poissons Ratio (y) = 0.02999 0.17919
# Poissons Ratio (z) = 0.37978 0.05772
#
# Static dielectric constant tensor:
#      x y z
#    x 1.830930 0.000000 -0.014970 
#    y 0.000000 1.807750 0.000000 
#    z -0.014970 0.000000 1.839450 
# 
# From -- ./inp_files/187561.got.cif
#   From: 2010.05.17/outbox.cif.g08.bks.cpg/sg12_94_cif.got.tgz:187561.got - 2010.06.03 13:09:07.
