data_PCOD9194678
_publ_section_title
;
Structure prediction by ZEFSAII (Michael W. Deem and Ramdas Pophale) SiO2 
 PCOD9194678
Probable space group: C 2/M
;
_chemical_formula_sum "Si O2"
_cell_formula_units_Z 56
_cell_length_a 14.892899
_cell_length_b 8.685361
_cell_length_c 23.820051
_cell_angle_alpha 90.000000
_cell_angle_beta 115.136595
_cell_angle_gamma 90.000000
_cell_volume 2789.338436
_symmetry_space_group_name_H-M "C 2/M"
_symmetry_group_IT_number 12
_symmetry_cell_setting 'monoclinic'
loop_
_space_group_symop_operation_xyz
x,y,z
-x,y,-z
-x,-y,-z
x,-y,z
1/2+x,1/2+y,z
1/2-x,1/2+y,-z
1/2-x,1/2-y,-z
1/2+x,1/2-y,z
loop_
_atom_site_type_symbol
_atom_site_label
_atom_site_fract_x
_atom_site_fract_y
_atom_site_fract_z
Si Si1 0.874261 0.183131 0.075926
Si Si2 0.028027 0.683794 0.203868
Si Si3 0.435718 0.315233 0.403055
Si Si4 0.407238 0.181140 0.274581
Si Si5 0.289403 0.179438 0.819069
Si Si6 0.347780 0.686179 0.496221
Si Si7 0.335984 0.680747 0.944045
O O1 0.777069 0.279384 0.067487
O O2 0.960114 0.226546 0.141543
O O3 0.851824 0.000000 0.073194
O O4 0.897762 0.217119 0.016763
O O5 0.007383 0.500000 0.192656
O O6 0.140868 0.707126 0.215864
O O7 0.998357 0.729803 0.258808
O O8 0.435332 0.500000 0.404510
O O9 0.403971 0.261839 0.333495
O O10 0.549434 0.266626 0.445820
O O11 0.365510 0.264326 0.436058
O O12 0.309122 0.221216 0.213109
O O13 0.413689 0.000000 0.285659
O O14 0.349646 0.224247 0.890979
O O15 0.262318 0.000000 0.814687
O O16 0.342723 0.500000 0.495952
O O17 0.250000 0.750000 0.500000
O O18 0.347121 0.500000 0.934699
#
# Coordination Sequence:
#
# PCOD9194678 Si02
#       7
#     8   8   8   8   8   8   8
#     4  10  20  34  57  83 108 145 189 234 295 357
#     4  10  23  40  57  80 114 149 189 242 295 346
#     4   9  20  39  60  85 120 160 193 229 281 341
#     4  11  23  40  60  84 116 154 194 243 287 332
#     4  11  23  39  59  83 111 152 195 236 295 355
#     4   9  19  37  62  91 123 156 192 234 280 327
#     4  10  20  35  55  82 113 143 184 241 295 349
#
# _framework density 20.076446000000001
#
# number of rings (size 3 to 8) (size 9 to 14) (size 15 to 20)
#    0.000    2.000    1.429    2.571    0.000    6.286 
#    0.000    8.571    0.000    0.000    0.000    0.000 
#    0.000    0.000    0.000    0.000    0.000    0.000 
#
# Total GULP energy -156331.946722 kJ/mol
# GULP energy per Si atom -5583.283812 kJ/mol
# Density = 2.003075 g / cm^3
# Si number density = 20.076446 Si / 1000 Ang^3
#
#
#
# Elastic Constant Matrix: (Units=GPa)
#
#
# Indices 1 2 3 4 5 6 
#
# 1 100.5175 16.1636 28.2579 0.0000 -26.7969 0.0000
# 2 16.1636 12.2542 7.7563 0.0000 -7.4285 0.0000
# 3 28.2579 7.7563 78.8695 0.0000 -27.3372 0.0000
# 4 0.0000 0.0000 0.0000 30.0714 0.0000 -1.8228
# 5 -26.7969 -7.4285 -27.3372 0.0000 23.3899 0.0000
# 6 0.0000 0.0000 0.0000 -1.8228 0.0000 24.1202
#
#
#
# Elastic Compliance Matrix: (Units=1/GPa)
#
#
# Indices 1 2 3 4 5 6 
#
# 1 0.015679 -0.012053 0.000785 0.000000 0.015052 0.000000
# 2 -0.012053 0.110514 0.001394 0.000000 0.022919 0.000000
# 3 0.000785 0.001394 0.021392 0.000000 0.026345 0.000000
# 4 0.000000 0.000000 0.000000 0.033407 0.000000 0.002525
# 5 0.015052 0.022919 0.026345 0.000000 0.098068 0.000000
# 6 0.000000 0.000000 0.000000 0.002525 0.000000 0.041650
#
#
# Mechanical properties :
#
#
# Convention : Reuss Voigt Hill
#
# Bulk Modulus (GPa) = 7.82242 32.88854 20.35548
# Shear Modulus (GPa) = 13.05246 24.81386 18.93316
#
# Velocity S-wave (km/s) = 2.55255 3.51945 3.07425
# Velocity P-wave (km/s) = 3.54853 5.73869 4.77099
#
# Compressibility (1/GPa) = 0.12783773
#
# Stress axis : x y z
#
# Youngs Moduli (GPa) = 63.78081 9.04861 46.74615
#
# Poissons Ratio (x) = 0.10906 -0.03670
# Poissons Ratio (y) = 0.76875 -0.06517
# Poissons Ratio (z) = -0.05008 -0.01262
#
# Static dielectric constant tensor:
#      x y z
#    x 1.733470 0.000000 -0.020100 
#    y 0.000000 1.681200 0.000000 
#    z -0.020100 0.000000 1.717350 
# 
# From -- ./inp_files/339021.got.cif
#   From: 2010.05.17/outbox.cif.g08.bks.cpg/sg12_170_cif.got.tgz:339021.got - 2010.06.03 13:09:07.
