data_PCOD9194109
_publ_section_title
;
Structure prediction by ZEFSAII (Michael W. Deem and Ramdas Pophale) SiO2 
 PCOD9194109
Probable space group: C 2/M
;
_chemical_formula_sum "Si O2"
_cell_formula_units_Z 48
_cell_length_a 16.269506
_cell_length_b 8.759674
_cell_length_c 17.310688
_cell_angle_alpha 90.000000
_cell_angle_beta 91.259725
_cell_angle_gamma 90.000000
_cell_volume 2466.446285
_symmetry_space_group_name_H-M "C 2/M"
_symmetry_group_IT_number 12
_symmetry_cell_setting 'monoclinic'
loop_
_space_group_symop_operation_xyz
x,y,z
-x,y,-z
-x,-y,-z
x,-y,z
1/2+x,1/2+y,z
1/2-x,1/2+y,-z
1/2-x,1/2-y,-z
1/2+x,1/2-y,z
loop_
_atom_site_type_symbol
_atom_site_label
_atom_site_fract_x
_atom_site_fract_y
_atom_site_fract_z
Si Si1 0.082595 0.684833 0.169787
Si Si2 0.347156 0.817302 0.666022
Si Si3 0.902195 0.178020 0.506035
Si Si4 0.158454 0.184457 0.661247
Si Si5 0.598766 0.816160 0.815148
Si Si6 0.239694 0.816258 0.085153
O O1 0.089385 0.500000 0.164623
O O2 0.099508 0.731077 0.259266
O O3 0.155062 0.756311 0.120668
O O4 0.988591 0.728635 0.148932
O O5 0.374690 0.756344 0.584013
O O6 0.252800 0.772869 0.678979
O O7 0.350238 0.000000 0.662800
O O8 0.864311 0.238705 0.425301
O O9 0.000000 0.188350 0.500000
O O10 0.878806 0.000000 0.511253
O O11 0.104369 0.253049 0.728408
O O12 0.150486 0.000000 0.662315
O O13 0.680359 0.766914 0.862982
O O14 0.599491 0.000000 0.811642
O O15 0.238741 0.000000 0.083261
O O16 0.250000 0.750000 0.000000
#
# Coordination Sequence:
#
# PCOD9194109 Si02
#       6
#     8   8   8   8   8   8
#     4  10  21  40  63  88 120 155 193 241 292 344
#     4  10  20  34  55  81 110 151 197 240 288 339
#     4  10  21  34  49  76 114 153 195 243 290 337
#     4  10  20  35  55  81 114 154 198 242 290 341
#     4  10  22  39  62  90 118 153 196 239 289 347
#     4  11  24  42  64  91 120 152 190 235 290 351
#
# _framework density 19.461199000000001
#
# number of rings (size 3 to 8) (size 9 to 14) (size 15 to 20)
#    0.000    1.833    1.667    2.000    0.000    4.333 
#    0.000    3.333    0.000    0.000    0.000    0.000 
#    0.000    0.000    0.000    0.000    0.000    0.000 
#
# Total GULP energy -134015.422490 kJ/mol
# GULP energy per Si atom -5583.975937 kJ/mol
# Density = 1.941690 g / cm^3
# Si number density = 19.461199 Si / 1000 Ang^3
#
#
#
# Elastic Constant Matrix: (Units=GPa)
#
#
# Indices 1 2 3 4 5 6 
#
# 1 108.6630 32.9036 60.3295 0.0000 -31.6945 0.0000
# 2 32.9036 8.4163 20.5322 0.0000 -7.8471 0.0000
# 3 60.3295 20.5322 118.0183 0.0000 -24.8269 0.0000
# 4 0.0000 0.0000 0.0000 35.0139 0.0000 -8.6669
# 5 -31.6945 -7.8471 -24.8269 0.0000 19.0933 0.0000
# 6 0.0000 0.0000 0.0000 -8.6669 0.0000 20.4953
#
#
#
# Elastic Compliance Matrix: (Units=1/GPa)
#
#
# Indices 1 2 3 4 5 6 
#
# 1 -0.037783 0.168239 -0.011843 0.000000 -0.008975 0.000000
# 2 0.168239 -0.495762 0.022212 0.000000 0.104405 0.000000
# 3 -0.011843 0.022212 0.011629 0.000000 0.004590 0.000000
# 4 0.000000 0.000000 0.000000 0.031899 0.000000 0.013489
# 5 -0.008975 0.104405 0.004590 0.000000 0.086352 0.000000
# 6 0.000000 0.000000 0.000000 0.013489 0.000000 0.054496
#
#
# Mechanical properties :
#
#
# Convention : Reuss Voigt Hill
#
# Bulk Modulus (GPa) = -6.07159 51.40312 22.66577
# Shear Modulus (GPa) = -6.56783 23.00932 8.22074
#
# Velocity S-wave (km/s) = -1.83907 3.44221 2.05751
# Velocity P-wave (km/s) = 2.76336 6.50146 4.16130
#
# Compressibility (1/GPa) = -0.16470163
#
# Stress axis : x y z
#
# Youngs Moduli (GPa) = -26.46666 -2.01710 85.99466
#
# Poissons Ratio (x) = 0.33935 1.01845
# Poissons Ratio (y) = 4.45274 -1.91008
# Poissons Ratio (z) = -0.31345 0.04480
#
# Static dielectric constant tensor:
#      x y z
#    x 1.694680 0.000000 0.026670 
#    y 0.000000 1.665830 0.000000 
#    z 0.026670 0.000000 1.664710 
# 
# From -- ./inp_files/267659.got.cif
#   From: 2010.05.17/outbox.cif.g08.bks.cpg/sg12_134_cif.got.tgz:267659.got - 2010.06.03 13:09:07.
