data_PCOD9194821
_publ_section_title
;
Structure prediction by ZEFSAII (Michael W. Deem and Ramdas Pophale) SiO2 
 PCOD9194821
Probable space group: C 2/M
;
_chemical_formula_sum "Si O2"
_cell_formula_units_Z 56
_cell_length_a 11.312136
_cell_length_b 26.837789
_cell_length_c 9.904594
_cell_angle_alpha 90.000000
_cell_angle_beta 71.312728
_cell_angle_gamma 90.000000
_cell_volume 2848.439996
_symmetry_space_group_name_H-M "C 2/M"
_symmetry_group_IT_number 12
_symmetry_cell_setting 'monoclinic'
loop_
_space_group_symop_operation_xyz
x,y,z
-x,y,-z
-x,-y,-z
x,-y,z
1/2+x,1/2+y,z
1/2-x,1/2+y,-z
1/2-x,1/2-y,-z
1/2+x,1/2-y,z
loop_
_atom_site_type_symbol
_atom_site_label
_atom_site_fract_x
_atom_site_fract_y
_atom_site_fract_z
Si Si1 0.543711 0.283230 0.330577
Si Si2 0.020807 0.899428 0.648693
Si Si3 0.608984 0.056867 0.147970
Si Si4 0.208427 0.942976 0.163982
Si Si5 0.211960 0.442250 0.412344
Si Si6 0.123308 0.386984 0.693266
Si Si7 0.190760 0.271952 0.659854
O O1 0.500000 0.270824 0.500000
O O2 0.521232 0.342188 0.322853
O O3 0.692280 0.270244 0.276665
O O4 0.441389 0.256621 0.271890
O O5 0.164483 0.908921 0.625731
O O6 0.000000 0.914727 0.500000
O O7 0.937670 0.931874 0.780580
O O8 0.661031 0.058404 0.280037
O O9 0.500499 0.097675 0.180058
O O10 0.560623 0.000000 0.141185
O O11 0.718700 0.066189 0.001185
O O12 0.264000 0.908154 0.259239
O O13 0.230949 0.000000 0.193688
O O14 0.237627 0.500000 0.439426
O O15 0.120843 0.418081 0.555651
O O16 0.150461 0.329428 0.657593
O O17 0.250000 0.250000 0.500000
#
# Coordination Sequence:
#
# PCOD9194821 Si02
#       7
#     8   8   8   8   8   8   8
#     4   9  18  34  53  84 119 148 192 255 308 364
#     4  11  20  36  60  89 120 154 206 256 306 365
#     4  10  24  40  55  87 130 168 204 245 304 375
#     4  11  22  38  62  89 125 167 204 247 303 369
#     4  11  22  35  56  88 125 159 198 252 305 363
#     4  12  21  37  62  91 118 158 209 255 303 364
#     4  10  20  34  57  89 119 150 197 262 315 364
#
# _framework density 19.659884000000002
#
# number of rings (size 3 to 8) (size 9 to 14) (size 15 to 20)
#    0.000    1.429    2.857    4.286    0.000    8.000 
#    0.000    2.143    0.000    0.857    7.429    0.000 
#    0.000    0.000    0.000    0.000    0.000    0.000 
#
# Total GULP energy -156212.181250 kJ/mol
# GULP energy per Si atom -5579.006473 kJ/mol
# Density = 1.961514 g / cm^3
# Si number density = 19.659884 Si / 1000 Ang^3
#
#
#
# Elastic Constant Matrix: (Units=GPa)
#
#
# Indices 1 2 3 4 5 6 
#
# 1 113.4646 37.3112 14.7139 0.0000 -14.2262 0.0000
# 2 37.3112 80.2418 35.6358 0.0000 -10.0131 0.0000
# 3 14.7139 35.6358 70.7300 0.0000 -16.1610 0.0000
# 4 0.0000 0.0000 0.0000-2393.7660 0.0000 1325.9541
# 5 -14.2262 -10.0131 -16.1610 0.0000 25.7689 0.0000
# 6 0.0000 0.0000 0.0000 1325.9541 0.0000 -734.2875
#
#
#
# Elastic Compliance Matrix: (Units=1/GPa)
#
#
# Indices 1 2 3 4 5 6 
#
# 1 0.010924 -0.005095 0.001424 0.000000 0.004944 0.000000
# 2 -0.005095 0.018472 -0.008462 0.000000 -0.000942 0.000000
# 3 0.001424 -0.008462 0.020467 0.000000 0.010334 0.000000
# 4 0.000000 0.000000 0.000000 1.662349 0.000000 3.001820
# 5 0.004944 -0.000942 0.010334 0.000000 0.047651 0.000000
# 6 0.000000 0.000000 0.000000 3.001820 0.000000 5.419233
#
#
# Mechanical properties :
#
#
# Convention : Reuss Voigt Hill
#
# Bulk Modulus (GPa) = 39.06744 48.86203 43.96474
# Shear Modulus (GPa) = 0.69330 -608.67189 -303.98929
#
# Velocity S-wave (km/s) = 0.59448 -17.61457 -12.44829
# Velocity P-wave (km/s) = 4.51509 19.71775 13.57210
#
# Compressibility (1/GPa) = 0.02559676
#
# Stress axis : x y z
#
# Youngs Moduli (GPa) = 91.54193 54.13633 48.86018
#
# Poissons Ratio (x) = 0.27582 -0.06959
# Poissons Ratio (y) = 0.46641 0.41346
# Poissons Ratio (z) = -0.13037 0.45810
#
# Static dielectric constant tensor:
#      x y z
#    x 1.741860 0.000000 -0.009150 
#    y 0.000000 1.686790 0.000000 
#    z -0.009150 0.000000 1.662950 
# 
# From -- ./inp_files/53183.got.cif
#   From: 2010.05.17/outbox.cif.g08.bks.cpg/sg12_27_cif.got.tgz:53183.got - 2010.06.03 13:09:07.
