data_PCOD9194114
_publ_section_title
;
Structure prediction by ZEFSAII (Michael W. Deem and Ramdas Pophale) SiO2 
 PCOD9194114
Probable space group: C 2/M
;
_chemical_formula_sum "Si O2"
_cell_formula_units_Z 52
_cell_length_a 13.159885
_cell_length_b 19.944359
_cell_length_c 21.575549
_cell_angle_alpha 90.000000
_cell_angle_beta 150.907161
_cell_angle_gamma 90.000000
_cell_volume 2753.419364
_symmetry_space_group_name_H-M "C 2/M"
_symmetry_group_IT_number 12
_symmetry_cell_setting 'monoclinic'
loop_
_space_group_symop_operation_xyz
x,y,z
-x,y,-z
-x,-y,-z
x,-y,z
1/2+x,1/2+y,z
1/2-x,1/2+y,-z
1/2-x,1/2-y,-z
1/2+x,1/2-y,z
loop_
_atom_site_type_symbol
_atom_site_label
_atom_site_fract_x
_atom_site_fract_y
_atom_site_fract_z
Si Si1 0.218540 0.359405 0.442344
Si Si2 0.535995 0.079448 0.222439
Si Si3 0.855464 0.281478 0.479911
Si Si4 0.120860 0.075006 0.698590
Si Si5 0.679129 0.672440 0.974001
Si Si6 0.500000 0.714568 0.000000
Si Si7 0.620739 0.319106 0.803934
O O1 0.083892 0.388575 0.314862
O O2 0.093769 0.325394 0.432477
O O3 0.367147 0.297670 0.499706
O O4 0.377966 0.414630 0.552795
O O5 0.743432 0.085369 0.290858
O O6 0.483721 0.000000 0.198892
O O7 0.362423 0.124418 0.096006
O O8 0.611631 0.293112 0.334483
O O9 0.000000 0.299766 0.500000
O O10 0.177813 0.126687 0.782585
O O11 0.160981 0.000000 0.741869
O O12 0.614755 0.651720 0.870418
O O13 0.750000 0.750000 0.000000
O O14 0.514240 0.674571 0.942771
O O15 0.706608 0.760888 0.109933
#
# Coordination Sequence:
#
# PCOD9194114 Si02
#       7
#     8   8   8   8   8   4   8
#     4  10  20  34  55  83 114 147 184 233 285 340
#     4  11  22  36  56  83 115 151 191 235 289 344
#     4  10  21  35  58  88 114 144 185 237 290 335
#     4  10  20  34  55  81 112 148 184 230 284 340
#     4  10  21  36  57  81 109 146 188 234 279 333
#     4  10  20  36  58  82 112 148 186 232 284 334
#     4  10  21  36  56  84 114 144 186 233 283 337
#
# _framework density 18.885608000000001
#
# number of rings (size 3 to 8) (size 9 to 14) (size 15 to 20)
#    0.000    1.846    0.000    5.538    0.000    6.769 
#    0.000    2.308    0.000   15.231    0.000    0.000 
#    0.000    0.000    0.000    0.000    0.000    0.000 
#
# Total GULP energy -145079.579302 kJ/mol
# GULP energy per Si atom -5579.983819 kJ/mol
# Density = 1.884262 g / cm^3
# Si number density = 18.885608 Si / 1000 Ang^3
#
#
#
# Elastic Constant Matrix: (Units=GPa)
#
#
# Indices 1 2 3 4 5 6 
#
# 1 119.8804 35.5562 21.7249 -0.0025 -14.0855 0.0003
# 2 35.5562 85.4542 26.2303 0.0022 -6.3765 -0.0003
# 3 21.7249 26.2303 53.8064 0.0018 -17.4758 -0.0005
# 4 -0.0025 0.0022 0.0018 18.6536 0.0001 3.5881
# 5 -14.0855 -6.3765 -17.4758 0.0001 36.6856 -0.0003
# 6 0.0003 -0.0003 -0.0005 3.5881 -0.0003 18.9310
#
#
#
# Elastic Compliance Matrix: (Units=1/GPa)
#
#
# Indices 1 2 3 4 5 6 
#
# 1 0.009942 -0.003489 -0.001503 0.000002 0.002495 -0.000001
# 2 -0.003489 0.015014 -0.006504 -0.000002 -0.001828 0.000000
# 3 -0.001503 -0.006504 0.025800 -0.000002 0.010583 0.000001
# 4 0.000002 -0.000002 -0.000002 0.055637 -0.000001 -0.010545
# 5 0.002495 -0.001828 0.010583 -0.000001 0.032940 0.000001
# 6 -0.000001 0.000000 0.000001 -0.010545 0.000001 0.054822
#
#
# Mechanical properties :
#
#
# Convention : Reuss Voigt Hill
#
# Bulk Modulus (GPa) = 36.01909 47.35154 41.68532
# Shear Modulus (GPa) = 22.08455 26.56268 24.32361
#
# Velocity S-wave (km/s) = 3.42334 3.75441 3.59269
# Velocity P-wave (km/s) = 5.89401 6.62732 6.27139
#
# Compressibility (1/GPa) = 0.02776305
#
# Stress axis : x y z
#
# Youngs Moduli (GPa) = 100.58286 66.60425 38.75985
#
# Poissons Ratio (x) = 0.23240 0.05825
# Poissons Ratio (y) = 0.35096 0.25211
# Poissons Ratio (z) = 0.15117 0.43321
#
# Static dielectric constant tensor:
#      x y z
#    x 1.670740 0.000000 -0.020000 
#    y 0.000000 1.672580 0.000000 
#    z -0.020000 0.000000 1.659370 
# 
# From -- ./inp_files/306938.got.cif
#   From: 2010.05.17/outbox.cif.g08.bks.cpg/sg12_154_cif.got.tgz:306938.got - 2010.06.03 13:09:07.
