data_PCOD9194755
_publ_section_title
;
Structure prediction by ZEFSAII (Michael W. Deem and Ramdas Pophale) SiO2 
 PCOD9194755
Probable space group: C 2/M
;
_chemical_formula_sum "Si O2"
_cell_formula_units_Z 64
_cell_length_a 19.162036
_cell_length_b 8.812665
_cell_length_c 21.228771
_cell_angle_alpha 90.000000
_cell_angle_beta 70.246804
_cell_angle_gamma 90.000000
_cell_volume 3373.928836
_symmetry_space_group_name_H-M "C 2/M"
_symmetry_group_IT_number 12
_symmetry_cell_setting 'monoclinic'
loop_
_space_group_symop_operation_xyz
x,y,z
-x,y,-z
-x,-y,-z
x,-y,z
1/2+x,1/2+y,z
1/2-x,1/2+y,-z
1/2-x,1/2-y,-z
1/2+x,1/2-y,z
loop_
_atom_site_type_symbol
_atom_site_label
_atom_site_fract_x
_atom_site_fract_y
_atom_site_fract_z
Si Si1 0.388512 0.818963 0.798132
Si Si2 0.558469 0.820291 0.775504
Si Si3 0.875325 0.180788 0.370756
Si Si4 0.206909 0.824087 0.271196
Si Si5 0.841722 0.819917 0.156489
Si Si6 0.752862 0.317654 0.930024
Si Si7 0.068188 0.318199 0.524862
Si Si8 0.214468 0.821667 0.418943
O O1 0.471491 0.789503 0.794855
O O2 0.367027 0.730242 0.741446
O O3 0.327887 0.775269 0.869441
O O4 0.380673 0.000000 0.789253
O O5 0.600685 0.737528 0.705541
O O6 0.589821 0.763833 0.832448
O O7 0.571772 0.000000 0.765004
O O8 0.932070 0.244675 0.405751
O O9 0.793748 0.247869 0.410244
O O10 0.873029 0.000000 0.373545
O O11 0.271908 0.721281 0.222420
O O12 0.204426 0.809822 0.346643
O O13 0.222528 0.000000 0.251110
O O14 0.815252 0.771832 0.094923
O O15 0.853505 0.000000 0.153198
O O16 0.751810 0.500000 0.934442
O O17 0.750000 0.250000 0.000000
O O18 0.067767 0.500000 0.531017
O O19 0.145098 0.261742 0.471162
O O20 0.000000 0.273925 0.500000
O O21 0.214929 0.000000 0.436277
#
# Coordination Sequence:
#
# PCOD9194755 Si02
#       8
#     8   8   8   8   8   8   8   8
#     4   9  21  38  57  83 121 157 192 240 292 344
#     4  11  22  38  60  88 120 154 195 243 294 349
#     4  12  25  41  63  87 117 156 195 243 299 355
#     4  10  20  34  57  87 115 149 194 240 285 344
#     4  10  20  36  58  86 120 154 193 238 286 341
#     4   9  19  37  60  87 117 156 199 238 284 341
#     4  11  26  45  63  85 116 155 198 245 300 357
#     4  11  23  40  62  88 118 151 197 246 292 354
#
# _framework density 18.968983999999999
#
# number of rings (size 3 to 8) (size 9 to 14) (size 15 to 20)
#    0.000    1.625    1.250    4.125    1.750    6.000 
#    0.000    0.625    0.000    3.750    0.000    0.000 
#    0.000    0.000    0.000    0.000    0.000    0.000 
#
# Total GULP energy -178814.641480 kJ/mol
# GULP energy per Si atom -5587.957546 kJ/mol
# Density = 1.892581 g / cm^3
# Si number density = 18.968984 Si / 1000 Ang^3
#
#
#
# Elastic Constant Matrix: (Units=GPa)
#
#
# Indices 1 2 3 4 5 6 
#
# 1 117.2082 50.1913 43.8184 0.0000 31.0360 0.0000
# 2 50.1913 66.6789 33.1506 0.0001 18.4905 0.0001
# 3 43.8184 33.1506 84.1923 0.0000 30.4178 0.0000
# 4 0.0000 0.0001 0.0000 32.7583 0.0000 5.3949
# 5 31.0360 18.4905 30.4178 0.0000 30.3509 0.0000
# 6 0.0000 0.0001 0.0000 5.3949 0.0000 27.8697
#
#
#
# Elastic Compliance Matrix: (Units=1/GPa)
#
#
# Indices 1 2 3 4 5 6 
#
# 1 0.014834 -0.008024 -0.001327 0.000000 -0.008950 0.000000
# 2 -0.008024 0.023783 -0.004574 0.000000 -0.001699 0.000000
# 3 -0.001327 -0.004574 0.020179 0.000000 -0.016079 0.000000
# 4 0.000000 0.000000 0.000000 0.031532 0.000000 -0.006104
# 5 -0.008950 -0.001699 -0.016079 0.000000 0.059250 0.000000
# 6 0.000000 0.000000 0.000000 -0.006104 0.000000 0.037063
#
#
# Mechanical properties :
#
#
# Convention : Reuss Voigt Hill
#
# Bulk Modulus (GPa) = 32.31656 58.04445 45.18050
# Shear Modulus (GPa) = 22.24134 27.59040 24.91587
#
# Velocity S-wave (km/s) = 3.42791 3.81793 3.62816
# Velocity P-wave (km/s) = 5.72197 7.07824 6.43593
#
# Compressibility (1/GPa) = 0.03094389
#
# Stress axis : x y z
#
# Youngs Moduli (GPa) = 67.41177 42.04731 49.55708
#
# Poissons Ratio (x) = 0.33740 0.06578
# Poissons Ratio (y) = 0.54093 0.22668
# Poissons Ratio (z) = 0.08948 0.19233
#
# Static dielectric constant tensor:
#      x y z
#    x 1.667100 0.000000 0.020380 
#    y 0.000000 1.638620 0.000000 
#    z 0.020380 0.000000 1.652740 
# 
# From -- ./inp_files/313996.got.cif
#   From: 2010.05.17/outbox.cif.g08.bks.cpg/sg12_157_cif.got.tgz:313996.got - 2010.06.03 13:09:07.
