data_PCOD9194866
_publ_section_title
;
Structure prediction by ZEFSAII (Michael W. Deem and Ramdas Pophale) SiO2 
 PCOD9194866
Probable space group: C 2/M
;
_chemical_formula_sum "Si O2"
_cell_formula_units_Z 56
_cell_length_a 30.835443
_cell_length_b 15.343215
_cell_length_c 11.921057
_cell_angle_alpha 90.000000
_cell_angle_beta 28.402402
_cell_angle_gamma 90.000000
_cell_volume 2682.742260
_symmetry_space_group_name_H-M "C 2/M"
_symmetry_group_IT_number 12
_symmetry_cell_setting 'monoclinic'
loop_
_space_group_symop_operation_xyz
x,y,z
-x,y,-z
-x,-y,-z
x,-y,z
1/2+x,1/2+y,z
1/2-x,1/2+y,-z
1/2-x,1/2-y,-z
1/2+x,1/2-y,z
loop_
_atom_site_type_symbol
_atom_site_label
_atom_site_fract_x
_atom_site_fract_y
_atom_site_fract_z
Si Si1 0.339160 0.097225 0.481903
Si Si2 0.406824 0.282759 0.780584
Si Si3 0.757526 0.903565 0.057506
Si Si4 0.603582 0.905404 0.218281
Si Si5 0.915773 0.218756 0.278376
Si Si6 0.306874 0.596408 0.382854
Si Si7 0.027911 0.098392 0.169585
O O1 0.279337 0.099500 0.731191
O O2 0.401842 0.181735 0.344600
O O3 0.276485 0.106991 0.513627
O O4 0.381780 0.000000 0.380967
O O5 0.500000 0.276636 0.500000
O O6 0.384303 0.185342 0.874634
O O7 0.424517 0.350665 0.838673
O O8 0.328050 0.325126 0.884122
O O9 0.672697 0.898239 0.165891
O O10 0.800215 0.000000 0.944082
O O11 0.500000 0.907525 0.500000
O O12 0.620068 0.000000 0.124999
O O13 0.827380 0.174818 0.421190
O O14 0.944785 0.156031 0.313741
O O15 0.000000 0.217601 0.000000
O O16 0.299144 0.500000 0.454808
O O17 0.397082 0.593044 0.099679
O O18 0.001620 0.000000 0.259610
#
# Coordination Sequence:
#
# PCOD9194866 Si02
#       7
#     8   8   8   8   8   8   8
#     4  10  20  34  58  82 109 148 188 227 273 334
#     4  11  22  35  59  85 113 148 188 234 283 329
#     4  10  20  37  58  82 112 150 191 232 277 335
#     4   9  20  37  57  80 109 146 193 233 272 330
#     4  10  21  34  55  83 112 145 181 228 283 328
#     4   9  17  35  59  81 106 143 185 225 273 334
#     4  10  20  36  55  82 114 143 184 230 278 336
#
# _framework density 20.874161999999998
#
# number of rings (size 3 to 8) (size 9 to 14) (size 15 to 20)
#    0.000    2.143    1.429    1.714    4.000    3.143 
#    0.000    0.000    0.000    1.714    0.000    0.000 
#    0.000    0.000    0.000    0.000    0.000    0.000 
#
# Total GULP energy -156171.673857 kJ/mol
# GULP energy per Si atom -5577.559781 kJ/mol
# Density = 2.082665 g / cm^3
# Si number density = 20.874162 Si / 1000 Ang^3
#
#
#
# Elastic Constant Matrix: (Units=GPa)
#
#
# Indices 1 2 3 4 5 6 
#
# 1 50.4033 44.5964 7.1643 0.0000 -16.6571 0.0000
# 2 44.5964 216.5518 28.9772 0.0000 -17.0668 0.0000
# 3 7.1643 28.9772 15.8801 0.0000 -10.4504 0.0000
# 4 0.0000 0.0000 0.0000 30.8746 0.0000 -7.5764
# 5 -16.6571 -17.0668 -10.4504 0.0000 16.9109 0.0000
# 6 0.0000 0.0000 0.0000 -7.5764 0.0000 20.8005
#
#
#
# Elastic Compliance Matrix: (Units=1/GPa)
#
#
# Indices 1 2 3 4 5 6 
#
# 1 0.038587 -0.008013 0.028490 0.000000 0.047527 0.000000
# 2 -0.008013 0.007789 -0.017897 0.000000 -0.011092 0.000000
# 3 0.028490 -0.017897 0.150603 0.000000 0.103069 0.000000
# 4 0.000000 0.000000 0.000000 0.035568 0.000000 0.012955
# 5 0.047527 -0.011092 0.103069 0.000000 0.158446 0.000000
# 6 0.000000 0.000000 0.000000 0.012955 0.000000 0.052795
#
#
# Mechanical properties :
#
#
# Convention : Reuss Voigt Hill
#
# Bulk Modulus (GPa) = 4.94709 49.36790 27.15750
# Shear Modulus (GPa) = 9.88129 27.19035 18.53582
#
# Velocity S-wave (km/s) = 2.17808 3.61305 2.98313
# Velocity P-wave (km/s) = 2.94966 6.41148 4.99037
#
# Compressibility (1/GPa) = 0.20213886
#
# Stress axis : x y z
#
# Youngs Moduli (GPa) = 25.91558 128.39176 6.63996
#
# Poissons Ratio (x) = 1.02882 -0.18917
# Poissons Ratio (y) = 0.20767 0.11883
# Poissons Ratio (z) = -0.73833 2.29778
#
# Static dielectric constant tensor:
#      x y z
#    x 1.760900 0.000000 -0.015840 
#    y 0.000000 1.800570 0.000000 
#    z -0.015840 0.000000 1.743760 
# 
# From -- ./inp_files/143746.got.cif
#   From: 2010.05.17/outbox.cif.g08.bks.cpg/sg12_72_cif.got.tgz:143746.got - 2010.06.03 13:09:07.
