data_PCOD9194567
_publ_section_title
;
Structure prediction by ZEFSAII (Michael W. Deem and Ramdas Pophale) SiO2 
 PCOD9194567
Probable space group: C 2/M
;
_chemical_formula_sum "Si O2"
_cell_formula_units_Z 60
_cell_length_a 24.741075
_cell_length_b 15.090262
_cell_length_c 22.632014
_cell_angle_alpha 90.000000
_cell_angle_beta 160.265297
_cell_angle_gamma 90.000000
_cell_volume 2853.153560
_symmetry_space_group_name_H-M "C 2/M"
_symmetry_group_IT_number 12
_symmetry_cell_setting 'monoclinic'
loop_
_space_group_symop_operation_xyz
x,y,z
-x,y,-z
-x,-y,-z
x,-y,z
1/2+x,1/2+y,z
1/2-x,1/2+y,-z
1/2-x,1/2-y,-z
1/2+x,1/2-y,z
loop_
_atom_site_type_symbol
_atom_site_label
_atom_site_fract_x
_atom_site_fract_y
_atom_site_fract_z
Si Si1 0.373161 0.100343 0.018103
Si Si2 0.701677 0.000000 0.526658
Si Si3 0.596989 0.643832 0.341271
Si Si4 0.729340 0.098196 0.954474
Si Si5 0.692786 0.225421 0.810924
Si Si6 0.660333 0.599907 0.126709
Si Si7 0.675236 0.790511 0.328159
Si Si8 0.854721 0.344280 0.435987
O O1 0.364257 0.101236 0.080418
O O2 0.548056 0.134989 0.180257
O O3 0.341910 0.000000 0.966617
O O4 0.244951 0.173355 0.866085
O O5 0.780819 0.923353 0.564430
O O6 0.644749 0.922041 0.514914
O O7 0.593366 0.729308 0.294564
O O8 0.668542 0.670651 0.478199
O O9 0.418899 0.605159 0.161479
O O10 0.684753 0.179813 0.866987
O O11 0.693586 0.000000 0.891332
O O12 0.824643 0.169231 0.910371
O O13 0.523987 0.204293 0.607866
O O14 0.664838 0.500000 0.106873
O O15 0.799783 0.615569 0.317501
O O16 0.500000 0.608252 0.000000
O O17 0.727509 0.728220 0.328343
#
# Coordination Sequence:
#
# PCOD9194567 Si02
#       8
#     8   4   8   8   8   8   8   8
#     4  11  25  41  62  91 124 168 220 269 312 374
#     4  10  22  34  62  92 133 167 210 252 302 386
#     4  10  20  34  56  85 126 164 210 248 308 373
#     4  11  23  35  58  92 129 167 205 251 320 379
#     4  12  25  41  63  90 131 167 208 262 315 375
#     4  11  25  42  68  98 128 163 205 254 314 385
#     4  10  22  37  58  85 121 168 210 260 307 365
#     4  11  24  41  64  91 132 168 206 252 317 380
#
# _framework density 21.029361000000002
#
# number of rings (size 3 to 8) (size 9 to 14) (size 15 to 20)
#    0.000    1.200    2.667    2.800   10.267    0.533 
#    0.000    0.667    0.000    5.200    0.000    0.000 
#    0.000    0.000    0.000    0.000    0.000    0.000 
#
# Total GULP energy -167332.506314 kJ/mol
# GULP energy per Si atom -5577.750210 kJ/mol
# Density = 2.098150 g / cm^3
# Si number density = 21.029361 Si / 1000 Ang^3
#
#
#
# Elastic Constant Matrix: (Units=GPa)
#
#
# Indices 1 2 3 4 5 6 
#
# 1 46.3945 23.4900 -5.6479 0.0002 11.6744 0.0006
# 2 23.4900 164.1548 25.1546 0.0024 8.5794 0.0025
# 3 -5.6479 25.1546 57.9584 0.0010 8.3284 0.0004
# 4 0.0002 0.0024 0.0010 9.7525 0.0006 -3.7221
# 5 11.6744 8.5794 8.3284 0.0006 14.3676 0.0008
# 6 0.0006 0.0025 0.0004 -3.7221 0.0008 19.7302
#
#
#
# Elastic Compliance Matrix: (Units=1/GPa)
#
#
# Indices 1 2 3 4 5 6 
#
# 1 0.032228 -0.004521 0.009248 0.000002 -0.028848 0.000001
# 2 -0.004521 0.007241 -0.003807 -0.000002 0.001557 -0.000001
# 3 0.009248 -0.003807 0.022429 0.000000 -0.018243 0.000000
# 4 0.000002 -0.000002 0.000000 0.110494 -0.000006 0.020845
# 5 -0.028848 0.001557 -0.018243 -0.000006 0.102687 -0.000004
# 6 0.000001 -0.000001 0.000000 0.020845 -0.000004 0.054616
#
#
# Mechanical properties :
#
#
# Convention : Reuss Voigt Hill
#
# Bulk Modulus (GPa) = 15.68919 39.38902 27.53910
# Shear Modulus (GPa) = 14.32253 23.80411 19.06332
#
# Velocity S-wave (km/s) = 2.61257 3.36809 3.01410
# Velocity P-wave (km/s) = 4.07155 5.82207 5.02365
#
# Compressibility (1/GPa) = 0.06373816
#
# Stress axis : x y z
#
# Youngs Moduli (GPa) = 31.02845 138.10682 44.58600
#
# Poissons Ratio (x) = 0.62441 -0.41234
# Poissons Ratio (y) = 0.14029 0.16973
# Poissons Ratio (z) = -0.28696 0.52575
#
# Static dielectric constant tensor:
#      x y z
#    x 1.735960 0.000000 0.016420 
#    y 0.000000 1.757380 0.000000 
#    z 0.016420 0.000000 1.819180 
# 
# From -- ./inp_files/352147.got.cif
#   From: 2010.05.17/outbox.cif.g08.bks.cpg/sg12_177_cif.got.tgz:352147.got - 2010.06.03 13:09:07.
