data_PCOD9194999
_publ_section_title
;
Structure prediction by ZEFSAII (Michael W. Deem and Ramdas Pophale) SiO2 
 PCOD9194999
Probable space group: C 2/M
;
_chemical_formula_sum "Si O2"
_cell_formula_units_Z 58
_cell_length_a 27.660672
_cell_length_b 7.327168
_cell_length_c 28.566230
_cell_angle_alpha 90.000000
_cell_angle_beta 153.972497
_cell_angle_gamma 90.000000
_cell_volume 2540.510131
_symmetry_space_group_name_H-M "C 2/M"
_symmetry_group_IT_number 12
_symmetry_cell_setting 'monoclinic'
loop_
_space_group_symop_operation_xyz
x,y,z
-x,y,-z
-x,-y,-z
x,-y,z
1/2+x,1/2+y,z
1/2-x,1/2+y,-z
1/2-x,1/2-y,-z
1/2+x,1/2-y,z
loop_
_atom_site_type_symbol
_atom_site_label
_atom_site_fract_x
_atom_site_fract_y
_atom_site_fract_z
Si Si1 0.436874 0.723671 0.639691
Si Si2 0.781522 0.780998 0.426116
Si Si3 0.114852 0.220707 0.578484
Si Si4 0.204117 0.278352 0.185932
Si Si5 0.000000 0.000000 0.000000
Si Si6 0.343529 0.294981 0.218186
Si Si7 0.962287 0.785707 0.767717
Si Si8 0.193578 0.216472 0.001099
O O1 0.438105 0.500000 0.642345
O O2 0.328798 0.781856 0.517244
O O3 0.542513 0.785364 0.701477
O O4 0.448664 0.788415 0.703169
O O5 0.856525 0.715009 0.448719
O O6 0.654293 0.733346 0.308774
O O7 0.787312 0.000000 0.431535
O O8 0.217352 0.258996 0.701490
O O9 0.000000 0.287265 0.500000
O O10 0.106023 0.000000 0.568315
O O11 0.184452 0.500000 0.166437
O O12 0.274929 0.219927 0.201733
O O13 0.094234 0.160317 0.091367
O O14 0.373572 0.500000 0.259776
O O15 0.263946 0.300354 0.103947
O O16 0.068464 0.713835 0.887445
O O17 0.986163 0.000000 0.782921
O O18 0.193708 0.000000 0.010640
O O19 0.250000 0.250000 0.000000
#
# Coordination Sequence:
#
# PCOD9194999 Si02
#       8
#     8   8   8   8   2   8   8   8
#     4   9  17  34  59  85 117 155 194 242 298 367
#     4  10  20  34  59  90 115 149 198 243 297 369
#     4   9  18  38  67  95 122 156 208 267 323 383
#     4  10  23  43  68  96 127 170 215 268 330 389
#     4  12  26  44  66  90 136 168 222 266 324 386
#     4  10  20  38  64  89 118 156 205 254 310 366
#     4  10  21  37  53  77 121 161 192 236 301 360
#     4  11  22  37  58  85 120 162 206 252 299 356
#
# _framework density 22.83006
#
# number of rings (size 3 to 8) (size 9 to 14) (size 15 to 20)
#    0.000    2.069    1.379    1.862    0.966    5.517 
#    3.724    3.793    3.034    0.000    0.000    0.000 
#    0.000    0.000    0.000    0.000    0.000    0.000 
#
# Total GULP energy -161810.477503 kJ/mol
# GULP energy per Si atom -5579.671638 kJ/mol
# Density = 2.277810 g / cm^3
# Si number density = 22.830060 Si / 1000 Ang^3
#
#
#
# Elastic Constant Matrix: (Units=GPa)
#
#
# Indices 1 2 3 4 5 6 
#
# 1 50.0222 -2.4917 17.4802 0.0002 -3.6031 0.0000
# 2 -2.4917 103.5935 -6.1837 0.0013 8.0770 0.0004
# 3 17.4802 -6.1837 85.3194 0.0001 33.7319 0.0000
# 4 0.0002 0.0013 0.0001 -37.8192 0.0000 -0.1256
# 5 -3.6031 8.0770 33.7319 0.0000 30.7980 0.0000
# 6 0.0000 0.0004 0.0000 -0.1256 0.0000 2.5272
#
#
#
# Elastic Compliance Matrix: (Units=1/GPa)
#
#
# Indices 1 2 3 4 5 6 
#
# 1 0.025100 -0.001325 -0.011529 0.000000 0.015912 0.000000
# 2 -0.001325 0.010400 0.003818 0.000000 -0.007064 -0.000002
# 3 -0.011529 0.003818 0.026965 0.000000 -0.031884 0.000000
# 4 0.000000 0.000000 0.000000 -0.026437 0.000000 -0.001314
# 5 0.015912 -0.007064 -0.031884 0.000000 0.071105 0.000001
# 6 0.000000 -0.000002 0.000000 -0.001314 0.000001 0.395634
#
#
# Mechanical properties :
#
#
# Convention : Reuss Voigt Hill
#
# Bulk Modulus (GPa) = 22.52615 28.50499 25.51557
# Shear Modulus (GPa) = 9.33468 14.44322 11.88895
#
# Velocity S-wave (km/s) = 2.02426 2.51796 2.28449
# Velocity P-wave (km/s) = 3.91814 4.57890 4.26135
#
# Compressibility (1/GPa) = 0.04439285
#
# Stress axis : x y z
#
# Youngs Moduli (GPa) = 39.84036 96.15425 37.08470
#
# Poissons Ratio (x) = 0.12741 0.42757
# Poissons Ratio (y) = 0.05279 -0.14160
# Poissons Ratio (z) = 0.45934 -0.36714
#
# Static dielectric constant tensor:
#      x y z
#    x 1.834100 0.000000 -0.023090 
#    y 0.000000 1.913040 0.000000 
#    z -0.023090 0.000000 1.947430 
# 
# From -- ./inp_files/367623.got.cif
#   From: 2010.05.17/outbox.cif.g08.bks.cpg/sg12_184_cif.got.tgz:367623.got - 2010.06.03 13:09:07.
