data_PCOD9194282
_publ_section_title
;
Structure prediction by ZEFSAII (Michael W. Deem and Ramdas Pophale) SiO2 
 PCOD9194282
Probable space group: C 2/M
;
_chemical_formula_sum "Si O2"
_cell_formula_units_Z 56
_cell_length_a 31.890198
_cell_length_b 9.027063
_cell_length_c 21.283608
_cell_angle_alpha 90.000000
_cell_angle_beta 28.583594
_cell_angle_gamma 90.000000
_cell_volume 2931.411719
_symmetry_space_group_name_H-M "C 2/M"
_symmetry_group_IT_number 12
_symmetry_cell_setting 'monoclinic'
loop_
_space_group_symop_operation_xyz
x,y,z
-x,y,-z
-x,-y,-z
x,-y,z
1/2+x,1/2+y,z
1/2-x,1/2+y,-z
1/2-x,1/2-y,-z
1/2+x,1/2-y,z
loop_
_atom_site_type_symbol
_atom_site_label
_atom_site_fract_x
_atom_site_fract_y
_atom_site_fract_z
Si Si1 0.126358 0.829252 0.696408
Si Si2 0.723126 0.677353 0.101227
Si Si3 0.959056 0.675560 0.622793
Si Si4 0.286588 0.823172 0.151271
Si Si5 0.547383 0.675194 0.002780
Si Si6 0.216684 0.829056 0.446132
Si Si7 0.645087 0.174378 0.420402
O O1 0.150189 0.813356 0.592134
O O2 0.188940 0.719081 0.651894
O O3 0.026358 0.806193 0.846669
O O4 0.148716 0.000000 0.684656
O O5 0.724519 0.500000 0.093368
O O6 0.626079 0.732066 0.247932
O O7 0.785541 0.717971 0.078634
O O8 0.750000 0.750000 0.000000
O O9 0.937435 0.500000 0.654312
O O10 0.000000 0.703665 0.500000
O O11 0.041861 0.707745 0.558494
O O12 0.196319 0.762251 0.299110
O O13 0.288915 0.000000 0.152695
O O14 0.365488 0.756651 0.088920
O O15 0.567335 0.500000 0.968972
O O16 0.500000 0.723692 0.000000
O O17 0.189408 0.722093 0.426537
O O18 0.217178 0.000000 0.424729
O O19 0.654352 0.000000 0.395634
#
# Coordination Sequence:
#
# PCOD9194282 Si02
#       7
#     8   8   8   8   8   8   8
#     4   9  19  36  55  79 115 156 197 239 293 353
#     4  11  25  43  65  93 128 167 208 257 313 373
#     4  10  21  40  65  91 120 157 202 249 301 362
#     4  11  24  40  60  89 121 155 199 251 304 362
#     4  10  21  37  59  86 118 158 201 243 293 359
#     4  10  20  34  55  84 117 152 194 245 295 350
#     4  11  22  37  61  88 116 153 197 245 299 361
#
# _framework density 19.103422999999999
#
# number of rings (size 3 to 8) (size 9 to 14) (size 15 to 20)
#    0.000    1.714    1.429    2.571    0.000    6.857 
#    0.000    2.857    0.000    0.000    0.000    0.000 
#    0.000    0.000    0.000    0.000    0.000    0.000 
#
# Total GULP energy -156357.288358 kJ/mol
# GULP energy per Si atom -5584.188870 kJ/mol
# Density = 1.905994 g / cm^3
# Si number density = 19.103423 Si / 1000 Ang^3
#
#
#
# Elastic Constant Matrix: (Units=GPa)
#
#
# Indices 1 2 3 4 5 6 
#
# 1 101.7414 40.9910 36.2817 -0.0003 -4.6033 -0.0004
# 2 40.9910 50.9227 36.6454 -0.0016 -5.0075 0.0000
# 3 36.2817 36.6454 79.2225 0.0016 -5.9493 -0.0009
# 4 -0.0003 -0.0016 0.0016 32.2040 -0.0014 0.5107
# 5 -4.6033 -5.0075 -5.9493 -0.0014 11.5601 0.0008
# 6 -0.0004 0.0000 -0.0009 0.5107 0.0008 23.0968
#
#
#
# Elastic Compliance Matrix: (Units=1/GPa)
#
#
# Indices 1 2 3 4 5 6 
#
# 1 0.014735 -0.010476 -0.001875 0.000000 0.000365 0.000000
# 2 -0.010476 0.037286 -0.012014 0.000003 0.005797 -0.000001
# 3 -0.001875 -0.012014 0.019339 -0.000001 0.004002 0.000001
# 4 0.000000 0.000003 -0.000001 0.031063 0.000004 -0.000687
# 5 0.000365 0.005797 0.004002 0.000004 0.091220 -0.000003
# 6 0.000000 -0.000001 0.000001 -0.000687 -0.000003 0.043311
#
#
# Mechanical properties :
#
#
# Convention : Reuss Voigt Hill
#
# Bulk Modulus (GPa) = 44.18913 51.08032 47.63473
# Shear Modulus (GPa) = 17.05165 21.23675 19.14420
#
# Velocity S-wave (km/s) = 2.99088 3.33779 3.16909
# Velocity P-wave (km/s) = 5.92527 6.45379 6.19517
#
# Compressibility (1/GPa) = 0.02263000
#
# Stress axis : x y z
#
# Youngs Moduli (GPa) = 67.86778 26.81974 51.70833
#
# Poissons Ratio (x) = 0.28095 0.09695
# Poissons Ratio (y) = 0.71096 0.62124
# Poissons Ratio (z) = 0.12725 0.32222
#
# Static dielectric constant tensor:
#      x y z
#    x 1.687150 0.000000 0.011160 
#    y 0.000000 1.643470 0.000000 
#    z 0.011160 0.000000 1.648950 
# 
# From -- ./inp_files/329465.got.cif
#   From: 2010.05.17/outbox.cif.g08.bks.cpg/sg12_165_cif.got.tgz:329465.got - 2010.06.03 13:09:07.
