data_PCOD9194708
_publ_section_title
;
Structure prediction by ZEFSAII (Michael W. Deem and Ramdas Pophale) SiO2 
 PCOD9194708
Probable space group: C 2/M
;
_chemical_formula_sum "Si O2"
_cell_formula_units_Z 60
_cell_length_a 15.594814
_cell_length_b 16.282065
_cell_length_c 14.069731
_cell_angle_alpha 90.000000
_cell_angle_beta 98.588852
_cell_angle_gamma 90.000000
_cell_volume 3532.462401
_symmetry_space_group_name_H-M "C 2/M"
_symmetry_group_IT_number 12
_symmetry_cell_setting 'monoclinic'
loop_
_space_group_symop_operation_xyz
x,y,z
-x,y,-z
-x,-y,-z
x,-y,z
1/2+x,1/2+y,z
1/2-x,1/2+y,-z
1/2-x,1/2-y,-z
1/2+x,1/2-y,z
loop_
_atom_site_type_symbol
_atom_site_label
_atom_site_fract_x
_atom_site_fract_y
_atom_site_fract_z
Si Si1 0.010875 0.598009 0.611021
Si Si2 0.373068 0.354576 0.030168
Si Si3 0.815025 0.403199 0.246126
Si Si4 0.305235 0.903155 0.903760
Si Si5 0.909501 0.330107 0.088132
Si Si6 0.917458 0.672964 0.770742
Si Si7 0.876029 0.860387 0.802412
Si Si8 0.009239 0.000000 0.858479
O O1 0.995399 0.500000 0.615416
O O2 0.109207 0.612264 0.664582
O O3 0.000000 0.622930 0.500000
O O4 0.944298 0.642650 0.671052
O O5 0.281473 0.362259 0.068888
O O6 0.410997 0.265135 0.059367
O O7 0.433615 0.427862 0.076960
O O8 0.362432 0.361731 0.915074
O O9 0.819386 0.500000 0.220418
O O10 0.840078 0.348799 0.159103
O O11 0.716902 0.382953 0.258010
O O12 0.334520 0.868105 0.807026
O O13 0.291494 0.000000 0.896441
O O14 0.379607 0.881494 0.992473
O O15 0.000684 0.352493 0.150041
O O16 0.905381 0.770464 0.775290
O O17 0.949121 0.928134 0.798469
#
# Coordination Sequence:
#
# PCOD9194708 Si02
#       8
#     8   8   8   8   8   8   8   4
#     4   9  20  42  66  85 109 139 180 233 293 350
#     4  12  22  37  48  75 114 162 199 224 267 299
#     4  10  20  34  57  85 109 144 186 231 274 322
#     4  12  23  33  49  74 115 155 191 225 268 328
#     4  11  21  34  50  73 114 153 186 226 270 318
#     4  11  23  35  55  83 112 144 185 231 284 337
#     4  12  21  36  53  81 113 146 199 238 261 317
#     4  12  25  34  58  74 109 165 203 232 251 308
#
# _framework density 16.985320000000002
#
# number of rings (size 3 to 8) (size 9 to 14) (size 15 to 20)
#    0.000    0.933    5.333    3.600    0.000    2.133 
#    0.000    0.667    0.000    0.000    0.000    0.467 
#    0.000    0.000    0.000    0.000    0.000    0.000 
#
# Total GULP energy -167015.612687 kJ/mol
# GULP energy per Si atom -5567.187090 kJ/mol
# Density = 1.694666 g / cm^3
# Si number density = 16.985320 Si / 1000 Ang^3
#
#
#
# Elastic Constant Matrix: (Units=GPa)
#
#
# Indices 1 2 3 4 5 6 
#
# 1 56.9309 11.5062 28.4686 0.0000 -5.3962 0.0000
# 2 11.5062 41.9526 30.6663 0.0000 -2.2334 0.0000
# 3 28.4686 30.6663 76.8786 0.0000 -4.2574 0.0000
# 4 0.0000 0.0000 0.0000 -948.8413 0.0000 488.6719
# 5 -5.3962 -2.2334 -4.2574 0.0000 16.5871 0.0000
# 6 0.0000 0.0000 0.0000 488.6719 0.0000 -220.0937
#
#
#
# Elastic Compliance Matrix: (Units=1/GPa)
#
#
# Indices 1 2 3 4 5 6 
#
# 1 0.021980 -0.000019 -0.007847 0.000000 0.005134 0.000000
# 2 -0.000019 0.033667 -0.013362 0.000000 0.001097 0.000000
# 3 -0.007847 -0.013362 0.021305 0.000000 0.001116 0.000000
# 4 0.000000 0.000000 0.000000 0.007345 0.000000 0.016307
# 5 0.005134 0.001097 0.001116 0.000000 0.062392 0.000000
# 6 0.000000 0.000000 0.000000 0.016307 0.000000 0.031664
#
#
# Mechanical properties :
#
#
# Convention : Reuss Voigt Hill
#
# Bulk Modulus (GPa) = 28.98880 35.22713 32.10797
# Shear Modulus (GPa) = 21.52321 -223.46151 -100.96915
#
# Velocity S-wave (km/s) = 3.56359 -11.48247 -7.71842
# Velocity P-wave (km/s) = 5.83406 12.45036 7.77738
#
# Compressibility (1/GPa) = 0.03449608
#
# Stress axis : x y z
#
# Youngs Moduli (GPa) = 45.49652 29.70253 46.93681
#
# Poissons Ratio (x) = 0.00056 0.36833
# Poissons Ratio (y) = 0.00085 0.62716
# Poissons Ratio (z) = 0.35703 0.39688
#
# Static dielectric constant tensor:
#      x y z
#    x 1.634650 0.000000 -0.010680 
#    y 0.000000 1.563870 0.000000 
#    z -0.010680 0.000000 1.550600 
# 
# From -- ./inp_files/214838.got.cif
#   From: 2010.05.17/outbox.cif.g08.bks.cpg/sg12_108_cif.got.tgz:214838.got - 2010.06.03 13:09:07.
