data_PCOD9194768
_publ_section_title
;
Structure prediction by ZEFSAII (Michael W. Deem and Ramdas Pophale) SiO2 
 PCOD9194768
Probable space group: C 2/M
;
_chemical_formula_sum "Si O2"
_cell_formula_units_Z 58
_cell_length_a 18.909874
_cell_length_b 7.585714
_cell_length_c 22.179845
_cell_angle_alpha 90.000000
_cell_angle_beta 125.395413
_cell_angle_gamma 90.000000
_cell_volume 2593.546364
_symmetry_space_group_name_H-M "C 2/M"
_symmetry_group_IT_number 12
_symmetry_cell_setting 'monoclinic'
loop_
_space_group_symop_operation_xyz
x,y,z
-x,y,-z
-x,-y,-z
x,-y,z
1/2+x,1/2+y,z
1/2-x,1/2+y,-z
1/2-x,1/2-y,-z
1/2+x,1/2-y,z
loop_
_atom_site_type_symbol
_atom_site_label
_atom_site_fract_x
_atom_site_fract_y
_atom_site_fract_z
Si Si1 0.981438 0.705378 0.860476
Si Si2 0.701590 0.793708 0.414176
Si Si3 0.000000 0.500000 0.500000
Si Si4 0.979290 0.200794 0.722830
Si Si5 0.665506 0.211638 0.997914
Si Si6 0.368062 0.285021 0.286708
Si Si7 0.371568 0.289472 0.427182
Si Si8 0.817897 0.283753 0.855792
O O1 0.984247 0.500000 0.879246
O O2 0.967226 0.713855 0.782004
O O3 0.899742 0.779175 0.856960
O O4 0.075761 0.779731 0.924618
O O5 0.750000 0.750000 0.500000
O O6 0.610654 0.701577 0.357738
O O7 0.772434 0.757973 0.397391
O O8 0.682169 0.000000 0.403287
O O9 0.065587 0.657606 0.507015
O O10 0.056139 0.278258 0.720064
O O11 0.004581 0.000000 0.748641
O O12 0.660067 0.000000 0.997761
O O13 0.750000 0.250000 0.000000
O O14 0.674863 0.273502 0.071330
O O15 0.369610 0.500000 0.287838
O O16 0.382920 0.233964 0.363154
O O17 0.273791 0.228308 0.217470
O O18 0.389046 0.500000 0.444061
O O19 0.817206 0.500000 0.854449
#
# Coordination Sequence:
#
# PCOD9194768 Si02
#       8
#     8   8   2   8   8   8   8   8
#     4  10  20  36  58  86 117 154 203 252 300 362
#     4  11  25  43  66  91 126 164 207 259 313 373
#     4  12  26  40  72  94 128 164 210 268 318 386
#     4  11  23  38  61  89 120 160 202 252 308 371
#     4  10  20  34  57  87 119 154 198 247 300 366
#     4   9  19  37  60  85 118 159 205 251 308 370
#     4  10  24  44  65  94 127 167 211 261 319 382
#     4   9  17  34  60  84 113 158 204 245 298 365
#
# _framework density 22.363202000000001
#
# number of rings (size 3 to 8) (size 9 to 14) (size 15 to 20)
#    0.000    1.931    0.000    3.103    3.862    5.517 
#    1.241    0.690    1.517    1.655    0.000    0.000 
#    0.000    0.000    0.000    0.000    0.000    0.000 
#
# Total GULP energy -161836.662906 kJ/mol
# GULP energy per Si atom -5580.574583 kJ/mol
# Density = 2.231230 g / cm^3
# Si number density = 22.363202 Si / 1000 Ang^3
#
#
#
# Elastic Constant Matrix: (Units=GPa)
#
#
# Indices 1 2 3 4 5 6 
#
# 1 205.6083 17.6984 79.7817 0.0000 1.1965 0.0000
# 2 17.6984 64.2593 -2.2509 0.0000 5.8613 0.0000
# 3 79.7817 -2.2509 131.1500 0.0000 5.1900 0.0000
# 4 0.0000 0.0000 0.0000 4.9759 0.0000 -0.0973
# 5 1.1965 5.8613 5.1900 0.0000 42.6372 0.0000
# 6 0.0000 0.0000 0.0000 -0.0973 0.0000 19.0284
#
#
#
# Elastic Compliance Matrix: (Units=1/GPa)
#
#
# Indices 1 2 3 4 5 6 
#
# 1 0.006619 -0.002020 -0.004084 0.000000 0.000589 0.000000
# 2 -0.002020 0.016393 0.001605 0.000000 -0.002392 0.000000
# 3 -0.004084 0.001605 0.010190 0.000000 -0.001346 0.000000
# 4 0.000000 0.000000 0.000000 0.200989 0.000000 0.001028
# 5 0.000589 -0.002392 -0.001346 0.000000 0.023930 0.000000
# 6 0.000000 0.000000 0.000000 0.001028 0.000000 0.052558
#
#
# Mechanical properties :
#
#
# Convention : Reuss Voigt Hill
#
# Bulk Modulus (GPa) = 41.31744 65.71954 53.51849
# Shear Modulus (GPa) = 15.25572 33.71419 24.48496
#
# Velocity S-wave (km/s) = 2.61469 3.88696 3.31248
# Velocity P-wave (km/s) = 5.25654 7.04243 6.21398
#
# Compressibility (1/GPa) = 0.02420286
#
# Stress axis : x y z
#
# Youngs Moduli (GPa) = 151.08208 61.00293 98.13220
#
# Poissons Ratio (x) = 0.12321 0.40081
# Poissons Ratio (y) = 0.30515 -0.15747
# Poissons Ratio (z) = 0.61708 -0.09789
#
# Static dielectric constant tensor:
#      x y z
#    x 1.810470 0.000000 -0.016980 
#    y 0.000000 1.866170 0.000000 
#    z -0.016980 0.000000 1.747810 
# 
# From -- ./inp_files/314871.got.cif
#   From: 2010.05.17/outbox.cif.g08.bks.cpg/sg12_158_cif.got.tgz:314871.got - 2010.06.03 13:09:07.
