data_PCOD9194198
_publ_section_title
;
Structure prediction by ZEFSAII (Michael W. Deem and Ramdas Pophale) SiO2 
 PCOD9194198
Probable space group: C 2/M
;
_chemical_formula_sum "Si O2"
_cell_formula_units_Z 56
_cell_length_a 14.932484
_cell_length_b 8.373885
_cell_length_c 23.716382
_cell_angle_alpha 90.000000
_cell_angle_beta 111.576215
_cell_angle_gamma 90.000000
_cell_volume 2757.765813
_symmetry_space_group_name_H-M "C 2/M"
_symmetry_group_IT_number 12
_symmetry_cell_setting 'monoclinic'
loop_
_space_group_symop_operation_xyz
x,y,z
-x,y,-z
-x,-y,-z
x,-y,z
1/2+x,1/2+y,z
1/2-x,1/2+y,-z
1/2-x,1/2-y,-z
1/2+x,1/2-y,z
loop_
_atom_site_type_symbol
_atom_site_label
_atom_site_fract_x
_atom_site_fract_y
_atom_site_fract_z
Si Si1 0.487768 0.808359 0.861133
Si Si2 0.901412 0.191077 0.557318
Si Si3 0.601492 0.316257 0.989129
Si Si4 0.099399 0.691862 0.783017
Si Si5 0.292801 0.806941 0.424823
Si Si6 0.203754 0.690658 0.118278
Si Si7 0.598276 0.191256 0.655593
O O1 0.515191 0.748609 0.805334
O O2 0.387188 0.751428 0.864654
O O3 0.482104 0.000000 0.858733
O O4 0.574003 0.762613 0.923669
O O5 0.811716 0.241183 0.576369
O O6 0.870715 0.242414 0.487488
O O7 0.998121 0.269253 0.602135
O O8 0.910893 0.000000 0.561334
O O9 0.628131 0.500000 0.986770
O O10 0.678038 0.233595 0.047792
O O11 0.500000 0.309893 0.000000
O O12 0.089642 0.500000 0.777788
O O13 0.199801 0.731988 0.836162
O O14 0.098894 0.756459 0.719253
O O15 0.318832 0.751375 0.368060
O O16 0.296754 0.000000 0.427524
O O17 0.210994 0.500000 0.124594
O O18 0.608370 0.000000 0.661818
#
# Coordination Sequence:
#
# PCOD9194198 Si02
#       7
#     8   8   8   8   8   8   8
#     4   9  19  36  55  76 105 137 170 214 265 312
#     4  10  20  34  55  83 109 134 171 218 261 302
#     4   9  17  31  54  81 104 131 171 216 262 312
#     4  10  22  38  54  75 104 141 181 213 251 310
#     4   9  19  36  56  79 108 140 172 209 259 313
#     4  10  20  35  55  78 105 136 171 216 266 310
#     4  10  21  37  55  75 105 144 178 210 255 310
#
# _framework density 20.306293
#
# number of rings (size 3 to 8) (size 9 to 14) (size 15 to 20)
#    0.000    2.429    0.000    1.714    0.000    8.000 
#    0.000    0.000    0.000    0.000    0.000    0.000 
#    0.000    0.000    0.000    0.000    0.000    0.000 
#
# Total GULP energy -156312.450949 kJ/mol
# GULP energy per Si atom -5582.587534 kJ/mol
# Density = 2.026008 g / cm^3
# Si number density = 20.306293 Si / 1000 Ang^3
#
#
#
# Elastic Constant Matrix: (Units=GPa)
#
#
# Indices 1 2 3 4 5 6 
#
# 1 61.1617 -2.6253 21.7559 0.0000 -24.2670 0.0000
# 2 -2.6253 -4.5720 -7.9482 0.0000 -10.8035 0.0000
# 3 21.7559 -7.9482 36.6087 0.0000 -28.5938 0.0000
# 4 0.0000 0.0000 0.0000 22.6495 0.0000 5.6624
# 5 -24.2670 -10.8035 -28.5938 0.0000 30.1695 0.0000
# 6 0.0000 0.0000 0.0000 5.6624 0.0000 16.1596
#
#
#
# Elastic Compliance Matrix: (Units=1/GPa)
#
#
# Indices 1 2 3 4 5 6 
#
# 1 0.021826 -0.006914 -0.010370 0.000000 0.005251 0.000000
# 2 -0.006914 -0.020942 -0.040962 0.000000 -0.051883 0.000000
# 3 -0.010370 -0.040962 0.025462 0.000000 0.001123 0.000000
# 4 0.000000 0.000000 0.000000 0.048390 0.000000 -0.016956
# 5 0.005251 -0.051883 0.001123 0.000000 0.019855 0.000000
# 6 0.000000 0.000000 0.000000 -0.016956 0.000000 0.067824
#
#
# Mechanical properties :
#
#
# Convention : Reuss Voigt Hill
#
# Bulk Modulus (GPa) = -11.09304 12.84036 0.87366
# Shear Modulus (GPa) = 20.09175 19.26345 19.67760
#
# Velocity S-wave (km/s) = 3.14894 3.08335 3.11632
# Velocity P-wave (km/s) = 2.78323 4.36040 3.65783
#
# Compressibility (1/GPa) = -0.09014661
#
# Stress axis : x y z
#
# Youngs Moduli (GPa) = 45.81772 -47.75093 39.27428
#
# Poissons Ratio (x) = -0.33014 0.40727
# Poissons Ratio (y) = 0.31677 1.60877
# Poissons Ratio (z) = 0.47512 -1.95600
#
# Static dielectric constant tensor:
#      x y z
#    x 1.772150 0.000000 -0.049470 
#    y 0.000000 1.690740 0.000000 
#    z -0.049470 0.000000 1.693940 
# 
# From -- ./inp_files/339092.got.cif
#   From: 2010.05.17/outbox.cif.g08.bks.cpg/sg12_170_cif.got.tgz:339092.got - 2010.06.03 13:09:07.
