data_PCOD9194619
_publ_section_title
;
Structure prediction by ZEFSAII (Michael W. Deem and Ramdas Pophale) SiO2 
 PCOD9194619
Probable space group: C 2/M
;
_chemical_formula_sum "Si O2"
_cell_formula_units_Z 64
_cell_length_a 28.779658
_cell_length_b 16.598122
_cell_length_c 22.020434
_cell_angle_alpha 90.000000
_cell_angle_beta 18.816882
_cell_angle_gamma 90.000000
_cell_volume 3392.815486
_symmetry_space_group_name_H-M "C 2/M"
_symmetry_group_IT_number 12
_symmetry_cell_setting 'monoclinic'
loop_
_space_group_symop_operation_xyz
x,y,z
-x,y,-z
-x,-y,-z
x,-y,z
1/2+x,1/2+y,z
1/2-x,1/2+y,-z
1/2-x,1/2-y,-z
1/2+x,1/2-y,z
loop_
_atom_site_type_symbol
_atom_site_label
_atom_site_fract_x
_atom_site_fract_y
_atom_site_fract_z
Si Si1 0.163897 0.825491 0.804589
Si Si2 0.683162 0.145617 0.143691
Si Si3 0.072812 0.907629 0.470833
Si Si4 0.338449 0.661781 0.832012
Si Si5 0.608716 0.904585 0.561077
Si Si6 0.164125 0.594672 0.298999
Si Si7 0.606589 0.143128 0.918246
Si Si8 0.938521 0.403416 0.894666
O O1 0.261601 0.850520 0.625823
O O2 0.243362 0.864224 0.763740
O O3 0.148907 0.731039 0.839565
O O4 0.000000 0.855708 0.000000
O O5 0.673967 0.242280 0.158073
O O6 0.529798 0.110668 0.311087
O O7 0.724167 0.110316 0.157654
O O8 0.796124 0.130061 0.950558
O O9 0.242977 0.902217 0.259716
O O10 0.000000 0.872961 0.500000
O O11 0.999533 0.861166 0.616133
O O12 0.026197 0.000000 0.532919
O O13 0.219237 0.622635 0.934859
O O14 0.550446 0.885124 0.701198
O O15 0.645082 0.000000 0.513687
O O16 0.157283 0.500000 0.320443
O O17 0.000000 0.626942 0.500000
O O18 0.500000 0.106677 0.000000
O O19 0.536439 0.141311 0.072240
O O20 0.940494 0.500000 0.901797
#
# Coordination Sequence:
#
# PCOD9194619 Si02
#       8
#     8   8   8   8   8   8   8   8
#     4  11  24  41  60  87 120 159 201 245 297 352
#     4  10  20  34  56  87 119 153 192 241 297 351
#     4  11  22  35  57  88 116 148 192 243 294 345
#     4  10  20  34  56  87 119 153 192 241 297 351
#     4  10  20  37  62  88 116 155 201 243 291 357
#     4  11  22  35  57  88 116 148 192 243 294 345
#     4  11  24  41  60  87 120 159 201 245 297 352
#     4  10  20  37  62  88 116 155 201 243 291 357
#
# _framework density 18.863391
#
# number of rings (size 3 to 8) (size 9 to 14) (size 15 to 20)
#    0.000    1.500    2.500    3.000    0.000    3.500 
#    0.000    3.750    0.000    0.000    0.000    0.000 
#    0.000    0.000    0.000    0.000    0.000    0.000 
#
# Total GULP energy -178611.050613 kJ/mol
# GULP energy per Si atom -5581.595332 kJ/mol
# Density = 1.882046 g / cm^3
# Si number density = 18.863391 Si / 1000 Ang^3
#
#
#
# Elastic Constant Matrix: (Units=GPa)
#
#
# Indices 1 2 3 4 5 6 
#
# 1 105.6354 11.4368 50.8714 -0.0019 7.0319 0.0016
# 2 11.4368 46.6403 17.8895 -0.0018 6.8149 0.0019
# 3 50.8714 17.8895 96.1002 -0.0022 12.1741 0.0031
# 4 -0.0019 -0.0018 -0.0022 23.2886 0.0017 9.9089
# 5 7.0319 6.8149 12.1741 0.0017 31.5871 -0.0019
# 6 0.0016 0.0019 0.0031 9.9089 -0.0019 18.6806
#
#
#
# Elastic Compliance Matrix: (Units=1/GPa)
#
#
# Indices 1 2 3 4 5 6 
#
# 1 0.012721 -0.000560 -0.006609 0.000000 -0.000164 0.000000
# 2 -0.000560 0.023487 -0.003626 0.000003 -0.003545 -0.000004
# 3 -0.006609 -0.003626 0.015027 0.000002 -0.003538 -0.000003
# 4 0.000000 0.000003 0.000002 0.055455 -0.000006 -0.029416
# 5 -0.000164 -0.003545 -0.003538 -0.000006 0.033823 0.000008
# 6 0.000000 -0.000004 -0.000003 -0.029416 0.000008 0.069135
#
#
# Mechanical properties :
#
#
# Convention : Reuss Voigt Hill
#
# Bulk Modulus (GPa) = 33.73369 45.41903 39.57636
# Shear Modulus (GPa) = 20.73644 25.92314 23.32979
#
# Velocity S-wave (km/s) = 3.31916 3.71112 3.52060
# Velocity P-wave (km/s) = 5.71061 6.51869 6.12799
#
# Compressibility (1/GPa) = 0.02964396
#
# Stress axis : x y z
#
# Youngs Moduli (GPa) = 78.61194 42.57661 66.54471
#
# Poissons Ratio (x) = 0.02386 0.43978
# Poissons Ratio (y) = 0.04406 0.24132
# Poissons Ratio (z) = 0.51952 0.15440
#
# Static dielectric constant tensor:
#      x y z
#    x 1.664360 0.000000 0.032410 
#    y 0.000000 1.663670 0.000000 
#    z 0.032410 0.000000 1.672090 
# 
# From -- ./inp_files/328610.got.cif
#   From: 2010.05.17/outbox.cif.g08.bks.cpg/sg12_165_cif.got.tgz:328610.got - 2010.06.03 13:09:07.
