data_PCOD9194354
_publ_section_title
;
Structure prediction by ZEFSAII (Michael W. Deem and Ramdas Pophale) SiO2 
 PCOD9194354
Probable space group: C 2/M
;
_chemical_formula_sum "Si O2"
_cell_formula_units_Z 48
_cell_length_a 22.661795
_cell_length_b 18.510619
_cell_length_c 10.766584
_cell_angle_alpha 90.000000
_cell_angle_beta 148.333243
_cell_angle_gamma 90.000000
_cell_volume 2371.014562
_symmetry_space_group_name_H-M "C 2/M"
_symmetry_group_IT_number 12
_symmetry_cell_setting 'monoclinic'
loop_
_space_group_symop_operation_xyz
x,y,z
-x,y,-z
-x,-y,-z
x,-y,z
1/2+x,1/2+y,z
1/2-x,1/2+y,-z
1/2-x,1/2-y,-z
1/2+x,1/2-y,z
loop_
_atom_site_type_symbol
_atom_site_label
_atom_site_fract_x
_atom_site_fract_y
_atom_site_fract_z
Si Si1 0.870052 0.579883 0.660172
Si Si2 0.951798 0.700850 0.531689
Si Si3 0.235865 0.329059 0.325880
Si Si4 0.408649 0.917735 0.106153
Si Si5 0.016306 0.805721 0.177527
Si Si6 0.774687 0.833870 0.782374
O O1 0.845489 0.500000 0.667312
O O2 0.846253 0.642004 0.715434
O O3 0.784276 0.601354 0.397094
O O4 0.994517 0.578902 0.827323
O O5 0.971083 0.739385 0.700743
O O6 0.819177 0.684164 0.281684
O O7 0.000000 0.743589 0.500000
O O8 0.028396 0.629515 0.678347
O O9 0.363767 0.344865 0.593151
O O10 0.223054 0.243412 0.286206
O O11 0.196242 0.372363 0.133431
O O12 0.381517 0.000000 0.091705
O O13 0.000000 0.791332 0.000000
O O14 0.906607 0.847540 0.032695
#
# Coordination Sequence:
#
# PCOD9194354 Si02
#       6
#     8   8   8   8   8   8
#     4  10  20  34  55  86 121 156 196 247 299 351
#     4  10  23  39  61  91 119 156 204 253 301 355
#     4  11  20  33  56  85 119 157 199 239 300 362
#     4  10  21  36  57  86 120 157 201 253 299 353
#     4  11  22  37  59  88 121 161 196 241 307 351
#     4  10  21  36  58  85 121 156 200 243 298 357
#
# _framework density 20.244499000000001
#
# number of rings (size 3 to 8) (size 9 to 14) (size 15 to 20)
#    0.000    1.667    3.333    1.500    4.667    2.333 
#    0.000    2.500    0.000    0.000    0.000    1.167 
#    0.000    0.000    0.000    0.000    0.000    0.000 
#
# Total GULP energy -133683.096454 kJ/mol
# GULP energy per Si atom -5570.129019 kJ/mol
# Density = 2.019842 g / cm^3
# Si number density = 20.244499 Si / 1000 Ang^3
#
#
#
# Elastic Constant Matrix: (Units=GPa)
#
#
# Indices 1 2 3 4 5 6 
#
# 1 84.9053 5.3489 27.0010 0.0000 -1.0788 0.0000
# 2 5.3489 73.0839 24.2911 0.0000 -5.5127 0.0000
# 3 27.0010 24.2911 132.5541 0.0000 22.1430 0.0000
# 4 0.0000 0.0000 0.0000 11.8914 0.0000 3.9876
# 5 -1.0788 -5.5127 22.1430 0.0000 24.1074 0.0000
# 6 0.0000 0.0000 0.0000 3.9876 0.0000 8.6940
#
#
#
# Elastic Compliance Matrix: (Units=1/GPa)
#
#
# Indices 1 2 3 4 5 6 
#
# 1 0.012854 0.000445 -0.003323 0.000000 0.003729 0.000000
# 2 0.000445 0.015605 -0.004193 0.000000 0.007440 0.000000
# 3 -0.003323 -0.004193 0.010837 0.000000 -0.011062 0.000000
# 4 0.000000 0.000000 0.000000 0.099379 0.000000 -0.045581
# 5 0.003729 0.007440 -0.011062 0.000000 0.053510 0.000000
# 6 0.000000 0.000000 0.000000 -0.045581 0.000000 0.135929
#
#
# Mechanical properties :
#
#
# Convention : Reuss Voigt Hill
#
# Bulk Modulus (GPa) = 39.75475 44.86949 42.31212
# Shear Modulus (GPa) = 14.25961 24.53202 19.39582
#
# Velocity S-wave (km/s) = 2.65688 3.48485 3.09864
# Velocity P-wave (km/s) = 5.39369 6.19711 5.80931
#
# Compressibility (1/GPa) = 0.02515422
#
# Stress axis : x y z
#
# Youngs Moduli (GPa) = 77.79763 64.08103 92.27476
#
# Poissons Ratio (x) = -0.02851 0.30661
# Poissons Ratio (y) = -0.03461 0.38693
# Poissons Ratio (z) = 0.25850 0.26870
#
# Static dielectric constant tensor:
#      x y z
#    x 1.797280 0.000000 -0.029600 
#    y 0.000000 1.719450 0.000000 
#    z -0.029600 0.000000 1.794830 
# 
# From -- ./inp_files/177404.got.cif
#   From: 2010.05.17/outbox.cif.g08.bks.cpg/sg12_89_cif.got.tgz:177404.got - 2010.06.03 13:09:07.
