data_PCOD9194580
_publ_section_title
;
Structure prediction by ZEFSAII (Michael W. Deem and Ramdas Pophale) SiO2 
 PCOD9194580
Probable space group: C 2/M
;
_chemical_formula_sum "Si O2"
_cell_formula_units_Z 64
_cell_length_a 23.499516
_cell_length_b 11.532579
_cell_length_c 23.988423
_cell_angle_alpha 90.000000
_cell_angle_beta 147.742675
_cell_angle_gamma 90.000000
_cell_volume 3469.785876
_symmetry_space_group_name_H-M "C 2/M"
_symmetry_group_IT_number 12
_symmetry_cell_setting 'monoclinic'
loop_
_space_group_symop_operation_xyz
x,y,z
-x,y,-z
-x,-y,-z
x,-y,z
1/2+x,1/2+y,z
1/2-x,1/2+y,-z
1/2-x,1/2-y,-z
1/2+x,1/2-y,z
loop_
_atom_site_type_symbol
_atom_site_label
_atom_site_fract_x
_atom_site_fract_y
_atom_site_fract_z
Si Si1 0.604711 0.369302 0.318820
Si Si2 0.922873 0.635884 0.985139
Si Si3 0.421506 0.758328 0.105741
Si Si4 0.182866 0.211503 0.776599
Si Si5 0.211197 0.369727 0.908532
Si Si6 0.836863 0.364741 0.466222
Si Si7 0.547130 0.371419 0.401178
Si Si8 0.618869 0.866125 0.619471
O O1 0.582466 0.500000 0.280284
O O2 0.530181 0.283254 0.223246
O O3 0.729577 0.349198 0.412546
O O4 0.575363 0.364543 0.359335
O O5 0.944990 0.500000 0.009725
O O6 0.798396 0.653425 0.867339
O O7 0.939911 0.694483 0.059162
O O8 0.000000 0.681631 0.000000
O O9 0.364064 0.847185 0.100594
O O10 0.332462 0.657144 0.027332
O O11 0.184180 0.283977 0.835460
O O12 0.162565 0.291498 0.706043
O O13 0.079818 0.130588 0.695463
O O14 0.199770 0.500000 0.879250
O O15 0.877080 0.500000 0.509394
O O16 0.909492 0.251605 0.538685
O O17 0.812238 0.359938 0.379847
O O18 0.587000 0.500000 0.454371
O O19 0.500000 0.831886 0.500000
O O20 0.611480 0.000000 0.631180
#
# Coordination Sequence:
#
# PCOD9194580 Si02
#       8
#     8   8   8   8   8   8   8   8
#     4  10  21  38  61  86 119 155 191 239 300 353
#     4  10  23  41  58  80 116 157 192 237 291 353
#     4  10  20  36  58  85 112 148 193 235 293 349
#     4  11  21  37  60  85 112 156 195 243 292 354
#     4  10  20  34  56  86 115 144 190 247 292 343
#     4  10  22  40  61  86 118 160 202 244 298 355
#     4  11  22  39  60  89 121 154 197 246 300 355
#     4  10  20  36  60  86 115 151 196 249 295 343
#
# _framework density 18.444941
#
# number of rings (size 3 to 8) (size 9 to 14) (size 15 to 20)
#    0.000    1.750    2.500    1.875    1.750    0.500 
#    0.000    3.125    0.000    2.250    0.000    0.000 
#    0.000    0.000    0.000    0.000    0.000    0.000 
#
# Total GULP energy -178367.887828 kJ/mol
# GULP energy per Si atom -5573.996495 kJ/mol
# Density = 1.840296 g / cm^3
# Si number density = 18.444941 Si / 1000 Ang^3
#
#
#
# Elastic Constant Matrix: (Units=GPa)
#
#
# Indices 1 2 3 4 5 6 
#
# 1 120.9717 27.7975 20.1653 0.0000 9.0313 0.0000
# 2 27.7975 91.5976 29.2361 0.0000 4.0469 0.0000
# 3 20.1653 29.2361 35.5604 0.0000 0.1622 0.0000
# 4 0.0000 0.0000 0.0000 -4.0265 0.0000 13.8174
# 5 9.0313 4.0469 0.1622 0.0000 25.8814 0.0000
# 6 0.0000 0.0000 0.0000 13.8174 0.0000 2.3497
#
#
#
# Elastic Compliance Matrix: (Units=1/GPa)
#
#
# Indices 1 2 3 4 5 6 
#
# 1 0.009524 -0.001403 -0.004233 0.000000 -0.003078 0.000000
# 2 -0.001403 0.015139 -0.011643 0.000000 -0.001805 0.000000
# 3 -0.004233 -0.011643 0.040080 0.000000 0.003046 0.000000
# 4 0.000000 0.000000 0.000000 -0.011726 0.000000 0.068955
# 5 -0.003078 -0.001805 0.003046 0.000000 0.039975 0.000000
# 6 0.000000 0.000000 0.000000 0.068955 0.000000 0.020094
#
#
# Mechanical properties :
#
#
# Convention : Reuss Voigt Hill
#
# Bulk Modulus (GPa) = 33.12907 44.72526 38.92717
# Shear Modulus (GPa) = 31.70465 16.23630 23.97047
#
# Velocity S-wave (km/s) = 4.15044 2.97013 3.60886
# Velocity P-wave (km/s) = 6.40064 6.00524 6.20609
#
# Compressibility (1/GPa) = 0.03018497
#
# Stress axis : x y z
#
# Youngs Moduli (GPa) = 104.99515 66.05476 24.95023
#
# Poissons Ratio (x) = 0.09269 0.10562
# Poissons Ratio (y) = 0.14733 0.29048
# Poissons Ratio (z) = 0.44447 0.76905
#
# Static dielectric constant tensor:
#      x y z
#    x 1.641770 0.000000 0.019820 
#    y 0.000000 1.661570 0.000000 
#    z 0.019820 0.000000 1.621240 
# 
# From -- ./inp_files/349404.got.cif
#   From: 2010.05.17/outbox.cif.g08.bks.cpg/sg12_175_cif.got.tgz:349404.got - 2010.06.03 13:09:07.
