data_PCOD9194062
_publ_section_title
;
Structure prediction by ZEFSAII (Michael W. Deem and Ramdas Pophale) SiO2 
 PCOD9194062
Probable space group: C 2/M
;
_chemical_formula_sum "Si O2"
_cell_formula_units_Z 56
_cell_length_a 26.065392
_cell_length_b 8.930764
_cell_length_c 16.429047
_cell_angle_alpha 90.000000
_cell_angle_beta 54.927036
_cell_angle_gamma 90.000000
_cell_volume 3129.983046
_symmetry_space_group_name_H-M "C 2/M"
_symmetry_group_IT_number 12
_symmetry_cell_setting 'monoclinic'
loop_
_space_group_symop_operation_xyz
x,y,z
-x,y,-z
-x,-y,-z
x,-y,z
1/2+x,1/2+y,z
1/2-x,1/2+y,-z
1/2-x,1/2-y,-z
1/2+x,1/2-y,z
loop_
_atom_site_type_symbol
_atom_site_label
_atom_site_fract_x
_atom_site_fract_y
_atom_site_fract_z
Si Si1 0.482953 0.679664 0.765333
Si Si2 0.257117 0.320796 0.866713
Si Si3 0.115677 0.179275 0.712036
Si Si4 0.350668 0.822202 0.902892
Si Si5 0.780787 0.680049 0.280253
Si Si6 0.339944 0.680546 0.508436
Si Si7 0.966462 0.679132 0.445743
O O1 0.481181 0.500000 0.761666
O O2 0.542815 0.721238 0.766764
O O3 0.417015 0.743268 0.854732
O O4 0.497794 0.746526 0.662806
O O5 0.268585 0.500000 0.856846
O O6 0.316191 0.239670 0.853663
O O7 0.241065 0.273481 0.789808
O O8 0.197444 0.291447 0.979367
O O9 0.153619 0.253392 0.750215
O O10 0.149263 0.221300 0.595768
O O11 0.118989 0.000000 0.716671
O O12 0.359294 0.000000 0.888526
O O13 0.785221 0.500000 0.276239
O O14 0.726693 0.724253 0.393716
O O15 0.346226 0.500000 0.508730
O O16 0.396216 0.756486 0.506634
O O17 0.965530 0.500000 0.436263
O O18 0.000000 0.714754 0.500000
#
# Coordination Sequence:
#
# PCOD9194062 Si02
#       7
#     8   8   8   8   8   8   8
#     4  10  21  37  57  77 104 143 181 216 267 325
#     4   9  20  37  55  81 111 140 176 220 270 326
#     4   9  19  35  52  76 107 140 179 222 265 315
#     4  10  20  36  58  81 108 139 177 223 272 320
#     4  10  20  34  55  80 106 140 182 221 263 316
#     4   9  19  34  51  75 107 145 182 212 260 319
#     4  10  21  34  49  77 111 138 176 222 262 311
#
# _framework density 17.891470999999999
#
# number of rings (size 3 to 8) (size 9 to 14) (size 15 to 20)
#    0.000    2.429    0.000    2.571    2.000    5.714 
#    0.000    0.714    0.000    4.286    0.000    0.000 
#    0.000    0.000    0.000    0.000    0.000    0.000 
#
# Total GULP energy -156257.575404 kJ/mol
# GULP energy per Si atom -5580.627693 kJ/mol
# Density = 1.785075 g / cm^3
# Si number density = 17.891471 Si / 1000 Ang^3
#
#
#
# Elastic Constant Matrix: (Units=GPa)
#
#
# Indices 1 2 3 4 5 6 
#
# 1 111.7105 30.8084 43.6202 0.0000 -1.4517 0.0000
# 2 30.8084 20.7716 18.7768 0.0000 -5.1974 0.0000
# 3 43.6202 18.7768 35.5496 0.0000 -4.1832 0.0000
# 4 0.0000 0.0000 0.0000 22.9638 0.0000 -1.4883
# 5 -1.4517 -5.1974 -4.1832 0.0000 25.9304 0.0000
# 6 0.0000 0.0000 0.0000 -1.4883 0.0000 35.1840
#
#
#
# Elastic Compliance Matrix: (Units=1/GPa)
#
#
# Indices 1 2 3 4 5 6 
#
# 1 0.019512 -0.015236 -0.016437 0.000000 -0.004613 0.000000
# 2 -0.015236 0.107108 -0.036138 0.000000 0.014785 0.000000
# 3 -0.016437 -0.036138 0.067711 0.000000 0.002760 0.000000
# 4 0.000000 0.000000 0.000000 0.043666 0.000000 0.001847
# 5 -0.004613 0.014785 0.002760 0.000000 0.041715 0.000000
# 6 0.000000 0.000000 0.000000 0.001847 0.000000 0.028500
#
#
# Mechanical properties :
#
#
# Convention : Reuss Voigt Hill
#
# Bulk Modulus (GPa) = 17.03339 39.38251 28.20795
# Shear Modulus (GPa) = 10.78974 21.80406 16.29690
#
# Velocity S-wave (km/s) = 2.45840 3.49475 3.02135
# Velocity P-wave (km/s) = 4.19516 6.19226 5.28883
#
# Compressibility (1/GPa) = 0.05870823
#
# Stress axis : x y z
#
# Youngs Moduli (GPa) = 51.25085 9.33640 14.76874
#
# Poissons Ratio (x) = 0.14225 0.24275
# Poissons Ratio (y) = 0.78085 0.53371
# Poissons Ratio (z) = 0.84241 0.33740
#
# Static dielectric constant tensor:
#      x y z
#    x 1.598250 0.000000 -0.007270 
#    y 0.000000 1.596190 0.000000 
#    z -0.007270 0.000000 1.608030 
# 
# From -- ./inp_files/243597.got.cif
#   From: 2010.05.17/outbox.cif.g08.bks.cpg/sg12_122_cif.got.tgz:243597.got - 2010.06.03 13:09:07.
