data_PCOD9194076
_publ_section_title
;
Structure prediction by ZEFSAII (Michael W. Deem and Ramdas Pophale) SiO2 
 PCOD9194076
Probable space group: C 2/M
;
_chemical_formula_sum "Si O2"
_cell_formula_units_Z 64
_cell_length_a 31.302503
_cell_length_b 7.531770
_cell_length_c 14.952366
_cell_angle_alpha 90.000000
_cell_angle_beta 126.379411
_cell_angle_gamma 90.000000
_cell_volume 2838.178007
_symmetry_space_group_name_H-M "C 2/M"
_symmetry_group_IT_number 12
_symmetry_cell_setting 'monoclinic'
loop_
_space_group_symop_operation_xyz
x,y,z
-x,y,-z
-x,-y,-z
x,-y,z
1/2+x,1/2+y,z
1/2-x,1/2+y,-z
1/2-x,1/2-y,-z
1/2+x,1/2-y,z
loop_
_atom_site_type_symbol
_atom_site_label
_atom_site_fract_x
_atom_site_fract_y
_atom_site_fract_z
Si Si1 0.792343 0.287134 0.976099
Si Si2 0.755010 0.207999 0.265693
Si Si3 0.011559 0.706876 0.916006
Si Si4 0.546507 0.792049 0.619054
Si Si5 0.800533 0.210522 0.624651
Si Si6 0.412571 0.218564 0.142145
Si Si7 0.125746 0.215065 0.565246
Si Si8 0.409919 0.284238 0.670836
O O1 0.797256 0.500000 0.973668
O O2 0.769432 0.214489 0.854599
O O3 0.750000 0.250000 0.000000
O O4 0.851568 0.223280 0.070469
O O5 0.714018 0.221921 0.295682
O O6 0.813223 0.277961 0.364381
O O7 0.764242 0.000000 0.260042
O O8 0.024972 0.500000 0.947695
O O9 0.058946 0.779904 0.913349
O O10 0.959626 0.718984 0.789236
O O11 0.000000 0.784825 0.000000
O O12 0.500000 0.711788 0.500000
O O13 0.556567 0.719615 0.730531
O O14 0.599013 0.776055 0.623701
O O15 0.533866 0.000000 0.615617
O O16 0.750000 0.250000 0.500000
O O17 0.855119 0.276307 0.649415
O O18 0.805678 0.000000 0.636682
O O19 0.413915 0.000000 0.144863
O O20 0.093288 0.273284 0.436853
O O21 0.124992 0.000000 0.562927
O O22 0.411423 0.500000 0.673701
#
# Coordination Sequence:
#
# PCOD9194076 Si02
#       8
#     8   8   8   8   8   8   8   8
#     4  10  21  37  60  84 117 157 193 242 295 343
#     4  10  21  37  57  83 115 152 190 236 294 347
#     4  10  22  39  62  88 111 148 202 244 282 343
#     4  10  20  34  55  80 109 145 185 232 287 340
#     4  11  22  38  59  86 119 155 193 239 292 352
#     4   9  19  37  56  82 118 148 187 245 291 332
#     4  10  20  36  55  80 114 144 181 232 282 345
#     4  10  22  39  57  81 118 154 185 235 296 341
#
# _framework density 22.549676999999999
#
# number of rings (size 3 to 8) (size 9 to 14) (size 15 to 20)
#    0.000    2.000    1.250    1.875    1.750    4.000 
#    0.000    1.250    0.000    0.000    0.000    0.000 
#    0.000    0.000    0.000    0.000    0.000    0.000 
#
# Total GULP energy -178841.948816 kJ/mol
# GULP energy per Si atom -5588.810900 kJ/mol
# Density = 2.249835 g / cm^3
# Si number density = 22.549677 Si / 1000 Ang^3
#
#
#
# Elastic Constant Matrix: (Units=GPa)
#
#
# Indices 1 2 3 4 5 6 
#
# 1 141.5104 -10.1447 58.4248 0.0000 -15.6305 0.0000
# 2 -10.1447 52.7317 7.1191 0.0000 1.3543 0.0000
# 3 58.4248 7.1191 136.7094 0.0000 -23.9326 0.0000
# 4 0.0000 0.0000 0.0000 -0.2987 0.0000 1.6726
# 5 -15.6305 1.3543 -23.9326 0.0000 46.1179 0.0000
# 6 0.0000 0.0000 0.0000 1.6726 0.0000 16.2019
#
#
#
# Elastic Compliance Matrix: (Units=1/GPa)
#
#
# Indices 1 2 3 4 5 6 
#
# 1 0.008875 0.002185 -0.003730 0.000000 0.001008 0.000000
# 2 0.002185 0.019695 -0.002124 0.000000 -0.000940 0.000000
# 3 -0.003730 -0.002124 0.009689 0.000000 0.003826 0.000000
# 4 0.000000 0.000000 0.000000 -2.121318 0.000000 0.218990
# 5 0.001008 -0.000940 0.003826 0.000000 0.024038 0.000000
# 6 0.000000 0.000000 0.000000 0.218990 0.000000 0.039114
#
#
# Mechanical properties :
#
#
# Convention : Reuss Voigt Hill
#
# Bulk Modulus (GPa) = 32.34036 49.08334 40.71185
# Shear Modulus (GPa) = -2.49718 30.77436 14.13859
#
# Velocity S-wave (km/s) = -1.05348 3.69824 2.50671
# Velocity P-wave (km/s) = 3.59071 6.32851 5.14506
#
# Compressibility (1/GPa) = 0.03092112
#
# Stress axis : x y z
#
# Youngs Moduli (GPa) = 112.68122 50.77385 103.20634
#
# Poissons Ratio (x) = -0.11094 0.38496
# Poissons Ratio (y) = -0.24621 0.21921
# Poissons Ratio (z) = 0.42030 0.10784
#
# Static dielectric constant tensor:
#      x y z
#    x 1.817910 0.000000 0.002230 
#    y 0.000000 1.820390 0.000000 
#    z 0.002230 0.000000 1.815540 
# 
# From -- ./inp_files/250060.got.cif
#   From: 2010.05.17/outbox.cif.g08.bks.cpg/sg12_126_cif.got.tgz:250060.got - 2010.06.03 13:09:07.
