data_PCOD9194402
_publ_section_title
;
Structure prediction by ZEFSAII (Michael W. Deem and Ramdas Pophale) SiO2 
 PCOD9194402
Probable space group: C 2/M
;
_chemical_formula_sum "Si O2"
_cell_formula_units_Z 40
_cell_length_a 8.117740
_cell_length_b 28.153458
_cell_length_c 9.424462
_cell_angle_alpha 90.000000
_cell_angle_beta 45.782812
_cell_angle_gamma 90.000000
_cell_volume 1543.695807
_symmetry_space_group_name_H-M "C 2/M"
_symmetry_group_IT_number 12
_symmetry_cell_setting 'monoclinic'
loop_
_space_group_symop_operation_xyz
x,y,z
-x,y,-z
-x,-y,-z
x,-y,z
1/2+x,1/2+y,z
1/2-x,1/2+y,-z
1/2-x,1/2-y,-z
1/2+x,1/2-y,z
loop_
_atom_site_type_symbol
_atom_site_label
_atom_site_fract_x
_atom_site_fract_y
_atom_site_fract_z
Si Si1 0.706946 0.815808 0.757892
Si Si2 0.647231 0.774433 0.204193
Si Si3 0.676016 0.080834 0.711663
Si Si4 0.797591 0.377155 0.739989
Si Si5 0.998224 0.052291 0.259205
O O1 0.593664 0.797660 0.682762
O O2 0.869283 0.773397 0.700214
O O3 0.784599 0.868250 0.687974
O O4 0.500000 0.818940 0.000000
O O5 0.770537 0.821947 0.188622
O O6 0.750000 0.750000 0.000000
O O7 0.424959 0.096086 0.797786
O O8 0.813095 0.056686 0.500151
O O9 0.753589 0.054827 0.810472
O O10 0.587268 0.406892 0.797959
O O11 0.000000 0.376048 0.500000
O O12 0.975861 0.000000 0.206596
#
# Coordination Sequence:
#
# PCOD9194402 Si02
#       5
#     8   8   8   8   8
#     4   9  18  32  51  75 106 144 182 213 272 326
#     4   9  18  33  51  76 109 148 182 214 270 335
#     4   9  18  33  51  78 111 140 179 227 276 324
#     4   9  19  34  51  81 115 143 182 232 273 324
#     4  10  20  34  56  80 105 144 186 228 281 322
#
# _framework density 25.911839000000001
#
# number of rings (size 3 to 8) (size 9 to 14) (size 15 to 20)
#    0.000    2.800    0.000    1.200    2.800    4.400 
#    3.600    3.000    0.000    2.400    0.000   21.000 
#    0.000    0.000    0.000    0.000    0.000    0.000 
#
# Total GULP energy -111423.139021 kJ/mol
# GULP energy per Si atom -5571.156951 kJ/mol
# Density = 2.585286 g / cm^3
# Si number density = 25.911839 Si / 1000 Ang^3
#
#
#
# Elastic Constant Matrix: (Units=GPa)
#
#
# Indices 1 2 3 4 5 6 
#
# 1 98.7411 44.1045 44.2060 0.0000 9.7371 0.0000
# 2 44.1045 201.6709 12.5644 0.0000 15.3574 0.0000
# 3 44.2060 12.5644 104.0562 0.0000 -5.8458 0.0000
# 4 0.0000 0.0000 0.0000 -1.4568 0.0000 4.1653
# 5 9.7371 15.3574 -5.8458 0.0000 39.3866 0.0000
# 6 0.0000 0.0000 0.0000 4.1653 0.0000 46.6591
#
#
#
# Elastic Compliance Matrix: (Units=1/GPa)
#
#
# Indices 1 2 3 4 5 6 
#
# 1 0.014234 -0.002481 -0.005940 0.000000 -0.003433 0.000000
# 2 -0.002481 0.005599 0.000292 0.000000 -0.001526 0.000000
# 3 -0.005940 0.000292 0.012277 0.000000 0.003177 0.000000
# 4 0.000000 0.000000 0.000000 -0.546868 0.000000 0.048819
# 5 -0.003433 -0.001526 0.003177 0.000000 0.027305 0.000000
# 6 0.000000 0.000000 0.000000 0.048819 0.000000 0.017074
#
#
# Mechanical properties :
#
#
# Convention : Reuss Voigt Hill
#
# Bulk Modulus (GPa) = 63.08540 67.35755 65.22147
# Shear Modulus (GPa) = -11.13990 37.15733 13.00872
#
# Velocity S-wave (km/s) = -2.07569 3.79091 2.24305
# Velocity P-wave (km/s) = 4.31907 6.72404 5.65098
#
# Compressibility (1/GPa) = 0.01585153
#
# Stress axis : x y z
#
# Youngs Moduli (GPa) = 70.25565 178.59503 81.45382
#
# Poissons Ratio (x) = 0.44316 0.48385
# Poissons Ratio (y) = 0.17433 -0.02381
# Poissons Ratio (z) = 0.41733 -0.05220
#
# Static dielectric constant tensor:
#      x y z
#    x 1.551040 0.000000 -0.091990 
#    y 0.000000 2.251460 0.000000 
#    z -0.091990 0.000000 2.146020 
# 
# From -- ./inp_files/120162.got.cif
#   From: 2010.05.17/outbox.cif.g08.bks.cpg/sg12_61_cif.got.tgz:120162.got - 2010.06.03 13:09:07.
