data_PCOD9194716
_publ_section_title
;
Structure prediction by ZEFSAII (Michael W. Deem and Ramdas Pophale) SiO2 
 PCOD9194716
Probable space group: C 2/M
;
_chemical_formula_sum "Si O2"
_cell_formula_units_Z 64
_cell_length_a 16.854731
_cell_length_b 13.904541
_cell_length_c 18.672902
_cell_angle_alpha 90.000000
_cell_angle_beta 48.532743
_cell_angle_gamma 90.000000
_cell_volume 3279.184817
_symmetry_space_group_name_H-M "C 2/M"
_symmetry_group_IT_number 12
_symmetry_cell_setting 'monoclinic'
loop_
_space_group_symop_operation_xyz
x,y,z
-x,y,-z
-x,-y,-z
x,-y,z
1/2+x,1/2+y,z
1/2-x,1/2+y,-z
1/2-x,1/2-y,-z
1/2+x,1/2-y,z
loop_
_atom_site_type_symbol
_atom_site_label
_atom_site_fract_x
_atom_site_fract_y
_atom_site_fract_z
Si Si1 0.398042 0.612426 0.515246
Si Si2 0.295875 0.114805 0.939949
Si Si3 0.119614 0.386206 0.955197
Si Si4 0.213991 0.272234 0.197803
Si Si5 0.705041 0.759673 0.606996
Si Si6 0.066456 0.114082 0.130353
Si Si7 0.998306 0.197449 0.682122
Si Si8 0.665098 0.614863 0.755382
O O1 0.500000 0.645819 0.500000
O O2 0.383734 0.500000 0.537212
O O3 0.286247 0.665749 0.594627
O O4 0.433955 0.631862 0.411800
O O5 0.320496 0.174871 0.854878
O O6 0.294460 0.000000 0.925303
O O7 0.369165 0.128206 0.965749
O O8 0.177520 0.148213 0.033416
O O9 0.144918 0.500000 0.926737
O O10 0.204744 0.314908 0.867714
O O11 0.000000 0.368448 0.000000
O O12 0.269336 0.346982 0.217204
O O13 0.103546 0.237818 0.297289
O O14 0.750000 0.750000 0.500000
O O15 0.579734 0.775735 0.667081
O O16 0.703422 0.666297 0.659387
O O17 0.050602 0.138837 0.222719
O O18 0.957446 0.146029 0.158955
O O19 0.070946 0.000000 0.120345
O O20 0.669479 0.500000 0.745746
#
# Coordination Sequence:
#
# PCOD9194716 Si02
#       8
#     8   8   8   8   8   8   8   8
#     4  10  20  36  60  87 115 144 185 241 297 356
#     4  10  21  38  57  82 116 160 212 256 302 357
#     4  10  23  39  56  80 116 163 213 259 305 354
#     4  12  23  35  61  86 123 165 203 253 302 362
#     4   9  20  39  62  85 114 149 190 240 297 363
#     4   9  18  34  56  80 110 149 200 254 296 341
#     4  10  20  34  57  85 113 151 196 244 296 349
#     4  10  22  38  58  90 123 153 194 250 306 358
#
# _framework density 19.517045
#
# number of rings (size 3 to 8) (size 9 to 14) (size 15 to 20)
#    0.000    2.000    1.250    1.875    1.750    4.500 
#    0.000    3.750    0.000    7.875    0.000    0.000 
#    0.000    0.000    0.000    0.000    0.000    0.000 
#
# Total GULP energy -178388.714203 kJ/mol
# GULP energy per Si atom -5574.647319 kJ/mol
# Density = 1.947262 g / cm^3
# Si number density = 19.517045 Si / 1000 Ang^3
#
#
#
# Elastic Constant Matrix: (Units=GPa)
#
#
# Indices 1 2 3 4 5 6 
#
# 1 126.2139 44.7761 22.4001 0.0000 -15.9590 0.0000
# 2 44.7761 76.7240 22.3745 0.0000 -6.2134 0.0000
# 3 22.4001 22.3745 56.4857 0.0000 -3.2309 0.0000
# 4 0.0000 0.0000 0.0000 28.4388 0.0000 2.1086
# 5 -15.9590 -6.2134 -3.2309 0.0000 28.9965 0.0000
# 6 0.0000 0.0000 0.0000 2.1086 0.0000 30.0105
#
#
#
# Elastic Compliance Matrix: (Units=1/GPa)
#
#
# Indices 1 2 3 4 5 6 
#
# 1 0.010728 -0.005345 -0.001877 0.000000 0.004550 0.000000
# 2 -0.005345 0.017585 -0.004829 0.000000 0.000288 0.000000
# 3 -0.001877 -0.004829 0.020372 0.000000 0.000202 0.000000
# 4 0.000000 0.000000 0.000000 0.035347 0.000000 -0.002484
# 5 0.004550 0.000288 0.000202 0.000000 0.037075 0.000000
# 6 0.000000 0.000000 0.000000 -0.002484 0.000000 0.033496
#
#
# Mechanical properties :
#
#
# Convention : Reuss Voigt Hill
#
# Bulk Modulus (GPa) = 40.67914 48.72500 44.70207
# Shear Modulus (GPa) = 26.75229 28.81402 27.78315
#
# Velocity S-wave (km/s) = 3.70633 3.84650 3.77707
# Velocity P-wave (km/s) = 6.26131 6.68932 6.47885
#
# Compressibility (1/GPa) = 0.02458262
#
# Stress axis : x y z
#
# Youngs Moduli (GPa) = 93.21749 56.86757 49.08605
#
# Poissons Ratio (x) = 0.30395 0.09212
# Poissons Ratio (y) = 0.49823 0.23706
# Poissons Ratio (z) = 0.17495 0.27464
#
# Static dielectric constant tensor:
#      x y z
#    x 1.746640 0.000000 -0.022300 
#    y 0.000000 1.686630 0.000000 
#    z -0.022300 0.000000 1.681030 
# 
# From -- ./inp_files/270683.got.cif
#   From: 2010.05.17/outbox.cif.g08.bks.cpg/sg12_136_cif.got.tgz:270683.got - 2010.06.03 13:09:07.
