data_PCOD9194943
_publ_section_title
;
Structure prediction by ZEFSAII (Michael W. Deem and Ramdas Pophale) SiO2 
 PCOD9194943
Probable space group: C 2/M
;
_chemical_formula_sum "Si O2"
_cell_formula_units_Z 58
_cell_length_a 24.465694
_cell_length_b 7.709802
_cell_length_c 22.329932
_cell_angle_alpha 90.000000
_cell_angle_beta 40.284016
_cell_angle_gamma 90.000000
_cell_volume 2723.381044
_symmetry_space_group_name_H-M "C 2/M"
_symmetry_group_IT_number 12
_symmetry_cell_setting 'monoclinic'
loop_
_space_group_symop_operation_xyz
x,y,z
-x,y,-z
-x,-y,-z
x,-y,z
1/2+x,1/2+y,z
1/2-x,1/2+y,-z
1/2-x,1/2-y,-z
1/2+x,1/2-y,z
loop_
_atom_site_type_symbol
_atom_site_label
_atom_site_fract_x
_atom_site_fract_y
_atom_site_fract_z
Si Si1 0.736978 0.797231 0.410983
Si Si2 0.123478 0.205678 0.613494
Si Si3 0.222945 0.801943 0.286927
Si Si4 0.129787 0.297542 0.927544
Si Si5 0.000000 0.000000 0.000000
Si Si6 0.457640 0.197249 0.593062
Si Si7 0.240281 0.707598 0.077849
Si Si8 0.053328 0.709412 0.268156
O O1 0.815115 0.728127 0.385344
O O2 0.657166 0.780359 0.522265
O O3 0.729435 0.710185 0.353034
O O4 0.750544 0.000000 0.387090
O O5 0.025773 0.244592 0.706940
O O6 0.135996 0.000000 0.599492
O O7 0.307914 0.753069 0.180763
O O8 0.142570 0.692703 0.333446
O O9 0.204571 0.000000 0.284942
O O10 0.102944 0.500000 0.944270
O O11 0.188130 0.282601 0.938233
O O12 0.056465 0.155018 0.986501
O O13 0.500000 0.282539 0.500000
O O14 0.471168 0.280141 0.645919
O O15 0.492058 0.000000 0.567433
O O16 0.242820 0.500000 0.083571
O O17 0.146419 0.771243 0.174087
O O18 0.250000 0.750000 0.000000
O O19 0.057845 0.500000 0.267608
#
# Coordination Sequence:
#
# PCOD9194943 Si02
#       8
#     8   8   8   8   2   8   8   8
#     4  10  21  37  59  83 123 175 219 261 318 388
#     4  10  21  37  57  87 123 165 217 271 320 379
#     4  11  23  38  62  93 127 167 210 269 328 388
#     4  11  25  47  73 106 139 175 230 287 354 429
#     4  12  26  48  80 102 138 184 214 286 354 434
#     4  10  20  34  58  91 127 167 211 254 310 388
#     4  11  23  44  71  99 135 181 227 288 355 422
#     4  10  21  37  60  90 127 167 211 261 326 394
#
# _framework density 21.297055
#
# number of rings (size 3 to 8) (size 9 to 14) (size 15 to 20)
#    0.000    1.517    2.069    2.690    1.931    4.690 
#    2.483    0.000    0.000    0.000    0.000    0.000 
#    0.000    0.000    0.000    0.000    0.000    0.000 
#
# Total GULP energy -161722.541433 kJ/mol
# GULP energy per Si atom -5576.639360 kJ/mol
# Density = 2.124858 g / cm^3
# Si number density = 21.297055 Si / 1000 Ang^3
#
#
#
# Elastic Constant Matrix: (Units=GPa)
#
#
# Indices 1 2 3 4 5 6 
#
# 1 115.2756 8.1079 35.3105 0.0006 -22.0034 0.0030
# 2 8.1079 78.7527 6.7972 0.0035 -10.2873 0.0303
# 3 35.3105 6.7972 41.2936 -0.0144 -10.2066 -0.0013
# 4 0.0006 0.0035 -0.0144 41.6513 0.0146 34.4104
# 5 -22.0034 -10.2873 -10.2066 0.0146 26.9791 -0.0045
# 6 0.0030 0.0303 -0.0013 34.4104 -0.0045 90.3132
#
#
#
# Elastic Compliance Matrix: (Units=1/GPa)
#
#
# Indices 1 2 3 4 5 6 
#
# 1 0.012854 0.000409 -0.009298 -0.000008 0.007121 0.000003
# 2 0.000409 0.013417 -0.001337 0.000000 0.004944 -0.000004
# 3 -0.009298 -0.001337 0.033522 0.000013 0.004589 -0.000004
# 4 -0.000008 0.000000 0.000013 0.035038 -0.000023 -0.013350
# 5 0.007121 0.004944 0.004589 -0.000023 0.046495 0.000009
# 6 0.000003 -0.000004 -0.000004 -0.013350 0.000009 0.016159
#
#
# Mechanical properties :
#
#
# Convention : Reuss Voigt Hill
#
# Bulk Modulus (GPa) = 25.41821 37.30588 31.36205
# Shear Modulus (GPa) = 26.17115 44.12913 35.15014
#
# Velocity S-wave (km/s) = 3.50932 4.55695 4.06700
# Velocity P-wave (km/s) = 5.32742 6.72626 6.06729
#
# Compressibility (1/GPa) = 0.03934187
#
# Stress axis : x y z
#
# Youngs Moduli (GPa) = 77.79908 74.53206 29.83090
#
# Poissons Ratio (x) = -0.03052 0.27738
# Poissons Ratio (y) = -0.03186 0.03987
# Poissons Ratio (z) = 0.72341 0.09962
#
# Static dielectric constant tensor:
#      x y z
#    x 1.768560 0.000000 -0.005320 
#    y 0.000000 1.796120 0.000000 
#    z -0.005320 0.000000 1.778440 
# 
# From -- ./inp_files/351392.got.cif
#   From: 2010.05.17/outbox.cif.g08.bks.cpg/sg12_176_cif.got.tgz:351392.got - 2010.06.03 13:09:07.
