data_PCOD9194990
_publ_section_title
;
Structure prediction by ZEFSAII (Michael W. Deem and Ramdas Pophale) SiO2 
 PCOD9194990
Probable space group: C 2/M
;
_chemical_formula_sum "Si O2"
_cell_formula_units_Z 40
_cell_length_a 18.079162
_cell_length_b 9.816628
_cell_length_c 24.657324
_cell_angle_alpha 90.000000
_cell_angle_beta 155.000241
_cell_angle_gamma 90.000000
_cell_volume 1849.400258
_symmetry_space_group_name_H-M "C 2/M"
_symmetry_group_IT_number 12
_symmetry_cell_setting 'monoclinic'
loop_
_space_group_symop_operation_xyz
x,y,z
-x,y,-z
-x,-y,-z
x,-y,z
1/2+x,1/2+y,z
1/2-x,1/2+y,-z
1/2-x,1/2-y,-z
1/2+x,1/2-y,z
loop_
_atom_site_type_symbol
_atom_site_label
_atom_site_fract_x
_atom_site_fract_y
_atom_site_fract_z
Si Si1 0.001645 0.149793 0.254929
Si Si2 0.656157 0.744312 0.066104
Si Si3 0.092225 0.153083 0.190036
Si Si4 0.000247 0.345348 0.654699
Si Si5 0.084433 0.842963 0.615525
O O1 0.794362 0.152809 0.131231
O O2 0.076072 0.266682 0.343656
O O3 0.030699 0.174407 0.210943
O O4 0.070511 0.000000 0.314067
O O5 0.433980 0.662964 0.042468
O O6 0.789652 0.656789 0.191816
O O7 0.500000 0.799032 0.000000
O O8 0.228142 0.271103 0.265989
O O9 0.170698 0.000000 0.239059
O O10 0.943787 0.500000 0.611138
O O11 0.981282 0.251353 0.589445
O O12 0.000000 0.840855 0.500000
O O13 0.095812 0.000000 0.641910
#
# Coordination Sequence:
#
# PCOD9194990 Si02
#       5
#     8   8   8   8   8
#     4   9  21  36  55  89 128 160 192 236 289 348
#     4  10  20  34  59  88 126 159 192 233 287 348
#     4  11  21  38  61  88 124 160 195 239 291 349
#     4  10  21  37  61  87 118 154 195 240 289 351
#     4  11  25  43  62  85 115 150 197 254 300 347
#
# _framework density 21.628633000000001
#
# number of rings (size 3 to 8) (size 9 to 14) (size 15 to 20)
#    1.200    0.600    2.000    2.400    0.000    4.400 
#    0.000    1.000    0.000    0.000    0.000    0.000 
#    0.000    0.000    0.000    0.000    0.000    0.000 
#
# Total GULP energy -111557.901379 kJ/mol
# GULP energy per Si atom -5577.895069 kJ/mol
# Density = 2.157940 g / cm^3
# Si number density = 21.628633 Si / 1000 Ang^3
#
#
#
# Elastic Constant Matrix: (Units=GPa)
#
#
# Indices 1 2 3 4 5 6 
#
# 1 116.4164 61.3900 35.1055 -0.0004 -19.0000 -0.0002
# 2 61.3900 172.9973 38.0665 0.0003 -26.2550 0.0003
# 3 35.1055 38.0665 83.2608 0.0011 -8.8476 0.0009
# 4 -0.0004 0.0003 0.0011 6.5932 0.0001 -17.7815
# 5 -19.0000 -26.2550 -8.8476 0.0001 39.9774 0.0002
# 6 -0.0002 0.0003 0.0009 -17.7815 0.0002 17.1906
#
#
#
# Elastic Compliance Matrix: (Units=1/GPa)
#
#
# Indices 1 2 3 4 5 6 
#
# 1 0.011595 -0.002973 -0.003227 -0.000001 0.002844 -0.000001
# 2 -0.002973 0.007757 -0.001948 0.000000 0.003251 0.000000
# 3 -0.003227 -0.001948 0.014299 0.000002 0.000352 0.000002
# 4 -0.000001 0.000000 0.000002 -0.084750 0.000001 -0.087663
# 5 0.002844 0.003251 0.000352 0.000001 0.028578 0.000000
# 6 -0.000001 0.000000 0.000002 -0.087663 0.000000 -0.032504
#
#
# Mechanical properties :
#
#
# Convention : Reuss Voigt Hill
#
# Bulk Modulus (GPa) = 57.61908 71.31095 64.46501
# Shear Modulus (GPa) = -151.77563 28.62640 -61.57461
#
# Velocity S-wave (km/s) = -8.38605 3.64200 -5.34143
# Velocity P-wave (km/s) = 8.18961 7.12234 2.85850
#
# Compressibility (1/GPa) = 0.01735536
#
# Stress axis : x y z
#
# Youngs Moduli (GPa) = 86.24472 128.91120 69.93447
#
# Poissons Ratio (x) = 0.38323 0.22571
# Poissons Ratio (y) = 0.25639 0.13621
# Poissons Ratio (z) = 0.27835 0.25109
#
# Static dielectric constant tensor:
#      x y z
#    x 1.779100 0.000000 0.016700 
#    y 0.000000 1.762250 0.000000 
#    z 0.016700 0.000000 1.807490 
# 
# From -- ./inp_files/314540.got.cif
#   From: 2010.05.17/outbox.cif.g08.bks.cpg/sg12_158_cif.got.tgz:314540.got - 2010.06.03 13:09:07.
