data_PCOD9194488
_publ_section_title
;
Structure prediction by ZEFSAII (Michael W. Deem and Ramdas Pophale) SiO2 
 PCOD9194488
Probable space group: C 2/M
;
_chemical_formula_sum "Si O2"
_cell_formula_units_Z 64
_cell_length_a 20.763454
_cell_length_b 7.948375
_cell_length_c 21.528375
_cell_angle_alpha 90.000000
_cell_angle_beta 49.496980
_cell_angle_gamma 90.000000
_cell_volume 2701.563387
_symmetry_space_group_name_H-M "C 2/M"
_symmetry_group_IT_number 12
_symmetry_cell_setting 'monoclinic'
loop_
_space_group_symop_operation_xyz
x,y,z
-x,y,-z
-x,-y,-z
x,-y,z
1/2+x,1/2+y,z
1/2-x,1/2+y,-z
1/2-x,1/2-y,-z
1/2+x,1/2-y,z
loop_
_atom_site_type_symbol
_atom_site_label
_atom_site_fract_x
_atom_site_fract_y
_atom_site_fract_z
Si Si1 0.336890 0.308472 0.476357
Si Si2 0.746249 0.801772 0.086438
Si Si3 0.487873 0.805886 0.680628
Si Si4 0.096150 0.798718 0.807294
Si Si5 0.597338 0.706057 0.943317
Si Si6 0.073592 0.297751 0.144467
Si Si7 0.241788 0.695138 0.353521
Si Si8 0.323417 0.305776 0.736190
O O1 0.353839 0.500000 0.449102
O O2 0.250000 0.250000 0.500000
O O3 0.416414 0.207374 0.401264
O O4 0.318029 0.289323 0.561092
O O5 0.840674 0.730386 0.040854
O O6 0.671393 0.732666 0.088273
O O7 0.707056 0.779340 0.180380
O O8 0.753881 0.000000 0.068277
O O9 0.470577 0.749335 0.762172
O O10 0.425136 0.702509 0.676438
O O11 0.460930 0.000000 0.694489
O O12 0.127848 0.742407 0.855326
O O13 0.161602 0.736047 0.713876
O O14 0.997304 0.760117 0.859690
O O15 0.103605 0.000000 0.802126
O O16 0.598295 0.500000 0.946652
O O17 0.500000 0.758950 0.000000
O O18 0.078361 0.500000 0.138023
O O19 0.244630 0.500000 0.371264
O O20 0.205985 0.710651 0.306663
O O21 0.296286 0.500000 0.751961
#
# Coordination Sequence:
#
# PCOD9194488 Si02
#       8
#     8   8   8   8   8   8   8   8
#     4  12  25  40  56  80 112 149 192 239 292 345
#     4   9  17  35  57  80 112 151 193 230 277 343
#     4  10  21  39  59  80 110 151 194 236 285 339
#     4  10  20  34  56  84 111 142 187 240 281 331
#     4   9  17  33  59  86 110 144 192 238 278 332
#     4   9  19  33  55  81 110 149 187 230 279 336
#     4  11  22  38  58  80 109 148 192 238 287 340
#     4  11  21  34  56  86 113 144 184 235 289 342
#
# _framework density 23.689986000000001
#
# number of rings (size 3 to 8) (size 9 to 14) (size 15 to 20)
#    0.000    1.875    1.250    4.500    0.000    6.000 
#    0.000    3.125    0.000    1.500    0.000    0.000 
#    0.000    0.000    0.000    0.000    0.000    0.000 
#
# Total GULP energy -178771.148997 kJ/mol
# GULP energy per Si atom -5586.598406 kJ/mol
# Density = 2.363607 g / cm^3
# Si number density = 23.689986 Si / 1000 Ang^3
#
#
#
# Elastic Constant Matrix: (Units=GPa)
#
#
# Indices 1 2 3 4 5 6 
#
# 1 156.4443 -4.2980 29.2832 -0.0001 -15.5317 0.0004
# 2 -4.2980 55.8036 3.4432 0.0002 -1.3672 0.0009
# 3 29.2832 3.4432 74.5067 0.0000 -20.3498 0.0000
# 4 -0.0001 0.0002 0.0000 15.3686 0.0000 -4.6252
# 5 -15.5317 -1.3672 -20.3498 0.0000 44.3707 0.0000
# 6 0.0004 0.0009 0.0000 -4.6252 0.0000 28.7598
#
#
#
# Elastic Compliance Matrix: (Units=1/GPa)
#
#
# Indices 1 2 3 4 5 6 
#
# 1 0.006999 0.000721 -0.002411 0.000000 0.001366 0.000000
# 2 0.000721 0.018047 -0.001025 0.000000 0.000338 -0.000001
# 3 -0.002411 -0.001025 0.016208 0.000000 0.006558 0.000000
# 4 0.000000 0.000000 0.000000 0.068377 0.000000 0.010997
# 5 0.001366 0.000338 0.006558 0.000000 0.026034 0.000000
# 6 0.000000 -0.000001 0.000000 0.010997 0.000000 0.036539
#
#
# Mechanical properties :
#
#
# Convention : Reuss Voigt Hill
#
# Bulk Modulus (GPa) = 27.91405 38.17904 33.04655
# Shear Modulus (GPa) = 26.37488 34.92157 30.64823
#
# Velocity S-wave (km/s) = 3.34029 3.84358 3.60074
# Velocity P-wave (km/s) = 5.16578 5.98736 5.59168
#
# Compressibility (1/GPa) = 0.03582425
#
# Stress axis : x y z
#
# Youngs Moduli (GPa) = 142.88201 55.41066 61.69937
#
# Poissons Ratio (x) = -0.03997 0.14875
# Poissons Ratio (y) = -0.10306 0.06324
# Poissons Ratio (z) = 0.34447 0.05680
#
# Static dielectric constant tensor:
#      x y z
#    x 2.017970 0.000000 -0.559100 
#    y 0.000000 1.843270 0.000010 
#    z -0.559100 0.000010 5.218120 
# 
# From -- ./inp_files/346068.got.cif
#   From: 2010.05.17/outbox.cif.g08.bks.cpg/sg12_174_cif.got.tgz:346068.got - 2010.06.03 13:09:07.
