data_PCOD9194454
_publ_section_title
;
Structure prediction by ZEFSAII (Michael W. Deem and Ramdas Pophale) SiO2 
 PCOD9194454
Probable space group: C 2/M
;
_chemical_formula_sum "Si O2"
_cell_formula_units_Z 40
_cell_length_a 8.794926
_cell_length_b 27.180220
_cell_length_c 16.331156
_cell_angle_alpha 90.000000
_cell_angle_beta 152.351202
_cell_angle_gamma 90.000000
_cell_volume 1811.621453
_symmetry_space_group_name_H-M "C 2/M"
_symmetry_group_IT_number 12
_symmetry_cell_setting 'monoclinic'
loop_
_space_group_symop_operation_xyz
x,y,z
-x,y,-z
-x,-y,-z
x,-y,z
1/2+x,1/2+y,z
1/2-x,1/2+y,-z
1/2-x,1/2-y,-z
1/2+x,1/2-y,z
loop_
_atom_site_type_symbol
_atom_site_label
_atom_site_fract_x
_atom_site_fract_y
_atom_site_fract_z
Si Si1 0.782730 0.793402 0.314859
Si Si2 0.239547 0.500000 0.692520
Si Si3 0.893867 0.906253 0.190918
Si Si4 0.605320 0.296761 0.811675
Si Si5 0.761104 0.098003 0.308237
Si Si6 0.605389 0.000000 0.297739
O O1 0.546287 0.746925 0.208835
O O2 0.986498 0.790486 0.328018
O O3 0.609592 0.847350 0.228056
O O4 0.000000 0.792656 0.500000
O O5 0.451029 0.450677 0.783645
O O6 0.000000 0.500000 0.500000
O O7 0.059772 0.500000 0.693211
O O8 0.998156 0.851790 0.212478
O O9 0.964616 0.910885 0.322027
O O10 0.500000 0.908663 0.000000
O O11 0.000000 0.294575 0.000000
O O12 0.000000 0.101023 0.500000
O O13 0.535339 0.050523 0.215814
O O14 0.000000 0.000000 0.500000
#
# Coordination Sequence:
#
# PCOD9194454 Si02
#       6
#     8   4   8   8   8   4
#     4  10  20  34  56  83 111 147 190 234 279 330
#     4  12  23  36  62  91 111 150 198 235 284 344
#     4  10  22  40  59  83 118 154 191 237 284 336
#     4  10  21  37  57  82 115 152 186 229 286 338
#     4   9  18  36  58  79 112 154 187 232 289 335
#     4  10  20  36  57  83 114 144 181 235 287 336
#
# _framework density 22.079668000000002
#
# number of rings (size 3 to 8) (size 9 to 14) (size 15 to 20)
#    0.000    2.000    0.000    4.500    0.000    2.400 
#    0.000    2.000    0.000    0.000    0.000    0.000 
#    0.000    0.000    0.000    0.000    0.000    0.000 
#
# Total GULP energy -111710.993752 kJ/mol
# GULP energy per Si atom -5585.549688 kJ/mol
# Density = 2.202941 g / cm^3
# Si number density = 22.079668 Si / 1000 Ang^3
#
#
#
# Elastic Constant Matrix: (Units=GPa)
#
#
# Indices 1 2 3 4 5 6 
#
# 1 95.3069 85.7106 3.5061 0.0000 1.8805 0.0000
# 2 85.7106 269.2286 13.4876 0.0000 33.1933 0.0000
# 3 3.5061 13.4876 36.3067 -0.0001 -9.8389 0.0000
# 4 0.0000 0.0000 -0.0001 20.7284 0.0000 8.0038
# 5 1.8805 33.1933 -9.8389 0.0000 27.4814 0.0000
# 6 0.0000 0.0000 0.0000 8.0038 0.0000 29.0286
#
#
#
# Elastic Compliance Matrix: (Units=1/GPa)
#
#
# Indices 1 2 3 4 5 6 
#
# 1 0.015640 -0.005987 0.002640 0.000000 0.007107 0.000000
# 2 -0.005987 0.007065 -0.004705 0.000000 -0.009809 0.000000
# 3 0.002640 -0.004705 0.033807 0.000000 0.017605 0.000000
# 4 0.000000 0.000000 0.000000 0.053991 0.000000 -0.014886
# 5 0.007107 -0.009809 0.017605 0.000000 0.054052 0.000000
# 6 0.000000 0.000000 0.000000 -0.014886 0.000000 0.038553
#
#
# Mechanical properties :
#
#
# Convention : Reuss Voigt Hill
#
# Bulk Modulus (GPa) = 24.74777 67.36120 46.05449
# Shear Modulus (GPa) = 21.48854 35.32355 28.40604
#
# Velocity S-wave (km/s) = 3.12304 4.00412 3.59071
# Velocity P-wave (km/s) = 4.92314 7.20776 6.17207
#
# Compressibility (1/GPa) = 0.04040767
#
# Stress axis : x y z
#
# Youngs Moduli (GPa) = 63.93999 141.53376 29.57974
#
# Poissons Ratio (x) = 0.84743 -0.07809
# Poissons Ratio (y) = 0.38284 0.13916
# Poissons Ratio (z) = -0.16880 0.66586
#
# Static dielectric constant tensor:
#      x y z
#    x 1.766570 0.000000 -0.045000 
#    y 0.000000 1.863630 0.000000 
#    z -0.045000 0.000000 1.874310 
# 
# From -- ./inp_files/259788.got.cif
#   From: 2010.05.17/outbox.cif.g08.bks.cpg/sg12_130_cif.got.tgz:259788.got - 2010.06.03 13:09:07.
