data_PCOD9194517
_publ_section_title
;
Structure prediction by ZEFSAII (Michael W. Deem and Ramdas Pophale) SiO2 
 PCOD9194517
Probable space group: C 2/M
;
_chemical_formula_sum "Si O2"
_cell_formula_units_Z 56
_cell_length_a 21.030742
_cell_length_b 8.018514
_cell_length_c 30.832748
_cell_angle_alpha 90.000000
_cell_angle_beta 150.641740
_cell_angle_gamma 90.000000
_cell_volume 2549.148315
_symmetry_space_group_name_H-M "C 2/M"
_symmetry_group_IT_number 12
_symmetry_cell_setting 'monoclinic'
loop_
_space_group_symop_operation_xyz
x,y,z
-x,y,-z
-x,-y,-z
x,-y,z
1/2+x,1/2+y,z
1/2-x,1/2+y,-z
1/2-x,1/2-y,-z
1/2+x,1/2-y,z
loop_
_atom_site_type_symbol
_atom_site_label
_atom_site_fract_x
_atom_site_fract_y
_atom_site_fract_z
Si Si1 0.385035 0.802045 0.794796
Si Si2 0.607373 0.298598 0.099816
Si Si3 0.097596 0.193511 0.461653
Si Si4 0.896332 0.310070 0.403918
Si Si5 0.125768 0.298109 0.380098
Si Si6 0.156350 0.297332 0.815566
Si Si7 0.643054 0.798882 0.902249
O O1 0.403617 0.748011 0.856119
O O2 0.244637 0.761160 0.690812
O O3 0.503072 0.735657 0.835278
O O4 0.395253 0.000000 0.801121
O O5 0.603627 0.500000 0.096773
O O6 0.746071 0.238311 0.163452
O O7 0.500000 0.243297 0.000000
O O8 0.114579 0.215298 0.420466
O O9 0.239712 0.246934 0.563464
O O10 0.979856 0.299768 0.409457
O O11 0.073521 0.000000 0.457718
O O12 0.875865 0.500000 0.405675
O O13 0.000000 0.231955 0.500000
O O14 0.130641 0.500000 0.388501
O O15 0.993650 0.252409 0.278409
O O16 0.162327 0.500000 0.817330
O O17 0.192348 0.239385 0.884802
O O18 0.634079 0.000000 0.893938
O O19 0.750000 0.750000 0.000000
#
# Coordination Sequence:
#
# PCOD9194517 Si02
#       7
#     8   8   8   8   8   8   8
#     4  11  24  40  63  93 126 162 202 257 317 369
#     4  10  20  36  62  91 121 163 207 248 300 367
#     4  10  20  34  56  84 115 150 192 243 297 349
#     4  11  25  42  60  83 117 162 209 254 305 370
#     4   9  18  33  56  82 112 152 192 238 292 349
#     4   9  18  34  57  82 109 149 199 240 282 347
#     4  10  22  40  62  88 120 156 198 245 299 360
#
# _framework density 21.968122000000001
#
# number of rings (size 3 to 8) (size 9 to 14) (size 15 to 20)
#    0.000    2.000    0.000    3.000    2.000    5.429 
#    0.000    1.429    0.000    0.000    0.000    0.000 
#    0.000    0.000    0.000    0.000    0.000    0.000 
#
# Total GULP energy -156240.490977 kJ/mol
# GULP energy per Si atom -5580.017535 kJ/mol
# Density = 2.191812 g / cm^3
# Si number density = 21.968122 Si / 1000 Ang^3
#
#
#
# Elastic Constant Matrix: (Units=GPa)
#
#
# Indices 1 2 3 4 5 6 
#
# 1 66.1274 3.7066 -6.5668 0.0000 9.6748 0.0003
# 2 3.7066 21.7462 5.9403 -0.0001 2.3160 0.0012
# 3 -6.5668 5.9403 71.2179 0.0001 7.0974 -0.0001
# 4 0.0000 -0.0001 0.0001 13.9651 0.0000 -2.2990
# 5 9.6748 2.3160 7.0974 0.0000 38.2912 0.0000
# 6 0.0003 0.0012 -0.0001 -2.2990 0.0000 17.4042
#
#
#
# Elastic Compliance Matrix: (Units=1/GPa)
#
#
# Indices 1 2 3 4 5 6 
#
# 1 0.016127 -0.002880 0.002156 0.000000 -0.004300 0.000000
# 2 -0.002880 0.047747 -0.004109 0.000000 -0.001399 -0.000003
# 3 0.002156 -0.004109 0.014887 0.000000 -0.003056 0.000000
# 4 0.000000 0.000000 0.000000 0.073199 0.000000 0.009669
# 5 -0.004300 -0.001399 -0.003056 0.000000 0.027853 0.000000
# 6 0.000000 -0.000003 0.000000 0.009669 0.000000 0.058735
#
#
# Mechanical properties :
#
#
# Convention : Reuss Voigt Hill
#
# Bulk Modulus (GPa) = 14.47256 18.36128 16.41692
# Shear Modulus (GPa) = 18.43347 24.33286 21.38316
#
# Velocity S-wave (km/s) = 2.89987 3.33174 3.12328
# Velocity P-wave (km/s) = 4.22073 4.81424 4.52722
#
# Compressibility (1/GPa) = 0.06909626
#
# Stress axis : x y z
#
# Youngs Moduli (GPa) = 62.00806 20.94359 67.17080
#
# Poissons Ratio (x) = 0.06031 -0.14480
# Poissons Ratio (y) = 0.17857 0.27599
# Poissons Ratio (z) = -0.13367 0.08605
#
# Static dielectric constant tensor:
#      x y z
#    x 1.821550 0.000000 0.003420 
#    y 0.000000 1.798580 0.000000 
#    z 0.003420 0.000000 1.883930 
# 
# From -- ./inp_files/380798.got.cif
#   From: 2010.05.17/outbox.cif.g08.bks.cpg/sg12_191_cif.got.tgz:380798.got - 2010.06.03 13:09:07.
