data_PCOD9194771
_publ_section_title
;
Structure prediction by ZEFSAII (Michael W. Deem and Ramdas Pophale) SiO2 
 PCOD9194771
Probable space group: C 2/M
;
_chemical_formula_sum "Si O2"
_cell_formula_units_Z 48
_cell_length_a 14.159010
_cell_length_b 27.838193
_cell_length_c 7.976285
_cell_angle_alpha 90.000000
_cell_angle_beta 141.365585
_cell_angle_gamma 90.000000
_cell_volume 1962.917062
_symmetry_space_group_name_H-M "C 2/M"
_symmetry_group_IT_number 12
_symmetry_cell_setting 'monoclinic'
loop_
_space_group_symop_operation_xyz
x,y,z
-x,y,-z
-x,-y,-z
x,-y,z
1/2+x,1/2+y,z
1/2-x,1/2+y,-z
1/2-x,1/2-y,-z
1/2+x,1/2-y,z
loop_
_atom_site_type_symbol
_atom_site_label
_atom_site_fract_x
_atom_site_fract_y
_atom_site_fract_z
Si Si1 0.182757 0.551894 0.107054
Si Si2 0.340368 0.555730 0.953883
Si Si3 0.532368 0.194881 0.856308
Si Si4 0.360388 0.724365 0.435875
Si Si5 0.588315 0.620256 0.441942
Si Si6 0.563272 0.905986 0.411411
O O1 0.219497 0.500000 0.229704
O O2 0.252232 0.595615 0.303456
O O3 0.265259 0.554263 0.037575
O O4 0.007605 0.559944 0.826277
O O5 0.354394 0.500000 0.921661
O O6 0.239086 0.587059 0.686263
O O7 0.492740 0.585016 0.194760
O O8 0.400577 0.231238 0.612424
O O9 0.509594 0.146740 0.715705
O O10 0.500000 0.180067 0.000000
O O11 0.701766 0.218553 0.111527
O O12 0.500000 0.728377 0.500000
O O13 0.385321 0.674950 0.572241
O O14 0.500000 0.622894 0.500000
O O15 0.500000 0.924897 0.500000
#
# Coordination Sequence:
#
# PCOD9194771 Si02
#       6
#     8   8   8   8   8   8
#     4   9  15  28  50  81 120 155 193 250 300 349
#     4   9  17  28  50  87 122 155 197 252 302 345
#     4  12  26  44  63  92 125 162 202 253 315 370
#     4  11  24  42  68  93 121 159 207 255 304 365
#     4   9  17  30  52  85 120 151 195 245 303 352
#     4  10  20  34  57  87 121 159 205 248 298 357
#
# _framework density 24.453402000000001
#
# number of rings (size 3 to 8) (size 9 to 14) (size 15 to 20)
#    0.000    2.000    1.667    2.500    4.667    4.000 
#    0.000    0.000    0.000    2.000    0.000    1.167 
#    0.000    0.000    0.000    0.000    0.000    0.000 
#
# Total GULP energy -134061.045657 kJ/mol
# GULP energy per Si atom -5585.876902 kJ/mol
# Density = 2.439775 g / cm^3
# Si number density = 24.453402 Si / 1000 Ang^3
#
#
#
# Elastic Constant Matrix: (Units=GPa)
#
#
# Indices 1 2 3 4 5 6 
#
# 1 62.0591 -25.9991 9.9888 0.0000 7.0589 0.0000
# 2 -25.9991 104.2121 47.0197 0.0000 2.6374 0.0000
# 3 9.9888 47.0197 143.8115 0.0000 18.3728 0.0000
# 4 0.0000 0.0000 0.0000 43.4015 0.0000 3.5309
# 5 7.0589 2.6374 18.3728 0.0000 35.5310 0.0000
# 6 0.0000 0.0000 0.0000 3.5309 0.0000 7.8286
#
#
#
# Elastic Compliance Matrix: (Units=1/GPa)
#
#
# Indices 1 2 3 4 5 6 
#
# 1 0.019583 0.006346 -0.003081 0.000000 -0.002768 0.000000
# 2 0.006346 0.013356 -0.004840 0.000000 0.000250 0.000000
# 3 -0.003081 -0.004840 0.009236 0.000000 -0.003804 0.000000
# 4 0.000000 0.000000 0.000000 0.023918 0.000000 -0.010788
# 5 -0.002768 0.000250 -0.003804 0.000000 0.030643 0.000000
# 6 0.000000 0.000000 0.000000 -0.010788 0.000000 0.132602
#
#
# Mechanical properties :
#
#
# Convention : Reuss Voigt Hill
#
# Bulk Modulus (GPa) = 25.62442 41.34462 33.48452
# Shear Modulus (GPa) = 20.36679 35.95710 28.16194
#
# Velocity S-wave (km/s) = 2.88910 3.83878 3.39729
# Velocity P-wave (km/s) = 4.65089 6.04918 5.39552
#
# Compressibility (1/GPa) = 0.03902528
#
# Stress axis : x y z
#
# Youngs Moduli (GPa) = 51.06443 74.87095 108.27252
#
# Poissons Ratio (x) = -0.47513 0.33363
# Poissons Ratio (y) = -0.32405 0.52400
# Poissons Ratio (z) = 0.15735 0.36235
#
# Static dielectric constant tensor:
#      x y z
#    x 2.065450 0.000000 0.008330 
#    y 0.000000 1.866730 0.000000 
#    z 0.008330 0.000000 1.917130 
# 
# From -- ./inp_files/80822.got.cif
#   From: 2010.05.17/outbox.cif.g08.bks.cpg/sg12_41_cif.got.tgz:80822.got - 2010.06.03 13:09:07.
