data_PCOD9194655
_publ_section_title
;
Structure prediction by ZEFSAII (Michael W. Deem and Ramdas Pophale) SiO2 
 PCOD9194655
Probable space group: C 2/M
;
_chemical_formula_sum "Si O2"
_cell_formula_units_Z 44
_cell_length_a 17.333159
_cell_length_b 14.826615
_cell_length_c 11.082171
_cell_angle_alpha 90.000000
_cell_angle_beta 135.274003
_cell_angle_gamma 90.000000
_cell_volume 2004.207624
_symmetry_space_group_name_H-M "C 2/M"
_symmetry_group_IT_number 12
_symmetry_cell_setting 'monoclinic'
loop_
_space_group_symop_operation_xyz
x,y,z
-x,y,-z
-x,-y,-z
x,-y,z
1/2+x,1/2+y,z
1/2-x,1/2+y,-z
1/2-x,1/2-y,-z
1/2+x,1/2-y,z
loop_
_atom_site_type_symbol
_atom_site_label
_atom_site_fract_x
_atom_site_fract_y
_atom_site_fract_z
Si Si1 0.500000 0.346094 0.000000
Si Si2 0.283961 0.800276 0.914668
Si Si3 0.284544 0.000000 0.975473
Si Si4 0.045942 0.500000 0.221816
Si Si5 0.635482 0.500000 0.046542
Si Si6 0.659823 0.000000 0.603738
Si Si7 0.451161 0.803400 0.784661
Si Si8 0.888264 0.299474 0.435367
O O1 0.562392 0.411150 0.975810
O O2 0.578522 0.280930 0.165006
O O3 0.215367 0.752331 0.733292
O O4 0.251976 0.905598 0.880032
O O5 0.250000 0.750000 0.000000
O O6 0.416136 0.797316 0.066471
O O7 0.417979 0.000000 0.120628
O O8 0.222916 0.000000 0.036150
O O9 0.073909 0.404034 0.192550
O O10 0.113682 0.500000 0.419278
O O11 0.709419 0.500000 0.248775
O O12 0.622693 0.904682 0.617419
O O13 0.403419 0.796132 0.596845
O O14 0.000000 0.263568 0.500000
#
# Coordination Sequence:
#
# PCOD9194655 Si02
#       8
#     4   8   4   4   4   4   8   8
#     4  11  24  43  58  80 120 173 210 235 276 372
#     4  11  20  36  60  90 123 156 194 251 315 358
#     4  10  21  37  61  92 124 149 198 254 312 364
#     4   8  20  36  62  97 117 144 189 261 322 348
#     4  11  24  37  60  82 114 169 211 242 288 347
#     4  10  20  34  56  94 121 146 192 255 310 348
#     4  10  21  39  60  87 124 157 201 246 298 358
#     4  11  21  33  60  94 123 150 194 251 313 359
#
# _framework density 21.953813
#
# number of rings (size 3 to 8) (size 9 to 14) (size 15 to 20)
#    0.000    1.636    1.818    3.545    5.091    0.364 
#    0.000   10.455    0.000    2.182    0.000    0.000 
#    0.000    0.000    0.000    0.000    0.000    0.000 
#
# Total GULP energy -122844.056453 kJ/mol
# GULP energy per Si atom -5583.820748 kJ/mol
# Density = 2.190384 g / cm^3
# Si number density = 21.953813 Si / 1000 Ang^3
#
#
#
# Elastic Constant Matrix: (Units=GPa)
#
#
# Indices 1 2 3 4 5 6 
#
# 1 52.7984 30.7525 22.9805 0.0000 -0.2903 0.0000
# 2 30.7525 187.2848 69.2402 0.0000 -3.9580 0.0000
# 3 22.9805 69.2402 142.8485 0.0000 -5.4901 0.0000
# 4 0.0000 0.0000 0.0000 34.5353 0.0000 -0.0740
# 5 -0.2903 -3.9580 -5.4901 0.0000 30.0671 0.0000
# 6 0.0000 0.0000 0.0000 -0.0740 0.0000 2.0339
#
#
#
# Elastic Compliance Matrix: (Units=1/GPa)
#
#
# Indices 1 2 3 4 5 6 
#
# 1 0.021469 -0.002744 -0.002145 0.000000 -0.000545 0.000000
# 2 -0.002744 0.006858 -0.002869 0.000000 0.000352 0.000000
# 3 -0.002145 -0.002869 0.008783 0.000000 0.001205 0.000000
# 4 0.000000 0.000000 0.000000 0.028958 0.000000 0.001054
# 5 -0.000545 0.000352 0.001205 0.000000 0.033520 0.000000
# 6 0.000000 0.000000 0.000000 0.001054 0.000000 0.491716
#
#
# Mechanical properties :
#
#
# Convention : Reuss Voigt Hill
#
# Bulk Modulus (GPa) = 46.30978 69.87534 58.09256
# Shear Modulus (GPa) = 8.14309 30.65781 19.40045
#
# Velocity S-wave (km/s) = 1.92802 3.74099 2.97592
# Velocity P-wave (km/s) = 5.10845 7.11038 6.19087
#
# Compressibility (1/GPa) = 0.02159371
#
# Stress axis : x y z
#
# Youngs Moduli (GPa) = 46.57964 145.80988 113.86192
#
# Poissons Ratio (x) = 0.40007 0.24420
# Poissons Ratio (y) = 0.12780 0.32671
# Poissons Ratio (z) = 0.09990 0.41838
#
# Static dielectric constant tensor:
#      x y z
#    x 1.908270 0.000000 -0.016580 
#    y 0.000000 1.859080 0.000000 
#    z -0.016580 0.000000 1.779930 
# 
# From -- ./inp_files/167464.got.cif
#   From: 2010.05.17/outbox.cif.g08.bks.cpg/sg12_84_cif.got.tgz:167464.got - 2010.06.03 13:09:07.
