data_PCOD9194462
_publ_section_title
;
Structure prediction by ZEFSAII (Michael W. Deem and Ramdas Pophale) SiO2 
 PCOD9194462
Probable space group: C 2/M
;
_chemical_formula_sum "Si O2"
_cell_formula_units_Z 56
_cell_length_a 30.519763
_cell_length_b 7.747150
_cell_length_c 11.762440
_cell_angle_alpha 90.000000
_cell_angle_beta 113.203350
_cell_angle_gamma 90.000000
_cell_volume 2556.166406
_symmetry_space_group_name_H-M "C 2/M"
_symmetry_group_IT_number 12
_symmetry_cell_setting 'monoclinic'
loop_
_space_group_symop_operation_xyz
x,y,z
-x,y,-z
-x,-y,-z
x,-y,z
1/2+x,1/2+y,z
1/2-x,1/2+y,-z
1/2-x,1/2-y,-z
1/2+x,1/2-y,z
loop_
_atom_site_type_symbol
_atom_site_label
_atom_site_fract_x
_atom_site_fract_y
_atom_site_fract_z
Si Si1 0.574858 0.799795 0.796264
Si Si2 0.946209 0.800661 0.467131
Si Si3 0.487304 0.211994 0.859879
Si Si4 0.325778 0.297954 0.022486
Si Si5 0.103999 0.698555 0.358990
Si Si6 0.268448 0.789866 0.190589
Si Si7 0.704897 0.791920 0.530740
O O1 0.580530 0.710001 0.680479
O O2 0.528805 0.731714 0.815952
O O3 0.622395 0.785511 0.919720
O O4 0.566500 0.000000 0.761616
O O5 0.919614 0.702379 0.539914
O O6 0.000000 0.735564 0.500000
O O7 0.949790 0.000000 0.506873
O O8 0.435828 0.274430 0.765083
O O9 0.487176 0.000000 0.856684
O O10 0.500000 0.264413 0.000000
O O11 0.332866 0.500000 0.009176
O O12 0.301423 0.272144 0.121064
O O13 0.285771 0.233326 0.893160
O O14 0.110526 0.500000 0.329305
O O15 0.156166 0.778161 0.426063
O O16 0.286543 0.730724 0.331576
O O17 0.269011 0.000000 0.187913
O O18 0.750000 0.750000 0.500000
O O19 0.700176 0.000000 0.533306
#
# Coordination Sequence:
#
# PCOD9194462 Si02
#       7
#     8   8   8   8   8   8   8
#     4  11  21  34  56  83 113 149 187 227 275 337
#     4  11  22  35  56  86 119 148 182 232 285 338
#     4   9  19  35  54  78 109 145 187 231 272 325
#     4  10  20  34  56  83 114 146 181 233 287 338
#     4  10  20  37  60  84 111 148 192 236 283 335
#     4   9  19  37  56  80 113 148 187 232 286 342
#     4  10  22  38  58  82 110 147 191 238 283 335
#
# _framework density 21.907806999999998
#
# number of rings (size 3 to 8) (size 9 to 14) (size 15 to 20)
#    0.000    2.000    1.429    2.143    0.000    4.571 
#    0.000    1.429    0.000    3.857    0.000    0.000 
#    0.000    0.000    0.000    0.000    0.000    0.000 
#
# Total GULP energy -156460.960840 kJ/mol
# GULP energy per Si atom -5587.891459 kJ/mol
# Density = 2.185794 g / cm^3
# Si number density = 21.907807 Si / 1000 Ang^3
#
#
#
# Elastic Constant Matrix: (Units=GPa)
#
#
# Indices 1 2 3 4 5 6 
#
# 1 93.4884 -4.9384 58.2257 0.0000 37.8556 0.0000
# 2 -4.9384 37.4710 1.9924 0.0000 4.5767 0.0000
# 3 58.2257 1.9924 157.2320 0.0000 28.8720 0.0000
# 4 0.0000 0.0000 0.0000 10.3708 0.0000 8.6370
# 5 37.8556 4.5767 28.8720 0.0000 40.0209 0.0000
# 6 0.0000 0.0000 0.0000 8.6370 0.0000 1.1920
#
#
#
# Elastic Compliance Matrix: (Units=1/GPa)
#
#
# Indices 1 2 3 4 5 6 
#
# 1 0.020621 0.005008 -0.004626 0.000000 -0.016741 0.000000
# 2 0.005008 0.028291 -0.000864 0.000000 -0.007350 0.000000
# 3 -0.004626 -0.000864 0.008371 0.000000 -0.001565 0.000000
# 4 0.000000 0.000000 0.000000 -0.019153 0.000000 0.138779
# 5 -0.016741 -0.007350 -0.001565 0.000000 0.042791 0.000000
# 6 0.000000 0.000000 0.000000 0.138779 0.000000 -0.166638
#
#
# Mechanical properties :
#
#
# Convention : Reuss Voigt Hill
#
# Bulk Modulus (GPa) = 17.75536 44.30564 31.03050
# Shear Modulus (GPa) = -75.77937 25.84419 -24.96759
#
# Velocity S-wave (km/s) = -5.88772 3.43837 -3.37956
# Velocity P-wave (km/s) = 6.17237 6.00257 1.01669
#
# Compressibility (1/GPa) = 0.05632103
#
# Stress axis : x y z
#
# Youngs Moduli (GPa) = 48.49524 35.34702 119.45547
#
# Poissons Ratio (x) = -0.17703 0.55255
# Poissons Ratio (y) = -0.24288 0.10316
# Poissons Ratio (z) = 0.22432 0.03052
#
# Static dielectric constant tensor:
#      x y z
#    x 1.770460 0.000000 0.045330 
#    y 0.000000 1.800730 0.000000 
#    z 0.045330 0.000000 1.803850 
# 
# From -- ./inp_files/187702.got.cif
#   From: 2010.05.17/outbox.cif.g08.bks.cpg/sg12_94_cif.got.tgz:187702.got - 2010.06.03 13:09:07.
