data_PCOD9194395
_publ_section_title
;
Structure prediction by ZEFSAII (Michael W. Deem and Ramdas Pophale) SiO2 
 PCOD9194395
Probable space group: C 2/M
;
_chemical_formula_sum "Si O2"
_cell_formula_units_Z 44
_cell_length_a 16.213271
_cell_length_b 15.139984
_cell_length_c 7.996422
_cell_angle_alpha 90.000000
_cell_angle_beta 80.248483
_cell_angle_gamma 90.000000
_cell_volume 1934.510626
_symmetry_space_group_name_H-M "C 2/M"
_symmetry_group_IT_number 12
_symmetry_cell_setting 'monoclinic'
loop_
_space_group_symop_operation_xyz
x,y,z
-x,y,-z
-x,-y,-z
x,-y,z
1/2+x,1/2+y,z
1/2-x,1/2+y,-z
1/2-x,1/2-y,-z
1/2+x,1/2-y,z
loop_
_atom_site_type_symbol
_atom_site_label
_atom_site_fract_x
_atom_site_fract_y
_atom_site_fract_z
Si Si1 0.500000 0.648671 0.500000
Si Si2 0.560117 0.102474 0.132774
Si Si3 0.756377 0.097961 0.774168
Si Si4 0.604356 0.902225 0.614205
Si Si5 0.140177 0.266251 0.317886
Si Si6 0.362022 0.500000 0.967908
Si Si7 0.955211 0.000000 0.278333
O O1 0.556072 0.708268 0.362466
O O2 0.446463 0.584919 0.399442
O O3 0.492942 0.106426 0.308897
O O4 0.631746 0.171120 0.158811
O O5 0.586880 0.000000 0.105971
O O6 0.500000 0.127151 0.000000
O O7 0.658058 0.100370 0.768712
O O8 0.789966 0.191365 0.701495
O O9 0.781445 0.000000 0.687030
O O10 0.802834 0.082116 0.935355
O O11 0.640219 0.829793 0.478006
O O12 0.617465 0.000000 0.536912
O O13 0.448792 0.500000 0.829018
O O14 0.392039 0.500000 0.146645
#
# Coordination Sequence:
#
# PCOD9194395 Si02
#       7
#     4   8   8   8   8   4   4
#     4  11  20  32  53  86 118 142 191 240 277 326
#     4  10  22  39  60  84 111 149 196 246 284 332
#     4   9  20  37  58  84 118 153 185 233 286 346
#     4  10  20  38  61  80 115 154 192 237 290 337
#     4  12  20  35  58  90 113 148 198 234 287 339
#     4   9  18  36  56  80 104 160 194 221 289 334
#     4  10  20  34  56  78 118 154 189 235 274 346
#
# _framework density 22.744769999999999
#
# number of rings (size 3 to 8) (size 9 to 14) (size 15 to 20)
#    0.545    1.273    3.636    1.091    1.273    2.909 
#    0.000    0.909    4.000    0.000    0.000    0.000 
#    0.000    0.000    0.000    0.000    0.000    0.000 
#
# Total GULP energy -122648.372396 kJ/mol
# GULP energy per Si atom -5574.926018 kJ/mol
# Density = 2.269300 g / cm^3
# Si number density = 22.744770 Si / 1000 Ang^3
#
#
#
# Elastic Constant Matrix: (Units=GPa)
#
#
# Indices 1 2 3 4 5 6 
#
# 1 71.7293 38.0433 3.8309 0.0000 16.2270 0.0000
# 2 38.0433 149.6057 35.3900 0.0000 4.2069 0.0000
# 3 3.8309 35.3900 87.3806 0.0000 24.1271 0.0000
# 4 0.0000 0.0000 0.0000 7.6693 0.0000 -2.3219
# 5 16.2270 4.2069 24.1271 0.0000 28.4318 0.0000
# 6 0.0000 0.0000 0.0000 -2.3219 0.0000 18.3380
#
#
#
# Elastic Compliance Matrix: (Units=1/GPa)
#
#
# Indices 1 2 3 4 5 6 
#
# 1 0.020485 -0.006178 0.005981 0.000000 -0.015853 0.000000
# 2 -0.006178 0.009334 -0.005357 0.000000 0.006691 0.000000
# 3 0.005981 -0.005357 0.018383 0.000000 -0.018221 0.000000
# 4 0.000000 0.000000 0.000000 0.135587 0.000000 0.017168
# 5 -0.015853 0.006691 -0.018221 0.000000 0.058692 0.000000
# 6 0.000000 0.000000 0.000000 0.017168 0.000000 0.056705
#
#
# Mechanical properties :
#
#
# Convention : Reuss Voigt Hill
#
# Bulk Modulus (GPa) = 26.95851 51.47156 39.21503
# Shear Modulus (GPa) = 15.49623 26.31792 20.90707
#
# Velocity S-wave (km/s) = 2.61302 3.40530 3.03513
# Velocity P-wave (km/s) = 4.58063 6.17581 5.43704
#
# Compressibility (1/GPa) = 0.03709404
#
# Stress axis : x y z
#
# Youngs Moduli (GPa) = 48.81619 107.13030 54.39923
#
# Poissons Ratio (x) = 0.66188 -0.32539
# Poissons Ratio (y) = 0.30160 0.29143
# Poissons Ratio (z) = -0.29199 0.57391
#
# Static dielectric constant tensor:
#      x y z
#    x 1.848230 0.000000 -0.025460 
#    y 0.000000 1.838450 0.000000 
#    z -0.025460 0.000000 1.910780 
# 
# From -- ./inp_files/85236.got.cif
#   From: 2010.05.17/outbox.cif.g08.bks.cpg/sg12_43_cif.got.tgz:85236.got - 2010.06.03 13:09:07.
