data_PCOD9194177
_publ_section_title
;
Structure prediction by ZEFSAII (Michael W. Deem and Ramdas Pophale) SiO2 
 PCOD9194177
Probable space group: C 2/M
;
_chemical_formula_sum "Si O2"
_cell_formula_units_Z 48
_cell_length_a 21.513457
_cell_length_b 12.985475
_cell_length_c 15.486856
_cell_angle_alpha 90.000000
_cell_angle_beta 32.879930
_cell_angle_gamma 90.000000
_cell_volume 2348.742425
_symmetry_space_group_name_H-M "C 2/M"
_symmetry_group_IT_number 12
_symmetry_cell_setting 'monoclinic'
loop_
_space_group_symop_operation_xyz
x,y,z
-x,y,-z
-x,-y,-z
x,-y,z
1/2+x,1/2+y,z
1/2-x,1/2+y,-z
1/2-x,1/2-y,-z
1/2+x,1/2-y,z
loop_
_atom_site_type_symbol
_atom_site_label
_atom_site_fract_x
_atom_site_fract_y
_atom_site_fract_z
Si Si1 0.379659 0.166848 0.181294
Si Si2 0.876208 0.342178 0.679484
Si Si3 0.704358 0.612082 0.236776
Si Si4 0.086704 0.618614 0.662743
Si Si5 0.843768 0.337389 0.908326
Si Si6 0.715722 0.384149 0.708265
O O1 0.278392 0.128351 0.237329
O O2 0.369995 0.129265 0.290365
O O3 0.372810 0.291114 0.191680
O O4 0.500000 0.133651 0.000000
O O5 0.869082 0.216304 0.689561
O O6 0.855694 0.384505 0.799076
O O7 0.779753 0.377983 0.725453
O O8 0.000000 0.372479 0.500000
O O9 0.646060 0.500000 0.307502
O O10 0.792354 0.609885 0.053190
O O11 0.048113 0.500000 0.694563
O O12 0.186779 0.638509 0.477539
O O13 0.975186 0.689522 0.778614
O O14 0.750000 0.250000 0.000000
O O15 0.671899 0.500000 0.745115
#
# Coordination Sequence:
#
# PCOD9194177 Si02
#       6
#     8   8   8   8   8   8
#     4  11  22  37  59  82 112 143 182 233 278 324
#     4  10  20  37  58  81 111 145 182 225 271 323
#     4  10  21  36  56  84 113 143 181 225 274 327
#     4  11  21  36  61  85 109 145 185 227 274 326
#     4  10  20  34  55  82 115 146 177 220 272 321
#     4  10  23  39  57  81 109 147 187 227 275 326
#
# _framework density 20.436468999999999
#
# number of rings (size 3 to 8) (size 9 to 14) (size 15 to 20)
#    0.000    1.667    3.333    1.500    0.000    3.000 
#    0.000    0.000    0.000    1.000    0.000    0.000 
#    0.000    0.000    0.000    0.000    0.000    0.000 
#
# Total GULP energy -133877.731394 kJ/mol
# GULP energy per Si atom -5578.238808 kJ/mol
# Density = 2.038995 g / cm^3
# Si number density = 20.436469 Si / 1000 Ang^3
#
#
#
# Elastic Constant Matrix: (Units=GPa)
#
#
# Indices 1 2 3 4 5 6 
#
# 1 105.8819 2.4735 32.7900 0.0000 37.5539 0.0000
# 2 2.4735 104.4592 5.7619 0.0000 -2.3565 0.0000
# 3 32.7900 5.7619 77.4211 0.0000 25.8834 0.0000
# 4 0.0000 0.0000 0.0000 171.1897 0.0000 88.0198
# 5 37.5539 -2.3565 25.8834 0.0000 38.6206 0.0000
# 6 0.0000 0.0000 0.0000 88.0198 0.0000 52.2249
#
#
#
# Elastic Compliance Matrix: (Units=1/GPa)
#
#
# Indices 1 2 3 4 5 6 
#
# 1 0.014651 -0.000543 -0.001792 0.000000 -0.013078 0.000000
# 2 -0.000543 0.009690 -0.001115 0.000000 0.001867 0.000000
# 3 -0.001792 -0.001115 0.017010 0.000000 -0.009725 0.000000
# 4 0.000000 0.000000 0.000000 0.043781 0.000000 -0.073788
# 5 -0.013078 0.001867 -0.009725 0.000000 0.045241 0.000000
# 6 0.000000 0.000000 0.000000 -0.073788 0.000000 0.143511
#
#
# Mechanical properties :
#
#
# Convention : Reuss Voigt Hill
#
# Bulk Modulus (GPa) = 29.02860 41.09035 35.05947
# Shear Modulus (GPa) = 17.10765 68.85614 42.98190
#
# Velocity S-wave (km/s) = 2.89643 5.81085 4.59104
# Velocity P-wave (km/s) = 5.04191 8.07287 6.73024
#
# Compressibility (1/GPa) = 0.03444879
#
# Stress axis : x y z
#
# Youngs Moduli (GPa) = 68.25625 103.20339 58.78978
#
# Poissons Ratio (x) = 0.05605 0.10537
# Poissons Ratio (y) = 0.03707 0.06556
# Poissons Ratio (z) = 0.12234 0.11509
#
# Static dielectric constant tensor:
#      x y z
#    x 1.694630 0.000000 0.009650 
#    y 0.000000 1.787610 0.000000 
#    z 0.009650 0.000000 1.707150 
# 
# From -- ./inp_files/165470.got.cif
#   From: 2010.05.17/outbox.cif.g08.bks.cpg/sg12_83_cif.got.tgz:165470.got - 2010.06.03 13:09:07.
