data_PCOD9194856
_publ_section_title
;
Structure prediction by ZEFSAII (Michael W. Deem and Ramdas Pophale) SiO2 
 PCOD9194856
Probable space group: C 2/M
;
_chemical_formula_sum "Si O2"
_cell_formula_units_Z 34
_cell_length_a 25.235498
_cell_length_b 7.383412
_cell_length_c 7.269380
_cell_angle_alpha 90.000000
_cell_angle_beta 69.362226
_cell_angle_gamma 90.000000
_cell_volume 1267.541237
_symmetry_space_group_name_H-M "C 2/M"
_symmetry_group_IT_number 12
_symmetry_cell_setting 'monoclinic'
loop_
_space_group_symop_operation_xyz
x,y,z
-x,y,-z
-x,-y,-z
x,-y,z
1/2+x,1/2+y,z
1/2-x,1/2+y,-z
1/2-x,1/2-y,-z
1/2+x,1/2-y,z
loop_
_atom_site_type_symbol
_atom_site_label
_atom_site_fract_x
_atom_site_fract_y
_atom_site_fract_z
Si Si1 0.500000 0.500000 0.000000
Si Si2 0.451960 0.795080 0.772681
Si Si3 0.387546 0.781847 0.505330
Si Si4 0.764432 0.714930 0.769868
Si Si5 0.143855 0.788492 0.852697
O O1 0.516789 0.657436 0.133134
O O2 0.436771 0.728934 0.585702
O O3 0.475912 0.000000 0.742365
O O4 0.389107 0.806760 0.943736
O O5 0.325708 0.710575 0.643584
O O6 0.392115 0.723917 0.289151
O O7 0.386730 0.000000 0.511499
O O8 0.767764 0.500000 0.734671
O O9 0.707385 0.781749 0.738383
O O10 0.750000 0.750000 0.000000
O O11 0.147549 0.000000 0.898360
#
# Coordination Sequence:
#
# PCOD9194856 Si02
#       5
#     2   8   8   8   8
#     4  12  26  48  74  98 128 170 226 288 354 388
#     4  11  24  45  70  97 129 169 221 280 338 398
#     4  10  22  39  62  94 132 177 220 266 325 393
#     4  10  20  34  57  92 134 176 218 261 315 387
#     4  11  22  37  63  97 134 177 219 265 325 395
#
# _framework density 26.823587
#
# number of rings (size 3 to 8) (size 9 to 14) (size 15 to 20)
#    0.000    1.412    3.529    1.765    1.647    1.882 
#    0.000    2.353    0.000    4.235    0.000    0.000 
#    0.000    0.000    0.000    0.000    0.000    0.000 
#
# Total GULP energy -95032.203388 kJ/mol
# GULP energy per Si atom -5590.129611 kJ/mol
# Density = 2.676254 g / cm^3
# Si number density = 26.823587 Si / 1000 Ang^3
#
#
#
# Elastic Constant Matrix: (Units=GPa)
#
#
# Indices 1 2 3 4 5 6 
#
# 1 165.5659 27.3875 31.9147 0.0000 14.8012 0.0000
# 2 27.3875 149.5199 4.7863 0.0000 21.5139 0.0000
# 3 31.9147 4.7863 99.7938 0.0000 26.6279 0.0000
# 4 0.0000 0.0000 0.0000 4.2597 0.0000 3.1944
# 5 14.8012 21.5139 26.6279 0.0000 66.4426 0.0000
# 6 0.0000 0.0000 0.0000 3.1944 0.0000 20.4673
#
#
#
# Elastic Compliance Matrix: (Units=1/GPa)
#
#
# Indices 1 2 3 4 5 6 
#
# 1 0.006634 -0.001105 -0.001982 0.000000 -0.000326 0.000000
# 2 -0.001105 0.007207 0.000632 0.000000 -0.002341 0.000000
# 3 -0.001982 0.000632 0.011825 0.000000 -0.004503 0.000000
# 4 0.000000 0.000000 0.000000 0.265876 0.000000 -0.041495
# 5 -0.000326 -0.002341 -0.004503 0.000000 0.017686 0.000000
# 6 0.000000 0.000000 0.000000 -0.041495 0.000000 0.055335
#
#
# Mechanical properties :
#
#
# Convention : Reuss Voigt Hill
#
# Bulk Modulus (GPa) = 48.17400 60.33962 54.25681
# Shear Modulus (GPa) = 13.28410 41.61998 27.45204
#
# Velocity S-wave (km/s) = 2.22781 3.94333 3.20258
# Velocity P-wave (km/s) = 4.96146 6.57852 5.82637
#
# Compressibility (1/GPa) = 0.02075809
#
# Stress axis : x y z
#
# Youngs Moduli (GPa) = 150.74442 138.75359 84.56326
#
# Poissons Ratio (x) = 0.15329 0.16757
# Poissons Ratio (y) = 0.16654 -0.05347
# Poissons Ratio (z) = 0.29871 -0.08773
#
# Static dielectric constant tensor:
#      x y z
#    x 2.231290 0.000000 -0.055590 
#    y 0.000000 1.883310 0.000000 
#    z -0.055590 0.000000 2.035920 
# 
# From -- ./inp_files/100667.got.cif
#   From: 2010.05.17/outbox.cif.g08.bks.cpg/sg12_51_cif.got.tgz:100667.got - 2010.06.03 13:09:07.
