data_PCOD9194108
_publ_section_title
;
Structure prediction by ZEFSAII (Michael W. Deem and Ramdas Pophale) SiO2 
 PCOD9194108
Probable space group: C 2/M
;
_chemical_formula_sum "Si O2"
_cell_formula_units_Z 64
_cell_length_a 29.060585
_cell_length_b 7.741078
_cell_length_c 13.391532
_cell_angle_alpha 90.000000
_cell_angle_beta 89.506790
_cell_angle_gamma 90.000000
_cell_volume 3012.450842
_symmetry_space_group_name_H-M "C 2/M"
_symmetry_group_IT_number 12
_symmetry_cell_setting 'monoclinic'
loop_
_space_group_symop_operation_xyz
x,y,z
-x,y,-z
-x,-y,-z
x,-y,z
1/2+x,1/2+y,z
1/2-x,1/2+y,-z
1/2-x,1/2-y,-z
1/2+x,1/2-y,z
loop_
_atom_site_type_symbol
_atom_site_label
_atom_site_fract_x
_atom_site_fract_y
_atom_site_fract_z
Si Si1 0.051586 0.290201 0.613982
Si Si2 0.306917 0.794699 0.280789
Si Si3 0.556291 0.208975 0.393221
Si Si4 0.396816 0.209904 0.185141
Si Si5 0.298102 0.798277 0.715070
Si Si6 0.804333 0.292682 0.499369
Si Si7 0.888686 0.798254 0.805668
Si Si8 0.050762 0.202966 0.015472
O O1 0.053871 0.500000 0.612739
O O2 0.070548 0.234090 0.504979
O O3 0.077307 0.234811 0.713463
O O4 0.997542 0.244281 0.618566
O O5 0.343810 0.733267 0.199623
O O6 0.252887 0.769786 0.261717
O O7 0.319863 0.724419 0.391291
O O8 0.313769 0.000000 0.286948
O O9 0.584963 0.275068 0.299523
O O10 0.559670 0.000000 0.391293
O O11 0.399440 0.000000 0.178811
O O12 0.421063 0.281030 0.086976
O O13 0.317880 0.726014 0.608692
O O14 0.337522 0.775476 0.795380
O O15 0.290893 0.000000 0.698266
O O16 0.812806 0.500000 0.497440
O O17 0.750000 0.250000 0.500000
O O18 0.920019 0.721615 0.893249
O O19 0.882445 0.000000 0.825512
O O20 0.044048 0.000000 0.039992
O O21 0.000000 0.279430 0.000000
#
# Coordination Sequence:
#
# PCOD9194108 Si02
#       8
#     8   8   8   8   8   8   8   8
#     4   8  16  31  53  83 115 145 176 219 277 333
#     4   9  18  33  53  80 116 150 180 225 278 326
#     4   9  17  32  55  81 112 147 181 219 270 338
#     4  10  20  34  58  86 112 144 186 230 277 331
#     4  10  20  34  55  81 110 149 191 229 269 328
#     4   8  15  28  48  74 106 145 180 215 261 314
#     4  11  23  37  55  80 110 145 186 233 285 331
#     4  10  23  43  62  80 108 146 186 234 288 334
#
# _framework density 21.245159000000001
#
# number of rings (size 3 to 8) (size 9 to 14) (size 15 to 20)
#    0.000    2.625    0.000    2.250    1.750    2.250 
#    0.000    2.500    0.000    0.000    0.000    0.000 
#    0.000    0.000    0.000    0.000    0.000    0.000 
#
# Total GULP energy -178479.166535 kJ/mol
# GULP energy per Si atom -5577.473954 kJ/mol
# Density = 2.119680 g / cm^3
# Si number density = 21.245159 Si / 1000 Ang^3
#
#
#
# Elastic Constant Matrix: (Units=GPa)
#
#
# Indices 1 2 3 4 5 6 
#
# 1 116.4804 -10.5210 69.4184 0.0000 3.3071 0.0000
# 2 -10.5210 21.7325 -16.6078 0.0000 2.4843 0.0000
# 3 69.4184 -16.6078 109.4927 0.0000 7.9037 0.0000
# 4 0.0000 0.0000 0.0000 32.5293 0.0000 3.6245
# 5 3.3071 2.4843 7.9037 0.0000 36.8637 0.0000
# 6 0.0000 0.0000 0.0000 3.6245 0.0000 21.9881
#
#
#
# Elastic Compliance Matrix: (Units=1/GPa)
#
#
# Indices 1 2 3 4 5 6 
#
# 1 0.013815 -0.000133 -0.008826 0.000000 0.000662 0.000000
# 2 -0.000133 0.053081 0.008525 0.000000 -0.005393 0.000000
# 3 -0.008826 0.008525 0.016258 0.000000 -0.003268 0.000000
# 4 0.000000 0.000000 0.000000 0.031317 0.000000 -0.005162
# 5 0.000662 -0.005393 -0.003268 0.000000 0.028132 0.000000
# 6 0.000000 0.000000 0.000000 -0.005162 0.000000 0.046330
#
#
# Mechanical properties :
#
#
# Convention : Reuss Voigt Hill
#
# Bulk Modulus (GPa) = 12.15298 36.92054 24.53676
# Shear Modulus (GPa) = 23.01718 31.97061 27.49389
#
# Velocity S-wave (km/s) = 3.29509 3.88344 3.60130
# Velocity P-wave (km/s) = 4.49551 6.12570 5.37279
#
# Compressibility (1/GPa) = 0.08228438
#
# Stress axis : x y z
#
# Youngs Moduli (GPa) = 72.38738 18.83920 61.50839
#
# Poissons Ratio (x) = 0.00250 0.54290
# Poissons Ratio (y) = 0.00962 -0.52435
# Poissons Ratio (z) = 0.63892 -0.16060
#
# Static dielectric constant tensor:
#      x y z
#    x 1.776770 0.000000 0.019070 
#    y 0.000000 1.807890 0.000000 
#    z 0.019070 0.000000 1.777080 
# 
# From -- ./inp_files/187633.got.cif
#   From: 2010.05.17/outbox.cif.g08.bks.cpg/sg12_94_cif.got.tgz:187633.got - 2010.06.03 13:09:07.
