data_PCOD9194151
_publ_section_title
;
Structure prediction by ZEFSAII (Michael W. Deem and Ramdas Pophale) SiO2 
 PCOD9194151
Probable space group: C 2/M
;
_chemical_formula_sum "Si O2"
_cell_formula_units_Z 64
_cell_length_a 18.584564
_cell_length_b 13.367075
_cell_length_c 16.152892
_cell_angle_alpha 90.000000
_cell_angle_beta 124.013158
_cell_angle_gamma 90.000000
_cell_volume 3326.181741
_symmetry_space_group_name_H-M "C 2/M"
_symmetry_group_IT_number 12
_symmetry_cell_setting 'monoclinic'
loop_
_space_group_symop_operation_xyz
x,y,z
-x,y,-z
-x,-y,-z
x,-y,z
1/2+x,1/2+y,z
1/2-x,1/2+y,-z
1/2-x,1/2-y,-z
1/2+x,1/2-y,z
loop_
_atom_site_type_symbol
_atom_site_label
_atom_site_fract_x
_atom_site_fract_y
_atom_site_fract_z
Si Si1 0.330118 0.883564 0.676508
Si Si2 0.173271 0.746040 0.631985
Si Si3 0.034768 0.215386 0.197225
Si Si4 0.822645 0.887357 0.790748
Si Si5 0.365241 0.718060 0.986210
Si Si6 0.702782 0.117014 0.949967
Si Si7 0.418081 0.113194 0.556561
Si Si8 0.420327 0.782999 0.267447
O O1 0.239282 0.829687 0.639994
O O2 0.407249 0.816840 0.766457
O O3 0.352985 0.879899 0.593364
O O4 0.331701 0.000000 0.702478
O O5 0.233874 0.651929 0.695896
O O6 0.107352 0.700843 0.522802
O O7 0.125382 0.773570 0.686455
O O8 0.102778 0.126653 0.229458
O O9 0.981310 0.216232 0.247942
O O10 0.963519 0.211093 0.079379
O O11 0.849639 0.814617 0.882884
O O12 0.816229 0.000000 0.817124
O O13 0.302973 0.645173 0.999905
O O14 0.330971 0.827508 0.989586
O O15 0.649463 0.165825 0.838906
O O16 0.688657 0.000000 0.942877
O O17 0.514893 0.134366 0.652393
O O18 0.412648 0.000000 0.519318
#
# Coordination Sequence:
#
# PCOD9194151 Si02
#       8
#     8   8   8   8   8   8   8   8
#     4   9  20  40  61  82 114 154 190 233 289 343
#     4  11  21  35  59  87 118 148 190 236 285 340
#     4   9  21  37  56  79 111 146 189 234 281 338
#     4  11  22  37  58  83 115 152 188 236 292 340
#     4  10  20  34  55  82 110 146 192 235 283 336
#     4  10  20  35  56  83 117 153 187 232 292 344
#     4  10  20  34  58  90 117 147 191 237 286 340
#     4  10  20  36  57  83 119 154 183 237 289 335
#
# _framework density 19.241282999999999
#
# number of rings (size 3 to 8) (size 9 to 14) (size 15 to 20)
#    0.000    2.000    1.250    2.250    0.000    6.500 
#    0.000    3.125    0.000    7.500    0.000    0.000 
#    0.000    0.000    0.000    0.000    0.000    0.000 
#
# Total GULP energy -178541.566834 kJ/mol
# GULP energy per Si atom -5579.423964 kJ/mol
# Density = 1.919749 g / cm^3
# Si number density = 19.241283 Si / 1000 Ang^3
#
#
#
# Elastic Constant Matrix: (Units=GPa)
#
#
# Indices 1 2 3 4 5 6 
#
# 1 82.6359 21.5932 5.2211 0.0000 -3.5325 0.0000
# 2 21.5932 52.9999 36.9945 0.0000 -7.4701 0.0000
# 3 5.2211 36.9945 63.7762 0.0000 8.0552 0.0000
# 4 0.0000 0.0000 0.0000 11.3946 0.0000 -1.4468
# 5 -3.5325 -7.4701 8.0552 0.0000 24.6878 0.0000
# 6 0.0000 0.0000 0.0000 -1.4468 0.0000 5.5869
#
#
#
# Elastic Compliance Matrix: (Units=1/GPa)
#
#
# Indices 1 2 3 4 5 6 
#
# 1 0.014120 -0.009157 0.004433 0.000000 -0.002197 0.000000
# 2 -0.009157 0.045445 -0.028351 0.000000 0.021691 0.000000
# 3 0.004433 -0.028351 0.034174 0.000000 -0.019095 0.000000
# 4 0.000000 0.000000 0.000000 0.090745 0.000000 0.023499
# 5 -0.002197 0.021691 -0.019095 0.000000 0.052985 0.000000
# 6 0.000000 0.000000 0.000000 0.023499 0.000000 0.185076
#
#
# Mechanical properties :
#
#
# Convention : Reuss Voigt Hill
#
# Bulk Modulus (GPa) = 36.24561 36.33663 36.29112
# Shear Modulus (GPa) = 10.04233 17.37407 13.70820
#
# Velocity S-wave (km/s) = 2.28703 3.00819 2.67205
# Velocity P-wave (km/s) = 5.08452 5.56698 5.33121
#
# Compressibility (1/GPa) = 0.02758955
#
# Stress axis : x y z
#
# Youngs Moduli (GPa) = 70.82181 22.00445 29.26167
#
# Poissons Ratio (x) = 0.20148 -0.12971
# Poissons Ratio (y) = 0.64848 0.82961
# Poissons Ratio (z) = -0.31395 0.62386
#
# Static dielectric constant tensor:
#      x y z
#    x 1.717480 0.000000 -0.020450 
#    y 0.000000 1.633860 0.000000 
#    z -0.020450 0.000000 1.666080 
# 
# From -- ./inp_files/225335.got.cif
#   From: 2010.05.17/outbox.cif.g08.bks.cpg/sg12_113_cif.got.tgz:225335.got - 2010.06.03 13:09:07.
