data_PCOD9194216
_publ_section_title
;
Structure prediction by ZEFSAII (Michael W. Deem and Ramdas Pophale) SiO2 
 PCOD9194216
Probable space group: C 2/M
;
_chemical_formula_sum "Si O2"
_cell_formula_units_Z 48
_cell_length_a 27.854066
_cell_length_b 10.667723
_cell_length_c 21.179268
_cell_angle_alpha 90.000000
_cell_angle_beta 22.086608
_cell_angle_gamma 90.000000
_cell_volume 2366.290199
_symmetry_space_group_name_H-M "C 2/M"
_symmetry_group_IT_number 12
_symmetry_cell_setting 'monoclinic'
loop_
_space_group_symop_operation_xyz
x,y,z
-x,y,-z
-x,-y,-z
x,-y,z
1/2+x,1/2+y,z
1/2-x,1/2+y,-z
1/2-x,1/2-y,-z
1/2+x,1/2-y,z
loop_
_atom_site_type_symbol
_atom_site_label
_atom_site_fract_x
_atom_site_fract_y
_atom_site_fract_z
Si Si1 0.255035 0.863364 0.867453
Si Si2 0.618174 0.722799 0.394472
Si Si3 0.493059 0.858870 0.661795
Si Si4 0.354505 0.148025 0.184917
Si Si5 0.934538 0.640929 0.874914
Si Si6 0.202564 0.645669 0.607899
O O1 0.343451 0.836491 0.698897
O O2 0.346925 0.863064 0.816101
O O3 0.193157 0.000000 0.937383
O O4 0.161732 0.747666 0.988128
O O5 0.500000 0.657227 0.500000
O O6 0.560173 0.768241 0.531009
O O7 0.754301 0.663755 0.249298
O O8 0.492269 0.825788 0.735933
O O9 0.546343 0.000000 0.590467
O O10 0.287936 0.191926 0.331412
O O11 0.369333 0.000000 0.176433
O O12 0.500000 0.199868 0.000000
O O13 0.878188 0.500000 0.938806
O O14 0.051200 0.636110 0.780593
O O15 0.252699 0.500000 0.538881
O O16 0.250000 0.750000 0.500000
#
# Coordination Sequence:
#
# PCOD9194216 Si02
#       6
#     8   8   8   8   8   8
#     4  10  20  34  55  83 113 146 184 229 282 335
#     4  10  20  35  57  83 110 144 189 237 281 329
#     4   9  18  34  55  80 111 146 184 226 276 334
#     4  10  21  38  58  80 112 153 191 230 282 340
#     4  10  20  35  56  80 109 147 187 228 278 338
#     4  10  21  37  58  82 109 146 188 231 283 338
#
# _framework density 20.284915999999999
#
# number of rings (size 3 to 8) (size 9 to 14) (size 15 to 20)
#    0.000    2.167    0.000    3.000    0.000    5.000 
#    0.000    4.167    0.000    3.500    0.000    0.000 
#    0.000    0.000    0.000    0.000    0.000    0.000 
#
# Total GULP energy -133637.123958 kJ/mol
# GULP energy per Si atom -5568.213498 kJ/mol
# Density = 2.023875 g / cm^3
# Si number density = 20.284916 Si / 1000 Ang^3
#
#
#
# Elastic Constant Matrix: (Units=GPa)
#
#
# Indices 1 2 3 4 5 6 
#
# 1 125.9971 16.5359 26.9296 0.0000 -6.2540 0.0000
# 2 16.5359 70.2337 40.9635 -0.0002 6.8662 0.0000
# 3 26.9296 40.9635 71.4556 0.0000 -12.3597 0.0000
# 4 0.0000 -0.0002 0.0000 12.0663 0.0000 -2.4564
# 5 -6.2540 6.8662 -12.3597 0.0000 27.1286 0.0000
# 6 0.0000 0.0000 0.0000 -2.4564 0.0000 21.2320
#
#
#
# Elastic Compliance Matrix: (Units=1/GPa)
#
#
# Indices 1 2 3 4 5 6 
#
# 1 0.008647 -0.000441 -0.002868 0.000000 0.000799 0.000000
# 2 -0.000441 0.025689 -0.017046 0.000000 -0.014370 0.000000
# 3 -0.002868 -0.017046 0.027659 0.000000 0.016255 0.000000
# 4 0.000000 0.000000 0.000000 0.084874 0.000000 0.009819
# 5 0.000799 -0.014370 0.016255 0.000000 0.048088 0.000000
# 6 0.000000 0.000000 0.000000 0.009819 0.000000 0.048235
#
#
# Mechanical properties :
#
#
# Convention : Reuss Voigt Hill
#
# Bulk Modulus (GPa) = 46.98136 48.50491 47.74314
# Shear Modulus (GPa) = 17.18230 24.30254 20.74242
#
# Velocity S-wave (km/s) = 2.91357 3.46505 3.20121
# Velocity P-wave (km/s) = 5.87618 6.32238 6.10336
#
# Compressibility (1/GPa) = 0.02128504
#
# Stress axis : x y z
#
# Youngs Moduli (GPa) = 115.64465 38.92739 36.15469
#
# Poissons Ratio (x) = 0.01718 0.10368
# Poissons Ratio (y) = 0.05105 0.61629
# Poissons Ratio (z) = 0.33163 0.66355
#
# Static dielectric constant tensor:
#      x y z
#    x 1.747780 0.000000 -0.009570 
#    y 0.000000 1.725180 0.000000 
#    z -0.009570 0.000000 1.761540 
# 
# From -- ./inp_files/153576.got.cif
#   From: 2010.05.17/outbox.cif.g08.bks.cpg/sg12_77_cif.got.tgz:153576.got - 2010.06.03 13:09:07.
