data_PCOD9194343
_publ_section_title
;
Structure prediction by ZEFSAII (Michael W. Deem and Ramdas Pophale) SiO2 
 PCOD9194343
Probable space group: C 2/M
;
_chemical_formula_sum "Si O2"
_cell_formula_units_Z 56
_cell_length_a 28.619207
_cell_length_b 8.723825
_cell_length_c 19.394910
_cell_angle_alpha 90.000000
_cell_angle_beta 35.456515
_cell_angle_gamma 90.000000
_cell_volume 2808.949154
_symmetry_space_group_name_H-M "C 2/M"
_symmetry_group_IT_number 12
_symmetry_cell_setting 'monoclinic'
loop_
_space_group_symop_operation_xyz
x,y,z
-x,y,-z
-x,-y,-z
x,-y,z
1/2+x,1/2+y,z
1/2-x,1/2+y,-z
1/2-x,1/2-y,-z
1/2+x,1/2-y,z
loop_
_atom_site_type_symbol
_atom_site_label
_atom_site_fract_x
_atom_site_fract_y
_atom_site_fract_z
Si Si1 0.366917 0.816215 0.051785
Si Si2 0.231530 0.318138 0.308586
Si Si3 0.542582 0.816122 0.800529
Si Si4 0.996543 0.818733 0.299040
Si Si5 0.933024 0.814656 0.524667
Si Si6 0.179180 0.818429 0.039214
Si Si7 0.778397 0.684237 0.392892
O O1 0.312976 0.740932 0.175152
O O2 0.364836 0.000000 0.061903
O O3 0.460429 0.763512 0.936407
O O4 0.329552 0.767316 0.023154
O O5 0.230010 0.500000 0.312991
O O6 0.154736 0.255888 0.358803
O O7 0.228393 0.249133 0.389212
O O8 0.538514 0.763365 0.726025
O O9 0.627879 0.768655 0.729260
O O10 0.540491 0.000000 0.804236
O O11 0.962415 0.766815 0.413173
O O12 0.093008 0.798811 0.180345
O O13 0.979613 0.000000 0.312293
O O14 0.000000 0.769639 0.500000
O O15 0.926718 0.000000 0.533696
O O16 0.191245 0.000000 0.012946
O O17 0.250000 0.750000 0.000000
O O18 0.772830 0.500000 0.400336
O O19 0.750000 0.750000 0.500000
#
# Coordination Sequence:
#
# PCOD9194343 Si02
#       7
#     8   8   8   8   8   8   8
#     4  10  21  40  62  85 118 160 202 253 308 361
#     4  12  26  42  60  90 126 161 202 252 305 367
#     4   9  20  38  62  89 117 154 200 249 302 357
#     4   9  19  35  56  84 116 151 195 243 295 356
#     4  10  22  40  62  86 116 160 205 249 304 363
#     4  10  20  34  55  86 118 155 199 247 298 358
#     4  11  23  41  65  94 125 161 203 251 304 362
#
# _framework density 19.936281000000001
#
# number of rings (size 3 to 8) (size 9 to 14) (size 15 to 20)
#    0.000    1.857    0.000    3.429    2.000    6.000 
#    0.000    2.857    0.000    0.000    0.000    0.000 
#    0.000    0.000    0.000    0.000    0.000    0.000 
#
# Total GULP energy -156489.216983 kJ/mol
# GULP energy per Si atom -5588.900607 kJ/mol
# Density = 1.989091 g / cm^3
# Si number density = 19.936281 Si / 1000 Ang^3
#
#
#
# Elastic Constant Matrix: (Units=GPa)
#
#
# Indices 1 2 3 4 5 6 
#
# 1 101.2208 30.1601 40.3543 0.0011 -23.2967 -0.0012
# 2 30.1601 51.6463 29.7136 -0.0017 -8.5464 0.0038
# 3 40.3543 29.7136 95.0773 -0.0039 4.8906 0.0042
# 4 0.0011 -0.0017 -0.0039 26.5203 0.0040 5.0404
# 5 -23.2967 -8.5464 4.8906 0.0040 24.8137 -0.0032
# 6 -0.0012 0.0038 0.0042 5.0404 -0.0032 22.6879
#
#
#
# Elastic Compliance Matrix: (Units=1/GPa)
#
#
# Indices 1 2 3 4 5 6 
#
# 1 0.017684 -0.003304 -0.007343 -0.000006 0.016912 0.000007
# 2 -0.003304 0.026776 -0.007355 0.000000 0.007570 -0.000002
# 3 -0.007343 -0.007355 0.016586 0.000005 -0.012696 -0.000005
# 4 -0.000006 0.000000 0.000005 0.039369 -0.000014 -0.008746
# 5 0.016912 0.007570 -0.012696 -0.000014 0.061288 0.000014
# 6 0.000007 -0.000002 -0.000005 -0.008746 0.000014 0.046019
#
#
# Mechanical properties :
#
#
# Convention : Reuss Voigt Hill
#
# Bulk Modulus (GPa) = 39.93283 49.82226 44.87754
# Shear Modulus (GPa) = 19.83544 24.65216 22.24380
#
# Velocity S-wave (km/s) = 3.15769 3.52027 3.34390
# Velocity P-wave (km/s) = 5.77654 6.44733 6.12113
#
# Compressibility (1/GPa) = 0.02504205
#
# Stress axis : x y z
#
# Youngs Moduli (GPa) = 56.54942 37.34668 60.29106
#
# Poissons Ratio (x) = 0.12338 0.44272
# Poissons Ratio (y) = 0.18681 0.44346
# Poissons Ratio (z) = 0.41525 0.27470
#
# Static dielectric constant tensor:
#      x y z
#    x 1.680560 0.000000 -0.020780 
#    y 0.000000 1.666500 0.000000 
#    z -0.020780 0.000000 1.722220 
# 
# From -- ./inp_files/292438.got.cif
#   From: 2010.05.17/outbox.cif.g08.bks.cpg/sg12_147_cif.got.tgz:292438.got - 2010.06.03 13:09:07.
