data_PCOD9194793
_publ_section_title
;
Structure prediction by ZEFSAII (Michael W. Deem and Ramdas Pophale) SiO2 
 PCOD9194793
Probable space group: C 2/M
;
_chemical_formula_sum "Si O2"
_cell_formula_units_Z 40
_cell_length_a 15.073277
_cell_length_b 23.803199
_cell_length_c 7.440427
_cell_angle_alpha 90.000000
_cell_angle_beta 40.977015
_cell_angle_gamma 90.000000
_cell_volume 1750.585320
_symmetry_space_group_name_H-M "C 2/M"
_symmetry_group_IT_number 12
_symmetry_cell_setting 'monoclinic'
loop_
_space_group_symop_operation_xyz
x,y,z
-x,y,-z
-x,-y,-z
x,-y,z
1/2+x,1/2+y,z
1/2-x,1/2+y,-z
1/2-x,1/2-y,-z
1/2+x,1/2-y,z
loop_
_atom_site_type_symbol
_atom_site_label
_atom_site_fract_x
_atom_site_fract_y
_atom_site_fract_z
Si Si1 0.299055 0.679932 0.636951
Si Si2 0.962739 0.623309 0.853887
Si Si3 0.448977 0.000000 0.374348
Si Si4 0.870115 0.000000 0.061638
Si Si5 0.203594 0.308065 0.362805
Si Si6 0.555652 0.619875 0.121071
O O1 0.251320 0.687301 0.500099
O O2 0.322991 0.744346 0.653996
O O3 0.431397 0.641770 0.426488
O O4 0.186969 0.648184 0.926564
O O5 0.987821 0.556930 0.801280
O O6 0.070614 0.653840 0.562501
O O7 0.000000 0.639386 0.000000
O O8 0.500000 0.000000 0.500000
O O9 0.282937 0.000000 0.619500
O O10 0.887355 0.942106 0.926809
O O11 0.000000 0.000000 0.000000
O O12 0.325666 0.334863 0.065883
O O13 0.500000 0.617260 0.000000
#
# Coordination Sequence:
#
# PCOD9194793 Si02
#       6
#     8   8   4   4   8   8
#     4   9  17  26  48  84 117 147 181 249 296 338
#     4  10  20  34  57  88 118 151 203 248 292 346
#     4  12  25  42  60  85 122 164 201 247 307 360
#     4  10  20  34  58  81 105 148 204 237 285 354
#     4   9  15  28  47  80 121 149 181 236 301 352
#     4   9  16  27  46  74 111 144 184 226 287 345
#
# _framework density 22.849499999999999
#
# number of rings (size 3 to 8) (size 9 to 14) (size 15 to 20)
#    0.000    2.400    2.000    1.500    2.800    5.600 
#    0.000    0.000    0.000    3.600    0.000    0.000 
#    0.000    0.000    0.000    0.000    0.000    0.000 
#
# Total GULP energy -111717.469043 kJ/mol
# GULP energy per Si atom -5585.873452 kJ/mol
# Density = 2.279749 g / cm^3
# Si number density = 22.849500 Si / 1000 Ang^3
#
#
#
# Elastic Constant Matrix: (Units=GPa)
#
#
# Indices 1 2 3 4 5 6 
#
# 1 74.4683 -16.8249 -9.7783 0.0000 5.7660 0.0000
# 2 -16.8249 196.3445 75.5364 0.0000 -42.0428 0.0000
# 3 -9.7783 75.5364 124.0700 0.0000 -58.0902 0.0000
# 4 0.0000 0.0000 0.0000 55.8466 0.0000 -35.8921
# 5 5.7660 -42.0428 -58.0902 0.0000 3.2785 0.0000
# 6 0.0000 0.0000 0.0000 -35.8921 0.0000 -12.9141
#
#
#
# Elastic Compliance Matrix: (Units=1/GPa)
#
#
# Indices 1 2 3 4 5 6 
#
# 1 0.013711 0.001009 0.000653 0.000000 0.000399 0.000000
# 2 0.001009 0.006644 -0.004810 0.000000 -0.001804 0.000000
# 3 0.000653 -0.004810 0.002519 0.000000 -0.018199 0.000000
# 4 0.000000 0.000000 0.000000 0.006427 0.000000 -0.017862
# 5 0.000399 -0.001804 -0.018199 0.000000 -0.041283 0.000000
# 6 0.000000 0.000000 0.000000 -0.017862 0.000000 -0.027792
#
#
# Mechanical properties :
#
#
# Convention : Reuss Voigt Hill
#
# Bulk Modulus (GPa) = 60.31905 54.74994 57.53450
# Shear Modulus (GPa) = -178.87270 32.30552 -73.28359
#
# Velocity S-wave (km/s) = -8.85737 3.76418 -5.66938
# Velocity P-wave (km/s) = 8.84015 6.55021 4.19779
#
# Compressibility (1/GPa) = 0.01657851
#
# Stress axis : x y z
#
# Youngs Moduli (GPa) = 72.93213 150.51811 396.98641
#
# Poissons Ratio (x) = -0.15189 -0.25929
# Poissons Ratio (y) = -0.07360 1.90953
# Poissons Ratio (z) = -0.04763 0.72400
#
# Static dielectric constant tensor:
#      x y z
#    x 1.967680 0.000000 -0.019780 
#    y 0.000000 1.825000 0.000000 
#    z -0.019780 0.000000 1.826910 
# 
# From -- ./inp_files/79779.got.cif
#   From: 2010.05.17/outbox.cif.g08.bks.cpg/sg12_40_cif.got.tgz:79779.got - 2010.06.03 13:09:07.
