data_PCOD9194391
_publ_section_title
;
Structure prediction by ZEFSAII (Michael W. Deem and Ramdas Pophale) SiO2 
 PCOD9194391
Probable space group: C 2/M
;
_chemical_formula_sum "Si O2"
_cell_formula_units_Z 64
_cell_length_a 18.855504
_cell_length_b 18.955937
_cell_length_c 10.636683
_cell_angle_alpha 90.000000
_cell_angle_beta 127.621764
_cell_angle_gamma 90.000000
_cell_volume 3011.247863
_symmetry_space_group_name_H-M "C 2/M"
_symmetry_group_IT_number 12
_symmetry_cell_setting 'monoclinic'
loop_
_space_group_symop_operation_xyz
x,y,z
-x,y,-z
-x,-y,-z
x,-y,z
1/2+x,1/2+y,z
1/2-x,1/2+y,-z
1/2-x,1/2-y,-z
1/2+x,1/2-y,z
loop_
_atom_site_type_symbol
_atom_site_label
_atom_site_fract_x
_atom_site_fract_y
_atom_site_fract_z
Si Si1 0.083303 0.277299 0.675814
Si Si2 0.987431 0.827109 0.757020
Si Si3 0.310742 0.378123 0.617806
Si Si4 0.657171 0.078045 0.773935
Si Si5 0.766504 0.247169 0.739446
Si Si6 0.070915 0.683356 0.178108
Si Si7 0.851880 0.883292 0.939102
Si Si8 0.624271 0.923504 0.436238
O O1 0.044258 0.214237 0.715895
O O2 0.117265 0.348683 0.782422
O O3 0.167544 0.248250 0.686743
O O4 0.000000 0.299572 0.500000
O O5 0.892936 0.861916 0.616010
O O6 0.956676 0.764060 0.818207
O O7 0.053409 0.883457 0.892068
O O8 0.234603 0.195376 0.383040
O O9 0.353864 0.406436 0.795323
O O10 0.225557 0.423277 0.491353
O O11 0.764846 0.080901 0.904744
O O12 0.637204 0.085025 0.600984
O O13 0.625380 0.000000 0.778165
O O14 0.829088 0.312188 0.772213
O O15 0.822989 0.199632 0.899614
O O16 0.073915 0.637734 0.307813
O O17 0.000000 0.656437 0.000000
O O18 0.582664 0.000000 0.370315
#
# Coordination Sequence:
#
# PCOD9194391 Si02
#       8
#     8   8   8   8   8   8   8   8
#     4  11  22  32  49  88 110 139 182 219 264 331
#     4  11  19  30  56  83 111 133 177 227 275 319
#     4   8  17  33  53  76 108 138 173 223 267 316
#     4   9  19  38  54  74 113 151 177 212 259 320
#     4   8  18  33  49  75 113 137 165 218 278 314
#     4  11  20  35  55  79 106 142 171 227 278 314
#     4   8  15  33  52  81 104 139 174 217 269 317
#     4  10  20  34  56  77 103 147 185 212 262 321
#
# _framework density 21.253647000000001
#
# number of rings (size 3 to 8) (size 9 to 14) (size 15 to 20)
#    0.750    1.750    2.500    1.125    1.750    3.500 
#    0.000    1.250    0.000    3.000    0.000    1.750 
#    0.000    0.000    0.000    0.000    0.000    0.000 
#
# Total GULP energy -178248.742396 kJ/mol
# GULP energy per Si atom -5570.273200 kJ/mol
# Density = 2.120527 g / cm^3
# Si number density = 21.253647 Si / 1000 Ang^3
#
#
#
# Elastic Constant Matrix: (Units=GPa)
#
#
# Indices 1 2 3 4 5 6 
#
# 1 132.6713 18.6638 17.4875 0.0000 34.6399 0.0000
# 2 18.6638 48.3599 9.5621 0.0000 6.2310 0.0000
# 3 17.4875 9.5621 36.5707 0.0000 16.0402 0.0000
# 4 0.0000 0.0000 0.0000 11.2239 0.0000 -1.3784
# 5 34.6399 6.2310 16.0402 0.0000 18.1211 0.0000
# 6 0.0000 0.0000 0.0000 -1.3784 0.0000 0.9055
#
#
#
# Elastic Compliance Matrix: (Units=1/GPa)
#
#
# Indices 1 2 3 4 5 6 
#
# 1 0.017587 -0.003532 0.010995 0.000000 -0.042136 0.000000
# 2 -0.003532 0.022694 -0.006185 0.000000 0.004423 0.000000
# 3 0.010995 -0.006185 0.052291 0.000000 -0.065177 0.000000
# 4 0.000000 0.000000 0.000000 0.109581 0.000000 0.166809
# 5 -0.042136 0.004423 -0.065177 0.000000 0.191901 0.000000
# 6 0.000000 0.000000 0.000000 0.166809 0.000000 1.358263
#
#
# Mechanical properties :
#
#
# Convention : Reuss Voigt Hill
#
# Bulk Modulus (GPa) = 10.51219 34.33652 22.42435
# Shear Modulus (GPa) = 2.80667 17.50936 10.15801
#
# Velocity S-wave (km/s) = 1.15040 2.87335 2.18856
# Velocity P-wave (km/s) = 2.59256 5.21526 4.11827
#
# Compressibility (1/GPa) = 0.09512770
#
# Stress axis : x y z
#
# Youngs Moduli (GPa) = 56.86173 44.06356 19.12380
#
# Poissons Ratio (x) = 0.15564 -0.21027
# Poissons Ratio (y) = 0.20085 0.11828
# Poissons Ratio (z) = -0.62519 0.27253
#
# Static dielectric constant tensor:
#      x y z
#    x 1.837800 0.000000 0.006190 
#    y 0.000000 1.807300 0.000000 
#    z 0.006190 0.000000 1.811580 
# 
# From -- ./inp_files/170039.got.cif
#   From: 2010.05.17/outbox.cif.g08.bks.cpg/sg12_86_cif.got.tgz:170039.got - 2010.06.03 13:09:07.
