data_PCOD9194236
_publ_section_title
;
Structure prediction by ZEFSAII (Michael W. Deem and Ramdas Pophale) SiO2 
 PCOD9194236
Probable space group: C 2/M
;
_chemical_formula_sum "Si O2"
_cell_formula_units_Z 48
_cell_length_a 22.494038
_cell_length_b 8.961322
_cell_length_c 12.511748
_cell_angle_alpha 90.000000
_cell_angle_beta 108.802834
_cell_angle_gamma 90.000000
_cell_volume 2387.477472
_symmetry_space_group_name_H-M "C 2/M"
_symmetry_group_IT_number 12
_symmetry_cell_setting 'monoclinic'
loop_
_space_group_symop_operation_xyz
x,y,z
-x,y,-z
-x,-y,-z
x,-y,z
1/2+x,1/2+y,z
1/2-x,1/2+y,-z
1/2-x,1/2-y,-z
1/2+x,1/2-y,z
loop_
_atom_site_type_symbol
_atom_site_label
_atom_site_fract_x
_atom_site_fract_y
_atom_site_fract_z
Si Si1 0.148566 0.675558 0.449025
Si Si2 0.758536 0.822118 0.666786
Si Si3 0.953340 0.177239 0.730148
Si Si4 0.097656 0.822077 0.859894
Si Si5 0.777448 0.678604 0.122901
Si Si6 0.074810 0.669704 0.067050
O O1 0.195066 0.731704 0.382117
O O2 0.188244 0.702135 0.579615
O O3 0.083865 0.762245 0.393540
O O4 0.362727 0.000000 0.568106
O O5 0.760210 0.779936 0.791702
O O6 0.771850 0.000000 0.663765
O O7 0.921760 0.252064 0.816351
O O8 0.027441 0.212719 0.777655
O O9 0.946850 0.000000 0.734959
O O10 0.151635 0.738368 0.826975
O O11 0.106613 0.000000 0.862349
O O12 0.101937 0.764767 0.984917
O O13 0.777067 0.500000 0.114336
O O14 0.750000 0.750000 0.000000
O O15 0.099257 0.500000 0.082392
O O16 0.000000 0.662354 0.000000
#
# Coordination Sequence:
#
# PCOD9194236 Si02
#       6
#     8   8   8   8   8   8
#     4  10  20  36  62  89 113 146 192 240 286 339
#     4   9  21  41  60  83 115 151 191 238 288 339
#     4  10  20  34  55  83 116 151 187 233 289 341
#     4  10  21  37  55  80 115 153 191 233 284 341
#     4  11  24  41  61  83 114 154 194 236 285 344
#     4   9  17  30  50  77 109 145 186 231 276 327
#
# _framework density 20.104901000000002
#
# number of rings (size 3 to 8) (size 9 to 14) (size 15 to 20)
#    0.000    2.167    0.000    2.500    2.333    6.000 
#    0.000    0.833    0.000    5.000    0.000    0.000 
#    0.000    0.000    0.000    0.000    0.000    0.000 
#
# Total GULP energy -134068.623472 kJ/mol
# GULP energy per Si atom -5586.192645 kJ/mol
# Density = 2.005914 g / cm^3
# Si number density = 20.104901 Si / 1000 Ang^3
#
#
#
# Elastic Constant Matrix: (Units=GPa)
#
#
# Indices 1 2 3 4 5 6 
#
# 1 48.8076 15.1101 19.7601 0.0000 6.6827 0.0000
# 2 15.1101 56.8477 29.3998 0.0000 7.4248 0.0000
# 3 19.7601 29.3998 82.6303 0.0000 11.3354 0.0000
# 4 0.0000 0.0000 0.0000 28.6849 0.0000 6.1406
# 5 6.6827 7.4248 11.3354 0.0000 33.8061 0.0000
# 6 0.0000 0.0000 0.0000 6.1406 0.0000 29.5671
#
#
#
# Elastic Compliance Matrix: (Units=1/GPa)
#
#
# Indices 1 2 3 4 5 6 
#
# 1 0.023631 -0.003933 -0.003909 0.000000 -0.002497 0.000000
# 2 -0.003933 0.022379 -0.006766 0.000000 -0.001869 0.000000
# 3 -0.003909 -0.006766 0.015864 0.000000 -0.003061 0.000000
# 4 0.000000 0.000000 0.000000 0.036484 0.000000 -0.007577
# 5 -0.002497 -0.001869 -0.003061 0.000000 0.031511 0.000000
# 6 0.000000 0.000000 0.000000 -0.007577 0.000000 0.035395
#
#
# Mechanical properties :
#
#
# Convention : Reuss Voigt Hill
#
# Bulk Modulus (GPa) = 30.62014 35.20283 32.91149
# Shear Modulus (GPa) = 24.34685 26.67932 25.51308
#
# Velocity S-wave (km/s) = 3.48370 3.64676 3.56616
# Velocity P-wave (km/s) = 5.60757 5.93965 5.77600
#
# Compressibility (1/GPa) = 0.03265824
#
# Stress axis : x y z
#
# Youngs Moduli (GPa) = 42.31770 44.68396 63.03608
#
# Poissons Ratio (x) = 0.17576 0.24641
# Poissons Ratio (y) = 0.16645 0.42647
# Poissons Ratio (z) = 0.16542 0.30231
#
# Static dielectric constant tensor:
#      x y z
#    x 1.736750 0.000000 0.040110 
#    y 0.000000 1.671230 0.000000 
#    z 0.040110 0.000000 1.723560 
# 
# From -- ./inp_files/172336.got.cif
#   From: 2010.05.17/outbox.cif.g08.bks.cpg/sg12_87_cif.got.tgz:172336.got - 2010.06.03 13:09:07.
