data_PCOD9194950
_publ_section_title
;
Structure prediction by ZEFSAII (Michael W. Deem and Ramdas Pophale) SiO2 
 PCOD9194950
Probable space group: C 2/M
;
_chemical_formula_sum "Si O2"
_cell_formula_units_Z 60
_cell_length_a 14.179153
_cell_length_b 14.458119
_cell_length_c 25.821959
_cell_angle_alpha 90.000000
_cell_angle_beta 148.096478
_cell_angle_gamma 90.000000
_cell_volume 2797.618381
_symmetry_space_group_name_H-M "C 2/M"
_symmetry_group_IT_number 12
_symmetry_cell_setting 'monoclinic'
loop_
_space_group_symop_operation_xyz
x,y,z
-x,y,-z
-x,-y,-z
x,-y,z
1/2+x,1/2+y,z
1/2-x,1/2+y,-z
1/2-x,1/2-y,-z
1/2+x,1/2-y,z
loop_
_atom_site_type_symbol
_atom_site_label
_atom_site_fract_x
_atom_site_fract_y
_atom_site_fract_z
Si Si1 0.530873 0.896006 0.257186
Si Si2 0.541224 0.638694 0.877356
Si Si3 0.233683 0.757755 0.576832
Si Si4 0.879212 0.500000 0.027254
Si Si5 0.277687 0.107470 0.343325
Si Si6 0.349773 0.605685 0.893908
Si Si7 0.427749 0.156375 0.837880
Si Si8 0.957809 0.759449 0.364155
O O1 0.694225 0.832810 0.349422
O O2 0.346398 0.853232 0.192793
O O3 0.516976 0.897141 0.188849
O O4 0.553306 0.000000 0.287853
O O5 0.425153 0.621699 0.771586
O O6 0.424899 0.602752 0.871639
O O7 0.541071 0.748650 0.888354
O O8 0.722528 0.581500 0.959395
O O9 0.199759 0.664527 0.593277
O O10 0.395432 0.741919 0.612122
O O11 0.065255 0.792777 0.465327
O O12 0.031323 0.583605 0.098235
O O13 0.394887 0.157518 0.353478
O O14 0.317474 0.000000 0.367001
O O15 0.325264 0.500000 0.902378
O O16 0.500000 0.651077 0.000000
O O17 0.220792 0.186635 0.735549
#
# Coordination Sequence:
#
# PCOD9194950 Si02
#       8
#     8   8   8   4   8   8   8   8
#     4  11  21  36  62  95 128 167 214 269 339 402
#     4  11  21  39  64  92 129 177 222 271 335 393
#     4  11  23  44  70  98 134 175 228 283 348 412
#     4  12  22  38  63  92 129 176 217 263 337 412
#     4  11  22  42  72 102 134 174 231 295 337 405
#     4  10  20  34  58  92 127 159 216 281 324 380
#     4  11  23  40  60  92 131 171 214 271 331 404
#     4  10  24  44  68  97 136 177 221 283 351 408
#
# _framework density 21.446812999999999
#
# number of rings (size 3 to 8) (size 9 to 14) (size 15 to 20)
#    0.000    1.200    4.667    3.200    1.867    2.667 
#    2.400    2.000    0.000    0.800    0.000    0.000 
#    0.000    0.000    0.000    0.000    0.000    0.000 
#
# Total GULP energy -167003.208410 kJ/mol
# GULP energy per Si atom -5566.773614 kJ/mol
# Density = 2.139800 g / cm^3
# Si number density = 21.446813 Si / 1000 Ang^3
#
#
#
# Elastic Constant Matrix: (Units=GPa)
#
#
# Indices 1 2 3 4 5 6 
#
# 1 69.9889 12.5427 15.5419 -0.0001 14.9897 0.0002
# 2 12.5427 138.5480 39.7840 -0.0001 17.3298 -0.0003
# 3 15.5419 39.7840 100.2911 0.0000 30.2690 -0.0003
# 4 -0.0001 -0.0001 0.0000 64.6131 -0.0002 -113.4656
# 5 14.9897 17.3298 30.2690 -0.0002 29.6252 0.0003
# 6 0.0002 -0.0003 -0.0003 -113.4656 0.0003 122.1434
#
#
#
# Elastic Compliance Matrix: (Units=1/GPa)
#
#
# Indices 1 2 3 4 5 6 
#
# 1 0.016054 -0.000490 0.000103 0.000000 -0.007942 0.000000
# 2 -0.000490 0.008253 -0.002625 0.000000 -0.001898 0.000000
# 3 0.000103 -0.002625 0.015252 0.000000 -0.014100 0.000000
# 4 0.000000 0.000000 0.000000 -0.024515 0.000000 -0.022773
# 5 -0.007942 -0.001898 -0.014100 0.000000 0.053290 0.000000
# 6 0.000000 0.000000 0.000000 -0.022773 0.000000 -0.012968
#
#
# Mechanical properties :
#
#
# Convention : Reuss Voigt Hill
#
# Bulk Modulus (GPa) = 29.81878 49.39615 39.60746
# Shear Modulus (GPa) = 68.90158 59.34030 64.12094
#
# Velocity S-wave (km/s) = 5.67419 5.26580 5.47381
# Velocity P-wave (km/s) = 7.54072 7.74942 7.64578
#
# Compressibility (1/GPa) = 0.03353592
#
# Stress axis : x y z
#
# Youngs Moduli (GPa) = 62.29083 121.16399 65.56560
#
# Poissons Ratio (x) = 0.05933 -0.00678
# Poissons Ratio (y) = 0.03050 0.17213
# Poissons Ratio (z) = -0.00644 0.31809
#
# Static dielectric constant tensor:
#      x y z
#    x 1.788200 0.000000 -0.017630 
#    y 0.000000 1.812140 0.000000 
#    z -0.017630 0.000000 1.870690 
# 
# From -- ./inp_files/361574.got.cif
#   From: 2010.05.17/outbox.cif.g08.bks.cpg/sg12_181_cif.got.tgz:361574.got - 2010.06.03 13:09:07.
