data_PCOD9194626
_publ_section_title
;
Structure prediction by ZEFSAII (Michael W. Deem and Ramdas Pophale) SiO2 
 PCOD9194626
Probable space group: C 2/M
;
_chemical_formula_sum "Si O2"
_cell_formula_units_Z 64
_cell_length_a 11.540082
_cell_length_b 19.243366
_cell_length_c 14.661975
_cell_angle_alpha 90.000000
_cell_angle_beta 112.243699
_cell_angle_gamma 90.000000
_cell_volume 3013.681660
_symmetry_space_group_name_H-M "C 2/M"
_symmetry_group_IT_number 12
_symmetry_cell_setting 'monoclinic'
loop_
_space_group_symop_operation_xyz
x,y,z
-x,y,-z
-x,-y,-z
x,-y,z
1/2+x,1/2+y,z
1/2-x,1/2+y,-z
1/2-x,1/2-y,-z
1/2+x,1/2-y,z
loop_
_atom_site_type_symbol
_atom_site_label
_atom_site_fract_x
_atom_site_fract_y
_atom_site_fract_z
Si Si1 0.607661 0.341579 0.458492
Si Si2 0.869321 0.682346 0.496857
Si Si3 0.304290 0.786522 0.275382
Si Si4 0.466110 0.687693 0.883837
Si Si5 0.641055 0.078543 0.002385
Si Si6 0.992101 0.077694 0.257850
Si Si7 0.745955 0.867110 0.211966
Si Si8 0.525163 0.161919 0.816107
O O1 0.500000 0.361410 0.500000
O O2 0.757295 0.352962 0.521711
O O3 0.596710 0.257312 0.449304
O O4 0.574353 0.382700 0.357084
O O5 0.799341 0.699888 0.380461
O O6 0.000000 0.648969 0.500000
O O7 0.181696 0.809246 0.182820
O O8 0.310276 0.704503 0.259751
O O9 0.423262 0.824253 0.268025
O O10 0.513210 0.624900 0.834449
O O11 0.516092 0.763075 0.864124
O O12 0.500000 0.679381 0.000000
O O13 0.710362 0.128193 0.094258
O O14 0.692966 0.000000 0.015674
O O15 0.500000 0.073861 0.000000
O O16 0.621787 0.113637 0.899514
O O17 0.851565 0.076132 0.256456
O O18 0.036921 0.000000 0.252769
O O19 0.612765 0.870952 0.221967
#
# Coordination Sequence:
#
# PCOD9194626 Si02
#       8
#     8   8   8   8   8   8   8   8
#     4  10  22  40  65  97 129 164 217 274 346 398
#     4  10  21  37  67 100 130 161 211 284 349 404
#     4  11  21  37  64  95 133 163 214 281 338 384
#     4  11  24  40  61  96 137 179 227 266 322 391
#     4   9  18  34  51  78 120 170 217 265 322 378
#     4  12  25  43  64  93 138 180 219 270 329 399
#     4  10  20  34  56  87 122 164 218 266 322 383
#     4  10  21  35  61  90 124 166 220 285 322 373
#
# _framework density 21.236483
#
# number of rings (size 3 to 8) (size 9 to 14) (size 15 to 20)
#    0.000    1.625    2.500    3.750    1.750    4.000 
#    0.000    0.625    0.000    0.375    0.000    0.000 
#    0.000    0.000    0.000    0.000    0.000    0.000 
#
# Total GULP energy -178534.876547 kJ/mol
# GULP energy per Si atom -5579.214892 kJ/mol
# Density = 2.118815 g / cm^3
# Si number density = 21.236483 Si / 1000 Ang^3
#
#
#
# Elastic Constant Matrix: (Units=GPa)
#
#
# Indices 1 2 3 4 5 6 
#
# 1 99.0230 26.1496 11.1904 0.0000 -2.7984 0.0000
# 2 26.1496 70.0400 35.3273 0.0000 -5.4933 0.0000
# 3 11.1904 35.3273 89.8801 0.0000 -3.8241 0.0000
# 4 0.0000 0.0000 0.0000 8.3429 0.0000 -9.6032
# 5 -2.7984 -5.4933 -3.8241 0.0000 31.1349 0.0000
# 6 0.0000 0.0000 0.0000 -9.6032 0.0000 6.2049
#
#
#
# Elastic Compliance Matrix: (Units=1/GPa)
#
#
# Indices 1 2 3 4 5 6 
#
# 1 0.011213 -0.004323 0.000315 0.000000 0.000284 0.000000
# 2 -0.004323 0.019639 -0.007087 0.000000 0.002206 0.000000
# 3 0.000315 -0.007087 0.013893 0.000000 0.000484 0.000000
# 4 0.000000 0.000000 0.000000 -0.153379 0.000000 -0.237383
# 5 0.000284 0.002206 0.000484 0.000000 0.032593 0.000000
# 6 0.000000 0.000000 0.000000 -0.237383 0.000000 -0.206229
#
#
# Mechanical properties :
#
#
# Convention : Reuss Voigt Hill
#
# Bulk Modulus (GPa) = 44.33613 44.91977 44.62795
# Shear Modulus (GPa) = -19.79706 21.55490 0.87892
#
# Velocity S-wave (km/s) = -3.05654 3.18935 0.64403
# Velocity P-wave (km/s) = 2.90965 5.89582 4.64902
#
# Compressibility (1/GPa) = 0.02255497
#
# Stress axis : x y z
#
# Youngs Moduli (GPa) = 89.18488 50.91855 71.97939
#
# Poissons Ratio (x) = 0.22012 -0.02269
# Poissons Ratio (y) = 0.38555 0.51012
# Poissons Ratio (z) = -0.02811 0.36086
#
# Static dielectric constant tensor:
#      x y z
#    x 1.883380 0.000000 0.021670 
#    y 0.000000 1.736400 0.000000 
#    z 0.021670 0.000000 1.777140 
# 
# From -- ./inp_files/207722.got.cif
#   From: 2010.05.17/outbox.cif.g08.bks.cpg/sg12_104_cif.got.tgz:207722.got - 2010.06.03 13:09:07.
