data_PCOD9194692
_publ_section_title
;
Structure prediction by ZEFSAII (Michael W. Deem and Ramdas Pophale) SiO2 
 PCOD9194692
Probable space group: C 2/M
;
_chemical_formula_sum "Si O2"
_cell_formula_units_Z 50
_cell_length_a 19.431283
_cell_length_b 7.433626
_cell_length_c 16.981008
_cell_angle_alpha 90.000000
_cell_angle_beta 110.348061
_cell_angle_gamma 90.000000
_cell_volume 2299.757965
_symmetry_space_group_name_H-M "C 2/M"
_symmetry_group_IT_number 12
_symmetry_cell_setting 'monoclinic'
loop_
_space_group_symop_operation_xyz
x,y,z
-x,y,-z
-x,-y,-z
x,-y,z
1/2+x,1/2+y,z
1/2-x,1/2+y,-z
1/2-x,1/2-y,-z
1/2+x,1/2-y,z
loop_
_atom_site_type_symbol
_atom_site_label
_atom_site_fract_x
_atom_site_fract_y
_atom_site_fract_z
Si Si1 0.330155 0.296058 0.808245
Si Si2 0.388954 0.717526 0.536348
Si Si3 0.697707 0.715834 0.644305
Si Si4 0.566646 0.718322 0.277996
Si Si5 0.000000 0.500000 0.500000
Si Si6 0.274511 0.298925 0.096785
Si Si7 0.596471 0.720028 0.743510
O O1 0.346730 0.500000 0.838733
O O2 0.267331 0.296735 0.715814
O O3 0.399518 0.214853 0.790404
O O4 0.293360 0.208069 0.869512
O O5 0.403844 0.500000 0.534706
O O6 0.319916 0.759330 0.452547
O O7 0.382828 0.758822 0.626343
O O8 0.453679 0.841087 0.529131
O O9 0.705452 0.500000 0.654801
O O10 0.627097 0.772302 0.669611
O O11 0.564981 0.500000 0.270674
O O12 0.484686 0.779446 0.266166
O O13 0.301059 0.500000 0.099057
O O14 0.342831 0.210254 0.169883
O O15 0.250000 0.250000 0.000000
O O16 0.594727 0.500000 0.741197
#
# Coordination Sequence:
#
# PCOD9194692 Si02
#       7
#     8   8   8   8   2   8   8
#     4  10  20  34  57  84 114 146 186 235 287 347
#     4  10  21  36  54  79 118 160 199 250 291 336
#     4   9  18  34  55  77 108 156 199 238 283 331
#     4   9  18  35  55  80 114 155 190 232 291 343
#     4  12  22  32  52  86 108 148 204 250 298 338
#     4  10  20  37  61  85 107 139 182 230 285 350
#     4   8  15  30  54  79 103 139 188 228 273 338
#
# _framework density 21.741417999999999
#
# number of rings (size 3 to 8) (size 9 to 14) (size 15 to 20)
#    0.000    2.560    0.000    3.120    1.120    3.200 
#    2.880    0.800    1.760    4.800    0.000    0.000 
#    0.000    0.000    0.000    0.000    0.000    0.000 
#
# Total GULP energy -139177.443915 kJ/mol
# GULP energy per Si atom -5567.097757 kJ/mol
# Density = 2.169193 g / cm^3
# Si number density = 21.741418 Si / 1000 Ang^3
#
#
#
# Elastic Constant Matrix: (Units=GPa)
#
#
# Indices 1 2 3 4 5 6 
#
# 1 66.2351 -17.9537 29.5818 0.0000 -13.1829 0.0000
# 2 -17.9537 67.3236 0.6406 0.0000 2.2710 0.0000
# 3 29.5818 0.6406 134.5346 0.0000 -7.9497 0.0000
# 4 0.0000 0.0000 0.0000 12.5092 0.0000 3.0168
# 5 -13.1829 2.2710 -7.9497 0.0000 17.5159 0.0000
# 6 0.0000 0.0000 0.0000 3.0168 0.0000 9.8130
#
#
#
# Elastic Compliance Matrix: (Units=1/GPa)
#
#
# Indices 1 2 3 4 5 6 
#
# 1 0.020845 0.005147 -0.003823 0.000000 0.013286 0.000000
# 2 0.005147 0.016195 -0.001134 0.000000 0.001259 0.000000
# 3 -0.003823 -0.001134 0.008341 0.000000 0.001056 0.000000
# 4 0.000000 0.000000 0.000000 0.086343 0.000000 -0.026544
# 5 0.013286 0.001259 0.001056 0.000000 0.067406 0.000000
# 6 0.000000 0.000000 0.000000 -0.026544 0.000000 0.110066
#
#
# Mechanical properties :
#
#
# Convention : Reuss Voigt Hill
#
# Bulk Modulus (GPa) = 21.85316 32.51450 27.18383
# Shear Modulus (GPa) = 15.42879 25.02260 20.22570
#
# Velocity S-wave (km/s) = 2.66682 3.39620 3.05336
# Velocity P-wave (km/s) = 4.42219 5.51058 4.99611
#
# Compressibility (1/GPa) = 0.04575997
#
# Stress axis : x y z
#
# Youngs Moduli (GPa) = 47.97427 61.74919 119.88426
#
# Poissons Ratio (x) = -0.31782 0.45829
# Poissons Ratio (y) = -0.24692 0.13600
# Poissons Ratio (z) = 0.18340 0.07005
#
# Static dielectric constant tensor:
#      x y z
#    x 1.822670 0.000000 0.042710 
#    y 0.000000 1.841430 0.000000 
#    z 0.042710 0.000000 1.832620 
# 
# From -- ./inp_files/230306.got.cif
#   From: 2010.05.17/outbox.cif.g08.bks.cpg/sg12_116_cif.got.tgz:230306.got - 2010.06.03 13:09:07.
