data_PCOD9194472
_publ_section_title
;
Structure prediction by ZEFSAII (Michael W. Deem and Ramdas Pophale) SiO2 
 PCOD9194472
Probable space group: C 2/M
;
_chemical_formula_sum "Si O2"
_cell_formula_units_Z 48
_cell_length_a 14.729325
_cell_length_b 8.962056
_cell_length_c 16.572195
_cell_angle_alpha 90.000000
_cell_angle_beta 101.375919
_cell_angle_gamma 90.000000
_cell_volume 2144.635695
_symmetry_space_group_name_H-M "C 2/M"
_symmetry_group_IT_number 12
_symmetry_cell_setting 'monoclinic'
loop_
_space_group_symop_operation_xyz
x,y,z
-x,y,-z
-x,-y,-z
x,-y,z
1/2+x,1/2+y,z
1/2-x,1/2+y,-z
1/2-x,1/2-y,-z
1/2+x,1/2-y,z
loop_
_atom_site_type_symbol
_atom_site_label
_atom_site_fract_x
_atom_site_fract_y
_atom_site_fract_z
Si Si1 0.383611 0.322197 0.053168
Si Si2 0.707346 0.824568 0.118745
Si Si3 0.886905 0.327743 0.569099
Si Si4 0.948793 0.178103 0.326709
Si Si5 0.782110 0.327172 0.378466
Si Si6 0.556533 0.321904 0.185121
O O1 0.378411 0.500000 0.033277
O O2 0.314647 0.295587 0.116935
O O3 0.486762 0.286246 0.099137
O O4 0.344589 0.230473 0.971619
O O5 0.656406 0.743997 0.183124
O O6 0.696112 0.000000 0.127225
O O7 0.910515 0.500000 0.590648
O O8 0.978003 0.227634 0.592208
O O9 0.839878 0.322865 0.472943
O O10 0.810362 0.264502 0.617850
O O11 0.002405 0.228035 0.255256
O O12 0.850881 0.255338 0.325693
O O13 0.936463 0.000000 0.322591
O O14 0.760046 0.500000 0.356910
O O15 0.564210 0.500000 0.190911
#
# Coordination Sequence:
#
# PCOD9194472 Si02
#       6
#     8   8   8   8   8   8
#     4   9  19  37  57  76 105 143 178 217 269 325
#     4  10  20  34  56  84 107 134 179 229 271 315
#     4  10  21  38  60  84 111 145 185 230 280 332
#     4  11  23  37  55  82 115 150 188 229 276 331
#     4  10  21  38  60  85 111 143 186 232 278 330
#     4  10  22  38  54  76 109 148 182 215 266 327
#
# _framework density 22.381425
#
# number of rings (size 3 to 8) (size 9 to 14) (size 15 to 20)
#    0.000    2.000    0.000    3.000    0.000   10.000 
#    0.000    1.667    0.000    0.000    0.000    0.000 
#    0.000    0.000    0.000    0.000    0.000    0.000 
#
# Total GULP energy -134248.244753 kJ/mol
# GULP energy per Si atom -5593.676865 kJ/mol
# Density = 2.233048 g / cm^3
# Si number density = 22.381425 Si / 1000 Ang^3
#
#
#
# Elastic Constant Matrix: (Units=GPa)
#
#
# Indices 1 2 3 4 5 6 
#
# 1 109.8962 17.8733 13.8719 0.0000 -27.6853 0.0000
# 2 17.8733 40.5503 11.1321 0.0000 -20.8432 0.0000
# 3 13.8719 11.1321 55.3295 0.0000 -21.1598 0.0000
# 4 0.0000 0.0000 0.0000 24.8179 0.0000 -13.9009
# 5 -27.6853 -20.8432 -21.1598 0.0000 46.2912 0.0000
# 6 0.0000 0.0000 0.0000 -13.9009 0.0000 25.6705
#
#
#
# Elastic Compliance Matrix: (Units=1/GPa)
#
#
# Indices 1 2 3 4 5 6 
#
# 1 0.010825 -0.001867 -0.000223 0.000000 0.005532 0.000000
# 2 -0.001867 0.032467 -0.001091 0.000000 0.013003 0.000000
# 3 -0.000223 -0.001091 0.021947 0.000000 0.009407 0.000000
# 4 0.000000 0.000000 0.000000 0.057836 0.000000 0.031319
# 5 0.005532 0.013003 0.009407 0.000000 0.035066 0.000000
# 6 0.000000 0.000000 0.000000 0.031319 0.000000 0.055915
#
#
# Mechanical properties :
#
#
# Convention : Reuss Voigt Hill
#
# Bulk Modulus (GPa) = 16.98475 32.39231 24.68853
# Shear Modulus (GPa) = 20.82970 30.21583 25.52276
#
# Velocity S-wave (km/s) = 3.05400 3.67828 3.38058
# Velocity P-wave (km/s) = 4.47673 5.70473 5.12762
#
# Compressibility (1/GPa) = 0.05887635
#
# Stress axis : x y z
#
# Youngs Moduli (GPa) = 92.38089 30.80054 45.56511
#
# Poissons Ratio (x) = 0.05750 0.01016
# Poissons Ratio (y) = 0.17246 0.04972
# Poissons Ratio (z) = 0.02059 0.03361
#
# Static dielectric constant tensor:
#      x y z
#    x 1.811130 0.000000 -0.001320 
#    y 0.000000 1.746190 0.000000 
#    z -0.001320 0.000000 1.892860 
# 
# From -- ./inp_files/267667.got.cif
#   From: 2010.05.17/outbox.cif.g08.bks.cpg/sg12_134_cif.got.tgz:267667.got - 2010.06.03 13:09:07.
