data_PCOD9194176
_publ_section_title
;
Structure prediction by ZEFSAII (Michael W. Deem and Ramdas Pophale) SiO2 
 PCOD9194176
Probable space group: C 2/M
;
_chemical_formula_sum "Si O2"
_cell_formula_units_Z 64
_cell_length_a 21.352626
_cell_length_b 17.618800
_cell_length_c 25.107867
_cell_angle_alpha 90.000000
_cell_angle_beta 158.872110
_cell_angle_gamma 90.000000
_cell_volume 3404.736875
_symmetry_space_group_name_H-M "C 2/M"
_symmetry_group_IT_number 12
_symmetry_cell_setting 'monoclinic'
loop_
_space_group_symop_operation_xyz
x,y,z
-x,y,-z
-x,-y,-z
x,-y,z
1/2+x,1/2+y,z
1/2-x,1/2+y,-z
1/2-x,1/2-y,-z
1/2+x,1/2-y,z
loop_
_atom_site_type_symbol
_atom_site_label
_atom_site_fract_x
_atom_site_fract_y
_atom_site_fract_z
Si Si1 0.121786 0.915078 0.553523
Si Si2 0.045576 0.312490 0.190466
Si Si3 0.399590 0.343805 0.297148
Si Si4 0.158227 0.084786 0.327824
Si Si5 0.207440 0.908919 0.903066
Si Si6 0.700851 0.914570 0.677226
Si Si7 0.723692 0.765274 0.540699
Si Si8 0.855524 0.762645 0.842316
O O1 0.302862 0.874802 0.691681
O O2 0.000000 0.873714 0.500000
O O3 0.004018 0.912077 0.407776
O O4 0.155605 0.000000 0.598504
O O5 0.112100 0.262955 0.293409
O O6 0.063566 0.264675 0.149945
O O7 0.864479 0.357261 0.050199
O O8 0.337104 0.372379 0.190080
O O9 0.548050 0.278885 0.415007
O O10 0.248341 0.307837 0.213354
O O11 0.180866 0.090217 0.282301
O O12 0.284235 0.146129 0.453745
O O13 0.963606 0.096797 0.195533
O O14 0.210301 0.000000 0.384824
O O15 0.249227 0.000000 0.931675
O O16 0.500000 0.911240 0.500000
O O17 0.743245 0.838705 0.743602
O O18 0.728431 0.000000 0.722486
O O19 0.750000 0.750000 0.500000
O O20 0.000000 0.782944 0.000000
#
# Coordination Sequence:
#
# PCOD9194176 Si02
#       8
#     8   8   8   8   8   8   8   8
#     4  10  20  34  55  82 114 157 208 258 297 341
#     4  11  23  39  59  88 125 165 208 259 303 368
#     4  11  22  37  59  88 126 158 212 251 312 362
#     4  10  21  40  65  92 123 161 205 253 316 379
#     4  11  23  41  61  88 130 173 208 252 309 378
#     4  10  22  42  70  94 118 158 203 258 322 375
#     4  11  22  40  63  93 117 159 209 265 313 370
#     4  12  23  38  59  93 127 163 203 254 308 370
#
# _framework density 18.797340999999999
#
# number of rings (size 3 to 8) (size 9 to 14) (size 15 to 20)
#    0.000    1.250    5.000    1.500    1.750    0.750 
#    2.250    1.250    0.000    0.000    0.000    0.000 
#    0.000    0.000    0.000    0.000    0.000    0.000 
#
# Total GULP energy -178375.210874 kJ/mol
# GULP energy per Si atom -5574.225340 kJ/mol
# Density = 1.875456 g / cm^3
# Si number density = 18.797341 Si / 1000 Ang^3
#
#
#
# Elastic Constant Matrix: (Units=GPa)
#
#
# Indices 1 2 3 4 5 6 
#
# 1 75.8997 19.6089 27.7951 0.0010 -7.0895 -0.0005
# 2 19.6089 110.6136 30.7305 0.0155 0.1492 0.0099
# 3 27.7951 30.7305 72.2306 0.0299 -15.6942 -0.0015
# 4 0.0010 0.0155 0.0299 8.3894 0.0016 -5.2497
# 5 -7.0895 0.1492 -15.6942 0.0016 26.8124 -0.0013
# 6 -0.0005 0.0099 -0.0015 -5.2497 -0.0013 17.6910
#
#
#
# Elastic Compliance Matrix: (Units=1/GPa)
#
#
# Indices 1 2 3 4 5 6 
#
# 1 0.015511 -0.001313 -0.005175 0.000024 0.001079 0.000008
# 2 -0.001313 0.010577 -0.004678 -0.000008 -0.003144 -0.000009
# 3 -0.005175 -0.004678 0.020090 -0.000075 0.010417 -0.000017
# 4 0.000024 -0.000008 -0.000075 0.146379 -0.000044 0.043437
# 5 0.001079 -0.003144 0.010417 -0.000044 0.043696 -0.000007
# 6 0.000008 -0.000009 -0.000017 0.043437 -0.000007 0.069416
#
#
# Mechanical properties :
#
#
# Convention : Reuss Voigt Hill
#
# Bulk Modulus (GPa) = 41.93873 46.11255 44.02564
# Shear Modulus (GPa) = 14.88321 22.61919 18.75120
#
# Velocity S-wave (km/s) = 2.81690 3.47265 3.16182
# Velocity P-wave (km/s) = 5.73928 6.37681 6.06643
#
# Compressibility (1/GPa) = 0.02384431
#
# Stress axis : x y z
#
# Youngs Moduli (GPa) = 64.47181 94.54367 49.77671
#
# Poissons Ratio (x) = 0.12416 0.25762
# Poissons Ratio (y) = 0.08467 0.23285
# Poissons Ratio (z) = 0.33367 0.44226
#
# Static dielectric constant tensor:
#      x y z
#    x 1.681210 0.000000 0.018980 
#    y 0.000000 1.688000 -0.000020 
#    z 0.018980 -0.000020 1.602910 
# 
# From -- ./inp_files/347924.got.cif
#   From: 2010.05.17/outbox.cif.g08.bks.cpg/sg12_174_cif.got.tgz:347924.got - 2010.06.03 13:09:07.
