data_PCOD9194203
_publ_section_title
;
Structure prediction by ZEFSAII (Michael W. Deem and Ramdas Pophale) SiO2 
 PCOD9194203
Probable space group: C 2/M
;
_chemical_formula_sum "Si O2"
_cell_formula_units_Z 56
_cell_length_a 20.853958
_cell_length_b 9.061631
_cell_length_c 17.494582
_cell_angle_alpha 90.000000
_cell_angle_beta 63.944847
_cell_angle_gamma 90.000000
_cell_volume 2969.986519
_symmetry_space_group_name_H-M "C 2/M"
_symmetry_group_IT_number 12
_symmetry_cell_setting 'monoclinic'
loop_
_space_group_symop_operation_xyz
x,y,z
-x,y,-z
-x,-y,-z
x,-y,z
1/2+x,1/2+y,z
1/2-x,1/2+y,-z
1/2-x,1/2-y,-z
1/2+x,1/2-y,z
loop_
_atom_site_type_symbol
_atom_site_label
_atom_site_fract_x
_atom_site_fract_y
_atom_site_fract_z
Si Si1 0.588570 0.827707 0.284048
Si Si2 0.659118 0.828931 0.018084
Si Si3 0.584249 0.334250 0.441270
Si Si4 0.547679 0.324196 0.726601
Si Si5 0.287599 0.330402 0.863833
Si Si6 0.672492 0.676419 0.549495
Si Si7 0.517104 0.668692 0.080837
O O1 0.592553 0.782112 0.369982
O O2 0.522493 0.746047 0.276500
O O3 0.664215 0.775245 0.211162
O O4 0.578563 0.000000 0.278332
O O5 0.686680 0.708848 0.064147
O O6 0.576552 0.793628 0.057377
O O7 0.672005 0.000000 0.034484
O O8 0.702682 0.807146 0.916364
O O9 0.500000 0.340819 0.500000
O O10 0.606839 0.500000 0.404301
O O11 0.626707 0.298324 0.496174
O O12 0.543637 0.500000 0.714191
O O13 0.620749 0.273143 0.646642
O O14 0.541072 0.302407 0.821821
O O15 0.302032 0.500000 0.836786
O O16 0.682810 0.500000 0.552032
O O17 0.750000 0.750000 0.500000
O O18 0.543308 0.500000 0.084068
O O19 0.500000 0.668133 0.000000
#
# Coordination Sequence:
#
# PCOD9194203 Si02
#       7
#     8   8   8   8   8   8   8
#     4  12  23  34  57  92 121 148 195 254 301 347
#     4  10  20  34  55  83 111 145 191 242 293 340
#     4  10  20  39  64  88 119 160 201 240 299 373
#     4  10  20  39  63  84 114 160 203 242 301 368
#     4  10  20  35  55  79 115 155 186 229 291 359
#     4  10  22  41  65  89 120 163 204 249 305 369
#     4  10  21  37  59  84 114 157 202 242 293 360
#
# _framework density 18.855304
#
# number of rings (size 3 to 8) (size 9 to 14) (size 15 to 20)
#    0.000    1.714    2.857    2.143    0.000    3.429 
#    2.571    0.000    0.000    0.000    0.000    0.000 
#    0.000    0.000    0.000    0.000    0.000    0.000 
#
# Total GULP energy -155970.081318 kJ/mol
# GULP energy per Si atom -5570.360047 kJ/mol
# Density = 1.881239 g / cm^3
# Si number density = 18.855304 Si / 1000 Ang^3
#
#
#
# Elastic Constant Matrix: (Units=GPa)
#
#
# Indices 1 2 3 4 5 6 
#
# 1 62.8887 21.4632 48.4775 0.0000 -10.7914 0.0000
# 2 21.4632 49.2371 43.9600 0.0000 -9.1648 0.0000
# 3 48.4775 43.9600 142.1219 0.0000 -18.4097 0.0000
# 4 0.0000 0.0000 0.0000 25.0947 0.0000 -11.9123
# 5 -10.7914 -9.1648 -18.4097 0.0000 25.8518 0.0000
# 6 0.0000 0.0000 0.0000 -11.9123 0.0000 10.0667
#
#
#
# Elastic Compliance Matrix: (Units=1/GPa)
#
#
# Indices 1 2 3 4 5 6 
#
# 1 0.022458 -0.003709 -0.006025 0.000000 0.003769 0.000000
# 2 -0.003709 0.029081 -0.007265 0.000000 0.003588 0.000000
# 3 -0.006025 -0.007265 0.011764 0.000000 0.003287 0.000000
# 4 0.000000 0.000000 0.000000 0.090921 0.000000 0.107590
# 5 0.003769 0.003588 0.003287 0.000000 0.043868 0.000000
# 6 0.000000 0.000000 0.000000 0.107590 0.000000 0.226651
#
#
# Mechanical properties :
#
#
# Convention : Reuss Voigt Hill
#
# Bulk Modulus (GPa) = 34.12378 53.56099 43.84238
# Shear Modulus (GPa) = 10.67213 21.55912 16.11563
#
# Velocity S-wave (km/s) = 2.38166 3.38509 2.92670
# Velocity P-wave (km/s) = 5.06952 6.61411 5.89264
#
# Compressibility (1/GPa) = 0.02930508
#
# Stress axis : x y z
#
# Youngs Moduli (GPa) = 44.52761 34.38658 85.00286
#
# Poissons Ratio (x) = 0.12754 0.51213
# Poissons Ratio (y) = 0.16515 0.61757
# Poissons Ratio (z) = 0.26827 0.24983
#
# Static dielectric constant tensor:
#      x y z
#    x 1.680970 0.000000 -0.061750 
#    y 0.000000 1.648210 0.000000 
#    z -0.061750 0.000000 1.830310 
# 
# From -- ./inp_files/280980.got.cif
#   From: 2010.05.17/outbox.cif.g08.bks.cpg/sg12_141_cif.got.tgz:280980.got - 2010.06.03 13:09:07.
