data_PCOD9194126
_publ_section_title
;
Structure prediction by ZEFSAII (Michael W. Deem and Ramdas Pophale) SiO2 
 PCOD9194126
Probable space group: C 2/M
;
_chemical_formula_sum "Si O2"
_cell_formula_units_Z 64
_cell_length_a 19.137572
_cell_length_b 9.276238
_cell_length_c 26.263585
_cell_angle_alpha 90.000000
_cell_angle_beta 129.220881
_cell_angle_gamma 90.000000
_cell_volume 3612.053611
_symmetry_space_group_name_H-M "C 2/M"
_symmetry_group_IT_number 12
_symmetry_cell_setting 'monoclinic'
loop_
_space_group_symop_operation_xyz
x,y,z
-x,y,-z
-x,-y,-z
x,-y,z
1/2+x,1/2+y,z
1/2-x,1/2+y,-z
1/2-x,1/2-y,-z
1/2+x,1/2-y,z
loop_
_atom_site_type_symbol
_atom_site_label
_atom_site_fract_x
_atom_site_fract_y
_atom_site_fract_z
Si Si1 0.757495 0.826364 0.557787
Si Si2 0.928171 0.669925 0.180422
Si Si3 0.457334 0.327582 0.685575
Si Si4 0.382407 0.327308 0.318148
Si Si5 0.601041 0.172739 0.566312
Si Si6 0.894476 0.836482 0.961233
Si Si7 0.264798 0.830868 0.183669
Si Si8 0.344881 0.828221 0.037226
O O1 0.750000 0.750000 0.500000
O O2 0.854779 0.787235 0.626205
O O3 0.675679 0.788179 0.558168
O O4 0.755571 0.000000 0.550070
O O5 0.948900 0.500000 0.191083
O O6 0.835230 0.690241 0.169428
O O7 0.909430 0.714806 0.113959
O O8 0.004018 0.755159 0.245905
O O9 0.461677 0.500000 0.693010
O O10 0.525880 0.288585 0.670988
O O11 0.377798 0.500000 0.319741
O O12 0.383088 0.255100 0.373633
O O13 0.300914 0.265580 0.246297
O O14 0.500000 0.203769 0.500000
O O15 0.607661 0.000000 0.577914
O O16 0.833638 0.798559 0.884254
O O17 0.864183 0.000000 0.962299
O O18 0.879827 0.724598 0.999355
O O19 0.000000 0.842038 0.000000
O O20 0.268793 0.000000 0.200086
O O21 0.334010 0.000000 0.034554
O O22 0.250000 0.750000 0.000000
#
# Coordination Sequence:
#
# PCOD9194126 Si02
#       8
#     8   8   8   8   8   8   8   8
#     4  10  21  37  57  82 111 141 176 218 265 316
#     4   9  18  33  54  80 107 139 180 225 271 325
#     4   9  19  35  54  79 109 139 176 221 268 319
#     4  10  20  34  55  82 107 138 180 222 267 317
#     4  10  21  37  57  81 109 143 182 217 259 319
#     4  10  21  38  57  80 110 147 190 233 286 343
#     4   9  17  34  56  77 107 143 181 223 270 327
#     4  11  21  35  57  83 112 144 188 238 283 335
#
# _framework density 17.718453
#
# number of rings (size 3 to 8) (size 9 to 14) (size 15 to 20)
#    0.000    2.250    1.250    1.500    0.000    3.500 
#    2.250    0.000    0.000    0.000    0.000    0.000 
#    0.000    0.000    0.000    0.000    0.000    0.000 
#
# Total GULP energy -178535.963443 kJ/mol
# GULP energy per Si atom -5579.248858 kJ/mol
# Density = 1.767812 g / cm^3
# Si number density = 17.718453 Si / 1000 Ang^3
#
#
#
# Elastic Constant Matrix: (Units=GPa)
#
#
# Indices 1 2 3 4 5 6 
#
# 1 93.3444 43.3975 80.6131 0.0000 8.7334 0.0000
# 2 43.3975 46.9986 67.4652 0.0000 -4.5398 0.0000
# 3 80.6131 67.4652 172.4837 0.0000 6.2006 0.0000
# 4 0.0000 0.0000 0.0000 36.6711 0.0000 -5.9255
# 5 8.7334 -4.5398 6.2006 0.0000 32.0655 0.0000
# 6 0.0000 0.0000 0.0000 -5.9255 0.0000 21.6520
#
#
#
# Elastic Compliance Matrix: (Units=1/GPa)
#
#
# Indices 1 2 3 4 5 6 
#
# 1 0.021954 -0.015117 -0.004084 0.000000 -0.007330 0.000000
# 2 -0.015117 0.062802 -0.018092 0.000000 0.016507 0.000000
# 3 -0.004084 -0.018092 0.014939 0.000000 -0.004338 0.000000
# 4 0.000000 0.000000 0.000000 0.028531 0.000000 0.007808
# 5 -0.007330 0.016507 -0.004338 0.000000 0.036358 0.000000
# 6 0.000000 0.000000 0.000000 0.007808 0.000000 0.048322
#
#
# Mechanical properties :
#
#
# Convention : Reuss Voigt Hill
#
# Bulk Modulus (GPa) = 39.82898 77.30869 58.56884
# Shear Modulus (GPa) = 16.89967 26.16779 21.53373
#
# Velocity S-wave (km/s) = 3.09170 3.84717 3.48994
# Velocity P-wave (km/s) = 5.93906 7.96623 7.02614
#
# Compressibility (1/GPa) = 0.02510735
#
# Stress axis : x y z
#
# Youngs Moduli (GPa) = 45.54910 15.92308 66.93877
#
# Poissons Ratio (x) = 0.24072 0.27339
# Poissons Ratio (y) = 0.68859 1.21108
# Poissons Ratio (z) = 0.18603 0.28809
#
# Static dielectric constant tensor:
#      x y z
#    x 1.604900 0.000000 0.006080 
#    y 0.000000 1.597700 0.000000 
#    z 0.006080 0.000000 1.585580 
# 
# From -- ./inp_files/346295.got.cif
#   From: 2010.05.17/outbox.cif.g08.bks.cpg/sg12_174_cif.got.tgz:346295.got - 2010.06.03 13:09:07.
