data_PCOD9194344
_publ_section_title
;
Structure prediction by ZEFSAII (Michael W. Deem and Ramdas Pophale) SiO2 
 PCOD9194344
Probable space group: C 2/M
;
_chemical_formula_sum "Si O2"
_cell_formula_units_Z 40
_cell_length_a 19.340504
_cell_length_b 10.829098
_cell_length_c 9.002713
_cell_angle_alpha 90.000000
_cell_angle_beta 93.839812
_cell_angle_gamma 90.000000
_cell_volume 1881.297449
_symmetry_space_group_name_H-M "C 2/M"
_symmetry_group_IT_number 12
_symmetry_cell_setting 'monoclinic'
loop_
_space_group_symop_operation_xyz
x,y,z
-x,y,-z
-x,-y,-z
x,-y,z
1/2+x,1/2+y,z
1/2-x,1/2+y,-z
1/2-x,1/2-y,-z
1/2+x,1/2-y,z
loop_
_atom_site_type_symbol
_atom_site_label
_atom_site_fract_x
_atom_site_fract_y
_atom_site_fract_z
Si Si1 0.734216 0.637859 0.699443
Si Si2 0.676295 0.366339 0.355556
Si Si3 0.475198 0.720940 0.664346
Si Si4 0.102706 0.140789 0.894531
Si Si5 0.573900 0.867842 0.091633
O O1 0.764729 0.500000 0.716756
O O2 0.700010 0.643699 0.530823
O O3 0.788445 0.749167 0.718013
O O4 0.672466 0.649483 0.808342
O O5 0.700331 0.500000 0.300653
O O6 0.593404 0.362215 0.343656
O O7 0.500000 0.737890 0.500000
O O8 0.537438 0.668921 0.775707
O O9 0.446076 0.843565 0.740534
O O10 0.095416 0.000000 0.950214
O O11 0.105209 0.245075 0.021397
O O12 0.609261 0.000000 0.071411
O O13 0.500000 0.875065 0.000000
#
# Coordination Sequence:
#
# PCOD9194344 Si02
#       5
#     8   8   8   8   8
#     4   9  19  36  56  81 117 155 189 229 284 347
#     4  10  20  34  55  86 119 149 187 237 289 339
#     4  11  21  35  60  91 118 146 191 247 291 334
#     4  10  20  37  62  88 115 153 195 235 286 345
#     4   9  21  39  56  82 121 156 189 234 290 349
#
# _framework density 21.261921000000001
#
# number of rings (size 3 to 8) (size 9 to 14) (size 15 to 20)
#    0.000    2.200    2.000    0.600    0.000    7.200 
#    0.000    1.000    0.000    0.000    0.000    0.000 
#    0.000    0.000    0.000    0.000    0.000    0.000 
#
# Total GULP energy -111601.597172 kJ/mol
# GULP energy per Si atom -5580.079859 kJ/mol
# Density = 2.121353 g / cm^3
# Si number density = 21.261921 Si / 1000 Ang^3
#
#
#
# Elastic Constant Matrix: (Units=GPa)
#
#
# Indices 1 2 3 4 5 6 
#
# 1 97.6224 49.7068 47.7895 0.0000 1.2795 0.0000
# 2 49.7068 218.5379 85.5790 0.0000 -28.2105 0.0000
# 3 47.7895 85.5790 85.8042 0.0000 0.8287 0.0000
# 4 0.0000 0.0000 0.0000 -0.4574 0.0000 -24.5455
# 5 1.2795 -28.2105 0.8287 0.0000 32.2838 0.0000
# 6 0.0000 0.0000 0.0000 -24.5455 0.0000 3.4453
#
#
#
# Elastic Compliance Matrix: (Units=1/GPa)
#
#
# Indices 1 2 3 4 5 6 
#
# 1 0.014102 -0.000366 -0.007483 0.000000 -0.000687 0.000000
# 2 -0.000366 0.009350 -0.009203 0.000000 0.008421 0.000000
# 3 -0.007483 -0.009203 0.025082 0.000000 -0.008389 0.000000
# 4 0.000000 0.000000 0.000000 -0.005704 0.000000 -0.040634
# 5 -0.000687 0.008421 -0.008389 0.000000 0.038576 0.000000
# 6 0.000000 0.000000 0.000000 -0.040634 0.000000 0.000757
#
#
# Mechanical properties :
#
#
# Convention : Reuss Voigt Hill
#
# Bulk Modulus (GPa) = 69.29682 85.34611 77.32146
# Shear Modulus (GPa) = 41.29612 21.64696 31.47154
#
# Velocity S-wave (km/s) = 4.41189 3.19424 3.85149
# Velocity P-wave (km/s) = 7.65609 7.33701 7.49825
#
# Compressibility (1/GPa) = 0.01443068
#
# Stress axis : x y z
#
# Youngs Moduli (GPa) = 70.91267 106.95150 39.86959
#
# Poissons Ratio (x) = 0.03914 0.29832
# Poissons Ratio (y) = 0.02595 0.36692
# Poissons Ratio (z) = 0.53061 0.98427
#
# Static dielectric constant tensor:
#      x y z
#    x 1.752100 0.000000 0.030540 
#    y 0.000000 1.813690 0.000000 
#    z 0.030540 0.000000 1.747310 
# 
# From -- ./inp_files/71189.got.cif
#   From: 2010.05.17/outbox.cif.g08.bks.cpg/sg12_36_cif.got.tgz:71189.got - 2010.06.03 13:09:07.
