data_PCOD9194730
_publ_section_title
;
Structure prediction by ZEFSAII (Michael W. Deem and Ramdas Pophale) SiO2 
 PCOD9194730
Probable space group: C 2/M
;
_chemical_formula_sum "Si O2"
_cell_formula_units_Z 56
_cell_length_a 20.040816
_cell_length_b 8.750079
_cell_length_c 19.054776
_cell_angle_alpha 90.000000
_cell_angle_beta 114.585654
_cell_angle_gamma 90.000000
_cell_volume 3038.488985
_symmetry_space_group_name_H-M "C 2/M"
_symmetry_group_IT_number 12
_symmetry_cell_setting 'monoclinic'
loop_
_space_group_symop_operation_xyz
x,y,z
-x,y,-z
-x,-y,-z
x,-y,z
1/2+x,1/2+y,z
1/2-x,1/2+y,-z
1/2-x,1/2-y,-z
1/2+x,1/2-y,z
loop_
_atom_site_type_symbol
_atom_site_label
_atom_site_fract_x
_atom_site_fract_y
_atom_site_fract_z
Si Si1 0.413917 0.324496 0.984127
Si Si2 0.771638 0.814362 0.305029
Si Si3 0.045324 0.683008 0.854943
Si Si4 0.880610 0.684356 0.824703
Si Si5 0.814660 0.815941 0.480986
Si Si6 0.026656 0.682603 0.432325
Si Si7 0.091536 0.816439 0.727119
O O1 0.390777 0.500000 0.981298
O O2 0.411345 0.239299 0.057186
O O3 0.500000 0.322354 0.000000
O O4 0.374440 0.244747 0.901477
O O5 0.689396 0.763119 0.250695
O O6 0.799496 0.766979 0.393837
O O7 0.830603 0.767572 0.272246
O O8 0.770349 0.000000 0.304999
O O9 0.046801 0.500000 0.852449
O O10 0.077361 0.752133 0.798073
O O11 0.959673 0.731637 0.827856
O O12 0.880879 0.500000 0.826825
O O13 0.750000 0.750000 0.500000
O O14 0.892316 0.750521 0.539696
O O15 0.815579 0.000000 0.484158
O O16 0.027996 0.500000 0.423490
O O17 0.000000 0.716266 0.500000
O O18 0.971178 0.755844 0.352651
O O19 0.089393 0.000000 0.727771
#
# Coordination Sequence:
#
# PCOD9194730 Si02
#       7
#     8   8   8   8   8   8   8
#     4   9  17  32  54  82 114 145 182 230 280 333
#     4   9  20  38  58  80 113 152 186 229 287 343
#     4  10  20  34  57  86 114 146 187 234 282 339
#     4   9  18  35  58  82 110 147 186 228 282 340
#     4  11  23  40  61  87 118 153 193 239 292 346
#     4  11  23  40  61  84 113 152 197 241 286 340
#     4  11  22  38  59  83 114 151 192 235 285 343
#
# _framework density 18.430213999999999
#
# number of rings (size 3 to 8) (size 9 to 14) (size 15 to 20)
#    0.000    2.000    1.429    2.143    2.000    2.857 
#    0.000    3.571    0.000    0.000    0.000    0.000 
#    0.000    0.000    0.000    0.000    0.000    0.000 
#
# Total GULP energy -156328.238786 kJ/mol
# GULP energy per Si atom -5583.151385 kJ/mol
# Density = 1.838827 g / cm^3
# Si number density = 18.430214 Si / 1000 Ang^3
#
#
#
# Elastic Constant Matrix: (Units=GPa)
#
#
# Indices 1 2 3 4 5 6 
#
# 1 77.0179 12.9231 6.5079 0.0000 -18.4096 0.0000
# 2 12.9231 36.8401 2.6912 0.0000 -16.3947 0.0000
# 3 6.5079 2.6912 48.0355 0.0000 -23.8446 0.0000
# 4 0.0000 0.0000 0.0000 28.0260 0.0000 -8.3975
# 5 -18.4096 -16.3947 -23.8446 0.0000 35.4928 0.0000
# 6 0.0000 0.0000 0.0000 -8.3975 0.0000 21.5694
#
#
#
# Elastic Compliance Matrix: (Units=1/GPa)
#
#
# Indices 1 2 3 4 5 6 
#
# 1 0.015132 -0.001617 0.002349 0.000000 0.008680 0.000000
# 2 -0.001617 0.037068 0.009340 0.000000 0.022559 0.000000
# 3 0.002349 0.009340 0.034092 0.000000 0.028437 0.000000
# 4 0.000000 0.000000 0.000000 0.040393 0.000000 0.015726
# 5 0.008680 0.022559 0.028437 0.000000 0.062201 0.000000
# 6 0.000000 0.000000 0.000000 0.015726 0.000000 0.052485
#
#
# Mechanical properties :
#
#
# Convention : Reuss Voigt Hill
#
# Bulk Modulus (GPa) = 9.39514 22.90419 16.14967
# Shear Modulus (GPa) = 19.47761 26.33572 22.90666
#
# Velocity S-wave (km/s) = 3.25442 3.78424 3.52928
# Velocity P-wave (km/s) = 4.38525 5.61680 5.03879
#
# Compressibility (1/GPa) = 0.10643796
#
# Stress axis : x y z
#
# Youngs Moduli (GPa) = 66.08711 26.97709 29.33220
#
# Poissons Ratio (x) = 0.04362 -0.06891
# Poissons Ratio (y) = 0.10685 -0.27398
# Poissons Ratio (z) = -0.15525 -0.25198
#
# Static dielectric constant tensor:
#      x y z
#    x 1.626980 0.000000 0.001530 
#    y 0.000000 1.620010 0.000000 
#    z 0.001530 0.000000 1.612280 
# 
# From -- ./inp_files/275626.got.cif
#   From: 2010.05.17/outbox.cif.g08.bks.cpg/sg12_138_cif.got.tgz:275626.got - 2010.06.03 13:09:07.
