data_PCOD9194778
_publ_section_title
;
Structure prediction by ZEFSAII (Michael W. Deem and Ramdas Pophale) SiO2 
 PCOD9194778
Probable space group: C 2/M
;
_chemical_formula_sum "Si O2"
_cell_formula_units_Z 56
_cell_length_a 14.550768
_cell_length_b 8.277187
_cell_length_c 27.084445
_cell_angle_alpha 90.000000
_cell_angle_beta 55.154971
_cell_angle_gamma 90.000000
_cell_volume 2677.153571
_symmetry_space_group_name_H-M "C 2/M"
_symmetry_group_IT_number 12
_symmetry_cell_setting 'monoclinic'
loop_
_space_group_symop_operation_xyz
x,y,z
-x,y,-z
-x,-y,-z
x,-y,z
1/2+x,1/2+y,z
1/2-x,1/2+y,-z
1/2-x,1/2-y,-z
1/2+x,1/2-y,z
loop_
_atom_site_type_symbol
_atom_site_label
_atom_site_fract_x
_atom_site_fract_y
_atom_site_fract_z
Si Si1 0.231415 0.190833 0.217724
Si Si2 0.341076 0.191875 0.860929
Si Si3 0.252910 0.192362 0.577844
Si Si4 0.157028 0.805519 0.988919
Si Si5 0.174458 0.194636 0.344760
Si Si6 0.023647 0.191594 0.882337
Si Si7 0.926579 0.804724 0.448087
O O1 0.158263 0.270104 0.196908
O O2 0.205564 0.252892 0.280680
O O3 0.361239 0.222881 0.165893
O O4 0.209463 0.000000 0.223287
O O5 0.217348 0.242070 0.919564
O O6 0.434911 0.278844 0.865139
O O7 0.353378 0.000000 0.865367
O O8 0.244343 0.254776 0.635953
O O9 0.154212 0.249504 0.571836
O O10 0.367649 0.248772 0.516380
O O11 0.250831 0.000000 0.579054
O O12 0.148806 0.000000 0.990951
O O13 0.250000 0.750000 0.000000
O O14 0.039381 0.749520 0.048131
O O15 0.051285 0.252776 0.398779
O O16 0.172499 0.000000 0.343691
O O17 0.045574 0.000000 0.880654
O O18 0.928146 0.000000 0.448699
#
# Coordination Sequence:
#
# PCOD9194778 Si02
#       7
#     8   8   8   8   8   8   8
#     4  11  24  39  54  79 112 150 195 233 272 327
#     4  10  20  37  59  83 111 143 182 232 284 334
#     4  10  20  34  57  88 113 135 173 223 270 318
#     4   8  16  31  54  81 107 137 177 225 280 337
#     4  10  22  39  56  75 107 149 186 220 263 318
#     4  10  20  37  59  82 110 145 183 229 284 338
#     4   9  19  37  58  80 109 144 176 212 266 324
#
# _framework density 20.917739000000001
#
# number of rings (size 3 to 8) (size 9 to 14) (size 15 to 20)
#    0.000    2.286    0.000    2.143    0.000    6.857 
#    0.000    4.286    0.000    0.000    0.000    0.000 
#    0.000    0.000    0.000    0.000    0.000    0.000 
#
# Total GULP energy -156316.560557 kJ/mol
# GULP energy per Si atom -5582.734306 kJ/mol
# Density = 2.087013 g / cm^3
# Si number density = 20.917739 Si / 1000 Ang^3
#
#
#
# Elastic Constant Matrix: (Units=GPa)
#
#
# Indices 1 2 3 4 5 6 
#
# 1 46.5242 -5.7867 20.9701 0.0000 9.9725 0.0000
# 2 -5.7867 13.3786 5.0785 0.0000 1.1772 0.0000
# 3 20.9701 5.0785 96.5164 0.0000 34.1481 0.0000
# 4 0.0000 0.0000 0.0000 26.3764 0.0000 1.9455
# 5 9.9725 1.1772 34.1481 0.0000 32.2520 0.0000
# 6 0.0000 0.0000 0.0000 1.9455 0.0000 21.3336
#
#
#
# Elastic Compliance Matrix: (Units=1/GPa)
#
#
# Indices 1 2 3 4 5 6 
#
# 1 0.026246 0.013655 -0.005394 0.000000 -0.002903 0.000000
# 2 0.013655 0.083485 -0.007656 0.000000 0.000836 0.000000
# 3 -0.005394 -0.007656 0.017983 0.000000 -0.017093 0.000000
# 4 0.000000 0.000000 0.000000 0.038169 0.000000 -0.003481
# 5 -0.002903 0.000836 -0.017093 0.000000 0.049971 0.000000
# 6 0.000000 0.000000 0.000000 -0.003481 0.000000 0.047192
#
#
# Mechanical properties :
#
#
# Convention : Reuss Voigt Hill
#
# Bulk Modulus (GPa) = 7.75636 21.88255 14.81946
# Shear Modulus (GPa) = 16.40359 25.06954 20.73657
#
# Velocity S-wave (km/s) = 2.80339 3.46567 3.15197
# Velocity P-wave (km/s) = 3.76759 5.14766 4.51072
#
# Compressibility (1/GPa) = 0.12892649
#
# Stress axis : x y z
#
# Youngs Moduli (GPa) = 38.10083 11.97817 55.60660
#
# Poissons Ratio (x) = -0.16357 0.29994
# Poissons Ratio (y) = -0.52028 0.42570
# Poissons Ratio (z) = 0.20552 0.09170
#
# Static dielectric constant tensor:
#      x y z
#    x 1.761450 0.000000 0.002600 
#    y 0.000000 1.727270 0.000000 
#    z 0.002600 0.000000 1.760870 
# 
# From -- ./inp_files/309017.got.cif
#   From: 2010.05.17/outbox.cif.g08.bks.cpg/sg12_155_cif.got.tgz:309017.got - 2010.06.03 13:09:07.
