data_PCOD9194614
_publ_section_title
;
Structure prediction by ZEFSAII (Michael W. Deem and Ramdas Pophale) SiO2 
 PCOD9194614
Probable space group: C 2/M
;
_chemical_formula_sum "Si O2"
_cell_formula_units_Z 32
_cell_length_a 18.690570
_cell_length_b 11.097927
_cell_length_c 8.485535
_cell_angle_alpha 90.000000
_cell_angle_beta 54.312693
_cell_angle_gamma 90.000000
_cell_volume 1429.596442
_symmetry_space_group_name_H-M "C 2/M"
_symmetry_group_IT_number 12
_symmetry_cell_setting 'monoclinic'
loop_
_space_group_symop_operation_xyz
x,y,z
-x,y,-z
-x,-y,-z
x,-y,z
1/2+x,1/2+y,z
1/2-x,1/2+y,-z
1/2-x,1/2-y,-z
1/2+x,1/2-y,z
loop_
_atom_site_type_symbol
_atom_site_label
_atom_site_fract_x
_atom_site_fract_y
_atom_site_fract_z
Si Si1 0.656653 0.244264 0.707328
Si Si2 0.899983 0.000000 0.182274
Si Si3 0.897962 0.500000 0.690076
Si Si4 0.600605 0.500000 0.435779
Si Si5 0.402228 0.243440 0.555116
Si Si6 0.099516 0.500000 0.939176
O O1 0.750000 0.250000 0.500000
O O2 0.641191 0.371533 0.814062
O O3 0.589859 0.237198 0.644096
O O4 0.644818 0.122534 0.819436
O O5 0.897140 0.000000 0.376965
O O6 0.000000 0.000000 0.000000
O O7 0.857093 0.622406 0.674179
O O8 0.000000 0.500000 0.500000
O O9 0.899628 0.500000 0.874393
O O10 0.500000 0.500000 0.500000
O O11 0.640805 0.370762 0.339682
O O12 0.500000 0.246018 0.500000
O O13 0.000000 0.500000 0.000000
#
# Coordination Sequence:
#
# PCOD9194614 Si02
#       6
#     8   4   4   4   8   4
#     4  11  23  40  63  93 127 162 203 263 322 366
#     4  10  21  36  58  89 119 153 204 252 301 370
#     4  10  20  34  56  87 118 154 206 257 295 350
#     4   8  16  29  51  79 105 142 191 240 288 343
#     4   9  17  34  57  82 114 158 201 244 297 365
#     4  12  23  39  65  95 122 167 220 257 302 379
#
# _framework density 22.383939000000002
#
# number of rings (size 3 to 8) (size 9 to 14) (size 15 to 20)
#    0.000    2.000    0.000    5.250    0.000    6.000 
#    0.000    1.250    0.000   12.000    0.000    0.000 
#    0.000    0.000    0.000    0.000    0.000    0.000 
#
# Total GULP energy -89299.840625 kJ/mol
# GULP energy per Si atom -5581.240039 kJ/mol
# Density = 2.233299 g / cm^3
# Si number density = 22.383939 Si / 1000 Ang^3
#
#
#
# Elastic Constant Matrix: (Units=GPa)
#
#
# Indices 1 2 3 4 5 6 
#
# 1 43.2548 10.5316 3.3172 0.0000 3.8952 0.0000
# 2 10.5316 324.1641 78.3492 0.0000 3.0055 0.0000
# 3 3.3172 78.3492 77.9548 0.0000 -8.4112 0.0000
# 4 0.0000 0.0000 0.0000 23.2840 0.0000 -7.6283
# 5 3.8952 3.0055 -8.4112 0.0000 41.3567 0.0000
# 6 0.0000 0.0000 0.0000 -7.6283 0.0000 -9.6041
#
#
#
# Elastic Compliance Matrix: (Units=1/GPa)
#
#
# Indices 1 2 3 4 5 6 
#
# 1 0.023519 -0.000582 -0.000665 0.000000 -0.002308 0.000000
# 2 -0.000582 0.004144 -0.004260 0.000000 -0.001113 0.000000
# 3 -0.000665 -0.004260 0.017563 0.000000 0.003944 0.000000
# 4 0.000000 0.000000 0.000000 0.034080 0.000000 -0.027069
# 5 -0.002308 -0.001113 0.003944 0.000000 0.025280 0.000000
# 6 0.000000 0.000000 0.000000 -0.027069 0.000000 -0.082622
#
#
# Mechanical properties :
#
#
# Convention : Reuss Voigt Hill
#
# Bulk Modulus (GPa) = 29.22898 69.97443 49.60170
# Shear Modulus (GPa) = 112.65694 34.55235 73.60465
#
# Velocity S-wave (km/s) = 7.10202 3.93316 5.74057
# Velocity P-wave (km/s) = 8.96314 7.20799 8.13305
#
# Compressibility (1/GPa) = 0.03421262
#
# Stress axis : x y z
#
# Youngs Moduli (GPa) = 42.51817 241.33046 56.93679
#
# Poissons Ratio (x) = 0.14045 0.03786
# Poissons Ratio (y) = 0.02475 0.24255
# Poissons Ratio (z) = 0.02827 1.02806
#
# Static dielectric constant tensor:
#      x y z
#    x 1.868560 0.000000 0.030690 
#    y 0.000000 1.990340 0.000000 
#    z 0.030690 0.000000 1.698200 
# 
# From -- ./inp_files/83282.got.cif
#   From: 2010.05.17/outbox.cif.g08.bks.cpg/sg12_42_cif.got.tgz:83282.got - 2010.06.03 13:09:07.
