data_PCOD9194358
_publ_section_title
;
Structure prediction by ZEFSAII (Michael W. Deem and Ramdas Pophale) SiO2 
 PCOD9194358
Probable space group: C 2/M
;
_chemical_formula_sum "Si O2"
_cell_formula_units_Z 64
_cell_length_a 29.197681
_cell_length_b 8.937841
_cell_length_c 14.425628
_cell_angle_alpha 90.000000
_cell_angle_beta 119.980771
_cell_angle_gamma 90.000000
_cell_volume 3260.847302
_symmetry_space_group_name_H-M "C 2/M"
_symmetry_group_IT_number 12
_symmetry_cell_setting 'monoclinic'
loop_
_space_group_symop_operation_xyz
x,y,z
-x,y,-z
-x,-y,-z
x,-y,z
1/2+x,1/2+y,z
1/2-x,1/2+y,-z
1/2-x,1/2-y,-z
1/2+x,1/2-y,z
loop_
_atom_site_type_symbol
_atom_site_label
_atom_site_fract_x
_atom_site_fract_y
_atom_site_fract_z
Si Si1 0.702757 0.679800 0.892825
Si Si2 0.903176 0.322565 0.679887
Si Si3 0.407225 0.176853 0.153426
Si Si4 0.944824 0.667927 0.390615
Si Si5 0.770331 0.174375 0.292066
Si Si6 0.208811 0.822402 0.385251
Si Si7 0.506298 0.182538 0.900288
Si Si8 0.613507 0.669067 0.519956
O O1 0.702774 0.500000 0.899105
O O2 0.646891 0.741656 0.873898
O O3 0.714132 0.719343 0.796510
O O4 0.750000 0.750000 0.000000
O O5 0.896381 0.500000 0.684290
O O6 0.849777 0.239827 0.656538
O O7 0.954471 0.274297 0.789450
O O8 0.909491 0.282242 0.578241
O O9 0.446013 0.189684 0.281918
O O10 0.440194 0.231816 0.097919
O O11 0.395439 0.000000 0.129135
O O12 0.922340 0.500000 0.382665
O O13 0.908834 0.791308 0.402134
O O14 0.000000 0.674189 0.500000
O O15 0.727824 0.273864 0.302056
O O16 0.823661 0.182491 0.407141
O O17 0.753313 0.000000 0.273106
O O18 0.250000 0.750000 0.500000
O O19 0.210022 0.000000 0.397752
O O20 0.507951 0.000000 0.901048
O O21 0.500000 0.231165 0.000000
O O22 0.600029 0.500000 0.479684
#
# Coordination Sequence:
#
# PCOD9194358 Si02
#       8
#     8   8   8   8   8   8   8   8
#     4  11  24  43  65  91 124 161 206 255 308 367
#     4  11  22  38  62  91 125 165 208 254 307 364
#     4  10  20  37  63  92 122 158 202 249 301 359
#     4  10  20  34  55  86 123 160 201 248 302 368
#     4  10  22  40  60  84 120 161 202 250 305 367
#     4  12  24  38  60  90 126 165 208 255 310 371
#     4   9  20  40  65  91 120 159 206 251 297 356
#     4  11  21  35  57  85 120 158 199 250 307 363
#
# _framework density 19.626799999999999
#
# number of rings (size 3 to 8) (size 9 to 14) (size 15 to 20)
#    0.000    1.500    2.500    3.000    0.000    4.750 
#    0.000    5.000    0.000    2.625    0.000    0.000 
#    0.000    0.000    0.000    0.000    0.000    0.000 
#
# Total GULP energy -178722.936356 kJ/mol
# GULP energy per Si atom -5585.091761 kJ/mol
# Density = 1.958213 g / cm^3
# Si number density = 19.626800 Si / 1000 Ang^3
#
#
#
# Elastic Constant Matrix: (Units=GPa)
#
#
# Indices 1 2 3 4 5 6 
#
# 1 126.6525 43.7241 50.5528 0.0000 -18.5970 0.0000
# 2 43.7241 62.6857 29.2990 0.0000 -2.7110 0.0000
# 3 50.5528 29.2990 106.6464 0.0000 -11.1099 0.0000
# 4 0.0000 0.0000 0.0000 15.7544 0.0000 -4.0870
# 5 -18.5970 -2.7110 -11.1099 0.0000 30.3433 0.0000
# 6 0.0000 0.0000 0.0000 -4.0870 0.0000 29.8298
#
#
#
# Elastic Compliance Matrix: (Units=1/GPa)
#
#
# Indices 1 2 3 4 5 6 
#
# 1 0.012479 -0.006850 -0.003431 0.000000 0.005780 0.000000
# 2 -0.006850 0.022065 -0.003167 0.000000 -0.003387 0.000000
# 3 -0.003431 -0.003167 0.012086 0.000000 0.002039 0.000000
# 4 0.000000 0.000000 0.000000 0.065813 0.000000 0.009017
# 5 0.005780 -0.003387 0.002039 0.000000 0.036943 0.000000
# 6 0.000000 0.000000 0.000000 0.009017 0.000000 0.034759
#
#
# Mechanical properties :
#
#
# Convention : Reuss Voigt Hill
#
# Bulk Modulus (GPa) = 50.68049 60.34850 55.51449
# Shear Modulus (GPa) = 22.97585 26.67940 24.82763
#
# Velocity S-wave (km/s) = 3.42517 3.69092 3.56052
# Velocity P-wave (km/s) = 6.44364 6.99847 6.72678
#
# Compressibility (1/GPa) = 0.01973146
#
# Stress axis : x y z
#
# Youngs Moduli (GPa) = 80.13606 45.32088 82.74156
#
# Poissons Ratio (x) = 0.31047 0.28389
# Poissons Ratio (y) = 0.54897 0.26208
# Poissons Ratio (z) = 0.27495 0.14355
#
# Static dielectric constant tensor:
#      x y z
#    x 1.698910 0.000000 -0.020760 
#    y 0.000000 1.673450 0.000000 
#    z -0.020760 0.000000 1.687770 
# 
# From -- ./inp_files/249245.got.cif
#   From: 2010.05.17/outbox.cif.g08.bks.cpg/sg12_125_cif.got.tgz:249245.got - 2010.06.03 13:09:07.
