data_PCOD9194995
_publ_section_title
;
Structure prediction by ZEFSAII (Michael W. Deem and Ramdas Pophale) SiO2 
 PCOD9194995
Probable space group: C 2/M
;
_chemical_formula_sum "Si O2"
_cell_formula_units_Z 64
_cell_length_a 20.196351
_cell_length_b 22.013400
_cell_length_c 12.698572
_cell_angle_alpha 90.000000
_cell_angle_beta 143.715301
_cell_angle_gamma 90.000000
_cell_volume 3341.091458
_symmetry_space_group_name_H-M "C 2/M"
_symmetry_group_IT_number 12
_symmetry_cell_setting 'monoclinic'
loop_
_space_group_symop_operation_xyz
x,y,z
-x,y,-z
-x,-y,-z
x,-y,z
1/2+x,1/2+y,z
1/2-x,1/2+y,-z
1/2-x,1/2-y,-z
1/2+x,1/2-y,z
loop_
_atom_site_type_symbol
_atom_site_label
_atom_site_fract_x
_atom_site_fract_y
_atom_site_fract_z
Si Si1 0.494530 0.927590 0.111724
Si Si2 0.125772 0.640511 0.672838
Si Si3 0.336401 0.715475 0.686935
Si Si4 0.798661 0.427510 0.023141
Si Si5 0.645198 0.133917 0.473783
Si Si6 0.101657 0.846255 0.695572
Si Si7 0.985234 0.751041 0.242801
Si Si8 0.721669 0.241636 0.161172
O O1 0.379016 0.915583 0.025471
O O2 0.592557 0.901609 0.310074
O O3 0.506975 0.000000 0.122181
O O4 0.500000 0.902539 0.000000
O O5 0.143158 0.601478 0.799386
O O6 0.138504 0.603779 0.579831
O O7 0.215191 0.695186 0.785548
O O8 0.000000 0.665442 0.500000
O O9 0.250000 0.750000 0.500000
O O10 0.273930 0.651842 0.622464
O O11 0.451900 0.714821 0.772767
O O12 0.334749 0.749349 0.797172
O O13 0.787885 0.500000 0.020714
O O14 0.680334 0.394524 0.854420
O O15 0.569053 0.196219 0.381677
O O16 0.183320 0.809240 0.721616
O O17 0.000000 0.874275 0.500000
O O18 0.049012 0.796892 0.708788
O O19 0.869845 0.727042 0.045012
#
# Coordination Sequence:
#
# PCOD9194995 Si02
#       8
#     8   8   8   8   8   8   8   8
#     4  10  22  39  58  84 120 158 202 252 300 356
#     4  11  20  36  60  89 122 148 190 250 300 361
#     4   9  20  34  51  85 122 154 192 237 292 366
#     4  11  25  42  61  89 118 158 209 252 304 357
#     4  10  20  34  59  89 121 156 198 245 301 367
#     4  12  24  39  61  87 121 160 200 250 297 361
#     4  11  21  36  57  88 123 161 192 241 303 363
#     4  11  21  35  58  88 121 158 193 240 301 363
#
# _framework density 19.155415999999999
#
# number of rings (size 3 to 8) (size 9 to 14) (size 15 to 20)
#    0.000    1.375    2.500    4.875    0.000    6.000 
#    0.000    0.000    0.000    0.750    0.000    1.750 
#    0.000    0.000    0.000    0.000    0.000    0.000 
#
# Total GULP energy -178632.464295 kJ/mol
# GULP energy per Si atom -5582.264509 kJ/mol
# Density = 1.911182 g / cm^3
# Si number density = 19.155416 Si / 1000 Ang^3
#
#
#
# Elastic Constant Matrix: (Units=GPa)
#
#
# Indices 1 2 3 4 5 6 
#
# 1 107.5124 24.4673 40.7862 0.0000 -16.8356 0.0000
# 2 24.4673 57.2390 29.9030 0.0000 -5.8999 0.0000
# 3 40.7862 29.9030 105.5400 0.0000 -5.4125 0.0000
# 4 0.0000 0.0000 0.0000 12.9983 0.0000 -5.8646
# 5 -16.8356 -5.8999 -5.4125 0.0000 37.3284 0.0000
# 6 0.0000 0.0000 0.0000 -5.8646 0.0000 17.2840
#
#
#
# Elastic Compliance Matrix: (Units=1/GPa)
#
#
# Indices 1 2 3 4 5 6 
#
# 1 0.012005 -0.002780 -0.003624 0.000000 0.004450 0.000000
# 2 -0.002780 0.021368 -0.004908 0.000000 0.001412 0.000000
# 3 -0.003624 -0.004908 0.012233 0.000000 -0.000636 0.000000
# 4 0.000000 0.000000 0.000000 0.090840 0.000000 0.030823
# 5 0.004450 0.001412 -0.000636 0.000000 0.028927 0.000000
# 6 0.000000 0.000000 0.000000 0.030823 0.000000 0.068315
#
#
# Mechanical properties :
#
#
# Convention : Reuss Voigt Hill
#
# Bulk Modulus (GPa) = 43.50765 51.17828 47.34296
# Shear Modulus (GPa) = 18.94130 25.19779 22.06955
#
# Velocity S-wave (km/s) = 3.14797 3.63083 3.39799
# Velocity P-wave (km/s) = 5.99793 6.65978 6.33750
#
# Compressibility (1/GPa) = 0.02298446
#
# Stress axis : x y z
#
# Youngs Moduli (GPa) = 83.29579 46.79811 81.74409
#
# Poissons Ratio (x) = 0.13010 0.29621
# Poissons Ratio (y) = 0.23157 0.40117
# Poissons Ratio (z) = 0.30183 0.22967
#
# Static dielectric constant tensor:
#      x y z
#    x 1.744230 0.000000 -0.005940 
#    y 0.000000 1.673600 0.000000 
#    z -0.005940 0.000000 1.679780 
# 
# From -- ./inp_files/169706.got.cif
#   From: 2010.05.17/outbox.cif.g08.bks.cpg/sg12_85_cif.got.tgz:169706.got - 2010.06.03 13:09:07.
