data_PCOD9194542
_publ_section_title
;
Structure prediction by ZEFSAII (Michael W. Deem and Ramdas Pophale) SiO2 
 PCOD9194542
Probable space group: C 2/M
;
_chemical_formula_sum "Si O2"
_cell_formula_units_Z 48
_cell_length_a 18.568198
_cell_length_b 15.573453
_cell_length_c 13.189881
_cell_angle_alpha 90.000000
_cell_angle_beta 42.782630
_cell_angle_gamma 90.000000
_cell_volume 2590.629291
_symmetry_space_group_name_H-M "C 2/M"
_symmetry_group_IT_number 12
_symmetry_cell_setting 'monoclinic'
loop_
_space_group_symop_operation_xyz
x,y,z
-x,y,-z
-x,-y,-z
x,-y,z
1/2+x,1/2+y,z
1/2-x,1/2+y,-z
1/2-x,1/2-y,-z
1/2+x,1/2-y,z
loop_
_atom_site_type_symbol
_atom_site_label
_atom_site_fract_x
_atom_site_fract_y
_atom_site_fract_z
Si Si1 0.695030 0.694464 0.195277
Si Si2 0.065045 0.601268 0.826465
Si Si3 0.850683 0.000000 0.727950
Si Si4 0.591319 0.500000 0.561447
Si Si5 0.078333 0.732491 0.127532
Si Si6 0.763304 0.233887 0.628877
Si Si7 0.385794 0.336430 0.322423
O O1 0.695525 0.590715 0.187263
O O2 0.612165 0.738596 0.205082
O O3 0.674914 0.720629 0.331354
O O4 0.812254 0.726021 0.045750
O O5 0.085250 0.500000 0.788515
O O6 0.173120 0.657910 0.718689
O O7 0.988078 0.645455 0.822773
O O8 0.000000 0.609521 0.000000
O O9 0.845424 0.000000 0.610267
O O10 0.970997 0.000000 0.644816
O O11 0.612228 0.421223 0.613992
O O12 0.000784 0.807127 0.167815
O O13 0.697116 0.321643 0.682200
O O14 0.844425 0.229399 0.451919
#
# Coordination Sequence:
#
# PCOD9194542 Si02
#       7
#     8   8   4   4   8   8   8
#     4  11  21  36  58  86 117 150 192 235 287 343
#     4  10  20  34  56  85 113 146 188 236 281 328
#     4  11  22  32  60  91 115 144 188 249 296 325
#     4  11  20  36  58  87 119 144 190 245 294 331
#     4  10  22  36  53  83 122 156 182 231 287 349
#     4  10  21  35  57  84 113 151 191 234 289 338
#     4  10  21  37  55  85 117 152 186 238 286 344
#
# _framework density 18.528317000000001
#
# number of rings (size 3 to 8) (size 9 to 14) (size 15 to 20)
#    0.000    1.667    5.000    0.000    3.500    0.667 
#    0.000    0.000    1.833    1.000    0.000    3.500 
#    0.000    0.000    0.000    0.000    0.000    0.000 
#
# Total GULP energy -133727.012271 kJ/mol
# GULP energy per Si atom -5571.958845 kJ/mol
# Density = 1.848615 g / cm^3
# Si number density = 18.528317 Si / 1000 Ang^3
#
#
#
# Elastic Constant Matrix: (Units=GPa)
#
#
# Indices 1 2 3 4 5 6 
#
# 1 62.0279 38.8440 -3.6201 0.0000 5.1792 0.0000
# 2 38.8440 95.0967 18.1601 0.0000 8.4557 0.0000
# 3 -3.6201 18.1601 41.3194 0.0000 -3.4960 0.0000
# 4 0.0000 0.0000 0.0000 24.2987 0.0000 6.1536
# 5 5.1792 8.4557 -3.4960 0.0000 24.7426 0.0000
# 6 0.0000 0.0000 0.0000 6.1536 0.0000 27.1263
#
#
#
# Elastic Compliance Matrix: (Units=1/GPa)
#
#
# Indices 1 2 3 4 5 6 
#
# 1 0.023288 -0.010782 0.006759 0.000000 -0.000235 0.000000
# 2 -0.010782 0.017036 -0.008839 0.000000 -0.004814 0.000000
# 3 0.006759 -0.008839 0.029163 0.000000 0.005727 0.000000
# 4 0.000000 0.000000 0.000000 0.043663 0.000000 -0.009905
# 5 -0.000235 -0.004814 0.005727 0.000000 0.042920 0.000000
# 6 0.000000 0.000000 0.000000 -0.009905 0.000000 0.039111
#
#
# Mechanical properties :
#
#
# Convention : Reuss Voigt Hill
#
# Bulk Modulus (GPa) = 22.85045 33.91245 28.38145
# Shear Modulus (GPa) = 21.23199 24.90419 23.06809
#
# Velocity S-wave (km/s) = 3.38882 3.67020 3.53231
# Velocity P-wave (km/s) = 5.26038 6.02522 5.65574
#
# Compressibility (1/GPa) = 0.04376281
#
# Stress axis : x y z
#
# Youngs Moduli (GPa) = 42.94013 58.69942 34.28953
#
# Poissons Ratio (x) = 0.63292 -0.23178
# Poissons Ratio (y) = 0.46300 0.30310
# Poissons Ratio (z) = -0.29025 0.51887
#
# Static dielectric constant tensor:
#      x y z
#    x 1.668850 0.000000 -0.016910 
#    y 0.000000 1.676140 0.000000 
#    z -0.016910 0.000000 1.651300 
# 
# From -- ./inp_files/157689.got.cif
#   From: 2010.05.17/outbox.cif.g08.bks.cpg/sg12_79_cif.got.tgz:157689.got - 2010.06.03 13:09:07.
