data_PCOD9194590
_publ_section_title
;
Structure prediction by ZEFSAII (Michael W. Deem and Ramdas Pophale) SiO2 
 PCOD9194590
Probable space group: C 2/M
;
_chemical_formula_sum "Si O2"
_cell_formula_units_Z 56
_cell_length_a 20.998269
_cell_length_b 8.805069
_cell_length_c 30.855541
_cell_angle_alpha 90.000000
_cell_angle_beta 146.395346
_cell_angle_gamma 90.000000
_cell_volume 3157.439501
_symmetry_space_group_name_H-M "C 2/M"
_symmetry_group_IT_number 12
_symmetry_cell_setting 'monoclinic'
loop_
_space_group_symop_operation_xyz
x,y,z
-x,y,-z
-x,-y,-z
x,-y,z
1/2+x,1/2+y,z
1/2-x,1/2+y,-z
1/2-x,1/2-y,-z
1/2+x,1/2-y,z
loop_
_atom_site_type_symbol
_atom_site_label
_atom_site_fract_x
_atom_site_fract_y
_atom_site_fract_z
Si Si1 0.099395 0.316630 0.176274
Si Si2 0.169458 0.317885 0.731695
Si Si3 0.186800 0.682948 0.842678
Si Si4 0.447718 0.816673 0.751361
Si Si5 0.075236 0.181516 0.422465
Si Si6 0.210774 0.818552 0.410882
Si Si7 0.429324 0.182998 0.002985
O O1 0.109783 0.500000 0.179975
O O2 0.219829 0.244576 0.230409
O O3 0.065987 0.274843 0.206218
O O4 0.002046 0.270985 0.086360
O O5 0.166648 0.500000 0.728372
O O6 0.179202 0.271077 0.787869
O O7 0.050860 0.251832 0.646031
O O8 0.192505 0.500000 0.847318
O O9 0.071230 0.731056 0.802038
O O10 0.302340 0.749321 0.928626
O O11 0.348486 0.745723 0.665499
O O12 0.441103 0.000000 0.744218
O O13 0.128573 0.221192 0.405350
O O14 0.165688 0.247001 0.508237
O O15 0.070150 0.000000 0.422889
O O16 0.220176 0.000000 0.414369
O O17 0.421128 0.000000 0.997911
O O18 0.500000 0.229629 0.000000
#
# Coordination Sequence:
#
# PCOD9194590 Si02
#       7
#     8   8   8   8   8   8   8
#     4  10  22  39  58  80 112 153 190 229 283 340
#     4  11  21  35  57  85 114 145 187 236 279 328
#     4  10  21  35  56  83 111 146 186 231 282 332
#     4  10  21  39  58  80 115 153 187 227 282 343
#     4  10  20  34  57  86 115 148 187 229 276 332
#     4  10  20  34  56  86 117 147 184 232 279 327
#     4  10  20  35  56  82 111 145 189 236 278 328
#
# _framework density 17.735890000000001
#
# number of rings (size 3 to 8) (size 9 to 14) (size 15 to 20)
#    0.000    1.857    2.857    1.286    0.000    4.286 
#    0.000    0.714    0.000    4.286    0.000    0.000 
#    0.000    0.000    0.000    0.000    0.000    0.000 
#
# Total GULP energy -156380.041737 kJ/mol
# GULP energy per Si atom -5585.001491 kJ/mol
# Density = 1.769552 g / cm^3
# Si number density = 17.735890 Si / 1000 Ang^3
#
#
#
# Elastic Constant Matrix: (Units=GPa)
#
#
# Indices 1 2 3 4 5 6 
#
# 1 124.6975 34.2759 82.8491 0.0000 -2.6366 -0.0001
# 2 34.2759 19.1968 40.0539 0.0001 -0.9759 -0.0001
# 3 82.8491 40.0539 182.5591 0.0000 3.0584 0.0000
# 4 0.0000 0.0001 0.0000 37.8815 0.0000 4.5203
# 5 -2.6366 -0.9759 3.0584 0.0000 31.4534 0.0000
# 6 -0.0001 -0.0001 0.0000 4.5203 0.0000 22.8103
#
#
#
# Elastic Compliance Matrix: (Units=1/GPa)
#
#
# Indices 1 2 3 4 5 6 
#
# 1 0.016095 -0.024772 -0.001882 0.000000 0.000764 0.000000
# 2 -0.024772 0.135002 -0.018443 0.000000 0.003905 0.000001
# 3 -0.001882 -0.018443 0.010407 0.000000 -0.001742 0.000000
# 4 0.000000 0.000000 0.000000 0.027037 0.000000 -0.005358
# 5 0.000764 0.003905 -0.001742 0.000000 0.032148 0.000000
# 6 0.000000 0.000001 0.000000 -0.005358 0.000000 0.044902
#
#
# Mechanical properties :
#
#
# Convention : Reuss Voigt Hill
#
# Bulk Modulus (GPa) = 14.02323 71.20126 42.61224
# Shear Modulus (GPa) = 13.17327 29.71400 21.44363
#
# Velocity S-wave (km/s) = 2.72829 4.09756 3.48092
# Velocity P-wave (km/s) = 4.22477 7.91322 6.34302
#
# Compressibility (1/GPa) = 0.07131025
#
# Stress axis : x y z
#
# Youngs Moduli (GPa) = 62.13047 7.40728 96.08509
#
# Poissons Ratio (x) = 0.18349 0.18084
# Poissons Ratio (y) = 1.53911 1.77211
# Poissons Ratio (z) = 0.11693 0.13661
#
# Static dielectric constant tensor:
#      x y z
#    x 1.590370 0.000000 -0.008790 
#    y 0.000000 1.595620 0.000000 
#    z -0.008790 0.000000 1.576720 
# 
# From -- ./inp_files/275510.got.cif
#   From: 2010.05.17/outbox.cif.g08.bks.cpg/sg12_138_cif.got.tgz:275510.got - 2010.06.03 13:09:07.
