data_PCOD9194965
_publ_section_title
;
Structure prediction by ZEFSAII (Michael W. Deem and Ramdas Pophale) SiO2 
 PCOD9194965
Probable space group: C 2/M
;
_chemical_formula_sum "Si O2"
_cell_formula_units_Z 64
_cell_length_a 27.592043
_cell_length_b 28.816514
_cell_length_c 10.489647
_cell_angle_alpha 90.000000
_cell_angle_beta 160.871672
_cell_angle_gamma 90.000000
_cell_volume 2733.020012
_symmetry_space_group_name_H-M "C 2/M"
_symmetry_group_IT_number 12
_symmetry_cell_setting 'monoclinic'
loop_
_space_group_symop_operation_xyz
x,y,z
-x,y,-z
-x,-y,-z
x,-y,z
1/2+x,1/2+y,z
1/2-x,1/2+y,-z
1/2-x,1/2-y,-z
1/2+x,1/2-y,z
loop_
_atom_site_type_symbol
_atom_site_label
_atom_site_fract_x
_atom_site_fract_y
_atom_site_fract_z
Si Si1 0.925751 0.399537 0.949921
Si Si2 0.615580 0.051747 0.902863
Si Si3 0.625154 0.615508 0.076244
Si Si4 0.177318 0.649941 0.959749
Si Si5 0.678326 0.360565 0.932784
Si Si6 0.096571 0.050302 0.613747
Si Si7 0.874666 0.697747 0.917622
Si Si8 0.433721 0.708953 0.973102
O O1 0.748498 0.399415 0.483350
O O2 0.963803 0.347573 0.094132
O O3 0.957368 0.433838 0.144178
O O4 0.000000 0.410644 0.000000
O O5 0.500000 0.048330 0.500000
O O6 0.712001 0.097804 0.103877
O O7 0.679685 0.000000 0.082499
O O8 0.523720 0.658298 0.870578
O O9 0.712030 0.634815 0.166046
O O10 0.517878 0.573842 0.768632
O O11 0.000000 0.648667 0.500000
O O12 0.248110 0.666911 0.001375
O O13 0.197302 0.685888 0.125429
O O14 0.500000 0.352018 0.500000
O O15 0.707811 0.411380 0.944111
O O16 0.000000 0.044193 0.500000
O O17 0.155329 0.000000 0.723786
O O18 0.742856 0.702613 0.487204
O O19 0.958550 0.746588 0.123329
O O20 0.500000 0.718892 0.000000
#
# Coordination Sequence:
#
# PCOD9194965 Si02
#       8
#     8   8   8   8   8   8   8   8
#     4  10  20  34  59  83 120 159 202 260 308 367
#     4   9  20  37  54  81 119 162 205 246 307 376
#     4   9  20  34  56  91 114 155 204 256 311 357
#     4  10  21  38  63  87 122 163 199 248 312 372
#     4   9  20  36  60  89 120 158 204 249 303 374
#     4   8  16  34  56  82 115 151 193 243 298 361
#     4   9  21  38  55  90 113 157 204 249 305 371
#     4  10  20  37  62  81 114 158 204 256 308 371
#
# _framework density 23.417318999999999
#
# number of rings (size 3 to 8) (size 9 to 14) (size 15 to 20)
#    0.000    3.000    0.000    0.375    8.750    1.250 
#    0.000    3.125    0.000    0.375    0.000    0.000 
#    0.000    0.000    0.000    0.000    0.000    0.000 
#
# Total GULP energy -178263.041168 kJ/mol
# GULP energy per Si atom -5570.720036 kJ/mol
# Density = 2.336402 g / cm^3
# Si number density = 23.417319 Si / 1000 Ang^3
#
#
#
# Elastic Constant Matrix: (Units=GPa)
#
#
# Indices 1 2 3 4 5 6 
#
# 1 173.7404 34.0044 9.0350 0.0000 -3.6632 0.0000
# 2 34.0044 108.4338 2.4748 0.0000 -9.0748 0.0000
# 3 9.0350 2.4748 58.4985 0.0000 -10.9780 0.0000
# 4 0.0000 0.0000 0.0000 16.3200 0.0000 -22.9968
# 5 -3.6632 -9.0748 -10.9780 0.0000 36.5018 0.0000
# 6 0.0000 0.0000 0.0000 -22.9968 0.0000 17.0455
#
#
#
# Elastic Compliance Matrix: (Units=1/GPa)
#
#
# Indices 1 2 3 4 5 6 
#
# 1 0.006177 -0.001927 -0.000897 0.000000 -0.000129 0.000000
# 2 -0.001927 0.010020 0.000323 0.000000 0.002395 0.000000
# 3 -0.000897 0.000323 0.018247 0.000000 0.005478 0.000000
# 4 0.000000 0.000000 0.000000 -0.068000 0.000000 -0.091742
# 5 -0.000129 0.002395 0.005478 0.000000 0.029626 0.000000
# 6 0.000000 0.000000 0.000000 -0.091742 0.000000 -0.065106
#
#
# Mechanical properties :
#
#
# Convention : Reuss Voigt Hill
#
# Bulk Modulus (GPa) = 33.96479 47.96675 40.96577
# Shear Modulus (GPa) = -92.21569 33.65069 -29.28250
#
# Velocity S-wave (km/s) = -6.28210 3.79489 -3.54003
# Velocity P-wave (km/s) = 6.17123 6.30314 0.90704
#
# Compressibility (1/GPa) = 0.02944226
#
# Stress axis : x y z
#
# Youngs Moduli (GPa) = 161.89491 99.80364 54.80246
#
# Poissons Ratio (x) = 0.19236 0.04914
# Poissons Ratio (y) = 0.31203 -0.01771
# Poissons Ratio (z) = 0.14516 -0.03226
#
# Static dielectric constant tensor:
#      x y z
#    x 1.957180 0.000000 0.050040 
#    y 0.000000 2.037060 0.000000 
#    z 0.050040 0.000000 1.980880 
# 
# From -- ./inp_files/100238.got.cif
#   From: 2010.05.17/outbox.cif.g08.bks.cpg/sg12_51_cif.got.tgz:100238.got - 2010.06.03 13:09:07.
