data_PCOD9194797
_publ_section_title
;
Structure prediction by ZEFSAII (Michael W. Deem and Ramdas Pophale) SiO2 
 PCOD9194797
Probable space group: C 2/M
;
_chemical_formula_sum "Si O2"
_cell_formula_units_Z 64
_cell_length_a 9.005161
_cell_length_b 25.088290
_cell_length_c 15.195378
_cell_angle_alpha 90.000000
_cell_angle_beta 107.329313
_cell_angle_gamma 90.000000
_cell_volume 3277.172969
_symmetry_space_group_name_H-M "C 2/M"
_symmetry_group_IT_number 12
_symmetry_cell_setting 'monoclinic'
loop_
_space_group_symop_operation_xyz
x,y,z
-x,y,-z
-x,-y,-z
x,-y,z
1/2+x,1/2+y,z
1/2-x,1/2+y,-z
1/2-x,1/2-y,-z
1/2+x,1/2-y,z
loop_
_atom_site_type_symbol
_atom_site_label
_atom_site_fract_x
_atom_site_fract_y
_atom_site_fract_z
Si Si1 0.579358 0.142028 0.772064
Si Si2 0.165003 0.779472 0.223869
Si Si3 0.826973 0.060818 0.511946
Si Si4 0.808570 0.063347 0.717114
Si Si5 0.250817 0.855121 0.639966
Si Si6 0.902587 0.328637 0.897665
Si Si7 0.650124 0.246095 0.568377
Si Si8 0.593201 0.366591 0.797735
O O1 0.713013 0.185837 0.810236
O O2 0.664017 0.094156 0.735871
O O3 0.429090 0.162574 0.689962
O O4 0.504670 0.132194 0.854116
O O5 0.133697 0.724101 0.168315
O O6 0.256815 0.776869 0.333055
O O7 0.008485 0.812264 0.215756
O O8 0.821307 0.075285 0.614198
O O9 0.738294 0.102189 0.435213
O O10 0.000000 0.061700 0.500000
O O11 0.768941 0.000000 0.493921
O O12 0.966517 0.087213 0.787476
O O13 0.797521 0.000000 0.725298
O O14 0.133035 0.807699 0.594078
O O15 0.177235 0.875913 0.718239
O O16 0.738044 0.356914 0.887913
O O17 0.000000 0.313714 0.000000
O O18 0.500000 0.218706 0.500000
O O19 0.750000 0.250000 0.500000
#
# Coordination Sequence:
#
# PCOD9194797 Si02
#       8
#     8   8   8   8   8   8   8   8
#     4  10  23  39  60  87 124 155 201 259 313 365
#     4  11  22  40  57  89 130 165 208 255 300 360
#     4  10  20  34  57  88 119 157 218 259 292 356
#     4  10  22  41  64  89 121 164 203 255 314 366
#     4  11  21  35  53  82 122 169 207 253 298 345
#     4  11  24  42  68  93 120 157 203 260 322 378
#     4  12  24  32  52  81 123 172 208 237 283 356
#     4  10  21  38  63  85 126 159 202 251 307 372
#
# _framework density 19.529026999999999
#
# number of rings (size 3 to 8) (size 9 to 14) (size 15 to 20)
#    0.000    1.375    3.750    2.625    3.500    3.000 
#    0.000    5.000    0.000    2.250    0.000    0.000 
#    0.000    0.000    0.000    0.000    0.000    0.000 
#
# Total GULP energy -178327.969492 kJ/mol
# GULP energy per Si atom -5572.749047 kJ/mol
# Density = 1.948458 g / cm^3
# Si number density = 19.529027 Si / 1000 Ang^3
#
#
#
# Elastic Constant Matrix: (Units=GPa)
#
#
# Indices 1 2 3 4 5 6 
#
# 1 102.4040 12.3999 27.1829 0.0000 10.3367 0.0000
# 2 12.3999 52.7523 12.7879 0.0000 5.0459 0.0000
# 3 27.1829 12.7879 77.2130 0.0000 23.1794 0.0000
# 4 0.0000 0.0000 0.0000 13.4113 0.0000 -0.9550
# 5 10.3367 5.0459 23.1794 0.0000 23.6312 0.0000
# 6 0.0000 0.0000 0.0000 -0.9550 0.0000 20.8181
#
#
#
# Elastic Compliance Matrix: (Units=1/GPa)
#
#
# Indices 1 2 3 4 5 6 
#
# 1 0.010945 -0.001676 -0.003183 0.000000 -0.001307 0.000000
# 2 -0.001676 0.020040 -0.002359 0.000000 -0.001232 0.000000
# 3 -0.003183 -0.002359 0.019692 0.000000 -0.017419 0.000000
# 4 0.000000 0.000000 0.000000 0.074808 0.000000 0.003432
# 5 -0.001307 -0.001232 -0.017419 0.000000 0.060238 0.000000
# 6 0.000000 0.000000 0.000000 0.003432 0.000000 0.048193
#
#
# Mechanical properties :
#
#
# Convention : Reuss Voigt Hill
#
# Bulk Modulus (GPa) = 27.59348 37.45674 32.52511
# Shear Modulus (GPa) = 19.19881 23.57202 21.38542
#
# Velocity S-wave (km/s) = 3.13883 3.47800 3.31276
# Velocity P-wave (km/s) = 5.22460 5.94561 5.59673
#
# Compressibility (1/GPa) = 0.03624044
#
# Stress axis : x y z
#
# Youngs Moduli (GPa) = 91.36477 49.89965 50.78265
#
# Poissons Ratio (x) = 0.08363 0.16165
# Poissons Ratio (y) = 0.15313 0.11980
# Poissons Ratio (z) = 0.29083 0.11772
#
# Static dielectric constant tensor:
#      x y z
#    x 1.717770 0.000000 0.013420 
#    y 0.000000 1.682730 0.000000 
#    z 0.013420 0.000000 1.697320 
# 
# From -- ./inp_files/199884.got.cif
#   From: 2010.05.17/outbox.cif.g08.bks.cpg/sg12_100_cif.got.tgz:199884.got - 2010.06.03 13:09:07.
