data_PCOD9194868
_publ_section_title
;
Structure prediction by ZEFSAII (Michael W. Deem and Ramdas Pophale) SiO2 
 PCOD9194868
Probable space group: C 2/M
;
_chemical_formula_sum "Si O2"
_cell_formula_units_Z 42
_cell_length_a 12.611370
_cell_length_b 18.591547
_cell_length_c 8.051116
_cell_angle_alpha 90.000000
_cell_angle_beta 68.953262
_cell_angle_gamma 90.000000
_cell_volume 1761.771018
_symmetry_space_group_name_H-M "C 2/M"
_symmetry_group_IT_number 12
_symmetry_cell_setting 'monoclinic'
loop_
_space_group_symop_operation_xyz
x,y,z
-x,y,-z
-x,-y,-z
x,-y,z
1/2+x,1/2+y,z
1/2-x,1/2+y,-z
1/2-x,1/2-y,-z
1/2+x,1/2-y,z
loop_
_atom_site_type_symbol
_atom_site_label
_atom_site_fract_x
_atom_site_fract_y
_atom_site_fract_z
Si Si1 0.650791 0.914533 0.586854
Si Si2 0.075606 0.585397 0.118306
Si Si3 0.738609 0.656105 0.799003
Si Si4 0.460312 0.640461 0.299203
Si Si5 0.500000 0.500000 0.500000
Si Si6 0.684118 0.314196 0.317843
O O1 0.517782 0.899583 0.686430
O O2 0.698773 0.885994 0.387387
O O3 0.725356 0.875518 0.686742
O O4 0.666227 0.000000 0.592998
O O5 0.101017 0.500000 0.100789
O O6 0.190994 0.628379 0.082937
O O7 0.000000 0.602459 0.000000
O O8 0.607728 0.639440 0.833765
O O9 0.758391 0.740283 0.763344
O O10 0.461235 0.563415 0.389644
O O11 0.388158 0.691541 0.467749
O O12 0.589742 0.666186 0.234064
#
# Coordination Sequence:
#
# PCOD9194868 Si02
#       6
#     8   8   8   8   2   8
#     4  10  20  34  58  83 109 142 184 225 269 325
#     4  10  23  40  56  78 110 147 182 229 278 317
#     4  11  21  32  59  84 109 142 184 226 266 331
#     4   9  19  29  49  80 115 148 162 222 280 318
#     4   8  16  28  44  72 116 138 168 208 262 330
#     4   9  20  31  51  81 118 141 172 225 275 320
#
# _framework density 23.839646999999999
#
# number of rings (size 3 to 8) (size 9 to 14) (size 15 to 20)
#    0.000    2.476    0.000    3.429   21.333    1.524 
#    0.000    0.952    0.000    0.000    0.000    4.000 
#    0.000    0.000    0.000    0.000    0.000    0.000 
#
# Total GULP energy -117176.375649 kJ/mol
# GULP energy per Si atom -5579.827412 kJ/mol
# Density = 2.378539 g / cm^3
# Si number density = 23.839647 Si / 1000 Ang^3
#
#
#
# Elastic Constant Matrix: (Units=GPa)
#
#
# Indices 1 2 3 4 5 6 
#
# 1 166.7798 58.5792 47.4235 0.0000 47.3195 0.0000
# 2 58.5792 98.1475 14.7200 0.0000 21.0975 0.0000
# 3 47.4235 14.7200 78.4422 0.0000 24.5139 0.0000
# 4 0.0000 0.0000 0.0000 10.4681 0.0000 5.3876
# 5 47.3195 21.0975 24.5139 0.0000 50.4198 0.0000
# 6 0.0000 0.0000 0.0000 5.3876 0.0000 10.0086
#
#
#
# Elastic Compliance Matrix: (Units=1/GPa)
#
#
# Indices 1 2 3 4 5 6 
#
# 1 0.010213 -0.004261 -0.003463 0.000000 -0.006119 0.000000
# 2 -0.004261 0.013011 0.000691 0.000000 -0.001781 0.000000
# 3 -0.003463 0.000691 0.016257 0.000000 -0.004943 0.000000
# 4 0.000000 0.000000 0.000000 0.132137 0.000000 -0.071130
# 5 -0.006119 -0.001781 -0.004943 0.000000 0.028725 0.000000
# 6 0.000000 0.000000 0.000000 -0.071130 0.000000 0.138203
#
#
# Mechanical properties :
#
#
# Convention : Reuss Voigt Hill
#
# Bulk Modulus (GPa) = 39.34561 64.97944 52.16252
# Shear Modulus (GPa) = 13.84720 29.02240 21.43480
#
# Velocity S-wave (km/s) = 2.41269 3.49291 3.00179
# Velocity P-wave (km/s) = 4.92966 6.60176 5.82601
#
# Compressibility (1/GPa) = 0.02541580
#
# Stress axis : x y z
#
# Youngs Moduli (GPa) = 97.91189 76.85645 61.51241
#
# Poissons Ratio (x) = 0.32750 0.21301
# Poissons Ratio (y) = 0.41722 -0.04252
# Poissons Ratio (z) = 0.33905 -0.05312
#
# Static dielectric constant tensor:
#      x y z
#    x 1.933580 0.000000 -0.017440 
#    y 0.000000 1.812700 0.000000 
#    z -0.017440 0.000000 2.046730 
# 
# From -- ./inp_files/61306.got.cif
#   From: 2010.05.17/outbox.cif.g08.bks.cpg/sg12_31_cif.got.tgz:61306.got - 2010.06.03 13:09:07.
