data_PCOD9194752
_publ_section_title
;
Structure prediction by ZEFSAII (Michael W. Deem and Ramdas Pophale) SiO2 
 PCOD9194752
Probable space group: C 2/M
;
_chemical_formula_sum "Si O2"
_cell_formula_units_Z 64
_cell_length_a 20.859857
_cell_length_b 8.802234
_cell_length_c 25.055216
_cell_angle_alpha 90.000000
_cell_angle_beta 51.254959
_cell_angle_gamma 90.000000
_cell_volume 3588.085908
_symmetry_space_group_name_H-M "C 2/M"
_symmetry_group_IT_number 12
_symmetry_cell_setting 'monoclinic'
loop_
_space_group_symop_operation_xyz
x,y,z
-x,y,-z
-x,-y,-z
x,-y,z
1/2+x,1/2+y,z
1/2-x,1/2+y,-z
1/2-x,1/2-y,-z
1/2+x,1/2-y,z
loop_
_atom_site_type_symbol
_atom_site_label
_atom_site_fract_x
_atom_site_fract_y
_atom_site_fract_z
Si Si1 0.659591 0.182452 0.054551
Si Si2 0.990383 0.683158 0.943616
Si Si3 0.102829 0.181187 0.795197
Si Si4 0.952657 0.181949 0.796112
Si Si5 0.756978 0.182997 0.660592
Si Si6 0.696583 0.817134 0.575370
Si Si7 0.553329 0.683410 0.420326
Si Si8 0.506384 0.817992 0.659888
O O1 0.596385 0.224845 0.039374
O O2 0.617608 0.246225 0.130176
O O3 0.663600 0.000000 0.054703
O O4 0.750000 0.250000 0.000000
O O5 0.996218 0.500000 0.938650
O O6 0.061809 0.752051 0.869681
O O7 0.000000 0.731221 0.000000
O O8 0.191612 0.247486 0.735397
O O9 0.038950 0.221865 0.780700
O O10 0.106368 0.000000 0.796736
O O11 0.955353 0.246145 0.735125
O O12 0.944711 0.000000 0.799842
O O13 0.730980 0.232565 0.614725
O O14 0.851244 0.224242 0.621628
O O15 0.750501 0.000000 0.666387
O O16 0.750000 0.750000 0.500000
O O17 0.601564 0.773461 0.618912
O O18 0.701501 0.000000 0.570697
O O19 0.500000 0.727864 0.500000
O O20 0.547444 0.500000 0.418614
O O21 0.521021 0.758286 0.383235
O O22 0.500280 0.000000 0.665524
#
# Coordination Sequence:
#
# PCOD9194752 Si02
#       8
#     8   8   8   8   8   8   8   8
#     4  10  20  36  59  86 117 151 189 233 280 333
#     4   9  19  37  60  84 112 150 190 227 272 332
#     4  10  20  34  57  87 115 146 184 236 285 326
#     4  10  20  36  59  85 114 150 191 233 283 339
#     4  10  20  37  58  80 110 149 188 229 277 339
#     4  10  21  35  56  84 110 141 184 231 279 330
#     4  10  22  40  60  80 110 153 193 231 282 344
#     4  11  22  37  58  84 114 146 185 236 289 337
#
# _framework density 17.836807
#
# number of rings (size 3 to 8) (size 9 to 14) (size 15 to 20)
#    0.000    2.000    1.250    2.250    0.000    5.000 
#    2.250    0.000    0.000    0.000    0.000    0.000 
#    0.000    0.000    0.000    0.000    0.000    0.000 
#
# Total GULP energy -178692.448602 kJ/mol
# GULP energy per Si atom -5584.139019 kJ/mol
# Density = 1.779621 g / cm^3
# Si number density = 17.836807 Si / 1000 Ang^3
#
#
#
# Elastic Constant Matrix: (Units=GPa)
#
#
# Indices 1 2 3 4 5 6 
#
# 1 110.8237 43.2514 84.4295 0.0000 7.0686 0.0003
# 2 43.2514 31.0471 49.3444 0.0000 -1.3147 0.0003
# 3 84.4295 49.3444 168.5430 0.0000 4.1099 0.0000
# 4 0.0000 0.0000 0.0000 36.3512 0.0000 0.1162
# 5 7.0686 -1.3147 4.1099 0.0000 37.7994 0.0000
# 6 0.0003 0.0003 0.0000 0.1162 0.0000 27.0761
#
#
#
# Elastic Compliance Matrix: (Units=1/GPa)
#
#
# Indices 1 2 3 4 5 6 
#
# 1 0.021645 -0.024853 -0.003456 0.000000 -0.004536 0.000000
# 2 -0.024853 0.089391 -0.013948 0.000000 0.009273 -0.000001
# 3 -0.003456 -0.013948 0.011775 0.000000 -0.001119 0.000000
# 4 0.000000 0.000000 0.000000 0.027510 0.000000 -0.000118
# 5 -0.004536 0.009273 -0.001119 0.000000 0.027748 0.000000
# 6 0.000000 -0.000001 0.000000 -0.000118 0.000000 0.036933
#
#
# Mechanical properties :
#
#
# Convention : Reuss Voigt Hill
#
# Bulk Modulus (GPa) = 26.11042 73.82937 49.96989
# Shear Modulus (GPa) = 16.01119 29.13789 22.57454
#
# Velocity S-wave (km/s) = 2.99933 4.04614 3.56141
# Velocity P-wave (km/s) = 5.16381 7.95675 6.70726
#
# Compressibility (1/GPa) = 0.03829888
#
# Stress axis : x y z
#
# Youngs Moduli (GPa) = 46.20036 11.18676 84.92423
#
# Poissons Ratio (x) = 0.27802 0.29350
# Poissons Ratio (y) = 1.14820 1.18450
# Poissons Ratio (z) = 0.15967 0.15603
#
# Static dielectric constant tensor:
#      x y z
#    x 1.583950 0.000000 0.002290 
#    y 0.000000 1.599580 0.000000 
#    z 0.002290 0.000000 1.576690 
# 
# From -- ./inp_files/346022.got.cif
#   From: 2010.05.17/outbox.cif.g08.bks.cpg/sg12_174_cif.got.tgz:346022.got - 2010.06.03 13:09:07.
