data_PCOD9194483
_publ_section_title
;
Structure prediction by ZEFSAII (Michael W. Deem and Ramdas Pophale) SiO2 
 PCOD9194483
Probable space group: C 2/M
;
_chemical_formula_sum "Si O2"
_cell_formula_units_Z 64
_cell_length_a 26.286879
_cell_length_b 7.939841
_cell_length_c 16.448253
_cell_angle_alpha 90.000000
_cell_angle_beta 117.054584
_cell_angle_gamma 90.000000
_cell_volume 3057.316738
_symmetry_space_group_name_H-M "C 2/M"
_symmetry_group_IT_number 12
_symmetry_cell_setting 'monoclinic'
loop_
_space_group_symop_operation_xyz
x,y,z
-x,y,-z
-x,-y,-z
x,-y,z
1/2+x,1/2+y,z
1/2-x,1/2+y,-z
1/2-x,1/2-y,-z
1/2+x,1/2-y,z
loop_
_atom_site_type_symbol
_atom_site_label
_atom_site_fract_x
_atom_site_fract_y
_atom_site_fract_z
Si Si1 0.232704 0.204381 0.194350
Si Si2 0.339766 0.188205 0.011374
Si Si3 0.142157 0.302514 0.673056
Si Si4 0.446581 0.204675 0.518403
Si Si5 0.585712 0.303226 0.793363
Si Si6 0.363742 0.309463 0.757708
Si Si7 0.562182 0.307715 0.026696
Si Si8 0.540175 0.301170 0.286229
O O1 0.207611 0.248428 0.086960
O O2 0.296453 0.268063 0.256578
O O3 0.191849 0.267280 0.238389
O O4 0.230559 0.000000 0.195388
O O5 0.397722 0.198332 0.000536
O O6 0.324733 0.000000 0.025098
O O7 0.360560 0.283110 0.107026
O O8 0.151549 0.500000 0.664514
O O9 0.109978 0.235102 0.570400
O O10 0.100526 0.285861 0.719897
O O11 0.500000 0.249930 0.500000
O O12 0.453199 0.276707 0.612883
O O13 0.445622 0.000000 0.523593
O O14 0.578128 0.500000 0.770572
O O15 0.524141 0.239784 0.782345
O O16 0.347432 0.500000 0.718590
O O17 0.406165 0.323187 0.864958
O O18 0.404038 0.227099 0.718607
O O19 0.557470 0.500000 0.988528
O O20 0.500000 0.240707 0.000000
O O21 0.541067 0.500000 0.265720
#
# Coordination Sequence:
#
# PCOD9194483 Si02
#       8
#     8   8   8   8   8   8   8   8
#     4   9  19  38  60  77 103 146 192 226 264 322
#     4  11  22  34  51  78 113 147 183 228 277 325
#     4  10  21  38  59  81 105 141 184 227 275 331
#     4  10  20  36  57  81 113 143 171 216 281 338
#     4  11  22  35  54  81 111 144 184 227 275 329
#     4   8  15  30  52  77 103 137 178 221 261 306
#     4   9  16  30  52  74 104 146 189 227 269 322
#     4  10  20  34  56  84 111 139 179 224 267 320
#
# _framework density 20.933388000000001
#
# number of rings (size 3 to 8) (size 9 to 14) (size 15 to 20)
#    0.000    2.250    1.250    3.000    0.000    4.500 
#    0.000    3.125    0.000    0.000    0.000    0.000 
#    0.000    0.000    0.000    0.000    0.000    0.000 
#
# Total GULP energy -178392.367356 kJ/mol
# GULP energy per Si atom -5574.761480 kJ/mol
# Density = 2.088574 g / cm^3
# Si number density = 20.933388 Si / 1000 Ang^3
#
#
#
# Elastic Constant Matrix: (Units=GPa)
#
#
# Indices 1 2 3 4 5 6 
#
# 1 47.9328 -1.6507 29.8432 0.0000 18.8539 0.0000
# 2 -1.6507 18.8126 0.3605 0.0000 7.1658 0.0000
# 3 29.8432 0.3605 93.9018 0.0000 13.0136 0.0000
# 4 0.0000 0.0000 0.0000 20.6974 0.0000 -7.2606
# 5 18.8539 7.1658 13.0136 0.0000 36.3889 0.0000
# 6 0.0000 0.0000 0.0000 -7.2606 0.0000 16.2065
#
#
#
# Elastic Compliance Matrix: (Units=1/GPa)
#
#
# Indices 1 2 3 4 5 6 
#
# 1 0.032404 0.008954 -0.008166 0.000000 -0.015632 0.000000
# 2 0.008954 0.060121 -0.000834 0.000000 -0.016180 0.000000
# 3 -0.008166 -0.000834 0.013298 0.000000 -0.000360 0.000000
# 4 0.000000 0.000000 0.000000 0.057324 0.000000 0.025682
# 5 -0.015632 -0.016180 -0.000360 0.000000 0.038895 0.000000
# 6 0.000000 0.000000 0.000000 0.025682 0.000000 0.073209
#
#
# Mechanical properties :
#
#
# Convention : Reuss Voigt Hill
#
# Bulk Modulus (GPa) = 9.45810 24.19480 16.82645
# Shear Modulus (GPa) = 16.09852 23.46484 19.78168
#
# Velocity S-wave (km/s) = 2.77616 3.35166 3.07739
# Velocity P-wave (km/s) = 3.84760 5.15376 4.54782
#
# Compressibility (1/GPa) = 0.10572953
#
# Stress axis : x y z
#
# Youngs Moduli (GPa) = 30.86037 16.63325 75.19966
#
# Poissons Ratio (x) = -0.14894 0.61411
# Poissons Ratio (y) = -0.27633 0.06273
# Poissons Ratio (z) = 0.25202 0.01388
#
# Static dielectric constant tensor:
#      x y z
#    x 1.835860 0.000000 0.014950 
#    y 0.000000 1.783240 0.000000 
#    z 0.014950 0.000000 1.739380 
# 
# From -- ./inp_files/244149.got.cif
#   From: 2010.05.17/outbox.cif.g08.bks.cpg/sg12_123_cif.got.tgz:244149.got - 2010.06.03 13:09:07.
