data_PCOD9194200
_publ_section_title
;
Structure prediction by ZEFSAII (Michael W. Deem and Ramdas Pophale) SiO2 
 PCOD9194200
Probable space group: C 2/M
;
_chemical_formula_sum "Si O2"
_cell_formula_units_Z 42
_cell_length_a 9.015213
_cell_length_b 26.781165
_cell_length_c 16.904942
_cell_angle_alpha 90.000000
_cell_angle_beta 146.933153
_cell_angle_gamma 90.000000
_cell_volume 2226.932986
_symmetry_space_group_name_H-M "C 2/M"
_symmetry_group_IT_number 12
_symmetry_cell_setting 'monoclinic'
loop_
_space_group_symop_operation_xyz
x,y,z
-x,y,-z
-x,-y,-z
x,-y,z
1/2+x,1/2+y,z
1/2-x,1/2+y,-z
1/2-x,1/2-y,-z
1/2+x,1/2-y,z
loop_
_atom_site_type_symbol
_atom_site_label
_atom_site_fract_x
_atom_site_fract_y
_atom_site_fract_z
Si Si1 0.143678 0.942859 0.980366
Si Si2 0.723694 0.735767 0.828425
Si Si3 0.167646 0.870732 0.850492
Si Si4 0.000000 0.000000 0.500000
Si Si5 0.766745 0.305498 0.669651
Si Si6 0.268516 0.415917 0.285244
O O1 0.468158 0.938248 0.136149
O O2 0.078344 0.000000 0.926771
O O3 0.068395 0.901939 0.881051
O O4 0.000000 0.933641 0.000000
O O5 0.586336 0.687203 0.809461
O O6 0.770511 0.717734 0.759730
O O7 0.528645 0.782934 0.744234
O O8 0.000000 0.746060 0.000000
O O9 0.101034 0.899121 0.739648
O O10 0.500000 0.869294 0.000000
O O11 0.941431 0.956343 0.407792
O O12 0.500000 0.292044 0.500000
O O13 0.772664 0.364921 0.684012
#
# Coordination Sequence:
#
# PCOD9194200 Si02
#       6
#     8   8   8   2   8   8
#     4  10  20  34  55  83 111 136 177 235 285 324
#     4  10  21  38  59  83 116 148 189 231 280 338
#     4   8  18  35  56  83 106 140 186 226 268 329
#     4  12  20  36  56  78 106 148 194 220 260 314
#     4  11  22  38  57  87 115 148 187 234 282 338
#     4  10  21  35  58  81 107 144 190 221 267 332
#
# _framework density 18.860019999999999
#
# number of rings (size 3 to 8) (size 9 to 14) (size 15 to 20)
#    0.000    2.095    1.905    2.286    1.333    3.429 
#    0.000    0.000    0.000    1.143    0.000    0.000 
#    0.000    0.000    0.000    0.000    0.000    0.000 
#
# Total GULP energy -116903.370133 kJ/mol
# GULP energy per Si atom -5566.827149 kJ/mol
# Density = 1.881709 g / cm^3
# Si number density = 18.860020 Si / 1000 Ang^3
#
#
#
# Elastic Constant Matrix: (Units=GPa)
#
#
# Indices 1 2 3 4 5 6 
#
# 1 22.6314 28.0939 -11.8165 0.0001 0.6060 -0.0001
# 2 28.0939 100.7793 17.3433 0.0000 -6.9609 0.0000
# 3 -11.8165 17.3433 76.9494 0.0002 -8.9686 -0.0001
# 4 0.0001 0.0000 0.0002 -5.2922 0.0002 17.5794
# 5 0.6060 -6.9609 -8.9686 0.0002 13.0849 -0.0001
# 6 -0.0001 0.0000 -0.0001 17.5794 -0.0001 12.1902
#
#
#
# Elastic Compliance Matrix: (Units=1/GPa)
#
#
# Indices 1 2 3 4 5 6 
#
# 1 0.090931 -0.029185 0.019825 0.000001 -0.006148 0.000000
# 2 -0.029185 0.019911 -0.008235 0.000000 0.006299 0.000000
# 3 0.019825 -0.008235 0.018779 0.000000 0.007572 0.000000
# 4 0.000001 0.000000 0.000000 -0.032634 0.000001 0.047061
# 5 -0.006148 0.006299 0.007572 0.000001 0.085250 -0.000001
# 6 0.000000 0.000000 0.000000 0.047061 -0.000001 0.014167
#
#
# Mechanical properties :
#
#
# Convention : Reuss Voigt Hill
#
# Bulk Modulus (GPa) = 10.58985 29.73349 20.16167
# Shear Modulus (GPa) = 19.00628 15.11256 17.05942
#
# Velocity S-wave (km/s) = 3.17796 2.83380 3.01080
# Velocity P-wave (km/s) = 4.36956 5.14848 4.77493
#
# Compressibility (1/GPa) = 0.09443007
#
# Stress axis : x y z
#
# Youngs Moduli (GPa) = 10.99732 50.22415 53.25231
#
# Poissons Ratio (x) = 1.46579 -1.05572
# Poissons Ratio (y) = 0.32096 0.43854
# Poissons Ratio (z) = -0.21802 0.41360
#
# Static dielectric constant tensor:
#      x y z
#    x 1.641550 0.000000 -0.010870 
#    y 0.000000 1.656640 0.000000 
#    z -0.010870 0.000000 1.666080 
# 
# From -- ./inp_files/41808.got.cif
#   From: 2010.05.17/outbox.cif.g08.bks.cpg/sg12_21_cif.got.tgz:41808.got - 2010.06.03 13:09:07.
