data_PCOD9194857
_publ_section_title
;
Structure prediction by ZEFSAII (Michael W. Deem and Ramdas Pophale) SiO2 
 PCOD9194857
Probable space group: C 2/M
;
_chemical_formula_sum "Si O2"
_cell_formula_units_Z 56
_cell_length_a 33.090756
_cell_length_b 13.404620
_cell_length_c 13.444723
_cell_angle_alpha 90.000000
_cell_angle_beta 25.553838
_cell_angle_gamma 90.000000
_cell_volume 2572.479604
_symmetry_space_group_name_H-M "C 2/M"
_symmetry_group_IT_number 12
_symmetry_cell_setting 'monoclinic'
loop_
_space_group_symop_operation_xyz
x,y,z
-x,y,-z
-x,-y,-z
x,-y,z
1/2+x,1/2+y,z
1/2-x,1/2+y,-z
1/2-x,1/2-y,-z
1/2+x,1/2-y,z
loop_
_atom_site_type_symbol
_atom_site_label
_atom_site_fract_x
_atom_site_fract_y
_atom_site_fract_z
Si Si1 0.426046 0.607903 0.752344
Si Si2 0.097926 0.886746 0.841716
Si Si3 0.278538 0.110542 0.889459
Si Si4 0.236302 0.381071 0.668176
Si Si5 0.798786 0.187325 0.736043
Si Si6 0.025687 0.384359 0.055340
Si Si7 0.001598 0.790675 0.755888
O O1 0.500000 0.608219 0.500000
O O2 0.435921 0.500000 0.784354
O O3 0.448511 0.701749 0.770338
O O4 0.323940 0.610464 0.933057
O O5 0.180696 0.844883 0.589261
O O6 0.126452 0.000000 0.799758
O O7 0.000000 0.887101 0.000000
O O8 0.070939 0.835251 0.003626
O O9 0.322341 0.206633 0.737876
O O10 0.320931 0.000000 0.781306
O O11 0.258146 0.129976 0.051493
O O12 0.251998 0.500000 0.655898
O O13 0.243004 0.319953 0.756198
O O14 0.136137 0.375452 0.835862
O O15 0.902294 0.148371 0.475244
O O16 0.999101 0.500000 0.123345
O O17 0.000000 0.352251 0.000000
O O18 0.974428 0.315147 0.248886
#
# Coordination Sequence:
#
# PCOD9194857 Si02
#       7
#     8   8   8   8   8   8   8
#     4  10  20  36  60  89 122 161 197 244 314 372
#     4  10  20  34  57  93 127 152 191 250 316 373
#     4  10  22  40  58  86 126 164 206 253 303 365
#     4  10  21  40  65  92 122 160 206 255 308 368
#     4  11  22  36  63  93 121 162 206 253 311 366
#     4  10  24  45  63  82 119 170 216 255 300 358
#     4  12  22  37  62  90 124 160 205 252 304 368
#
# _framework density 21.768879999999999
#
# number of rings (size 3 to 8) (size 9 to 14) (size 15 to 20)
#    0.000    1.571    2.857    2.143    0.000    2.286 
#    2.571    0.000    0.000    0.429    0.000    0.000 
#    0.000    0.000    0.000    0.000    0.000    0.000 
#
# Total GULP energy -156234.619413 kJ/mol
# GULP energy per Si atom -5579.807836 kJ/mol
# Density = 2.171933 g / cm^3
# Si number density = 21.768880 Si / 1000 Ang^3
#
#
#
# Elastic Constant Matrix: (Units=GPa)
#
#
# Indices 1 2 3 4 5 6 
#
# 1 108.4943 22.9072 35.7396 0.0000 19.4038 0.0000
# 2 22.9072 76.3211 7.4088 0.0000 26.9484 0.0000
# 3 35.7396 7.4088 71.1103 0.0000 16.7277 0.0000
# 4 0.0000 0.0000 0.0000 18.8109 0.0000 1.7525
# 5 19.4038 26.9484 16.7277 0.0000 30.9818 0.0000
# 6 0.0000 0.0000 0.0000 1.7525 0.0000 29.8179
#
#
#
# Elastic Compliance Matrix: (Units=1/GPa)
#
#
# Indices 1 2 3 4 5 6 
#
# 1 0.011831 -0.002031 -0.005048 0.000000 -0.002918 0.000000
# 2 -0.002031 0.019557 0.003076 0.000000 -0.017400 0.000000
# 3 -0.005048 0.003076 0.018517 0.000000 -0.009512 0.000000
# 4 0.000000 0.000000 0.000000 0.053453 0.000000 -0.003142
# 5 -0.002918 -0.017400 -0.009512 0.000000 0.054375 0.000000
# 6 0.000000 0.000000 0.000000 -0.003142 0.000000 0.033722
#
#
# Mechanical properties :
#
#
# Convention : Reuss Voigt Hill
#
# Bulk Modulus (GPa) = 23.86665 43.11521 33.49093
# Shear Modulus (GPa) = 23.42733 28.58013 26.00373
#
# Velocity S-wave (km/s) = 3.28408 3.62731 3.45996
# Velocity P-wave (km/s) = 5.03664 6.11491 5.60178
#
# Compressibility (1/GPa) = 0.04189947
#
# Stress axis : x y z
#
# Youngs Moduli (GPa) = 84.52717 51.13186 54.00503
#
# Poissons Ratio (x) = 0.10383 0.27262
# Poissons Ratio (y) = 0.17164 -0.16613
# Poissons Ratio (z) = 0.42670 -0.15729
#
# Static dielectric constant tensor:
#      x y z
#    x 2.096750 0.000000 -0.100700 
#    y 0.000000 1.925370 0.000000 
#    z -0.100700 0.000000 1.845260 
# 
# From -- ./inp_files/189605.got.cif
#   From: 2010.05.17/outbox.cif.g08.bks.cpg/sg12_95_cif.got.tgz:189605.got - 2010.06.03 13:09:07.
