data_PCOD9194959
_publ_section_title
;
Structure prediction by ZEFSAII (Michael W. Deem and Ramdas Pophale) SiO2 
 PCOD9194959
Probable space group: C 2/M
;
_chemical_formula_sum "Si O2"
_cell_formula_units_Z 42
_cell_length_a 9.472334
_cell_length_b 17.343445
_cell_length_c 15.496882
_cell_angle_alpha 90.000000
_cell_angle_beta 57.717545
_cell_angle_gamma 90.000000
_cell_volume 2152.345564
_symmetry_space_group_name_H-M "C 2/M"
_symmetry_group_IT_number 12
_symmetry_cell_setting 'monoclinic'
loop_
_space_group_symop_operation_xyz
x,y,z
-x,y,-z
-x,-y,-z
x,-y,z
1/2+x,1/2+y,z
1/2-x,1/2+y,-z
1/2-x,1/2-y,-z
1/2+x,1/2-y,z
loop_
_atom_site_type_symbol
_atom_site_label
_atom_site_fract_x
_atom_site_fract_y
_atom_site_fract_z
Si Si1 0.971365 0.793272 0.388735
Si Si2 0.424699 0.795801 0.933696
Si Si3 0.682735 0.872943 0.552510
Si Si4 0.421619 0.090672 0.773590
Si Si5 0.802417 0.792931 0.259547
Si Si6 0.500000 0.000000 0.500000
O O1 0.877760 0.856126 0.477185
O O2 0.901541 0.709714 0.439738
O O3 0.899333 0.808282 0.316377
O O4 0.167639 0.775739 0.319290
O O5 0.410160 0.863271 0.867003
O O6 0.561378 0.736274 0.852423
O O7 0.500000 0.824080 0.000000
O O8 0.250000 0.750000 0.000000
O O9 0.603281 0.899067 0.669531
O O10 0.618119 0.933572 0.504991
O O11 0.296913 0.134423 0.747634
O O12 0.384776 0.000000 0.792296
#
# Coordination Sequence:
#
# PCOD9194959 Si02
#       6
#     8   8   8   8   8   2
#     4  10  21  36  61  96 131 174 218 251 309 392
#     4  12  23  43  70  96 122 166 225 279 331 389
#     4  10  20  34  58  96 131 170 206 254 309 379
#     4  11  23  41  65  99 133 168 212 273 332 381
#     4  11  20  41  65  96 126 173 218 273 314 392
#     4  12  20  36  64  98 138 176 222 262 320 372
#
# _framework density 19.513594999999999
#
# number of rings (size 3 to 8) (size 9 to 14) (size 15 to 20)
#    0.000    1.143    6.667    2.286    0.000    4.190 
#    0.000    1.905    2.095    4.571    0.000    0.000 
#    0.000    0.000    0.000    0.000    0.000    0.000 
#
# Total GULP energy -116936.609335 kJ/mol
# GULP energy per Si atom -5568.409968 kJ/mol
# Density = 1.946918 g / cm^3
# Si number density = 19.513595 Si / 1000 Ang^3
#
#
#
# Elastic Constant Matrix: (Units=GPa)
#
#
# Indices 1 2 3 4 5 6 
#
# 1 99.0567 28.6979 41.3504 0.0000 0.2711 0.0000
# 2 28.6979 123.3767 29.2287 0.0000 0.3567 0.0000
# 3 41.3504 29.2287 100.7016 0.0000 -18.5715 0.0000
# 4 0.0000 0.0000 0.0000 84.6937 0.0000 -175.8418
# 5 0.2711 0.3567 -18.5715 0.0000 40.1615 0.0000
# 6 0.0000 0.0000 0.0000 -175.8418 0.0000 444.4244
#
#
#
# Elastic Compliance Matrix: (Units=1/GPa)
#
#
# Indices 1 2 3 4 5 6 
#
# 1 0.012774 -0.001733 -0.005199 0.000000 -0.002475 0.000000
# 2 -0.001733 0.009007 -0.002094 0.000000 -0.001037 0.000000
# 3 -0.005199 -0.002094 0.013865 0.000000 0.006465 0.000000
# 4 0.000000 0.000000 0.000000 0.066139 0.000000 0.026169
# 5 -0.002475 -0.001037 0.006465 0.000000 0.027915 0.000000
# 6 0.000000 0.000000 0.000000 0.026169 0.000000 0.012604
#
#
# Mechanical properties :
#
#
# Convention : Reuss Voigt Hill
#
# Bulk Modulus (GPa) = 56.83237 57.96543 57.39890
# Shear Modulus (GPa) = 30.08042 128.77978 79.43010
#
# Velocity S-wave (km/s) = 3.93047 8.13254 6.38697
# Velocity P-wave (km/s) = 7.05591 10.86066 9.15805
#
# Compressibility (1/GPa) = 0.01759561
#
# Stress axis : x y z
#
# Youngs Moduli (GPa) = 78.28284 111.02021 72.12241
#
# Poissons Ratio (x) = 0.19234 0.37496
# Poissons Ratio (y) = 0.13563 0.15104
# Poissons Ratio (z) = 0.40699 0.23250
#
# Static dielectric constant tensor:
#      x y z
#    x 1.756530 0.000000 0.024320 
#    y 0.000000 1.653660 0.000000 
#    z 0.024320 0.000000 1.755610 
# 
# From -- ./inp_files/195876.got.cif
#   From: 2010.05.17/outbox.cif.g08.bks.cpg/sg12_98_cif.got.tgz:195876.got - 2010.06.03 13:09:07.
