data_PCOD9194858
_publ_section_title
;
Structure prediction by ZEFSAII (Michael W. Deem and Ramdas Pophale) SiO2 
 PCOD9194858
Probable space group: C 2/M
;
_chemical_formula_sum "Si O2"
_cell_formula_units_Z 36
_cell_length_a 11.619720
_cell_length_b 18.079647
_cell_length_c 7.271707
_cell_angle_alpha 90.000000
_cell_angle_beta 106.757960
_cell_angle_gamma 90.000000
_cell_volume 1462.766367
_symmetry_space_group_name_H-M "C 2/M"
_symmetry_group_IT_number 12
_symmetry_cell_setting 'monoclinic'
loop_
_space_group_symop_operation_xyz
x,y,z
-x,y,-z
-x,-y,-z
x,-y,z
1/2+x,1/2+y,z
1/2-x,1/2+y,-z
1/2-x,1/2-y,-z
1/2+x,1/2-y,z
loop_
_atom_site_type_symbol
_atom_site_label
_atom_site_fract_x
_atom_site_fract_y
_atom_site_fract_z
Si Si1 0.261873 0.817773 0.765011
Si Si2 0.856970 0.500000 0.385037
Si Si3 0.000000 0.271053 0.000000
Si Si4 0.983126 0.144018 0.275414
Si Si5 0.357052 0.836382 0.397925
Si Si6 0.901551 0.000000 0.623413
O O1 0.380561 0.818130 0.941096
O O2 0.158819 0.868209 0.804466
O O3 0.296121 0.839415 0.572893
O O4 0.204462 0.734761 0.725429
O O5 0.842242 0.416992 0.297051
O O6 0.741684 0.500000 0.474795
O O7 0.000000 0.500000 0.500000
O O8 0.983637 0.215797 0.822603
O O9 0.000000 0.157532 0.500000
O O10 0.062561 0.074698 0.255889
O O11 0.500000 0.825950 0.500000
O O12 0.000000 0.000000 0.500000
#
# Coordination Sequence:
#
# PCOD9194858 Si02
#       6
#     8   4   4   8   8   4
#     4  11  21  37  59  88 123 161 208 259 309 366
#     4  10  20  34  57  93 128 160 204 256 312 373
#     4  12  24  37  60  89 124 164 206 256 314 367
#     4  11  23  40  64  92 123 160 208 259 308 369
#     4  10  20  36  61  89 122 163 205 254 312 371
#     4  10  20  39  65  91 123 164 208 254 309 371
#
# _framework density 24.610903
#
# number of rings (size 3 to 8) (size 9 to 14) (size 15 to 20)
#    0.000    1.333    0.000    9.333    0.000    0.444 
#    0.000    1.111    0.000    5.333    0.000    0.000 
#    0.000    0.000    0.000    0.000    0.000    0.000 
#
# Total GULP energy -100555.565821 kJ/mol
# GULP energy per Si atom -5586.420323 kJ/mol
# Density = 2.455489 g / cm^3
# Si number density = 24.610903 Si / 1000 Ang^3
#
#
#
# Elastic Constant Matrix: (Units=GPa)
#
#
# Indices 1 2 3 4 5 6 
#
# 1 174.8750 22.4878 23.6950 0.0000 43.5702 0.0000
# 2 22.4878 124.4349 34.4575 0.0000 14.5420 0.0000
# 3 23.6950 34.4575 61.2174 0.0000 18.0434 0.0000
# 4 0.0000 0.0000 0.0000 10.1857 0.0000 8.7754
# 5 43.5702 14.5420 18.0434 0.0000 54.6521 0.0000
# 6 0.0000 0.0000 0.0000 8.7754 0.0000 32.0123
#
#
#
# Elastic Compliance Matrix: (Units=1/GPa)
#
#
# Indices 1 2 3 4 5 6 
#
# 1 0.007234 -0.000408 -0.001000 0.000000 -0.005328 0.000000
# 2 -0.000408 0.009579 -0.005072 0.000000 -0.000549 0.000000
# 3 -0.001000 -0.005072 0.020987 0.000000 -0.004782 0.000000
# 4 0.000000 0.000000 0.000000 0.128532 0.000000 -0.035234
# 5 -0.005328 -0.000549 -0.004782 0.000000 0.024270 0.000000
# 6 0.000000 0.000000 0.000000 -0.035234 0.000000 0.040897
#
#
# Mechanical properties :
#
#
# Convention : Reuss Voigt Hill
#
# Bulk Modulus (GPa) = 40.25764 57.97866 49.11815
# Shear Modulus (GPa) = 19.78337 38.02916 28.90626
#
# Velocity S-wave (km/s) = 2.83829 3.93519 3.43086
# Velocity P-wave (km/s) = 5.20907 6.65258 5.97458
#
# Compressibility (1/GPa) = 0.02484000
#
# Stress axis : x y z
#
# Youngs Moduli (GPa) = 138.23858 104.39885 47.64964
#
# Poissons Ratio (x) = 0.04256 0.04765
# Poissons Ratio (y) = 0.05636 0.24167
# Poissons Ratio (z) = 0.13823 0.52950
#
# Static dielectric constant tensor:
#      x y z
#    x 2.075910 0.000000 0.008270 
#    y 0.000000 1.985870 0.000000 
#    z 0.008270 0.000000 2.011510 
# 
# From -- ./inp_files/49019.got.cif
#   From: 2010.05.17/outbox.cif.g08.bks.cpg/sg12_25_cif.got.tgz:49019.got - 2010.06.03 13:09:07.
