data_PCOD9194420
_publ_section_title
;
Structure prediction by ZEFSAII (Michael W. Deem and Ramdas Pophale) SiO2 
 PCOD9194420
Probable space group: C 2/M
;
_chemical_formula_sum "Si O2"
_cell_formula_units_Z 56
_cell_length_a 14.578316
_cell_length_b 7.627670
_cell_length_c 22.864707
_cell_angle_alpha 90.000000
_cell_angle_beta 115.033243
_cell_angle_gamma 90.000000
_cell_volume 2303.684601
_symmetry_space_group_name_H-M "C 2/M"
_symmetry_group_IT_number 12
_symmetry_cell_setting 'monoclinic'
loop_
_space_group_symop_operation_xyz
x,y,z
-x,y,-z
-x,-y,-z
x,-y,z
1/2+x,1/2+y,z
1/2-x,1/2+y,-z
1/2-x,1/2-y,-z
1/2+x,1/2-y,z
loop_
_atom_site_type_symbol
_atom_site_label
_atom_site_fract_x
_atom_site_fract_y
_atom_site_fract_z
Si Si1 0.955937 0.202608 0.807837
Si Si2 0.472978 0.800477 0.288993
Si Si3 0.078846 0.699496 0.947315
Si Si4 0.113030 0.213790 0.511634
Si Si5 0.729398 0.789856 0.078892
Si Si6 0.675070 0.795594 0.395968
Si Si7 0.758434 0.288292 0.222862
O O1 0.842494 0.274011 0.772678
O O2 0.025595 0.303065 0.781040
O O3 0.994561 0.212235 0.884640
O O4 0.960344 0.000000 0.791932
O O5 0.579035 0.715940 0.336262
O O6 0.365055 0.718745 0.275584
O O7 0.473576 0.000000 0.311960
O O8 0.045222 0.500000 0.946539
O O9 0.178667 0.706519 0.932634
O O10 0.123460 0.768954 0.020567
O O11 0.209763 0.273837 0.576714
O O12 0.140432 0.279466 0.454231
O O13 0.000000 0.268200 0.500000
O O14 0.114299 0.000000 0.510734
O O15 0.742349 0.754145 0.150389
O O16 0.735603 0.000000 0.071606
O O17 0.681810 0.000000 0.380971
O O18 0.760476 0.500000 0.228071
#
# Coordination Sequence:
#
# PCOD9194420 Si02
#       7
#     8   8   8   8   8   8   8
#     4  11  23  37  55  81 108 141 187 231 275 333
#     4  10  21  39  58  77 109 150 185 225 276 326
#     4  10  20  35  55  79 108 140 175 226 287 335
#     4   9  18  34  56  84 117 147 179 224 272 316
#     4  10  20  34  56  82 105 136 182 228 276 339
#     4   9  19  35  56  82 111 147 188 222 266 325
#     4  10  22  38  55  77 109 145 181 228 284 332
#
# _framework density 24.308883999999999
#
# number of rings (size 3 to 8) (size 9 to 14) (size 15 to 20)
#    0.000    2.143    1.429    1.286    0.000    5.429 
#    0.000    2.857    0.000    0.000    0.000    0.000 
#    0.000    0.000    0.000    0.000    0.000    0.000 
#
# Total GULP energy -156357.534095 kJ/mol
# GULP energy per Si atom -5584.197646 kJ/mol
# Density = 2.425356 g / cm^3
# Si number density = 24.308884 Si / 1000 Ang^3
#
#
#
# Elastic Constant Matrix: (Units=GPa)
#
#
# Indices 1 2 3 4 5 6 
#
# 1 111.2139 4.3398 25.9777 0.0000 45.5262 0.0000
# 2 4.3398 66.1630 0.7024 0.0000 9.1730 0.0000
# 3 25.9777 0.7024 88.9789 0.0000 47.0634 0.0000
# 4 0.0000 0.0000 0.0000 13.9785 0.0000 -8.4461
# 5 45.5262 9.1730 47.0634 0.0000 49.7753 0.0000
# 6 0.0000 0.0000 0.0000 -8.4461 0.0000 3.9919
#
#
#
# Elastic Compliance Matrix: (Units=1/GPa)
#
#
# Indices 1 2 3 4 5 6 
#
# 1 0.016071 0.001812 0.006492 0.000000 -0.021171 0.000000
# 2 0.001812 0.016066 0.003574 0.000000 -0.007998 0.000000
# 3 0.006492 0.003574 0.025614 0.000000 -0.030815 0.000000
# 4 0.000000 0.000000 0.000000 -0.256971 0.000000 -0.543693
# 5 -0.021171 -0.007998 -0.030815 0.000000 0.070064 0.000000
# 6 0.000000 0.000000 0.000000 -0.543693 0.000000 -0.899827
#
#
# Mechanical properties :
#
#
# Convention : Reuss Voigt Hill
#
# Bulk Modulus (GPa) = 12.26871 36.48840 24.37855
# Shear Modulus (GPa) = -4.87534 29.23820 12.18143
#
# Velocity S-wave (km/s) = -1.41772 3.47187 2.24098
# Velocity P-wave (km/s) = 1.54209 5.57806 4.09224
#
# Compressibility (1/GPa) = 0.08150816
#
# Stress axis : x y z
#
# Youngs Moduli (GPa) = 62.22290 62.24230 39.04136
#
# Poissons Ratio (x) = -0.11279 -0.25345
# Poissons Ratio (y) = -0.11276 -0.13955
# Poissons Ratio (z) = -0.40394 -0.22248
#
# Static dielectric constant tensor:
#      x y z
#    x 1.950730 0.000000 0.061310 
#    y 0.000000 1.969160 0.000000 
#    z 0.061310 0.000000 1.978710 
# 
# From -- ./inp_files/338495.got.cif
#   From: 2010.05.17/outbox.cif.g08.bks.cpg/sg12_170_cif.got.tgz:338495.got - 2010.06.03 13:09:07.
