data_PCOD9194257
_publ_section_title
;
Structure prediction by ZEFSAII (Michael W. Deem and Ramdas Pophale) SiO2 
 PCOD9194257
Probable space group: C 2/M
;
_chemical_formula_sum "Si O2"
_cell_formula_units_Z 56
_cell_length_a 14.767705
_cell_length_b 9.047923
_cell_length_c 19.222425
_cell_angle_alpha 90.000000
_cell_angle_beta 99.781936
_cell_angle_gamma 90.000000
_cell_volume 2531.102582
_symmetry_space_group_name_H-M "C 2/M"
_symmetry_group_IT_number 12
_symmetry_cell_setting 'monoclinic'
loop_
_space_group_symop_operation_xyz
x,y,z
-x,y,-z
-x,-y,-z
x,-y,z
1/2+x,1/2+y,z
1/2-x,1/2+y,-z
1/2-x,1/2-y,-z
1/2+x,1/2-y,z
loop_
_atom_site_type_symbol
_atom_site_label
_atom_site_fract_x
_atom_site_fract_y
_atom_site_fract_z
Si Si1 0.630396 0.825609 0.164264
Si Si2 0.806123 0.673118 0.230683
Si Si3 0.844064 0.173527 0.600755
Si Si4 0.842094 0.824111 0.981641
Si Si5 0.358399 0.173176 0.455111
Si Si6 0.478469 0.825936 0.339958
Si Si7 0.571106 0.830069 0.885067
O O1 0.709032 0.753489 0.221543
O O2 0.637564 0.750149 0.089460
O O3 0.523404 0.805983 0.169468
O O4 0.648446 0.000000 0.161245
O O5 0.794042 0.500000 0.247370
O O6 0.892067 0.734560 0.285421
O O7 0.843674 0.681522 0.156390
O O8 0.736229 0.203744 0.599680
O O9 0.857902 0.225478 0.522587
O O10 0.922231 0.254855 0.654548
O O11 0.858497 0.000000 0.609171
O O12 0.832931 0.000000 0.973757
O O13 0.750000 0.750000 0.000000
O O14 0.917253 0.780387 0.049553
O O15 0.444176 0.189875 0.415315
O O16 0.354023 0.000000 0.476470
O O17 0.485579 0.000000 0.324825
O O18 0.568086 0.000000 0.911039
#
# Coordination Sequence:
#
# PCOD9194257 Si02
#       7
#     8   8   8   8   8   8   8
#     4  11  23  39  60  86 115 149 188 234 287 336
#     4  10  22  40  59  80 111 153 193 231 276 336
#     4  10  20  34  55  84 113 143 183 233 285 331
#     4  12  23  37  61  89 116 147 186 234 287 339
#     4   9  19  36  56  80 113 148 183 228 280 336
#     4  10  21  37  57  80 110 151 192 226 277 335
#     4  10  22  40  60  84 116 150 186 233 287 337
#
# _framework density 22.124745999999998
#
# number of rings (size 3 to 8) (size 9 to 14) (size 15 to 20)
#    0.000    1.714    1.429    3.000    0.000    7.429 
#    0.000    0.000    0.000    0.000    0.000    0.000 
#    0.000    0.000    0.000    0.000    0.000    0.000 
#
# Total GULP energy -156561.219014 kJ/mol
# GULP energy per Si atom -5591.472108 kJ/mol
# Density = 2.207439 g / cm^3
# Si number density = 22.124746 Si / 1000 Ang^3
#
#
#
# Elastic Constant Matrix: (Units=GPa)
#
#
# Indices 1 2 3 4 5 6 
#
# 1 107.9934 43.1130 15.6791 0.0000 32.1080 0.0000
# 2 43.1130 69.1824 21.4304 0.0000 23.0219 0.0000
# 3 15.6791 21.4304 72.0785 0.0000 31.2474 0.0000
# 4 0.0000 0.0000 0.0000 31.3755 0.0000 16.2575
# 5 32.1080 23.0219 31.2474 0.0000 44.9964 0.0000
# 6 0.0000 0.0000 0.0000 16.2575 0.0000 24.9856
#
#
#
# Elastic Compliance Matrix: (Units=1/GPa)
#
#
# Indices 1 2 3 4 5 6 
#
# 1 0.014085 -0.006793 0.002584 0.000000 -0.008370 0.000000
# 2 -0.006793 0.020877 -0.003148 0.000000 -0.003648 0.000000
# 3 0.002584 -0.003148 0.020529 0.000000 -0.014490 0.000000
# 4 0.000000 0.000000 0.000000 0.048083 0.000000 -0.031287
# 5 -0.008370 -0.003648 -0.014490 0.000000 0.040125 0.000000
# 6 0.000000 0.000000 0.000000 -0.031287 0.000000 0.060381
#
#
# Mechanical properties :
#
#
# Convention : Reuss Voigt Hill
#
# Bulk Modulus (GPa) = 24.52313 45.52215 35.02264
# Shear Modulus (GPa) = 21.51600 31.54029 26.52815
#
# Velocity S-wave (km/s) = 3.12185 3.77976 3.46645
# Velocity P-wave (km/s) = 4.90945 6.29831 5.64674
#
# Compressibility (1/GPa) = 0.04077782
#
# Stress axis : x y z
#
# Youngs Moduli (GPa) = 70.99847 47.90014 48.71140
#
# Poissons Ratio (x) = 0.32537 -0.12588
# Poissons Ratio (y) = 0.48227 0.15334
# Poissons Ratio (z) = -0.18347 0.15078
#
# Static dielectric constant tensor:
#      x y z
#    x 1.824100 0.000000 0.033740 
#    y 0.000000 1.734790 0.000000 
#    z 0.033740 0.000000 1.868880 
# 
# From -- ./inp_files/339094.got.cif
#   From: 2010.05.17/outbox.cif.g08.bks.cpg/sg12_170_cif.got.tgz:339094.got - 2010.06.03 13:09:07.
