data_PCOD9194362
_publ_section_title
;
Structure prediction by ZEFSAII (Michael W. Deem and Ramdas Pophale) SiO2 
 PCOD9194362
Probable space group: C 2/M
;
_chemical_formula_sum "Si O2"
_cell_formula_units_Z 64
_cell_length_a 34.218862
_cell_length_b 18.236421
_cell_length_c 9.295578
_cell_angle_alpha 90.000000
_cell_angle_beta 36.508302
_cell_angle_gamma 90.000000
_cell_volume 3451.073415
_symmetry_space_group_name_H-M "C 2/M"
_symmetry_group_IT_number 12
_symmetry_cell_setting 'monoclinic'
loop_
_space_group_symop_operation_xyz
x,y,z
-x,y,-z
-x,-y,-z
x,-y,z
1/2+x,1/2+y,z
1/2-x,1/2+y,-z
1/2-x,1/2-y,-z
1/2+x,1/2-y,z
loop_
_atom_site_type_symbol
_atom_site_label
_atom_site_fract_x
_atom_site_fract_y
_atom_site_fract_z
Si Si1 0.104380 0.333630 0.480220
Si Si2 0.465179 0.339369 0.745977
Si Si3 0.060217 0.809815 0.725443
Si Si4 0.870286 0.912360 0.253555
Si Si5 0.467566 0.913155 0.870762
Si Si6 0.338575 0.914169 0.447195
Si Si7 0.735762 0.166285 0.577408
Si Si8 0.602024 0.183415 0.145902
O O1 0.109023 0.256241 0.548423
O O2 0.155934 0.385870 0.406654
O O3 0.107999 0.321643 0.299346
O O4 0.033044 0.369866 0.716610
O O5 0.500000 0.369466 0.500000
O O6 0.524864 0.329361 0.681414
O O7 0.430542 0.261149 0.807506
O O8 0.411716 0.387661 0.989389
O O9 0.092714 0.875319 0.719445
O O10 0.000000 0.780897 0.000000
O O11 0.798542 0.875992 0.453921
O O12 0.867663 0.000000 0.272360
O O13 0.442619 0.879667 0.793848
O O14 0.480280 0.000000 0.825536
O O15 0.408741 0.901062 0.158998
O O16 0.286065 0.872922 0.505191
O O17 0.325906 0.000000 0.480614
O O18 0.750000 0.250000 0.500000
O O19 0.673491 0.169301 0.867299
#
# Coordination Sequence:
#
# PCOD9194362 Si02
#       8
#     8   8   8   8   8   8   8   8
#     4  12  20  33  57  88 128 161 204 257 304 363
#     4  11  20  40  66  96 130 156 201 261 318 376
#     4  10  21  35  63  91 123 159 204 256 310 366
#     4  11  25  44  67  93 123 164 211 262 311 368
#     4  10  20  34  55  86 126 167 204 248 304 365
#     4  10  22  36  55  85 122 165 209 250 299 359
#     4  11  22  43  68  85 115 162 213 252 296 369
#     4  11  22  37  60  93 124 163 206 251 308 370
#
# _framework density 18.544955999999999
#
# number of rings (size 3 to 8) (size 9 to 14) (size 15 to 20)
#    0.000    1.250    3.750    3.000    3.500    5.500 
#    0.000    3.750    0.000    0.000    0.000    0.000 
#    0.000    0.000    0.000    0.000    0.000    0.000 
#
# Total GULP energy -178660.860096 kJ/mol
# GULP energy per Si atom -5583.151878 kJ/mol
# Density = 1.850275 g / cm^3
# Si number density = 18.544956 Si / 1000 Ang^3
#
#
#
# Elastic Constant Matrix: (Units=GPa)
#
#
# Indices 1 2 3 4 5 6 
#
# 1 138.0642 64.7867 45.3165 0.0000 15.3129 0.0000
# 2 64.7867 122.5928 38.0639 0.0000 4.8984 0.0000
# 3 45.3165 38.0639 54.9983 0.0000 -3.4461 0.0000
# 4 0.0000 0.0000 0.0000 18.8766 0.0000 -12.1363
# 5 15.3129 4.8984 -3.4461 0.0000 30.6668 0.0000
# 6 0.0000 0.0000 0.0000 -12.1363 0.0000 39.5541
#
#
#
# Elastic Compliance Matrix: (Units=1/GPa)
#
#
# Indices 1 2 3 4 5 6 
#
# 1 0.012353 -0.003801 -0.007952 0.000000 -0.006454 0.000000
# 2 -0.003801 0.011751 -0.005035 0.000000 -0.000545 0.000000
# 3 -0.007952 -0.005035 0.028720 0.000000 0.008002 0.000000
# 4 0.000000 0.000000 0.000000 0.065994 0.000000 0.020249
# 5 -0.006454 -0.000545 0.008002 0.000000 0.036818 0.000000
# 6 0.000000 0.000000 0.000000 0.020249 0.000000 0.031495
#
#
# Mechanical properties :
#
#
# Convention : Reuss Voigt Hill
#
# Bulk Modulus (GPa) = 51.95259 67.99884 59.97571
# Shear Modulus (GPa) = 22.01460 28.98538 25.49999
#
# Velocity S-wave (km/s) = 3.44916 3.95774 3.71217
# Velocity P-wave (km/s) = 6.62854 7.59155 7.12633
#
# Compressibility (1/GPa) = 0.01924832
#
# Stress axis : x y z
#
# Youngs Moduli (GPa) = 80.95511 85.09974 34.81860
#
# Poissons Ratio (x) = 0.32347 0.27687
# Poissons Ratio (y) = 0.30772 0.17531
# Poissons Ratio (z) = 0.64373 0.42847
#
# Static dielectric constant tensor:
#      x y z
#    x 1.659040 0.000000 0.007300 
#    y 0.000000 1.627090 0.000000 
#    z 0.007300 0.000000 1.664690 
# 
# From -- ./inp_files/112819.got.cif
#   From: 2010.05.17/outbox.cif.g08.bks.cpg/sg12_57_cif.got.tgz:112819.got - 2010.06.03 13:09:07.
