data_PCOD9194213
_publ_section_title
;
Structure prediction by ZEFSAII (Michael W. Deem and Ramdas Pophale) SiO2 
 PCOD9194213
Probable space group: C 2/M
;
_chemical_formula_sum "Si O2"
_cell_formula_units_Z 56
_cell_length_a 13.893466
_cell_length_b 18.648523
_cell_length_c 11.370756
_cell_angle_alpha 90.000000
_cell_angle_beta 72.936742
_cell_angle_gamma 90.000000
_cell_volume 2816.396627
_symmetry_space_group_name_H-M "C 2/M"
_symmetry_group_IT_number 12
_symmetry_cell_setting 'monoclinic'
loop_
_space_group_symop_operation_xyz
x,y,z
-x,y,-z
-x,-y,-z
x,-y,z
1/2+x,1/2+y,z
1/2-x,1/2+y,-z
1/2-x,1/2-y,-z
1/2+x,1/2-y,z
loop_
_atom_site_type_symbol
_atom_site_label
_atom_site_fract_x
_atom_site_fract_y
_atom_site_fract_z
Si Si1 0.778341 0.831564 0.320662
Si Si2 0.250690 0.586361 0.570517
Si Si3 0.230947 0.342827 0.922098
Si Si4 0.949324 0.913440 0.143015
Si Si5 0.394812 0.189571 0.258603
Si Si6 0.114626 0.918147 0.267936
Si Si7 0.867260 0.294267 0.820401
O O1 0.767703 0.882473 0.435789
O O2 0.846319 0.872172 0.199601
O O3 0.836051 0.758279 0.331228
O O4 0.674938 0.811072 0.293532
O O5 0.248933 0.500000 0.572346
O O6 0.147982 0.620352 0.658070
O O7 0.340544 0.612756 0.626916
O O8 0.145192 0.319590 0.860423
O O9 0.290192 0.411925 0.854419
O O10 0.317221 0.281187 0.879406
O O11 0.181083 0.347705 0.066247
O O12 0.019671 0.890609 0.228352
O O13 0.937946 0.000000 0.149960
O O14 0.000000 0.895027 0.000000
O O15 0.513201 0.202070 0.219280
O O16 0.089379 0.000000 0.303442
#
# Coordination Sequence:
#
# PCOD9194213 Si02
#       7
#     8   8   8   8   8   8   8
#     4  11  22  36  57  83 112 145 184 229 275 327
#     4  10  22  41  58  77 109 146 188 231 273 325
#     4   9  18  34  56  83 112 142 177 224 275 327
#     4  10  20  34  55  86 119 147 179 224 281 339
#     4  10  21  37  58  82 108 144 187 229 273 327
#     4   9  18  34  56  79 107 144 181 223 273 322
#     4  10  20  34  55  83 113 143 179 222 275 328
#
# _framework density 19.883562999999999
#
# number of rings (size 3 to 8) (size 9 to 14) (size 15 to 20)
#    0.000    2.143    0.000    3.000    0.000    3.429 
#    0.000    7.143    0.000    3.429    0.000    0.000 
#    0.000    0.000    0.000    0.000    0.000    0.000 
#
# Total GULP energy -156206.006572 kJ/mol
# GULP energy per Si atom -5578.785949 kJ/mol
# Density = 1.983831 g / cm^3
# Si number density = 19.883563 Si / 1000 Ang^3
#
#
#
# Elastic Constant Matrix: (Units=GPa)
#
#
# Indices 1 2 3 4 5 6 
#
# 1 142.2404 21.0011 16.5552 0.0000 -5.0217 0.0000
# 2 21.0011 53.7373 22.0132 0.0000 3.7856 0.0000
# 3 16.5552 22.0132 60.3835 0.0000 7.6321 0.0000
# 4 0.0000 0.0000 0.0000 26.7905 0.0000 -2.0043
# 5 -5.0217 3.7856 7.6321 0.0000 12.3998 0.0000
# 6 0.0000 0.0000 0.0000 -2.0043 0.0000 12.8810
#
#
#
# Elastic Compliance Matrix: (Units=1/GPa)
#
#
# Indices 1 2 3 4 5 6 
#
# 1 0.007816 -0.002671 -0.001813 0.000000 0.005097 0.000000
# 2 -0.002671 0.022831 -0.007128 0.000000 -0.003665 0.000000
# 3 -0.001813 -0.007128 0.021117 0.000000 -0.011556 0.000000
# 4 0.000000 0.000000 0.000000 0.037766 0.000000 0.005876
# 5 0.005097 -0.003665 -0.011556 0.000000 0.090942 0.000000
# 6 0.000000 0.000000 0.000000 0.005876 0.000000 0.078548
#
#
# Mechanical properties :
#
#
# Convention : Reuss Voigt Hill
#
# Bulk Modulus (GPa) = 35.03859 41.72225 38.38042
# Shear Modulus (GPa) = 17.13758 23.53371 20.33565
#
# Velocity S-wave (km/s) = 2.93899 3.44405 3.20149
# Velocity P-wave (km/s) = 5.40158 6.06994 5.74548
#
# Compressibility (1/GPa) = 0.02853996
#
# Stress axis : x y z
#
# Youngs Moduli (GPa) = 127.94836 43.80065 47.35515
#
# Poissons Ratio (x) = 0.11698 0.08587
# Poissons Ratio (y) = 0.34170 0.33753
# Poissons Ratio (z) = 0.23202 0.31220
#
# Static dielectric constant tensor:
#      x y z
#    x 1.702670 0.000000 0.033090 
#    y 0.000000 1.736270 0.000000 
#    z 0.033090 0.000000 1.713960 
# 
# From -- ./inp_files/133842.got.cif
#   From: 2010.05.17/outbox.cif.g08.bks.cpg/sg12_67_cif.got.tgz:133842.got - 2010.06.03 13:09:07.
