data_PCOD9194882
_publ_section_title
;
Structure prediction by ZEFSAII (Michael W. Deem and Ramdas Pophale) SiO2 
 PCOD9194882
Probable space group: C 2/M
;
_chemical_formula_sum "Si O2"
_cell_formula_units_Z 44
_cell_length_a 8.914208
_cell_length_b 11.322178
_cell_length_c 20.423224
_cell_angle_alpha 90.000000
_cell_angle_beta 78.217422
_cell_angle_gamma 90.000000
_cell_volume 2017.848097
_symmetry_space_group_name_H-M "C 2/M"
_symmetry_group_IT_number 12
_symmetry_cell_setting 'monoclinic'
loop_
_space_group_symop_operation_xyz
x,y,z
-x,y,-z
-x,-y,-z
x,-y,z
1/2+x,1/2+y,z
1/2-x,1/2+y,-z
1/2-x,1/2-y,-z
1/2+x,1/2-y,z
loop_
_atom_site_type_symbol
_atom_site_label
_atom_site_fract_x
_atom_site_fract_y
_atom_site_fract_z
Si Si1 0.143073 0.864054 0.241314
Si Si2 0.000000 0.204403 0.000000
Si Si3 0.281062 0.373909 0.575330
Si Si4 0.241439 0.131704 0.084183
Si Si5 0.157184 0.375790 0.446391
Si Si6 0.956716 0.630680 0.296509
O O1 0.173914 0.842923 0.161732
O O2 0.305401 0.864758 0.264336
O O3 0.047371 0.751439 0.275366
O O4 0.079920 0.000000 0.254432
O O5 0.877264 0.281845 0.051220
O O6 0.105329 0.137392 0.043042
O O7 0.353245 0.500000 0.588649
O O8 0.278245 0.371363 0.496490
O O9 0.341984 0.247152 0.590906
O O10 0.114011 0.374614 0.623904
O O11 0.306371 0.000000 0.080307
O O12 0.184223 0.500000 0.408356
O O13 0.000000 0.381673 0.500000
O O14 0.030449 0.500000 0.277488
#
# Coordination Sequence:
#
# PCOD9194882 Si02
#       6
#     8   4   8   8   8   8
#     4  10  22  39  58  83 116 151 189 233 279 330
#     4  10  20  34  58  86 110 146 184 222 278 330
#     4   9  19  34  50  73 104 135 175 226 276 328
#     4  10  20  36  56  82 115 146 183 229 274 327
#     4   9  18  32  51  75 101 133 172 222 276 331
#     4  10  22  39  58  83 113 149 193 236 279 335
#
# _framework density 21.805409000000001
#
# number of rings (size 3 to 8) (size 9 to 14) (size 15 to 20)
#    0.000    2.364    0.000    1.636    2.545    1.818 
#    0.000    4.545    0.000    0.000    0.000    0.000 
#    0.000    0.000    0.000    0.000    0.000    0.000 
#
# Total GULP energy -122613.012049 kJ/mol
# GULP energy per Si atom -5573.318729 kJ/mol
# Density = 2.175578 g / cm^3
# Si number density = 21.805409 Si / 1000 Ang^3
#
#
#
# Elastic Constant Matrix: (Units=GPa)
#
#
# Indices 1 2 3 4 5 6 
#
# 1 45.1958 37.8270 11.7776 0.0000 5.0782 0.0000
# 2 37.8270 258.5825 51.8241 0.0000 -20.5975 0.0000
# 3 11.7776 51.8241 90.1280 0.0000 12.6133 0.0000
# 4 0.0000 0.0000 0.0000 49.5251 0.0000 33.0578
# 5 5.0782 -20.5975 12.6133 0.0000 23.4576 0.0000
# 6 0.0000 0.0000 0.0000 33.0578 0.0000 75.6348
#
#
#
# Elastic Compliance Matrix: (Units=1/GPa)
#
#
# Indices 1 2 3 4 5 6 
#
# 1 0.027322 -0.005019 0.000822 0.000000 -0.010764 0.000000
# 2 -0.005019 0.006103 -0.004061 0.000000 0.008629 0.000000
# 3 0.000822 -0.004061 0.014974 0.000000 -0.011795 0.000000
# 4 0.000000 0.000000 0.000000 0.028509 0.000000 -0.012461
# 5 -0.010764 0.008629 -0.011795 0.000000 0.058879 0.000000
# 6 0.000000 0.000000 0.000000 -0.012461 0.000000 0.018668
#
#
# Mechanical properties :
#
#
# Convention : Reuss Voigt Hill
#
# Bulk Modulus (GPa) = 31.36509 66.30708 48.83608
# Shear Modulus (GPa) = 27.53356 49.22200 38.37778
#
# Velocity S-wave (km/s) = 3.55730 4.75629 4.19980
# Velocity P-wave (km/s) = 5.59355 7.78702 6.77958
#
# Compressibility (1/GPa) = 0.03188258
#
# Stress axis : x y z
#
# Youngs Moduli (GPa) = 36.60081 163.86527 66.78440
#
# Poissons Ratio (x) = 0.82243 -0.05489
# Poissons Ratio (y) = 0.18370 0.27119
# Poissons Ratio (z) = -0.03008 0.66541
#
# Static dielectric constant tensor:
#      x y z
#    x 1.838030 0.000000 0.053070 
#    y 0.000000 1.858950 0.000000 
#    z 0.053070 0.000000 1.793760 
# 
# From -- ./inp_files/299233.got.cif
#   From: 2010.05.17/outbox.cif.g08.bks.cpg/sg12_150_cif.got.tgz:299233.got - 2010.06.03 13:09:07.
