data_PCOD9194644
_publ_section_title
;
Structure prediction by ZEFSAII (Michael W. Deem and Ramdas Pophale) SiO2 
 PCOD9194644
Probable space group: C 2/M
;
_chemical_formula_sum "Si O2"
_cell_formula_units_Z 48
_cell_length_a 27.663731
_cell_length_b 15.133700
_cell_length_c 6.057729
_cell_angle_alpha 90.000000
_cell_angle_beta 94.318839
_cell_angle_gamma 90.000000
_cell_volume 2528.894715
_symmetry_space_group_name_H-M "C 2/M"
_symmetry_group_IT_number 12
_symmetry_cell_setting 'monoclinic'
loop_
_space_group_symop_operation_xyz
x,y,z
-x,y,-z
-x,-y,-z
x,-y,z
1/2+x,1/2+y,z
1/2-x,1/2+y,-z
1/2-x,1/2-y,-z
1/2+x,1/2-y,z
loop_
_atom_site_type_symbol
_atom_site_label
_atom_site_fract_x
_atom_site_fract_y
_atom_site_fract_z
Si Si1 0.049337 0.100133 0.373726
Si Si2 0.143454 0.678013 0.322544
Si Si3 0.205213 0.186372 0.054734
Si Si4 0.122639 0.202253 0.696407
Si Si5 0.447487 0.763861 0.945853
Si Si6 0.797317 0.500000 0.704749
Si Si7 0.248076 0.000000 0.190656
O O1 0.095804 0.131833 0.531162
O O2 0.044566 0.172340 0.182363
O O3 0.000000 0.103125 0.500000
O O4 0.055760 0.000000 0.295693
O O5 0.172420 0.755099 0.205715
O O6 0.140744 0.711996 0.570259
O O7 0.089136 0.677369 0.209162
O O8 0.170640 0.587805 0.294407
O O9 0.221154 0.094440 0.167796
O O10 0.250000 0.250000 0.000000
O O11 0.169254 0.165277 0.839020
O O12 0.081082 0.237161 0.845139
O O13 0.500000 0.804751 0.000000
O O14 0.770431 0.500000 0.451276
O O15 0.773810 0.500000 0.948053
#
# Coordination Sequence:
#
# PCOD9194644 Si02
#       7
#     8   8   8   8   8   4   4
#     4  10  20  34  56  89 125 170 218 269 324 399
#     4  10  24  42  68  95 130 173 221 281 336 402
#     4  11  23  43  64  95 130 174 221 272 338 395
#     4  10  22  39  61  87 131 172 215 278 326 398
#     4  10  20  39  62  90 126 172 220 269 338 394
#     4  12  26  48  71 101 129 175 231 281 346 404
#     4  12  28  42  74  98 136 183 223 280 334 410
#
# _framework density 18.980623999999999
#
# number of rings (size 3 to 8) (size 9 to 14) (size 15 to 20)
#    0.000    1.500    3.333    1.000    5.833    2.333 
#   12.000    0.417    0.000    1.000    0.000    0.000 
#    0.000    0.000    0.000    0.000    0.000    0.000 
#
# Total GULP energy -133790.616455 kJ/mol
# GULP energy per Si atom -5574.609019 kJ/mol
# Density = 1.893742 g / cm^3
# Si number density = 18.980624 Si / 1000 Ang^3
#
#
#
# Elastic Constant Matrix: (Units=GPa)
#
#
# Indices 1 2 3 4 5 6 
#
# 1 94.4033 33.9165 29.6538 0.0000 14.8341 0.0000
# 2 33.9165 112.1265 21.8115 0.0000 14.9729 0.0000
# 3 29.6538 21.8115 79.3505 0.0000 4.6455 0.0000
# 4 0.0000 0.0000 0.0000 35.1951 0.0000 -38.1737
# 5 14.8341 14.9729 4.6455 0.0000 32.3680 0.0000
# 6 0.0000 0.0000 0.0000 -38.1737 0.0000 47.8906
#
#
#
# Elastic Compliance Matrix: (Units=1/GPa)
#
#
# Indices 1 2 3 4 5 6 
#
# 1 0.013529 -0.002722 -0.004052 0.000000 -0.004359 0.000000
# 2 -0.002722 0.010519 -0.001677 0.000000 -0.003378 0.000000
# 3 -0.004052 -0.001677 0.014546 0.000000 0.000545 0.000000
# 4 0.000000 0.000000 0.000000 0.209785 0.000000 0.167220
# 5 -0.004359 -0.003378 0.000545 0.000000 0.034377 0.000000
# 6 0.000000 0.000000 0.000000 0.167220 0.000000 0.154172
#
#
# Mechanical properties :
#
#
# Convention : Reuss Voigt Hill
#
# Bulk Modulus (GPa) = 46.10000 50.73819 48.41910
# Shear Modulus (GPa) = 10.84459 36.45730 23.65094
#
# Velocity S-wave (km/s) = 2.39289 4.38741 3.53378
# Velocity P-wave (km/s) = 5.65466 7.24261 6.49733
#
# Compressibility (1/GPa) = 0.02169197
#
# Stress axis : x y z
#
# Youngs Moduli (GPa) = 73.91717 95.06618 68.74920
#
# Poissons Ratio (x) = 0.25875 0.27860
# Poissons Ratio (y) = 0.20119 0.11526
# Poissons Ratio (z) = 0.29954 0.15938
#
# Static dielectric constant tensor:
#      x y z
#    x 1.684590 0.000000 0.017280 
#    y 0.000000 1.604080 0.000000 
#    z 0.017280 0.000000 1.734880 
# 
# From -- ./inp_files/28172.got.cif
#   From: 2010.05.17/outbox.cif.g08.bks.cpg/sg12_15_cif.got.tgz:28172.got - 2010.06.03 13:09:07.
