data_PCOD9194487
_publ_section_title
;
Structure prediction by ZEFSAII (Michael W. Deem and Ramdas Pophale) SiO2 
 PCOD9194487
Probable space group: C 2/M
;
_chemical_formula_sum "Si O2"
_cell_formula_units_Z 48
_cell_length_a 26.006961
_cell_length_b 10.914447
_cell_length_c 19.500287
_cell_angle_alpha 90.000000
_cell_angle_beta 25.641060
_cell_angle_gamma 90.000000
_cell_volume 2395.252365
_symmetry_space_group_name_H-M "C 2/M"
_symmetry_group_IT_number 12
_symmetry_cell_setting 'monoclinic'
loop_
_space_group_symop_operation_xyz
x,y,z
-x,y,-z
-x,-y,-z
x,-y,z
1/2+x,1/2+y,z
1/2-x,1/2+y,-z
1/2-x,1/2-y,-z
1/2+x,1/2-y,z
loop_
_atom_site_type_symbol
_atom_site_label
_atom_site_fract_x
_atom_site_fract_y
_atom_site_fract_z
Si Si1 0.674911 0.367144 0.108924
Si Si2 0.550843 0.356799 0.868691
Si Si3 0.168644 0.360046 0.493537
Si Si4 0.140047 0.869502 0.312903
Si Si5 0.120674 0.367362 0.399567
Si Si6 0.446460 0.642705 0.286961
O O1 0.734070 0.500000 0.024045
O O2 0.648222 0.361742 0.221635
O O3 0.556361 0.363435 0.206523
O O4 0.750000 0.250000 0.000000
O O5 0.515866 0.500000 0.911835
O O6 0.694041 0.350222 0.694357
O O7 0.514007 0.315479 0.836674
O O8 0.500000 0.300469 0.000000
O O9 0.149584 0.500000 0.542930
O O10 0.095312 0.348902 0.510491
O O11 0.137853 0.248341 0.580702
O O12 0.191484 0.748830 0.286326
O O13 0.000000 0.872240 0.500000
O O14 0.191959 0.000000 0.273447
O O15 0.181396 0.500000 0.319642
O O16 0.000000 0.373199 0.500000
O O17 0.399279 0.500000 0.338979
#
# Coordination Sequence:
#
# PCOD9194487 Si02
#       6
#     8   8   8   8   8   8
#     4  10  22  37  54  80 112 147 183 221 271 326
#     4   9  19  36  56  80 110 143 182 228 276 325
#     4  10  20  34  56  84 111 142 182 229 275 319
#     4   9  17  31  50  72 101 135 172 214 258 307
#     4   9  17  28  45  74 107 136 170 213 260 308
#     4  10  20  36  59  82 106 142 185 226 271 326
#
# _framework density 20.039641
#
# number of rings (size 3 to 8) (size 9 to 14) (size 15 to 20)
#    0.000    2.500    0.000    2.500    0.000    4.667 
#    0.000    3.333    0.000    2.000    0.000    0.000 
#    0.000    0.000    0.000    0.000    0.000    0.000 
#
# Total GULP energy -133675.852820 kJ/mol
# GULP energy per Si atom -5569.827201 kJ/mol
# Density = 1.999403 g / cm^3
# Si number density = 20.039641 Si / 1000 Ang^3
#
#
#
# Elastic Constant Matrix: (Units=GPa)
#
#
# Indices 1 2 3 4 5 6 
#
# 1 64.2923 51.4853 15.7765 0.0000 27.0883 0.0000
# 2 51.4853 182.0041 55.9895 0.0001 28.4302 -0.0002
# 3 15.7765 55.9895 52.9472 0.0001 25.9537 -0.0001
# 4 0.0000 0.0001 0.0001 25.9058 0.0000 8.1795
# 5 27.0883 28.4302 25.9537 0.0000 28.8779 0.0001
# 6 0.0000 -0.0002 -0.0001 8.1795 0.0001 -5.3318
#
#
#
# Elastic Compliance Matrix: (Units=1/GPa)
#
#
# Indices 1 2 3 4 5 6 
#
# 1 0.036773 -0.010073 0.020989 0.000000 -0.043440 -0.000001
# 2 -0.010073 0.010907 -0.014122 0.000000 0.011403 0.000000
# 3 0.020989 -0.014122 0.054342 0.000000 -0.054624 -0.000001
# 4 0.000000 0.000000 0.000000 0.026005 0.000000 0.039894
# 5 -0.043440 0.011403 -0.054624 0.000000 0.113243 0.000002
# 6 -0.000001 0.000000 -0.000001 0.039894 0.000002 -0.126352
#
#
# Mechanical properties :
#
#
# Convention : Reuss Voigt Hill
#
# Bulk Modulus (GPa) = 10.45927 60.63846 35.54887
# Shear Modulus (GPa) = 32.63686 21.62320 27.13003
#
# Velocity S-wave (km/s) = 4.03999 3.28841 3.68342
# Velocity P-wave (km/s) = 5.19544 6.68903 5.98898
#
# Compressibility (1/GPa) = 0.09560896
#
# Stress axis : x y z
#
# Youngs Moduli (GPa) = 27.19377 91.68468 18.40210
#
# Poissons Ratio (x) = 0.92358 -0.38624
# Poissons Ratio (y) = 0.27394 0.25987
# Poissons Ratio (z) = -0.57076 1.29474
#
# Static dielectric constant tensor:
#      x y z
#    x 1.722750 0.000000 0.003050 
#    y 0.000000 3.424930 0.000000 
#    z 0.003050 0.000000 1.695260 
# 
# From -- ./inp_files/222565.got.cif
#   From: 2010.05.17/outbox.cif.g08.bks.cpg/sg12_112_cif.got.tgz:222565.got - 2010.06.03 13:09:07.
