data_PCOD9194197
_publ_section_title
;
Structure prediction by ZEFSAII (Michael W. Deem and Ramdas Pophale) SiO2 
 PCOD9194197
Probable space group: C 2/M
;
_chemical_formula_sum "Si O2"
_cell_formula_units_Z 56
_cell_length_a 23.741821
_cell_length_b 8.943515
_cell_length_c 19.279072
_cell_angle_alpha 90.000000
_cell_angle_beta 128.409419
_cell_angle_gamma 90.000000
_cell_volume 3207.731552
_symmetry_space_group_name_H-M "C 2/M"
_symmetry_group_IT_number 12
_symmetry_cell_setting 'monoclinic'
loop_
_space_group_symop_operation_xyz
x,y,z
-x,y,-z
-x,-y,-z
x,-y,z
1/2+x,1/2+y,z
1/2-x,1/2+y,-z
1/2-x,1/2-y,-z
1/2+x,1/2-y,z
loop_
_atom_site_type_symbol
_atom_site_label
_atom_site_fract_x
_atom_site_fract_y
_atom_site_fract_z
Si Si1 0.461839 0.179830 0.325158
Si Si2 0.886100 0.177719 0.519051
Si Si3 0.993611 0.329109 0.200421
Si Si4 0.664166 0.178462 0.663238
Si Si5 0.308317 0.820405 0.746802
Si Si6 0.039533 0.177599 0.101573
Si Si7 0.840239 0.671928 0.619372
O O1 0.532375 0.268348 0.403508
O O2 0.448664 0.214938 0.233977
O O3 0.394842 0.212104 0.323183
O O4 0.477154 0.000000 0.340574
O O5 0.862807 0.255798 0.430344
O O6 0.838826 0.230663 0.549053
O O7 0.881922 0.000000 0.509135
O O8 0.976768 0.500000 0.167847
O O9 0.992859 0.226450 0.132606
O O10 0.075956 0.328450 0.291844
O O11 0.741222 0.252440 0.735739
O O12 0.671242 0.000000 0.663594
O O13 0.384010 0.759511 0.832135
O O14 0.301065 0.776001 0.659489
O O15 0.308392 0.000000 0.748335
O O16 0.051229 0.000000 0.112068
O O17 0.000000 0.217597 0.000000
O O18 0.820406 0.500000 0.588725
#
# Coordination Sequence:
#
# PCOD9194197 Si02
#       7
#     8   8   8   8   8   8   8
#     4   9  19  35  52  71  98 135 175 210 248 294
#     4  11  21  31  48  74 100 130 174 221 253 284
#     4   8  15  30  52  76 100 127 164 206 245 289
#     4  11  22  35  51  69  98 139 173 207 253 299
#     4  10  21  36  53  75 102 130 165 207 251 300
#     4  10  20  34  55  83 109 130 156 193 241 301
#     4   8  16  32  50  68  96 132 166 205 253 300
#
# _framework density 17.457820000000002
#
# number of rings (size 3 to 8) (size 9 to 14) (size 15 to 20)
#    0.000    2.429    0.000    4.714    0.000   10.286 
#    0.000    0.000    0.000    0.857    0.000    0.000 
#    0.000    0.000    0.000    0.000    0.000    0.000 
#
# Total GULP energy -156239.041065 kJ/mol
# GULP energy per Si atom -5579.965752 kJ/mol
# Density = 1.741809 g / cm^3
# Si number density = 17.457820 Si / 1000 Ang^3
#
#
#
# Elastic Constant Matrix: (Units=GPa)
#
#
# Indices 1 2 3 4 5 6 
#
# 1 109.0737 45.7551 46.6997 0.0000 -9.5344 0.0000
# 2 45.7551 62.9355 46.1883 0.0000 -4.6494 0.0000
# 3 46.6997 46.1883 92.2023 0.0000 -12.9118 0.0000
# 4 0.0000 0.0000 0.0000 20.8332 0.0000 -1.0912
# 5 -9.5344 -4.6494 -12.9118 0.0000 16.9267 0.0000
# 6 0.0000 0.0000 0.0000 -1.0912 0.0000 20.9744
#
#
#
# Elastic Compliance Matrix: (Units=1/GPa)
#
#
# Indices 1 2 3 4 5 6 
#
# 1 0.013931 -0.007997 -0.002528 0.000000 0.003721 0.000000
# 2 -0.007997 0.029857 -0.011631 0.000000 -0.005176 0.000000
# 3 -0.002528 -0.011631 0.019376 0.000000 0.010161 0.000000
# 4 0.000000 0.000000 0.000000 0.048131 0.000000 0.002504
# 5 0.003721 -0.005176 0.010161 0.000000 0.067504 0.000000
# 6 0.000000 0.000000 0.000000 0.002504 0.000000 0.047807
#
#
# Mechanical properties :
#
#
# Convention : Reuss Voigt Hill
#
# Bulk Modulus (GPa) = 53.05017 60.16639 56.60828
# Shear Modulus (GPa) = 18.03732 20.11808 19.07770
#
# Velocity S-wave (km/s) = 3.21782 3.39836 3.30932
# Velocity P-wave (km/s) = 6.65278 7.06662 6.86282
#
# Compressibility (1/GPa) = 0.01885008
#
# Stress axis : x y z
#
# Youngs Moduli (GPa) = 71.78361 33.49287 51.61089
#
# Poissons Ratio (x) = 0.26785 0.13049
# Poissons Ratio (y) = 0.57408 0.60029
# Poissons Ratio (z) = 0.18150 0.38956
#
# Static dielectric constant tensor:
#      x y z
#    x 1.627670 0.000000 -0.005750 
#    y 0.000000 1.579690 0.000000 
#    z -0.005750 0.000000 1.582370 
# 
# From -- ./inp_files/287883.got.cif
#   From: 2010.05.17/outbox.cif.g08.bks.cpg/sg12_144_cif.got.tgz:287883.got - 2010.06.03 13:09:07.
