data_PCOD9194053
_publ_section_title
;
Structure prediction by ZEFSAII (Michael W. Deem and Ramdas Pophale) SiO2 
 PCOD9194053
Probable space group: C 2/M
;
_chemical_formula_sum "Si O2"
_cell_formula_units_Z 56
_cell_length_a 18.785507
_cell_length_b 9.054144
_cell_length_c 29.935857
_cell_angle_alpha 90.000000
_cell_angle_beta 142.025730
_cell_angle_gamma 90.000000
_cell_volume 3132.955669
_symmetry_space_group_name_H-M "C 2/M"
_symmetry_group_IT_number 12
_symmetry_cell_setting 'monoclinic'
loop_
_space_group_symop_operation_xyz
x,y,z
-x,y,-z
-x,-y,-z
x,-y,z
1/2+x,1/2+y,z
1/2-x,1/2+y,-z
1/2-x,1/2-y,-z
1/2+x,1/2-y,z
loop_
_atom_site_type_symbol
_atom_site_label
_atom_site_fract_x
_atom_site_fract_y
_atom_site_fract_z
Si Si1 0.701277 0.676219 0.293659
Si Si2 0.950387 0.822150 0.426810
Si Si3 0.836246 0.324223 0.136756
Si Si4 0.875300 0.822061 0.566485
Si Si5 0.990291 0.676655 0.858641
Si Si6 0.587512 0.177596 0.003382
Si Si7 0.471881 0.323044 0.711020
O O1 0.709192 0.500000 0.293904
O O2 0.827127 0.747530 0.357735
O O3 0.623461 0.741460 0.215261
O O4 0.630194 0.711585 0.304038
O O5 0.000000 0.781819 0.500000
O O6 0.041780 0.780635 0.433622
O O7 0.936223 0.000000 0.418610
O O8 0.828301 0.500000 0.137589
O O9 0.710551 0.253325 0.071482
O O10 0.908153 0.291879 0.126897
O O11 0.913349 0.256424 0.214580
O O12 0.750000 0.750000 0.500000
O O13 0.933396 0.780116 0.642387
O O14 0.862829 0.000000 0.560093
O O15 0.969509 0.500000 0.847889
O O16 0.031898 0.720354 0.928361
O O17 0.603735 0.000000 0.010840
O O18 0.500000 0.214180 0.000000
O O19 0.490065 0.500000 0.721136
#
# Coordination Sequence:
#
# PCOD9194053 Si02
#       7
#     8   8   8   8   8   8   8
#     4  10  20  34  55  80 104 134 172 215 258 300
#     4  10  21  36  54  77 106 139 172 209 257 310
#     4  10  20  34  55  80 104 134 172 215 259 302
#     4  10  21  36  55  78 104 137 174 213 257 304
#     4   9  19  36  56  77 103 137 174 210 254 309
#     4  10  21  36  54  76 104 139 174 210 256 308
#     4   9  19  36  55  76 104 137 173 211 254 307
#
# _framework density 17.874495
#
# number of rings (size 3 to 8) (size 9 to 14) (size 15 to 20)
#    0.000    2.286    0.000    2.143    0.000    4.571 
#    0.000    5.714    0.000    0.000    0.000    0.000 
#    0.000    0.000    0.000    0.000    0.000    0.000 
#
# Total GULP energy -156353.839079 kJ/mol
# GULP energy per Si atom -5584.065681 kJ/mol
# Density = 1.783381 g / cm^3
# Si number density = 17.874495 Si / 1000 Ang^3
#
#
#
# Elastic Constant Matrix: (Units=GPa)
#
#
# Indices 1 2 3 4 5 6 
#
# 1 127.0340 56.9666 133.3148 0.0000 3.5247 0.0000
# 2 56.9666 32.3896 71.0866 0.0000 7.8740 0.0000
# 3 133.3148 71.0866 219.0415 0.0000 3.9007 0.0000
# 4 0.0000 0.0000 0.0000 31.8857 0.0000 9.3258
# 5 3.5247 7.8740 3.9007 0.0000 37.3923 0.0000
# 6 0.0000 0.0000 0.0000 9.3258 0.0000 24.2576
#
#
#
# Elastic Compliance Matrix: (Units=1/GPa)
#
#
# Indices 1 2 3 4 5 6 
#
# 1 0.042545 -0.070465 -0.003225 0.000000 0.011164 0.000000
# 2 -0.070465 0.239412 -0.034094 0.000000 -0.040216 0.000000
# 3 -0.003225 -0.034094 0.017492 0.000000 0.005659 0.000000
# 4 0.000000 0.000000 0.000000 0.035335 0.000000 -0.013584
# 5 0.011164 -0.040216 0.005659 0.000000 0.033569 0.000000
# 6 0.000000 0.000000 0.000000 -0.013584 0.000000 0.046447
#
#
# Mechanical properties :
#
#
# Convention : Reuss Voigt Hill
#
# Bulk Modulus (GPa) = 11.92161 100.13345 56.02753
# Shear Modulus (GPa) = 7.59498 26.51360 17.05429
#
# Velocity S-wave (km/s) = 2.06356 3.85557 3.09222
# Velocity P-wave (km/s) = 3.51594 8.71564 6.64546
#
# Compressibility (1/GPa) = 0.08388128
#
# Stress axis : x y z
#
# Youngs Moduli (GPa) = 23.50428 4.17690 57.16864
#
# Poissons Ratio (x) = 0.29433 0.18436
# Poissons Ratio (y) = 1.65623 1.94913
# Poissons Ratio (z) = 0.07580 0.14241
#
# Static dielectric constant tensor:
#      x y z
#    x 1.596590 0.000000 -0.019870 
#    y 0.000000 1.591940 0.000000 
#    z -0.019870 0.000000 1.573460 
# 
# From -- ./inp_files/275560.got.cif
#   From: 2010.05.17/outbox.cif.g08.bks.cpg/sg12_138_cif.got.tgz:275560.got - 2010.06.03 13:09:07.
