data_PCOD9194185
_publ_section_title
;
Structure prediction by ZEFSAII (Michael W. Deem and Ramdas Pophale) SiO2 
 PCOD9194185
Probable space group: C 2/M
;
_chemical_formula_sum "Si O2"
_cell_formula_units_Z 64
_cell_length_a 32.600031
_cell_length_b 8.429349
_cell_length_c 16.274864
_cell_angle_alpha 90.000000
_cell_angle_beta 49.545540
_cell_angle_gamma 90.000000
_cell_volume 3403.059264
_symmetry_space_group_name_H-M "C 2/M"
_symmetry_group_IT_number 12
_symmetry_cell_setting 'monoclinic'
loop_
_space_group_symop_operation_xyz
x,y,z
-x,y,-z
-x,-y,-z
x,-y,z
1/2+x,1/2+y,z
1/2-x,1/2+y,-z
1/2-x,1/2-y,-z
1/2+x,1/2-y,z
loop_
_atom_site_type_symbol
_atom_site_label
_atom_site_fract_x
_atom_site_fract_y
_atom_site_fract_z
Si Si1 0.258419 0.689547 0.398103
Si Si2 0.928088 0.690098 0.358125
Si Si3 0.877510 0.689784 0.245649
Si Si4 0.834970 0.812548 0.598102
Si Si5 0.669861 0.307600 0.061258
Si Si6 0.221953 0.310357 0.163004
Si Si7 0.547615 0.307645 0.177862
Si Si8 0.951368 0.190535 0.010529
O O1 0.255309 0.500000 0.395743
O O2 0.250000 0.750000 0.500000
O O3 0.317361 0.754661 0.308323
O O4 0.213548 0.764590 0.398957
O O5 0.928073 0.500000 0.356185
O O6 0.903302 0.744760 0.300631
O O7 0.888685 0.743039 0.483887
O O8 0.990058 0.748318 0.287556
O O9 0.881579 0.500000 0.240818
O O10 0.903829 0.763339 0.131029
O O11 0.813014 0.755168 0.715459
O O12 0.842259 0.000000 0.592418
O O13 0.670545 0.500000 0.062393
O O14 0.692931 0.241262 0.116509
O O15 0.607049 0.259037 0.133414
O O16 0.714563 0.260786 0.933042
O O17 0.222267 0.500000 0.170386
O O18 0.546153 0.500000 0.183525
O O19 0.548407 0.251799 0.082188
O O20 0.955668 0.000000 0.999841
O O21 0.000000 0.258299 0.000000
#
# Coordination Sequence:
#
# PCOD9194185 Si02
#       8
#     8   8   8   8   8   8   8   8
#     4  12  24  39  59  84 118 158 203 249 296 353
#     4  11  23  39  59  84 121 163 204 252 302 354
#     4  11  23  37  54  80 117 160 203 251 300 349
#     4  12  25  41  63  90 121 160 203 249 301 362
#     4   9  20  40  65  92 123 158 195 243 305 366
#     4  10  21  40  66  94 124 156 195 247 302 362
#     4  10  21  38  60  88 120 160 206 250 302 362
#     4  10  20  34  55  82 116 159 204 245 294 353
#
# _framework density 18.806607
#
# number of rings (size 3 to 8) (size 9 to 14) (size 15 to 20)
#    0.000    1.375    2.500    3.375    1.750    2.750 
#    0.000    0.625    0.000    3.750    0.000    0.000 
#    0.000    0.000    0.000    0.000    0.000    0.000 
#
# Total GULP energy -178322.332016 kJ/mol
# GULP energy per Si atom -5572.572876 kJ/mol
# Density = 1.876380 g / cm^3
# Si number density = 18.806607 Si / 1000 Ang^3
#
#
#
# Elastic Constant Matrix: (Units=GPa)
#
#
# Indices 1 2 3 4 5 6 
#
# 1 101.7608 24.4342 72.0803 0.0000 -25.7426 -0.0003
# 2 24.4342 26.4167 21.0661 0.0000 -1.9388 -0.0005
# 3 72.0803 21.0661 181.5229 0.0000 -26.0155 0.0000
# 4 0.0000 0.0000 0.0000 34.2634 0.0000 -0.1125
# 5 -25.7426 -1.9388 -26.0155 0.0000 39.8892 0.0000
# 6 -0.0003 -0.0005 0.0000 -0.1125 0.0000 28.2229
#
#
#
# Elastic Compliance Matrix: (Units=1/GPa)
#
#
# Indices 1 2 3 4 5 6 
#
# 1 0.018130 -0.012518 -0.004585 0.000000 0.008101 0.000000
# 2 -0.012518 0.050415 -0.001860 0.000000 -0.006842 0.000001
# 3 -0.004585 -0.001860 0.007842 0.000000 0.002065 0.000000
# 4 0.000000 0.000000 0.000000 0.029186 0.000000 0.000116
# 5 0.008101 -0.006842 0.002065 0.000000 0.031312 0.000000
# 6 0.000000 0.000001 0.000000 0.000116 0.000000 0.035433
#
#
# Mechanical properties :
#
#
# Convention : Reuss Voigt Hill
#
# Bulk Modulus (GPa) = 26.00204 60.54018 43.27111
# Shear Modulus (GPa) = 22.41496 33.28308 27.84902
#
# Velocity S-wave (km/s) = 3.45609 4.21141 3.85230
# Velocity P-wave (km/s) = 5.45730 7.47722 6.54564
#
# Compressibility (1/GPa) = 0.03845852
#
# Stress axis : x y z
#
# Youngs Moduli (GPa) = 55.15655 19.83529 127.52576
#
# Poissons Ratio (x) = 0.24831 0.58476
# Poissons Ratio (y) = 0.69047 0.23726
# Poissons Ratio (z) = 0.25292 0.03690
#
# Static dielectric constant tensor:
#      x y z
#    x 1.632860 0.000000 0.001460 
#    y 0.000000 1.646790 0.000000 
#    z 0.001460 0.000000 1.616960 
# 
# From -- ./inp_files/249803.got.cif
#   From: 2010.05.17/outbox.cif.g08.bks.cpg/sg12_125_cif.got.tgz:249803.got - 2010.06.03 13:09:07.
