data_PCOD9194591
_publ_section_title
;
Structure prediction by ZEFSAII (Michael W. Deem and Ramdas Pophale) SiO2 
 PCOD9194591
Probable space group: C 2/M
;
_chemical_formula_sum "Si O2"
_cell_formula_units_Z 56
_cell_length_a 21.561242
_cell_length_b 8.971119
_cell_length_c 15.642011
_cell_angle_alpha 90.000000
_cell_angle_beta 86.187300
_cell_angle_gamma 90.000000
_cell_volume 3018.913800
_symmetry_space_group_name_H-M "C 2/M"
_symmetry_group_IT_number 12
_symmetry_cell_setting 'monoclinic'
loop_
_space_group_symop_operation_xyz
x,y,z
-x,y,-z
-x,-y,-z
x,-y,z
1/2+x,1/2+y,z
1/2-x,1/2+y,-z
1/2-x,1/2-y,-z
1/2+x,1/2-y,z
loop_
_atom_site_type_symbol
_atom_site_label
_atom_site_fract_x
_atom_site_fract_y
_atom_site_fract_z
Si Si1 0.161602 0.173712 0.961309
Si Si2 0.686368 0.678243 0.473910
Si Si3 0.858418 0.823577 0.710326
Si Si4 0.701354 0.826269 0.125017
Si Si5 0.053409 0.819782 0.565190
Si Si6 0.971373 0.822628 0.094890
Si Si7 0.009695 0.322600 0.268498
O O1 0.226432 0.193722 0.906296
O O2 0.102320 0.202277 0.908150
O O3 0.158179 0.000000 0.989428
O O4 0.163153 0.275472 0.045005
O O5 0.691029 0.500000 0.483715
O O6 0.750000 0.750000 0.500000
O O7 0.675802 0.710691 0.374980
O O8 0.622225 0.724463 0.526951
O O9 0.817516 0.774896 0.794304
O O10 0.922445 0.734342 0.710394
O O11 0.872175 0.000000 0.710837
O O12 0.690022 0.000000 0.144871
O O13 0.000000 0.779589 0.500000
O O14 0.036808 0.747624 0.657396
O O15 0.051672 0.000000 0.572812
O O16 0.997131 0.736970 0.174122
O O17 0.983172 0.000000 0.105269
O O18 0.000000 0.780396 0.000000
O O19 0.006202 0.500000 0.270564
#
# Coordination Sequence:
#
# PCOD9194591 Si02
#       7
#     8   8   8   8   8   8   8
#     4   9  19  36  56  81 116 159 200 239 294 359
#     4  10  23  41  64  91 121 159 198 249 305 359
#     4  11  22  40  61  83 114 156 202 240 295 369
#     4  10  20  34  56  86 117 151 196 248 299 349
#     4  10  20  42  68  88 119 163 209 248 296 367
#     4  10  21  38  60  85 118 161 204 244 291 358
#     4  12  25  38  60  94 123 154 198 254 311 357
#
# _framework density 18.549719
#
# number of rings (size 3 to 8) (size 9 to 14) (size 15 to 20)
#    0.000    1.714    1.429    3.000    0.000    5.714 
#    0.000    4.286    0.000    0.000    0.000    0.000 
#    0.000    0.000    0.000    0.000    0.000    0.000 
#
# Total GULP energy -156425.429662 kJ/mol
# GULP energy per Si atom -5586.622488 kJ/mol
# Density = 1.850750 g / cm^3
# Si number density = 18.549719 Si / 1000 Ang^3
#
#
#
# Elastic Constant Matrix: (Units=GPa)
#
#
# Indices 1 2 3 4 5 6 
#
# 1 107.9526 41.6198 50.4546 0.0000 15.7762 0.0000
# 2 41.6198 50.7512 48.7601 0.0000 3.6653 0.0000
# 3 50.4546 48.7601 111.9022 0.0000 1.2707 0.0000
# 4 0.0000 0.0000 0.0000 26.4701 0.0000 1.8972
# 5 15.7762 3.6653 1.2707 0.0000 19.4347 0.0000
# 6 0.0000 0.0000 0.0000 1.8972 0.0000 29.8852
#
#
#
# Elastic Compliance Matrix: (Units=1/GPa)
#
#
# Indices 1 2 3 4 5 6 
#
# 1 0.015847 -0.009396 -0.002927 0.000000 -0.010900 0.000000
# 2 -0.009396 0.040047 -0.013224 0.000000 0.000939 0.000000
# 3 -0.002927 -0.013224 0.015975 0.000000 0.003826 0.000000
# 4 0.000000 0.000000 0.000000 0.037951 0.000000 -0.002409
# 5 -0.010900 0.000939 0.003826 0.000000 0.059875 0.000000
# 6 0.000000 0.000000 0.000000 -0.002409 0.000000 0.033614
#
#
# Mechanical properties :
#
#
# Convention : Reuss Voigt Hill
#
# Bulk Modulus (GPa) = 48.13675 61.36389 54.75032
# Shear Modulus (GPa) = 19.13296 23.80945 21.47121
#
# Velocity S-wave (km/s) = 3.21509 3.58655 3.40589
# Velocity P-wave (km/s) = 6.30784 7.09251 6.71165
#
# Compressibility (1/GPa) = 0.02077415
#
# Stress axis : x y z
#
# Youngs Moduli (GPa) = 63.10375 24.97062 62.59818
#
# Poissons Ratio (x) = 0.23463 0.18322
# Poissons Ratio (y) = 0.59294 0.82780
# Poissons Ratio (z) = 0.18470 0.33021
#
# Static dielectric constant tensor:
#      x y z
#    x 1.640090 0.000000 -0.018140 
#    y 0.000000 1.624340 0.000000 
#    z -0.018140 0.000000 1.615870 
# 
# From -- ./inp_files/230911.got.cif
#   From: 2010.05.17/outbox.cif.g08.bks.cpg/sg12_116_cif.got.tgz:230911.got - 2010.06.03 13:09:07.
