data_PCOD9194161
_publ_section_title
;
Structure prediction by ZEFSAII (Michael W. Deem and Ramdas Pophale) SiO2 
 PCOD9194161
Probable space group: C 2/M
;
_chemical_formula_sum "Si O2"
_cell_formula_units_Z 56
_cell_length_a 18.011693
_cell_length_b 14.565116
_cell_length_c 17.234554
_cell_angle_alpha 90.000000
_cell_angle_beta 41.184304
_cell_angle_gamma 90.000000
_cell_volume 2977.236311
_symmetry_space_group_name_H-M "C 2/M"
_symmetry_group_IT_number 12
_symmetry_cell_setting 'monoclinic'
loop_
_space_group_symop_operation_xyz
x,y,z
-x,y,-z
-x,-y,-z
x,-y,z
1/2+x,1/2+y,z
1/2-x,1/2+y,-z
1/2-x,1/2-y,-z
1/2+x,1/2-y,z
loop_
_atom_site_type_symbol
_atom_site_label
_atom_site_fract_x
_atom_site_fract_y
_atom_site_fract_z
Si Si1 0.409124 0.390735 0.434341
Si Si2 0.368817 0.104061 0.624698
Si Si3 0.753796 0.284728 0.321573
Si Si4 0.306404 0.349115 0.950487
Si Si5 0.465973 0.732796 0.247807
Si Si6 0.891393 0.600974 0.789167
Si Si7 0.827307 0.104935 0.753963
O O1 0.394152 0.500000 0.433139
O O2 0.320849 0.350745 0.564959
O O3 0.403094 0.329807 0.361169
O O4 0.538502 0.377678 0.361908
O O5 0.500000 0.111769 0.500000
O O6 0.300587 0.183605 0.636440
O O7 0.363100 0.117781 0.721723
O O8 0.331429 0.000000 0.635512
O O9 0.878929 0.274742 0.255787
O O10 0.742613 0.326643 0.244482
O O11 0.437802 0.332480 0.865269
O O12 0.302958 0.383567 0.864523
O O13 0.250000 0.250000 0.000000
O O14 0.225592 0.403062 0.071505
O O15 0.531036 0.816719 0.239662
O O16 0.947144 0.500000 0.751200
O O17 0.804588 0.000000 0.749002
#
# Coordination Sequence:
#
# PCOD9194161 Si02
#       7
#     8   8   8   8   8   8   8
#     4  10  21  37  57  80 111 155 197 228 271 338
#     4  10  21  37  58  82 110 147 190 234 277 331
#     4  12  21  34  55  83 118 147 179 231 291 344
#     4   9  18  37  58  76 104 146 193 232 270 329
#     4  10  22  36  55  84 115 145 182 236 291 336
#     4  10  20  38  62  82 105 147 197 233 271 334
#     4  10  20  34  55  82 111 147 190 234 280 334
#
# _framework density 18.80939
#
# number of rings (size 3 to 8) (size 9 to 14) (size 15 to 20)
#    0.000    1.857    0.000    6.000    0.000    3.429 
#    0.000    7.857    0.000    6.000    0.000    0.000 
#    0.000    0.000    0.000    0.000    0.000    0.000 
#
# Total GULP energy -156244.491608 kJ/mol
# GULP energy per Si atom -5580.160415 kJ/mol
# Density = 1.876658 g / cm^3
# Si number density = 18.809390 Si / 1000 Ang^3
#
#
#
# Elastic Constant Matrix: (Units=GPa)
#
#
# Indices 1 2 3 4 5 6 
#
# 1 58.8465 31.0728 34.6944 0.0000 -0.6025 0.0000
# 2 31.0728 107.0278 14.0919 0.0000 -4.3158 0.0000
# 3 34.6944 14.0919 97.5559 0.0000 13.6652 0.0000
# 4 0.0000 0.0000 0.0000 2.4798 0.0000 -20.8431
# 5 -0.6025 -4.3158 13.6652 0.0000 8.8547 0.0000
# 6 0.0000 0.0000 0.0000 -20.8431 0.0000 -31.0602
#
#
#
# Elastic Compliance Matrix: (Units=1/GPa)
#
#
# Indices 1 2 3 4 5 6 
#
# 1 0.026511 -0.005637 -0.010821 0.000000 0.015756 0.000000
# 2 -0.005637 0.011270 -0.000433 0.000000 0.005777 0.000000
# 3 -0.010821 -0.000433 0.018236 0.000000 -0.029090 0.000000
# 4 0.000000 0.000000 0.000000 0.060729 0.000000 -0.040752
# 5 0.015756 0.005777 -0.029090 0.000000 0.161716 0.000000
# 6 0.000000 0.000000 0.000000 -0.040752 0.000000 -0.004848
#
#
# Mechanical properties :
#
#
# Convention : Reuss Voigt Hill
#
# Bulk Modulus (GPa) = 44.97138 47.01647 45.99393
# Shear Modulus (GPa) = 15.88283 8.29293 12.08788
#
# Velocity S-wave (km/s) = 2.90902 2.10202 2.53781
# Velocity P-wave (km/s) = 5.93668 5.56254 5.75265
#
# Compressibility (1/GPa) = 0.02223636
#
# Stress axis : x y z
#
# Youngs Moduli (GPa) = 37.72043 88.73342 54.83590
#
# Poissons Ratio (x) = 0.50016 0.59338
# Poissons Ratio (y) = 0.21262 0.02372
# Poissons Ratio (z) = 0.40818 0.03838
#
# Static dielectric constant tensor:
#      x y z
#    x 1.643560 0.000000 0.020350 
#    y 0.000000 1.678880 0.000000 
#    z 0.020350 0.000000 1.674050 
# 
# From -- ./inp_files/277798.got.cif
#   From: 2010.05.17/outbox.cif.g08.bks.cpg/sg12_139_cif.got.tgz:277798.got - 2010.06.03 13:09:07.
