data_PCOD9194974
_publ_section_title
;
Structure prediction by ZEFSAII (Michael W. Deem and Ramdas Pophale) SiO2 
 PCOD9194974
Probable space group: C 2/M
;
_chemical_formula_sum "Si O2"
_cell_formula_units_Z 34
_cell_length_a 26.237018
_cell_length_b 7.863944
_cell_length_c 15.679271
_cell_angle_alpha 90.000000
_cell_angle_beta 26.068644
_cell_angle_gamma 90.000000
_cell_volume 1421.634299
_symmetry_space_group_name_H-M "C 2/M"
_symmetry_group_IT_number 12
_symmetry_cell_setting 'monoclinic'
loop_
_space_group_symop_operation_xyz
x,y,z
-x,y,-z
-x,-y,-z
x,-y,z
1/2+x,1/2+y,z
1/2-x,1/2+y,-z
1/2-x,1/2-y,-z
1/2+x,1/2-y,z
loop_
_atom_site_type_symbol
_atom_site_label
_atom_site_fract_x
_atom_site_fract_y
_atom_site_fract_z
Si Si1 0.162228 0.185737 0.258448
Si Si2 0.904080 0.308296 0.819757
Si Si3 0.368036 0.299155 0.429948
Si Si4 0.122416 0.794521 0.779805
Si Si5 0.500000 0.000000 0.500000
O O1 0.128137 0.185229 0.208810
O O2 0.090845 0.346241 0.397824
O O3 0.134217 0.000000 0.338525
O O4 0.301497 0.204753 0.043597
O O5 0.902178 0.500000 0.781466
O O6 0.027108 0.281025 0.676623
O O7 0.388062 0.500000 0.398791
O O8 0.237133 0.264733 0.656909
O O9 0.371199 0.234070 0.327688
O O10 0.124307 0.000000 0.777270
O O11 0.000000 0.736573 0.000000
#
# Coordination Sequence:
#
# PCOD9194974 Si02
#       5
#     8   8   8   8   2
#     4  10  22  39  62  87 124 158 204 245 299 357
#     4  10  20  39  61  85 113 163 203 244 296 365
#     4  10  20  34  59  85 114 152 197 245 305 363
#     4   9  19  38  57  81 113 152 195 246 300 361
#     4  12  22  40  60  94 120 164 186 264 300 350
#
# _framework density 23.916138
#
# number of rings (size 3 to 8) (size 9 to 14) (size 15 to 20)
#    0.000    2.118    1.176    1.765    3.294    1.412 
#    4.235    0.000    0.000    0.000    0.000    0.000 
#    0.000    0.000    0.000    0.000    0.000    0.000 
#
# Total GULP energy -94855.662615 kJ/mol
# GULP energy per Si atom -5579.744860 kJ/mol
# Density = 2.386170 g / cm^3
# Si number density = 23.916138 Si / 1000 Ang^3
#
#
#
# Elastic Constant Matrix: (Units=GPa)
#
#
# Indices 1 2 3 4 5 6 
#
# 1 52.0196 6.4583 51.4134 0.0001 -21.9242 0.0000
# 2 6.4583 140.9201 44.7407 -0.0004 -1.3380 0.0001
# 3 51.4134 44.7407 190.7334 -0.0005 -35.1702 0.0001
# 4 0.0001 -0.0004 -0.0005 38.3380 0.0001 -1.9382
# 5 -21.9242 -1.3380 -35.1702 0.0001 40.6107 0.0000
# 6 0.0000 0.0001 0.0001 -1.9382 0.0000 23.3466
#
#
#
# Elastic Compliance Matrix: (Units=1/GPa)
#
#
# Indices 1 2 3 4 5 6 
#
# 1 0.029807 0.000712 -0.006224 0.000000 0.010725 0.000000
# 2 0.000712 0.007767 -0.002256 0.000000 -0.001314 0.000000
# 3 -0.006224 -0.002256 0.008112 0.000000 0.003591 0.000000
# 4 0.000000 0.000000 0.000000 0.026194 0.000000 0.002175
# 5 0.010725 -0.001314 0.003591 0.000000 0.033480 0.000000
# 6 0.000000 0.000000 0.000000 0.002175 0.000000 0.043013
#
#
# Mechanical properties :
#
#
# Convention : Reuss Voigt Hill
#
# Bulk Modulus (GPa) = 33.16797 65.43312 49.30055
# Shear Modulus (GPa) = 28.74225 39.19644 33.96934
#
# Velocity S-wave (km/s) = 3.47045 4.05274 3.77284
# Velocity P-wave (km/s) = 5.47332 7.02271 6.29586
#
# Compressibility (1/GPa) = 0.03014956
#
# Stress axis : x y z
#
# Youngs Moduli (GPa) = 33.54956 128.74286 123.27442
#
# Poissons Ratio (x) = -0.09165 0.76725
# Poissons Ratio (y) = -0.02388 0.27812
# Poissons Ratio (z) = 0.20881 0.29046
#
# Static dielectric constant tensor:
#      x y z
#    x 1.752100 0.000000 -0.109010 
#    y 0.000000 1.881240 0.000000 
#    z -0.109010 0.000000 1.779450 
# 
# From -- ./inp_files/313436.got.cif
#   From: 2010.05.17/outbox.cif.g08.bks.cpg/sg12_157_cif.got.tgz:313436.got - 2010.06.03 13:09:07.
