data_PCOD9194347
_publ_section_title
;
Structure prediction by ZEFSAII (Michael W. Deem and Ramdas Pophale) SiO2 
 PCOD9194347
Probable space group: C 2/M
;
_chemical_formula_sum "Si O2"
_cell_formula_units_Z 64
_cell_length_a 20.632754
_cell_length_b 8.768865
_cell_length_c 22.386512
_cell_angle_alpha 90.000000
_cell_angle_beta 120.054220
_cell_angle_gamma 90.000000
_cell_volume 3505.743271
_symmetry_space_group_name_H-M "C 2/M"
_symmetry_group_IT_number 12
_symmetry_cell_setting 'monoclinic'
loop_
_space_group_symop_operation_xyz
x,y,z
-x,y,-z
-x,-y,-z
x,-y,z
1/2+x,1/2+y,z
1/2-x,1/2+y,-z
1/2-x,1/2-y,-z
1/2+x,1/2-y,z
loop_
_atom_site_type_symbol
_atom_site_label
_atom_site_fract_x
_atom_site_fract_y
_atom_site_fract_z
Si Si1 0.917115 0.184081 0.443822
Si Si2 0.803009 0.682357 0.939285
Si Si3 0.379513 0.183384 0.297670
Si Si4 0.360598 0.317577 0.085211
Si Si5 0.792460 0.182289 0.807742
Si Si6 0.730326 0.684193 0.555388
Si Si7 0.977531 0.683968 0.230290
Si Si8 0.148695 0.315955 0.288203
O O1 0.896831 0.242647 0.368969
O O2 0.851805 0.232406 0.459389
O O3 0.000000 0.236839 0.500000
O O4 0.917112 0.000000 0.443005
O O5 0.807835 0.500000 0.941663
O O6 0.716994 0.725863 0.916627
O O7 0.821452 0.746868 0.882771
O O8 0.853271 0.749935 0.015530
O O9 0.295496 0.223354 0.238824
O O10 0.437790 0.231883 0.273555
O O11 0.383257 0.000000 0.305194
O O12 0.363786 0.500000 0.083906
O O13 0.430078 0.253325 0.154214
O O14 0.831823 0.244944 0.766698
O O15 0.798700 0.000000 0.813028
O O16 0.731765 0.500000 0.552736
O O17 0.750000 0.750000 0.500000
O O18 0.790937 0.730912 0.633730
O O19 0.972421 0.500000 0.224342
O O20 0.064531 0.726404 0.268043
O O21 0.152702 0.500000 0.285092
#
# Coordination Sequence:
#
# PCOD9194347 Si02
#       8
#     8   8   8   8   8   8   8   8
#     4  10  22  39  58  83 114 148 187 236 287 334
#     4  10  20  34  57  85 116 154 191 230 284 342
#     4  10  21  36  58  85 112 147 190 236 282 332
#     4  10  20  34  55  86 119 150 188 236 285 332
#     4  11  21  36  59  86 114 147 191 240 283 332
#     4  10  22  39  58  81 112 149 189 230 279 340
#     4  10  21  38  58  83 116 151 190 234 284 341
#     4  10  22  40  60  81 113 155 191 230 284 346
#
# _framework density 18.255758
#
# number of rings (size 3 to 8) (size 9 to 14) (size 15 to 20)
#    0.000    1.875    2.500    1.125    1.750    3.750 
#    0.000    0.625    0.000    3.750    0.000    0.000 
#    0.000    0.000    0.000    0.000    0.000    0.000 
#
# Total GULP energy -178724.698695 kJ/mol
# GULP energy per Si atom -5585.146834 kJ/mol
# Density = 1.821421 g / cm^3
# Si number density = 18.255758 Si / 1000 Ang^3
#
#
#
# Elastic Constant Matrix: (Units=GPa)
#
#
# Indices 1 2 3 4 5 6 
#
# 1 147.6434 31.6306 72.0477 0.0000 -12.5651 0.0000
# 2 31.6306 11.7717 25.4224 0.0000 -3.5141 0.0000
# 3 72.0477 25.4224 128.7190 0.0000 -20.8434 0.0000
# 4 0.0000 0.0000 0.0000 35.7553 0.0000 -6.0318
# 5 -12.5651 -3.5141 -20.8434 0.0000 33.5557 0.0000
# 6 0.0000 0.0000 0.0000 -6.0318 0.0000 23.6692
#
#
#
# Elastic Compliance Matrix: (Units=1/GPa)
#
#
# Indices 1 2 3 4 5 6 
#
# 1 0.016061 -0.041516 -0.000579 0.000000 0.001307 0.000000
# 2 -0.041516 0.255712 -0.028293 0.000000 -0.006341 0.000000
# 3 -0.000579 -0.028293 0.014638 0.000000 0.005913 0.000000
# 4 0.000000 0.000000 0.000000 0.029224 0.000000 0.007447
# 5 0.001307 -0.006341 0.005913 0.000000 0.033300 0.000000
# 6 0.000000 0.000000 0.000000 0.007447 0.000000 0.044147
#
#
# Mechanical properties :
#
#
# Convention : Reuss Voigt Hill
#
# Bulk Modulus (GPa) = 6.86644 60.70396 33.78520
# Shear Modulus (GPa) = 8.58513 29.19825 18.89169
#
# Velocity S-wave (km/s) = 2.17092 4.00359 3.22037
# Velocity P-wave (km/s) = 3.17069 7.39566 5.68986
#
# Compressibility (1/GPa) = 0.14563586
#
# Stress axis : x y z
#
# Youngs Moduli (GPa) = 62.26326 3.91065 68.31447
#
# Poissons Ratio (x) = 0.16235 0.03952
# Poissons Ratio (y) = 2.58491 1.93284
# Poissons Ratio (z) = 0.03602 0.11064
#
# Static dielectric constant tensor:
#      x y z
#    x 1.623930 0.000000 0.011820 
#    y 0.000000 1.611980 0.000000 
#    z 0.011820 0.000000 1.593590 
# 
# From -- ./inp_files/320035.got.cif
#   From: 2010.05.17/outbox.cif.g08.bks.cpg/sg12_161_cif.got.tgz:320035.got - 2010.06.03 13:09:07.
