data_PCOD9194885
_publ_section_title
;
Structure prediction by ZEFSAII (Michael W. Deem and Ramdas Pophale) SiO2 
 PCOD9194885
Probable space group: C 2/M
;
_chemical_formula_sum "Si O2"
_cell_formula_units_Z 48
_cell_length_a 19.161682
_cell_length_b 30.706832
_cell_length_c 8.282799
_cell_angle_alpha 90.000000
_cell_angle_beta 149.967122
_cell_angle_gamma 90.000000
_cell_volume 2439.198410
_symmetry_space_group_name_H-M "C 2/M"
_symmetry_group_IT_number 12
_symmetry_cell_setting 'monoclinic'
loop_
_space_group_symop_operation_xyz
x,y,z
-x,y,-z
-x,-y,-z
x,-y,z
1/2+x,1/2+y,z
1/2-x,1/2+y,-z
1/2-x,1/2-y,-z
1/2+x,1/2-y,z
loop_
_atom_site_type_symbol
_atom_site_label
_atom_site_fract_x
_atom_site_fract_y
_atom_site_fract_z
Si Si1 0.489598 0.152678 0.157815
Si Si2 0.880583 0.747563 0.643097
Si Si3 0.779087 0.380513 0.168023
Si Si4 0.490401 0.612842 0.166663
Si Si5 0.800300 0.821743 0.262522
Si Si6 0.640612 0.450466 0.671807
O O1 0.570433 0.198993 0.303091
O O2 0.569963 0.124309 0.451233
O O3 0.500000 0.132623 0.000000
O O4 0.332437 0.163247 0.895767
O O5 0.750000 0.750000 0.500000
O O6 0.842869 0.773938 0.406053
O O7 0.000000 0.767081 0.000000
O O8 0.666812 0.389579 0.084085
O O9 0.741842 0.335087 0.002417
O O10 0.750410 0.418331 0.978591
O O11 0.566999 0.649131 0.426708
O O12 0.582654 0.569997 0.390203
O O13 0.500000 0.623764 0.000000
O O14 0.500000 0.449453 0.500000
O O15 0.688832 0.500000 0.755044
#
# Coordination Sequence:
#
# PCOD9194885 Si02
#       6
#     8   8   8   8   8   8
#     4  11  22  37  57  80 112 152 192 236 285 333
#     4  11  22  38  56  84 114 157 193 234 287 328
#     4  10  22  37  57  86 111 151 192 231 288 338
#     4  10  20  34  58  86 112 149 192 235 282 336
#     4  11  21  37  55  79 116 150 191 235 283 336
#     4   8  16  34  57  85 119 146 179 229 285 340
#
# _framework density 19.678598000000001
#
# number of rings (size 3 to 8) (size 9 to 14) (size 15 to 20)
#    0.000    1.833    3.333    3.500    2.333    1.000 
#    0.000    1.667    0.000    8.500    0.000    0.000 
#    0.000    0.000    0.000    0.000    0.000    0.000 
#
# Total GULP energy -133869.818379 kJ/mol
# GULP energy per Si atom -5577.909099 kJ/mol
# Density = 1.963381 g / cm^3
# Si number density = 19.678598 Si / 1000 Ang^3
#
#
#
# Elastic Constant Matrix: (Units=GPa)
#
#
# Indices 1 2 3 4 5 6 
#
# 1 43.9376 -9.8074 2.4353 0.0000 -0.9935 0.0000
# 2 -9.8074 62.5916 6.9604 0.0000 -2.3506 0.0000
# 3 2.4353 6.9604 82.8949 0.0000 -4.1629 0.0000
# 4 0.0000 0.0000 0.0000 16.9990 0.0000 1.0741
# 5 -0.9935 -2.3506 -4.1629 0.0000 40.9503 0.0000
# 6 0.0000 0.0000 0.0000 1.0741 0.0000 15.9730
#
#
#
# Elastic Compliance Matrix: (Units=1/GPa)
#
#
# Indices 1 2 3 4 5 6 
#
# 1 0.023689 0.003847 -0.000984 0.000000 0.000695 0.000000
# 2 0.003847 0.016778 -0.001476 0.000000 0.000906 0.000000
# 3 -0.000984 -0.001476 0.012274 0.000000 0.001139 0.000000
# 4 0.000000 0.000000 0.000000 0.059078 0.000000 -0.003973
# 5 0.000695 0.000906 0.001139 0.000000 0.024605 0.000000
# 6 0.000000 0.000000 0.000000 -0.003973 0.000000 0.062873
#
#
# Mechanical properties :
#
#
# Convention : Reuss Voigt Hill
#
# Bulk Modulus (GPa) = 18.01358 20.95563 19.48461
# Shear Modulus (GPa) = 23.25303 27.44018 25.34660
#
# Velocity S-wave (km/s) = 3.44123 3.73824 3.59281
# Velocity P-wave (km/s) = 4.99632 5.41338 5.20902
#
# Compressibility (1/GPa) = 0.05551367
#
# Stress axis : x y z
#
# Youngs Moduli (GPa) = 42.21445 59.60320 81.47606
#
# Poissons Ratio (x) = -0.22931 0.08018
# Poissons Ratio (y) = -0.16241 0.12028
# Poissons Ratio (z) = 0.04154 0.08799
#
# Static dielectric constant tensor:
#      x y z
#    x 1.686910 0.000000 -0.021500 
#    y 0.000000 1.721260 0.000000 
#    z -0.021500 0.000000 1.704140 
# 
# From -- ./inp_files/91460.got.cif
#   From: 2010.05.17/outbox.cif.g08.bks.cpg/sg12_46_cif.got.tgz:91460.got - 2010.06.03 13:09:07.
