data_PCOD9194876
_publ_section_title
;
Structure prediction by ZEFSAII (Michael W. Deem and Ramdas Pophale) SiO2 
 PCOD9194876
Probable space group: C 2/M
;
_chemical_formula_sum "Si O2"
_cell_formula_units_Z 56
_cell_length_a 29.843620
_cell_length_b 7.516930
_cell_length_c 18.274129
_cell_angle_alpha 90.000000
_cell_angle_beta 146.614478
_cell_angle_gamma 90.000000
_cell_volume 2255.819493
_symmetry_space_group_name_H-M "C 2/M"
_symmetry_group_IT_number 12
_symmetry_cell_setting 'monoclinic'
loop_
_space_group_symop_operation_xyz
x,y,z
-x,y,-z
-x,-y,-z
x,-y,z
1/2+x,1/2+y,z
1/2-x,1/2+y,-z
1/2-x,1/2-y,-z
1/2+x,1/2-y,z
loop_
_atom_site_type_symbol
_atom_site_label
_atom_site_fract_x
_atom_site_fract_y
_atom_site_fract_z
Si Si1 0.846940 0.717931 0.254764
Si Si2 0.368384 0.786535 0.680071
Si Si3 0.265332 0.296763 0.397062
Si Si4 0.594935 0.205216 0.514957
Si Si5 0.464606 0.712214 0.027153
Si Si6 0.670457 0.295088 0.058254
Si Si7 0.566142 0.784108 0.776807
O O1 0.847364 0.500000 0.255296
O O2 0.899628 0.780162 0.396140
O O3 0.881763 0.767640 0.223807
O O4 0.755431 0.781754 0.146333
O O5 0.324694 0.711337 0.549015
O O6 0.318704 0.721470 0.684410
O O7 0.462505 0.742521 0.815959
O O8 0.358930 0.000000 0.663502
O O9 0.252093 0.500000 0.357935
O O10 0.316456 0.210692 0.401749
O O11 0.525659 0.277642 0.366733
O O12 0.571258 0.000000 0.492384
O O13 0.454675 0.500000 0.005055
O O14 0.379761 0.785226 0.942468
O O15 0.500000 0.787704 0.000000
O O16 0.688028 0.500000 0.101434
O O17 0.608196 0.291350 0.905700
O O18 0.567379 0.000000 0.787324
#
# Coordination Sequence:
#
# PCOD9194876 Si02
#       7
#     8   8   8   8   8   8   8
#     4   9  19  36  58  83 113 147 188 234 277 332
#     4  10  21  37  56  79 108 146 190 231 277 329
#     4  10  21  36  55  81 112 145 183 230 280 334
#     4  10  20  34  58  85 111 145 186 231 283 335
#     4  10  22  37  56  82 113 148 187 230 279 334
#     4  10  21  37  57  82 111 150 191 227 277 336
#     4  10  20  36  58  85 113 145 187 234 282 331
#
# _framework density 24.824683
#
# number of rings (size 3 to 8) (size 9 to 14) (size 15 to 20)
#    0.000    2.143    0.000    2.571    2.000    7.143 
#    0.000    1.429    0.000    1.714    0.000    0.000 
#    0.000    0.000    0.000    0.000    0.000    0.000 
#
# Total GULP energy -156598.489424 kJ/mol
# GULP energy per Si atom -5592.803194 kJ/mol
# Density = 2.476818 g / cm^3
# Si number density = 24.824683 Si / 1000 Ang^3
#
#
#
# Elastic Constant Matrix: (Units=GPa)
#
#
# Indices 1 2 3 4 5 6 
#
# 1 109.3323 4.1344 14.3248 0.0000 15.6916 0.0000
# 2 4.1344 74.7961 1.4978 0.0000 3.7022 0.0000
# 3 14.3248 1.4978 73.6343 0.0000 12.9948 0.0000
# 4 0.0000 0.0000 0.0000 16.4177 0.0000 -2.0875
# 5 15.6916 3.7022 12.9948 0.0000 45.9791 0.0000
# 6 0.0000 0.0000 0.0000 -2.0875 0.0000 6.4544
#
#
#
# Elastic Compliance Matrix: (Units=1/GPa)
#
#
# Indices 1 2 3 4 5 6 
#
# 1 0.009759 -0.000368 -0.001377 0.000000 -0.002912 0.000000
# 2 -0.000368 0.013438 -0.000035 0.000000 -0.000947 0.000000
# 3 -0.001377 -0.000035 0.014488 0.000000 -0.003622 0.000000
# 4 0.000000 0.000000 0.000000 0.063522 0.000000 0.020544
# 5 -0.002912 -0.000947 -0.003622 0.000000 0.023843 0.000000
# 6 0.000000 0.000000 0.000000 0.020544 0.000000 0.161578
#
#
# Mechanical properties :
#
#
# Convention : Reuss Voigt Hill
#
# Bulk Modulus (GPa) = 29.30364 33.07521 31.18942
# Shear Modulus (GPa) = 16.58036 29.62394 23.10215
#
# Velocity S-wave (km/s) = 2.58718 3.45820 3.05390
# Velocity P-wave (km/s) = 4.55571 5.41276 5.00262
#
# Compressibility (1/GPa) = 0.03412545
#
# Stress axis : x y z
#
# Youngs Moduli (GPa) = 102.47321 74.41823 69.02051
#
# Poissons Ratio (x) = 0.02737 0.09505
# Poissons Ratio (y) = 0.03768 0.00240
# Poissons Ratio (z) = 0.14112 0.00259
#
# Static dielectric constant tensor:
#      x y z
#    x 1.969990 0.000000 0.008400 
#    y 0.000000 1.943540 0.000000 
#    z 0.008400 0.000000 1.951010 
# 
# From -- ./inp_files/329726.got.cif
#   From: 2010.05.17/outbox.cif.g08.bks.cpg/sg12_165_cif.got.tgz:329726.got - 2010.06.03 13:09:07.
