data_PCOD9194036
_publ_section_title
;
Structure prediction by ZEFSAII (Michael W. Deem and Ramdas Pophale) SiO2 
 PCOD9194036
Probable space group: C 2/M
;
_chemical_formula_sum "Si O2"
_cell_formula_units_Z 32
_cell_length_a 11.769961
_cell_length_b 19.502480
_cell_length_c 8.860109
_cell_angle_alpha 90.000000
_cell_angle_beta 129.998909
_cell_angle_gamma 90.000000
_cell_volume 1557.990608
_symmetry_space_group_name_H-M "C 2/M"
_symmetry_group_IT_number 12
_symmetry_cell_setting 'monoclinic'
loop_
_space_group_symop_operation_xyz
x,y,z
-x,y,-z
-x,-y,-z
x,-y,z
1/2+x,1/2+y,z
1/2-x,1/2+y,-z
1/2-x,1/2-y,-z
1/2+x,1/2-y,z
loop_
_atom_site_type_symbol
_atom_site_label
_atom_site_fract_x
_atom_site_fract_y
_atom_site_fract_z
Si Si1 0.263159 0.649530 0.987999
Si Si2 0.669943 0.078849 0.632552
Si Si3 0.900390 0.823582 0.656459
Si Si4 0.220826 0.723179 0.223839
O O1 0.435335 0.648197 0.183316
O O2 0.178182 0.663503 0.071172
O O3 0.228601 0.585612 0.853816
O O4 0.234021 0.713956 0.848802
O O5 0.500000 0.103764 0.500000
O O6 0.776460 0.124552 0.617834
O O7 0.669915 0.000000 0.581970
O O8 0.895515 0.756617 0.760663
O O9 0.849020 0.801846 0.446716
#
# Coordination Sequence:
#
# PCOD9194036 Si02
#       4
#     8   8   8   8
#     4  10  20  34  55  79 105 139 173 207 252 307
#     4  10  22  38  54  74 101 135 175 218 261 302
#     4  10  20  34  55  79 105 139 173 207 252 307
#     4   9  19  31  51  83 112 128 163 213 257 299
#
# _framework density 20.539276999999998
#
# number of rings (size 3 to 8) (size 9 to 14) (size 15 to 20)
#    0.000    2.250    0.000    3.750    0.000   22.000 
#    0.000    1.250    0.000    6.000    0.000    0.000 
#    0.000    0.000    0.000    0.000    0.000    0.000 
#
# Total GULP energy -89194.804177 kJ/mol
# GULP energy per Si atom -5574.675261 kJ/mol
# Density = 2.049253 g / cm^3
# Si number density = 20.539277 Si / 1000 Ang^3
#
#
#
# Elastic Constant Matrix: (Units=GPa)
#
#
# Indices 1 2 3 4 5 6 
#
# 1 80.7046 23.1565 33.3644 0.0000 7.1852 0.0000
# 2 23.1565 41.0984 12.3482 0.0000 9.3678 0.0000
# 3 33.3644 12.3482 109.5853 0.0000 -4.0592 0.0000
# 4 0.0000 0.0000 0.0000 22.4870 0.0000 0.6257
# 5 7.1852 9.3678 -4.0592 0.0000 47.4533 0.0000
# 6 0.0000 0.0000 0.0000 0.6257 0.0000 11.0100
#
#
#
# Elastic Compliance Matrix: (Units=1/GPa)
#
#
# Indices 1 2 3 4 5 6 
#
# 1 0.016453 -0.007709 -0.004190 0.000000 -0.001328 0.000000
# 2 -0.007709 0.030161 -0.001233 0.000000 -0.004892 0.000000
# 3 -0.004190 -0.001233 0.010606 0.000000 0.001785 0.000000
# 4 0.000000 0.000000 0.000000 0.044541 0.000000 -0.002531
# 5 -0.001328 -0.004892 0.001785 0.000000 0.022393 0.000000
# 6 0.000000 0.000000 0.000000 -0.002531 0.000000 0.090970
#
#
# Mechanical properties :
#
#
# Convention : Reuss Voigt Hill
#
# Bulk Modulus (GPa) = 32.30281 41.01406 36.65844
# Shear Modulus (GPa) = 19.86449 27.02468 23.44458
#
# Velocity S-wave (km/s) = 3.11327 3.63127 3.38220
# Velocity P-wave (km/s) = 5.35582 6.13135 5.75666
#
# Compressibility (1/GPa) = 0.03095706
#
# Stress axis : x y z
#
# Youngs Moduli (GPa) = 60.77874 33.15559 94.28634
#
# Poissons Ratio (x) = 0.25559 0.39505
# Poissons Ratio (y) = 0.46853 0.11623
# Poissons Ratio (z) = 0.25466 0.04087
#
# Static dielectric constant tensor:
#      x y z
#    x 1.788060 0.000000 0.009950 
#    y 0.000000 1.754790 0.000000 
#    z 0.009950 0.000000 1.764430 
# 
# From -- ./inp_files/49049.got.cif
#   From: 2010.05.17/outbox.cif.g08.bks.cpg/sg12_25_cif.got.tgz:49049.got - 2010.06.03 13:09:07.
