data_PCOD9194196
_publ_section_title
;
Structure prediction by ZEFSAII (Michael W. Deem and Ramdas Pophale) SiO2 
 PCOD9194196
Probable space group: C 2/M
;
_chemical_formula_sum "Si O2"
_cell_formula_units_Z 48
_cell_length_a 15.467032
_cell_length_b 7.653420
_cell_length_c 19.519553
_cell_angle_alpha 90.000000
_cell_angle_beta 82.620926
_cell_angle_gamma 90.000000
_cell_volume 2291.504184
_symmetry_space_group_name_H-M "C 2/M"
_symmetry_group_IT_number 12
_symmetry_cell_setting 'monoclinic'
loop_
_space_group_symop_operation_xyz
x,y,z
-x,y,-z
-x,-y,-z
x,-y,z
1/2+x,1/2+y,z
1/2-x,1/2+y,-z
1/2-x,1/2-y,-z
1/2+x,1/2-y,z
loop_
_atom_site_type_symbol
_atom_site_label
_atom_site_fract_x
_atom_site_fract_y
_atom_site_fract_z
Si Si1 0.019653 0.796452 0.824361
Si Si2 0.850086 0.211422 0.914116
Si Si3 0.264922 0.210342 0.578468
Si Si4 0.347451 0.207245 0.072441
Si Si5 0.960416 0.288135 0.577439
Si Si6 0.599351 0.294949 0.677829
O O1 0.084236 0.787921 0.882313
O O2 0.066854 0.717931 0.753115
O O3 0.926484 0.721455 0.857164
O O4 0.002794 0.000000 0.809705
O O5 0.752035 0.272398 0.907441
O O6 0.848975 0.000000 0.911469
O O7 0.869843 0.259657 0.990784
O O8 0.250000 0.250000 0.500000
O O9 0.360483 0.271892 0.591180
O O10 0.185930 0.279903 0.633017
O O11 0.265241 0.000000 0.583628
O O12 0.348566 0.000000 0.084055
O O13 0.962047 0.500000 0.579878
O O14 0.000000 0.235594 0.500000
O O15 0.021356 0.220754 0.631482
O O16 0.618257 0.500000 0.687914
#
# Coordination Sequence:
#
# PCOD9194196 Si02
#       6
#     8   8   8   8   8   8
#     4  10  21  37  54  75 109 146 177 213 265 320
#     4   9  19  36  56  77 107 145 178 213 263 317
#     4  10  20  35  55  78 104 134 171 216 264 312
#     4  10  20  34  55  83 108 136 180 224 259 305
#     4  10  20  35  55  78 105 136 171 216 269 318
#     4  10  22  37  54  79 107 139 180 220 260 315
#
# _framework density 20.946939
#
# number of rings (size 3 to 8) (size 9 to 14) (size 15 to 20)
#    0.000    2.167    1.667    1.000    0.000    6.333 
#    0.000    0.000    0.000    0.000    0.000    0.000 
#    0.000    0.000    0.000    0.000    0.000    0.000 
#
# Total GULP energy -134032.210038 kJ/mol
# GULP energy per Si atom -5584.675418 kJ/mol
# Density = 2.089926 g / cm^3
# Si number density = 20.946939 Si / 1000 Ang^3
#
#
#
# Elastic Constant Matrix: (Units=GPa)
#
#
# Indices 1 2 3 4 5 6 
#
# 1 138.7116 0.3087 51.1142 0.0000 -43.9712 0.0000
# 2 0.3087 40.5475 0.2720 0.0000 -9.3191 0.0000
# 3 51.1142 0.2720 62.4997 0.0000 -44.6367 0.0000
# 4 0.0000 0.0000 0.0000 13.8781 0.0000 2.8742
# 5 -43.9712 -9.3191 -44.6367 0.0000 37.9183 0.0000
# 6 0.0000 0.0000 0.0000 2.8742 0.0000 16.7120
#
#
#
# Elastic Compliance Matrix: (Units=1/GPa)
#
#
# Indices 1 2 3 4 5 6 
#
# 1 0.012049 0.005040 0.006201 0.000000 0.022510 0.000000
# 2 0.005040 0.039479 0.042757 0.000000 0.065880 0.000000
# 3 0.006201 0.042757 0.146814 0.000000 0.190526 0.000000
# 4 0.000000 0.000000 0.000000 0.074717 0.000000 -0.012850
# 5 0.022510 0.065880 0.190526 0.000000 0.292950 0.000000
# 6 0.000000 0.000000 0.000000 -0.012850 0.000000 0.062047
#
#
# Mechanical properties :
#
#
# Convention : Reuss Voigt Hill
#
# Bulk Modulus (GPa) = 3.26437 38.34986 20.80712
# Shear Modulus (GPa) = 8.03636 26.37261 17.20449
#
# Velocity S-wave (km/s) = 1.96083 3.55212 2.86901
# Velocity P-wave (km/s) = 2.58617 5.93053 4.57490
#
# Compressibility (1/GPa) = 0.30633776
#
# Stress axis : x y z
#
# Youngs Moduli (GPa) = 82.99643 25.33017 6.81134
#
# Poissons Ratio (x) = -0.12767 -0.04224
# Poissons Ratio (y) = -0.41833 -0.29123
# Poissons Ratio (z) = -0.51466 -1.08304
#
# Static dielectric constant tensor:
#      x y z
#    x 1.754420 0.000000 -0.046860 
#    y 0.000000 1.798630 0.000000 
#    z -0.046860 0.000000 1.713970 
# 
# From -- ./inp_files/267615.got.cif
#   From: 2010.05.17/outbox.cif.g08.bks.cpg/sg12_134_cif.got.tgz:267615.got - 2010.06.03 13:09:07.
