data_PCOD9194568
_publ_section_title
;
Structure prediction by ZEFSAII (Michael W. Deem and Ramdas Pophale) SiO2 
 PCOD9194568
Probable space group: C 2/M
;
_chemical_formula_sum "Si O2"
_cell_formula_units_Z 40
_cell_length_a 17.903462
_cell_length_b 18.568855
_cell_length_c 8.580393
_cell_angle_alpha 90.000000
_cell_angle_beta 134.277352
_cell_angle_gamma 90.000000
_cell_volume 2042.318117
_symmetry_space_group_name_H-M "C 2/M"
_symmetry_group_IT_number 12
_symmetry_cell_setting 'monoclinic'
loop_
_space_group_symop_operation_xyz
x,y,z
-x,y,-z
-x,-y,-z
x,-y,z
1/2+x,1/2+y,z
1/2-x,1/2+y,-z
1/2-x,1/2-y,-z
1/2+x,1/2-y,z
loop_
_atom_site_type_symbol
_atom_site_label
_atom_site_fract_x
_atom_site_fract_y
_atom_site_fract_z
Si Si1 0.376461 0.500000 0.142226
Si Si2 0.925315 0.276251 0.259997
Si Si3 0.918338 0.277550 0.753097
Si Si4 0.882996 0.000000 0.532000
Si Si5 0.717157 0.651393 0.600956
Si Si6 0.779632 0.850020 0.015714
O O1 0.380384 0.500000 0.337945
O O2 0.494228 0.500000 0.250862
O O3 0.316806 0.427059 0.012571
O O4 0.860859 0.211945 0.085138
O O5 0.000000 0.243616 0.500000
O O6 0.004023 0.314813 0.257464
O O7 0.836567 0.327442 0.200984
O O8 0.831026 0.328845 0.700297
O O9 0.859103 0.212337 0.580340
O O10 0.000000 0.249746 0.000000
O O11 0.825962 0.072520 0.503754
O O12 0.719768 0.653511 0.793610
#
# Coordination Sequence:
#
# PCOD9194568 Si02
#       6
#     4   8   8   4   8   8
#     4   9  18  32  56  80 113 138 181 229 274 317
#     4  11  21  35  57  82 113 144 185 227 270 320
#     4  11  21  35  55  81 115 147 180 226 275 320
#     4   9  18  34  55  81 109 143 179 230 271 322
#     4  10  20  35  56  83 111 143 187 224 271 329
#     4  10  20  34  56  86 108 144 187 225 268 330
#
# _framework density 19.585587
#
# number of rings (size 3 to 8) (size 9 to 14) (size 15 to 20)
#    0.000    1.800    4.000    1.200    2.800    0.000 
#    0.000    2.500    0.000    2.400    0.000    0.000 
#    0.000    0.000    0.000    0.000    0.000    0.000 
#
# Total GULP energy -111571.017845 kJ/mol
# GULP energy per Si atom -5578.550892 kJ/mol
# Density = 1.954101 g / cm^3
# Si number density = 19.585587 Si / 1000 Ang^3
#
#
#
# Elastic Constant Matrix: (Units=GPa)
#
#
# Indices 1 2 3 4 5 6 
#
# 1 114.6455 45.3943 31.8475 0.0000 38.2289 0.0000
# 2 45.3943 130.5384 23.1224 0.0000 34.8403 0.0000
# 3 31.8475 23.1224 71.8026 0.0000 36.3716 0.0000
# 4 0.0000 0.0000 0.0000 15.8789 0.0000 -1.3607
# 5 38.2289 34.8403 36.3716 0.0000 34.0889 0.0000
# 6 0.0000 0.0000 0.0000 -1.3607 0.0000 18.1039
#
#
#
# Elastic Compliance Matrix: (Units=1/GPa)
#
#
# Indices 1 2 3 4 5 6 
#
# 1 0.014434 -0.000408 0.003738 0.000000 -0.019758 0.000000
# 2 -0.000408 0.011254 0.004682 0.000000 -0.016040 0.000000
# 3 0.003738 0.004682 0.033314 0.000000 -0.044521 0.000000
# 4 0.000000 0.000000 0.000000 0.063385 0.000000 0.004764
# 5 -0.019758 -0.016040 -0.044521 0.000000 0.115388 0.000000
# 6 0.000000 0.000000 0.000000 0.004764 0.000000 0.055595
#
#
# Mechanical properties :
#
#
# Convention : Reuss Voigt Hill
#
# Bulk Modulus (GPa) = 13.32891 57.52385 35.42638
# Shear Modulus (GPa) = 16.53681 28.05583 22.29632
#
# Velocity S-wave (km/s) = 2.90890 3.78891 3.37769
# Velocity P-wave (km/s) = 4.25470 6.96960 5.77399
#
# Compressibility (1/GPa) = 0.07502488
#
# Stress axis : x y z
#
# Youngs Moduli (GPa) = 69.27970 88.85559 30.01771
#
# Poissons Ratio (x) = 0.03627 -0.11220
# Poissons Ratio (y) = 0.02828 -0.14054
# Poissons Ratio (z) = -0.25894 -0.41601
#
# Static dielectric constant tensor:
#      x y z
#    x 1.731730 0.000000 -0.034800 
#    y 0.000000 1.652930 0.000000 
#    z -0.034800 0.000000 1.702560 
# 
# From -- ./inp_files/77809.got.cif
#   From: 2010.05.17/outbox.cif.g08.bks.cpg/sg12_39_cif.got.tgz:77809.got - 2010.06.03 13:09:07.
