data_PCOD9194604
_publ_section_title
;
Structure prediction by ZEFSAII (Michael W. Deem and Ramdas Pophale) SiO2 
 PCOD9194604
Probable space group: C 2/M
;
_chemical_formula_sum "Si O2"
_cell_formula_units_Z 56
_cell_length_a 25.010687
_cell_length_b 8.949123
_cell_length_c 17.472501
_cell_angle_alpha 90.000000
_cell_angle_beta 46.659970
_cell_angle_gamma 90.000000
_cell_volume 2844.270104
_symmetry_space_group_name_H-M "C 2/M"
_symmetry_group_IT_number 12
_symmetry_cell_setting 'monoclinic'
loop_
_space_group_symop_operation_xyz
x,y,z
-x,y,-z
-x,-y,-z
x,-y,z
1/2+x,1/2+y,z
1/2-x,1/2+y,-z
1/2-x,1/2-y,-z
1/2+x,1/2-y,z
loop_
_atom_site_type_symbol
_atom_site_label
_atom_site_fract_x
_atom_site_fract_y
_atom_site_fract_z
Si Si1 0.831951 0.179765 0.265538
Si Si2 0.909285 0.678464 0.872240
Si Si3 0.416907 0.825373 0.606039
Si Si4 0.331103 0.820385 0.100038
Si Si5 0.823810 0.177204 0.824827
Si Si6 0.565362 0.321567 0.695991
Si Si7 0.669303 0.176218 0.468062
O O1 0.840806 0.247783 0.172981
O O2 0.896651 0.218870 0.260485
O O3 0.753706 0.227458 0.378966
O O4 0.828719 0.000000 0.261860
O O5 0.911484 0.500000 0.864606
O O6 0.844068 0.739052 0.882762
O O7 0.985857 0.746708 0.769138
O O8 0.892110 0.720210 0.976985
O O9 0.500000 0.791382 0.500000
O O10 0.386887 0.721996 0.702457
O O11 0.365911 0.809550 0.581586
O O12 0.414358 0.000000 0.633398
O O13 0.252763 0.777131 0.139496
O O14 0.330815 0.000000 0.108887
O O15 0.822010 0.000000 0.839801
O O16 0.558063 0.500000 0.698881
O O17 0.619845 0.265194 0.576357
O O18 0.667847 0.000000 0.489999
#
# Coordination Sequence:
#
# PCOD9194604 Si02
#       7
#     8   8   8   8   8   8   8
#     4  10  22  40  63  90 121 160 202 245 299 359
#     4  11  24  42  62  86 120 162 203 245 301 363
#     4  10  20  34  56  86 121 160 197 235 289 357
#     4  10  23  41  63  91 120 156 202 249 299 356
#     4  11  22  38  61  91 121 151 196 249 301 353
#     4  11  24  40  60  90 123 157 202 254 302 347
#     4  10  20  37  60  88 122 161 201 239 295 364
#
# _framework density 19.688707999999998
#
# number of rings (size 3 to 8) (size 9 to 14) (size 15 to 20)
#    0.000    1.571    1.429    3.000    0.000    6.000 
#    0.000    2.857    0.000    0.000    0.000    0.000 
#    0.000    0.000    0.000    0.000    0.000    0.000 
#
# Total GULP energy -156545.927798 kJ/mol
# GULP energy per Si atom -5590.925993 kJ/mol
# Density = 1.964390 g / cm^3
# Si number density = 19.688708 Si / 1000 Ang^3
#
#
#
# Elastic Constant Matrix: (Units=GPa)
#
#
# Indices 1 2 3 4 5 6 
#
# 1 56.9307 21.9707 10.7492 -0.0121 8.2731 0.0070
# 2 21.9707 38.6362 24.2988 -0.0097 10.3993 0.0063
# 3 10.7492 24.2988 64.4193 -0.0035 29.4731 0.0033
# 4 -0.0121 -0.0097 -0.0035 26.9821 0.0022 11.6312
# 5 8.2731 10.3993 29.4731 0.0022 20.6395 -0.0020
# 6 0.0070 0.0063 0.0033 11.6312 -0.0020 21.1332
#
#
#
# Elastic Compliance Matrix: (Units=1/GPa)
#
#
# Indices 1 2 3 4 5 6 
#
# 1 0.023679 -0.014702 0.007349 0.000013 -0.012579 -0.000013
# 2 -0.014702 0.043143 -0.018955 0.000010 0.011223 -0.000009
# 3 0.007349 -0.018955 0.053150 0.000019 -0.069293 -0.000022
# 4 0.000013 0.000010 0.000019 0.048589 -0.000044 -0.026742
# 5 -0.012579 0.011223 -0.069293 -0.000044 0.146788 0.000050
# 6 -0.000013 -0.000009 -0.000022 -0.026742 0.000050 0.062037
#
#
# Mechanical properties :
#
#
# Convention : Reuss Voigt Hill
#
# Bulk Modulus (GPa) = 14.84625 30.44707 22.64666
# Shear Modulus (GPa) = 11.05086 20.61545 15.83316
#
# Velocity S-wave (km/s) = 2.37170 3.23936 2.83887
# Velocity P-wave (km/s) = 3.88031 5.43038 4.71942
#
# Compressibility (1/GPa) = 0.06735708
#
# Stress axis : x y z
#
# Youngs Moduli (GPa) = 42.23110 23.17869 18.81483
#
# Poissons Ratio (x) = 0.34077 -0.13828
# Poissons Ratio (y) = 0.62087 0.35664
# Poissons Ratio (z) = -0.31037 0.43935
#
# Static dielectric constant tensor:
#      x y z
#    x 1.683770 0.000000 -0.007230 
#    y 0.000000 1.664810 0.000000 
#    z -0.007230 0.000000 1.673280 
# 
# From -- ./inp_files/288162.got.cif
#   From: 2010.05.17/outbox.cif.g08.bks.cpg/sg12_145_cif.got.tgz:288162.got - 2010.06.03 13:09:07.
