data_PCOD9194841
_publ_section_title
;
Structure prediction by ZEFSAII (Michael W. Deem and Ramdas Pophale) SiO2 
 PCOD9194841
Probable space group: C 2/M
;
_chemical_formula_sum "Si O2"
_cell_formula_units_Z 64
_cell_length_a 15.643398
_cell_length_b 8.803618
_cell_length_c 31.431794
_cell_angle_alpha 90.000000
_cell_angle_beta 129.980915
_cell_angle_gamma 90.000000
_cell_volume 3316.933504
_symmetry_space_group_name_H-M "C 2/M"
_symmetry_group_IT_number 12
_symmetry_cell_setting 'monoclinic'
loop_
_space_group_symop_operation_xyz
x,y,z
-x,y,-z
-x,-y,-z
x,-y,z
1/2+x,1/2+y,z
1/2-x,1/2+y,-z
1/2-x,1/2-y,-z
1/2+x,1/2-y,z
loop_
_atom_site_type_symbol
_atom_site_label
_atom_site_fract_x
_atom_site_fract_y
_atom_site_fract_z
Si Si1 0.555904 0.822401 0.062392
Si Si2 0.681984 0.818067 0.237553
Si Si3 0.925576 0.816672 0.552540
Si Si4 0.683887 0.682581 0.634241
Si Si5 0.237925 0.320213 0.825461
Si Si6 0.061882 0.819739 0.827595
Si Si7 0.248582 0.181526 0.431595
Si Si8 0.847464 0.677540 0.059190
O O1 0.660607 0.725059 0.110659
O O2 0.461207 0.814018 0.068234
O O3 0.590367 0.000000 0.069096
O O4 0.500000 0.775424 0.000000
O O5 0.757250 0.780228 0.302492
O O6 0.728362 0.740079 0.210047
O O7 0.557200 0.760535 0.206049
O O8 0.681083 0.000000 0.231169
O O9 0.860161 0.775798 0.575135
O O10 0.854431 0.745836 0.491504
O O11 0.054196 0.768781 0.593025
O O12 0.921741 0.000000 0.547267
O O13 0.685670 0.500000 0.630219
O O14 0.746902 0.753629 0.614250
O O15 0.222385 0.500000 0.820356
O O16 0.128050 0.237718 0.807644
O O17 0.133832 0.768127 0.891479
O O18 0.048613 0.000000 0.823044
O O19 0.254502 0.000000 0.432255
O O20 0.824584 0.500000 0.060672
O O21 0.750000 0.750000 0.000000
#
# Coordination Sequence:
#
# PCOD9194841 Si02
#       8
#     8   8   8   8   8   8   8   8
#     4  10  21  38  61  90 125 161 198 246 305 369
#     4  11  24  44  65  90 124 163 212 265 317 375
#     4   9  19  37  58  84 122 165 204 245 306 370
#     4  10  22  39  61  86 118 162 206 251 306 370
#     4  12  25  42  66  93 122 160 206 255 314 375
#     4  12  25  43  66  90 122 163 207 255 313 373
#     4  10  20  34  57  90 125 160 204 256 303 356
#     4  11  22  37  61  92 129 162 201 251 304 370
#
# _framework density 19.294929
#
# number of rings (size 3 to 8) (size 9 to 14) (size 15 to 20)
#    0.000    1.375    1.250    4.500    0.000    6.250 
#    0.000    1.250    0.000    0.000    0.000    0.000 
#    0.000    0.000    0.000    0.000    0.000    0.000 
#
# Total GULP energy -178979.569841 kJ/mol
# GULP energy per Si atom -5593.111558 kJ/mol
# Density = 1.925101 g / cm^3
# Si number density = 19.294929 Si / 1000 Ang^3
#
#
#
# Elastic Constant Matrix: (Units=GPa)
#
#
# Indices 1 2 3 4 5 6 
#
# 1 64.8667 -2.1628 17.4346 0.0000 -15.7619 0.0000
# 2 -2.1628 37.8720 13.9925 0.0000 -7.1144 0.0000
# 3 17.4346 13.9925 55.6107 0.0000 -21.1386 0.0000
# 4 0.0000 0.0000 0.0000 25.1589 0.0000 -6.1775
# 5 -15.7619 -7.1144 -21.1386 0.0000 23.5696 0.0000
# 6 0.0000 0.0000 0.0000 -6.1775 0.0000 31.8087
#
#
#
# Elastic Compliance Matrix: (Units=1/GPa)
#
#
# Indices 1 2 3 4 5 6 
#
# 1 0.019108 0.004256 -0.002603 0.000000 0.011728 0.000000
# 2 0.004256 0.030236 -0.006662 0.000000 0.005998 0.000000
# 3 -0.002603 -0.006662 0.028901 0.000000 0.022168 0.000000
# 4 0.000000 0.000000 0.000000 0.041738 0.000000 0.008106
# 5 0.011728 0.005998 0.022168 0.000000 0.071963 0.000000
# 6 0.000000 0.000000 0.000000 0.008106 0.000000 0.033012
#
#
# Mechanical properties :
#
#
# Convention : Reuss Voigt Hill
#
# Bulk Modulus (GPa) = 14.65723 24.09755 19.37739
# Shear Modulus (GPa) = 19.40102 24.71311 22.05706
#
# Velocity S-wave (km/s) = 3.17440 3.58272 3.38472
# Velocity P-wave (km/s) = 4.58788 5.44341 5.03385
#
# Compressibility (1/GPa) = 0.06822574
#
# Stress axis : x y z
#
# Youngs Moduli (GPa) = 52.33518 33.07312 34.60049
#
# Poissons Ratio (x) = -0.14077 0.09008
# Poissons Ratio (y) = -0.22275 0.23052
# Poissons Ratio (z) = 0.13625 0.22034
#
# Static dielectric constant tensor:
#      x y z
#    x 1.668730 0.000000 -0.001560 
#    y 0.000000 1.647080 0.000000 
#    z -0.001560 0.000000 1.649620 
# 
# From -- ./inp_files/375643.got.cif
#   From: 2010.05.17/outbox.cif.g08.bks.cpg/sg12_188_cif.got.tgz:375643.got - 2010.06.03 13:09:07.
