data_PCOD9194528
_publ_section_title
;
Structure prediction by ZEFSAII (Michael W. Deem and Ramdas Pophale) SiO2 
 PCOD9194528
Probable space group: C 2/M
;
_chemical_formula_sum "Si O2"
_cell_formula_units_Z 42
_cell_length_a 14.332663
_cell_length_b 7.428517
_cell_length_c 19.865423
_cell_angle_alpha 90.000000
_cell_angle_beta 124.710795
_cell_angle_gamma 90.000000
_cell_volume 1738.673649
_symmetry_space_group_name_H-M "C 2/M"
_symmetry_group_IT_number 12
_symmetry_cell_setting 'monoclinic'
loop_
_space_group_symop_operation_xyz
x,y,z
-x,y,-z
-x,-y,-z
x,-y,z
1/2+x,1/2+y,z
1/2-x,1/2+y,-z
1/2-x,1/2-y,-z
1/2+x,1/2-y,z
loop_
_atom_site_type_symbol
_atom_site_label
_atom_site_fract_x
_atom_site_fract_y
_atom_site_fract_z
Si Si1 0.268028 0.221404 0.344025
Si Si2 0.652937 0.714378 0.015089
Si Si3 0.375253 0.786614 0.520250
Si Si4 0.279477 0.796091 0.198298
Si Si5 0.500000 0.000000 0.000000
Si Si6 0.973724 0.205774 0.697976
O O1 0.361759 0.278163 0.437868
O O2 0.277360 0.286075 0.271714
O O3 0.144181 0.275743 0.320527
O O4 0.273516 0.000000 0.346916
O O5 0.629536 0.500000 0.006642
O O6 0.706778 0.783490 0.108324
O O7 0.544212 0.840239 0.965119
O O8 0.750000 0.750000 0.000000
O O9 0.250000 0.750000 0.500000
O O10 0.459395 0.712095 0.610997
O O11 0.396425 0.000000 0.527221
O O12 0.411631 0.799745 0.233108
O O13 0.237391 0.000000 0.188308
O O14 0.984309 0.000000 0.723884
#
# Coordination Sequence:
#
# PCOD9194528 Si02
#       6
#     8   8   8   8   2   8
#     4   8  17  35  55  80 118 164 214 265 320 388
#     4  11  25  48  77 110 148 190 239 300 365 447
#     4   9  16  30  53  78 114 163 214 263 316 385
#     4  10  22  40  62  92 126 161 218 277 331 408
#     4  12  26  48  84 108 148 190 242 286 380 434
#     4  10  20  34  56  84 120 169 211 263 335 384
#
# _framework density 24.156345000000002
#
# number of rings (size 3 to 8) (size 9 to 14) (size 15 to 20)
#    0.000    2.286    0.952    2.571    1.333    2.286 
#    0.000   11.429    0.000    0.000    0.000    0.000 
#    0.000    0.000    0.000    0.000    0.000    0.000 
#
# Total GULP energy -117033.918969 kJ/mol
# GULP energy per Si atom -5573.043760 kJ/mol
# Density = 2.410136 g / cm^3
# Si number density = 24.156345 Si / 1000 Ang^3
#
#
#
# Elastic Constant Matrix: (Units=GPa)
#
#
# Indices 1 2 3 4 5 6 
#
# 1 97.5684 13.6619 22.2036 0.0000 -13.4358 0.0000
# 2 13.6619 131.3483 -11.5064 0.0000 -6.9012 0.0000
# 3 22.2036 -11.5064 94.8491 0.0000 -2.3844 0.0000
# 4 0.0000 0.0000 0.0000 -9.0543 0.0000 -10.1094
# 5 -13.4358 -6.9012 -2.3844 0.0000 29.9600 0.0000
# 6 0.0000 0.0000 0.0000 -10.1094 0.0000 18.7408
#
#
#
# Elastic Compliance Matrix: (Units=1/GPa)
#
#
# Indices 1 2 3 4 5 6 
#
# 1 0.011702 -0.001210 -0.002767 0.000000 0.004749 0.000000
# 2 -0.001210 0.007924 0.001279 0.000000 0.001384 0.000000
# 3 -0.002767 0.001279 0.011345 0.000000 -0.000043 0.000000
# 4 0.000000 0.000000 0.000000 -0.068929 0.000000 -0.037183
# 5 0.004749 0.001384 -0.000043 0.000000 0.035823 0.000000
# 6 0.000000 0.000000 0.000000 -0.037183 0.000000 0.033302
#
#
# Mechanical properties :
#
#
# Convention : Reuss Voigt Hill
#
# Bulk Modulus (GPa) = 39.09898 41.38709 40.24304
# Shear Modulus (GPa) = 110.89490 27.88973 69.39232
#
# Velocity S-wave (km/s) = 6.78283 3.40155 5.36551
# Velocity P-wave (km/s) = 8.80701 5.70943 7.42162
#
# Compressibility (1/GPa) = 0.02557612
#
# Stress axis : x y z
#
# Youngs Moduli (GPa) = 85.45341 126.19851 88.14549
#
# Poissons Ratio (x) = 0.15271 0.24388
# Poissons Ratio (y) = 0.10340 -0.11277
# Poissons Ratio (z) = 0.23644 -0.16145
#
# Static dielectric constant tensor:
#      x y z
#    x 1.973810 0.000000 0.014270 
#    y 0.000000 1.923400 0.000000 
#    z 0.014270 0.000000 1.977850 
# 
# From -- ./inp_files/267555.got.cif
#   From: 2010.05.17/outbox.cif.g08.bks.cpg/sg12_134_cif.got.tgz:267555.got - 2010.06.03 13:09:07.
