data_PCOD9194182
_publ_section_title
;
Structure prediction by ZEFSAII (Michael W. Deem and Ramdas Pophale) SiO2 
 PCOD9194182
Probable space group: C 2/M
;
_chemical_formula_sum "Si O2"
_cell_formula_units_Z 60
_cell_length_a 11.288445
_cell_length_b 24.744071
_cell_length_c 11.541167
_cell_angle_alpha 90.000000
_cell_angle_beta 64.258644
_cell_angle_gamma 90.000000
_cell_volume 2903.794717
_symmetry_space_group_name_H-M "C 2/M"
_symmetry_group_IT_number 12
_symmetry_cell_setting 'monoclinic'
loop_
_space_group_symop_operation_xyz
x,y,z
-x,y,-z
-x,-y,-z
x,-y,z
1/2+x,1/2+y,z
1/2-x,1/2+y,-z
1/2-x,1/2-y,-z
1/2+x,1/2-y,z
loop_
_atom_site_type_symbol
_atom_site_label
_atom_site_fract_x
_atom_site_fract_y
_atom_site_fract_z
Si Si1 0.500000 0.789954 0.000000
Si Si2 0.402530 0.560079 0.765084
Si Si3 0.291001 0.729578 0.797967
Si Si4 0.580434 0.060183 0.345923
Si Si5 0.295200 0.560232 0.428231
Si Si6 0.156579 0.858586 0.403270
Si Si7 0.895662 0.341047 0.815611
Si Si8 0.113838 0.851693 0.043094
O O1 0.357912 0.762426 0.089485
O O2 0.525046 0.825228 0.103601
O O3 0.348655 0.500000 0.800229
O O4 0.549028 0.556784 0.651558
O O5 0.327049 0.596835 0.704919
O O6 0.412847 0.592597 0.879153
O O7 0.291975 0.696379 0.677379
O O8 0.367650 0.786006 0.756492
O O9 0.366516 0.693418 0.863690
O O10 0.500000 0.062214 0.500000
O O11 0.728363 0.067005 0.331893
O O12 0.544745 0.109495 0.279675
O O13 0.566002 0.000000 0.301449
O O14 0.251971 0.500000 0.491155
O O15 0.273736 0.612738 0.517235
O O16 0.000000 0.851540 0.500000
O O17 0.751680 0.357664 0.920586
O O18 0.000000 0.839931 0.000000
#
# Coordination Sequence:
#
# PCOD9194182 Si02
#       8
#     4   8   8   8   8   8   8   8
#     4  10  22  42  61  88 121 156 206 236 290 358
#     4   9  17  30  51  84 117 147 187 237 293 347
#     4  10  23  37  59  87 117 155 194 247 293 349
#     4  10  23  42  60  83 115 154 199 242 289 349
#     4   9  17  33  57  82 113 155 192 232 291 351
#     4   9  18  34  55  86 119 151 192 240 291 347
#     4  11  24  39  63  87 114 159 198 245 293 349
#     4  10  20  34  55  82 116 151 190 240 296 347
#
# _framework density 20.662617000000001
#
# number of rings (size 3 to 8) (size 9 to 14) (size 15 to 20)
#    0.000    2.267    0.000    2.800    5.600    2.933 
#    0.000    1.000    0.000    0.000    0.000    0.000 
#    0.000    0.000    0.000    0.000    0.000    0.000 
#
# Total GULP energy -167322.696694 kJ/mol
# GULP energy per Si atom -5577.423223 kJ/mol
# Density = 2.061559 g / cm^3
# Si number density = 20.662617 Si / 1000 Ang^3
#
#
#
# Elastic Constant Matrix: (Units=GPa)
#
#
# Indices 1 2 3 4 5 6 
#
# 1 47.6331 9.8163 -1.9589 0.0000 4.6980 0.0000
# 2 9.8163 150.4150 52.0153 0.0000 8.6976 0.0000
# 3 -1.9589 52.0153 49.7244 0.0000 2.3837 0.0000
# 4 0.0000 0.0000 0.0000 69.4957 0.0000 6.8751
# 5 4.6980 8.6976 2.3837 0.0000 17.8697 0.0000
# 6 0.0000 0.0000 0.0000 6.8751 0.0000 7.8365
#
#
#
# Elastic Compliance Matrix: (Units=1/GPa)
#
#
# Indices 1 2 3 4 5 6 
#
# 1 0.022145 -0.002405 0.003635 0.000000 -0.005136 0.000000
# 2 -0.002405 0.010918 -0.011364 0.000000 -0.003166 0.000000
# 3 0.003635 -0.011364 0.032128 0.000000 0.000290 0.000000
# 4 0.000000 0.000000 0.000000 0.015757 0.000000 -0.013824
# 5 -0.005136 -0.003166 0.000290 0.000000 0.058813 0.000000
# 6 0.000000 0.000000 0.000000 -0.013824 0.000000 0.139736
#
#
# Mechanical properties :
#
#
# Convention : Reuss Voigt Hill
#
# Bulk Modulus (GPa) = 22.26077 40.83533 31.54805
# Shear Modulus (GPa) = 15.88606 31.56704 23.72655
#
# Velocity S-wave (km/s) = 2.77579 3.91287 3.39231
# Velocity P-wave (km/s) = 4.59023 6.34191 5.53579
#
# Compressibility (1/GPa) = 0.04492209
#
# Stress axis : x y z
#
# Youngs Moduli (GPa) = 45.15591 91.59048 31.12562
#
# Poissons Ratio (x) = 0.22029 -0.11313
# Poissons Ratio (y) = 0.10861 0.35372
# Poissons Ratio (z) = -0.16412 1.04085
#
# Static dielectric constant tensor:
#      x y z
#    x 1.796210 0.000000 -0.008670 
#    y 0.000000 1.784810 0.000000 
#    z -0.008670 0.000000 1.736710 
# 
# From -- ./inp_files/135320.got.cif
#   From: 2010.05.17/outbox.cif.g08.bks.cpg/sg12_68_cif.got.tgz:135320.got - 2010.06.03 13:09:07.
