data_PCOD9194004
_publ_section_title
;
Structure prediction by ZEFSAII (Michael W. Deem and Ramdas Pophale) SiO2 
 PCOD9194004
Probable space group: C 2/M
;
_chemical_formula_sum "Si O2"
_cell_formula_units_Z 56
_cell_length_a 20.614394
_cell_length_b 8.480495
_cell_length_c 16.643517
_cell_angle_alpha 90.000000
_cell_angle_beta 87.933296
_cell_angle_gamma 90.000000
_cell_volume 2907.731403
_symmetry_space_group_name_H-M "C 2/M"
_symmetry_group_IT_number 12
_symmetry_cell_setting 'monoclinic'
loop_
_space_group_symop_operation_xyz
x,y,z
-x,y,-z
-x,-y,-z
x,-y,z
1/2+x,1/2+y,z
1/2-x,1/2+y,-z
1/2-x,1/2-y,-z
1/2+x,1/2-y,z
loop_
_atom_site_type_symbol
_atom_site_label
_atom_site_fract_x
_atom_site_fract_y
_atom_site_fract_z
Si Si1 0.238431 0.192454 0.755098
Si Si2 0.489061 0.311120 0.231970
Si Si3 0.699573 0.688821 0.936637
Si Si4 0.443077 0.188843 0.062366
Si Si5 0.123424 0.809723 0.641945
Si Si6 0.073964 0.309927 0.480863
Si Si7 0.382258 0.190805 0.698163
O O1 0.218559 0.243630 0.845588
O O2 0.185298 0.242515 0.691579
O O3 0.310827 0.242942 0.728309
O O4 0.237626 0.000000 0.755416
O O5 0.488169 0.500000 0.228631
O O6 0.460764 0.245386 0.150676
O O7 0.441204 0.260532 0.306382
O O8 0.561071 0.251198 0.246535
O O9 0.700862 0.500000 0.936253
O O10 0.626987 0.745471 0.958205
O O11 0.750000 0.750000 0.000000
O O12 0.440495 0.000000 0.060725
O O13 0.500000 0.242325 0.000000
O O14 0.118237 0.745134 0.552580
O O15 0.124386 0.000000 0.638674
O O16 0.072726 0.500000 0.480193
O O17 0.099987 0.256671 0.393110
O O18 0.000000 0.253993 0.500000
O O19 0.383149 0.000000 0.699315
#
# Coordination Sequence:
#
# PCOD9194004 Si02
#       7
#     8   8   8   8   8   8   8
#     4   9  20  40  61  82 115 159 197 234 294 359
#     4  11  22  38  61  89 119 153 197 248 298 349
#     4  11  23  42  64  90 125 160 201 248 300 361
#     4  11  25  43  64  91 121 158 202 245 301 365
#     4  10  20  37  60  83 113 156 196 238 297 355
#     4  10  20  34  54  86 119 151 197 247 293 344
#     4  10  21  38  60  84 118 160 199 242 294 355
#
# _framework density 19.259
#
# number of rings (size 3 to 8) (size 9 to 14) (size 15 to 20)
#    0.000    1.714    2.857    1.286    2.000    3.143 
#    0.000    1.429    0.000    0.000    0.000    0.000 
#    0.000    0.000    0.000    0.000    0.000    0.000 
#
# Total GULP energy -156452.993529 kJ/mol
# GULP energy per Si atom -5587.606912 kJ/mol
# Density = 1.921517 g / cm^3
# Si number density = 19.259000 Si / 1000 Ang^3
#
#
#
# Elastic Constant Matrix: (Units=GPa)
#
#
# Indices 1 2 3 4 5 6 
#
# 1 175.2602 23.4462 61.2177 0.0000 11.3497 0.0000
# 2 23.4462 16.4008 15.8373 0.0000 -2.2369 0.0000
# 3 61.2177 15.8373 96.2894 0.0000 16.2627 0.0000
# 4 0.0000 0.0000 0.0000 29.9926 0.0000 10.3901
# 5 11.3497 -2.2369 16.2627 0.0000 40.2780 0.0000
# 6 0.0000 0.0000 0.0000 10.3901 0.0000 24.5773
#
#
#
# Elastic Compliance Matrix: (Units=1/GPa)
#
#
# Indices 1 2 3 4 5 6 
#
# 1 0.008167 -0.008389 -0.003590 0.000000 -0.001318 0.000000
# 2 -0.008389 0.084644 -0.010498 0.000000 0.011303 0.000000
# 3 -0.003590 -0.010498 0.015370 0.000000 -0.005777 0.000000
# 4 0.000000 0.000000 0.000000 0.039062 0.000000 -0.016514
# 5 -0.001318 0.011303 -0.005777 0.000000 0.028159 0.000000
# 6 0.000000 0.000000 0.000000 -0.016514 0.000000 0.047669
#
#
# Mechanical properties :
#
#
# Convention : Reuss Voigt Hill
#
# Bulk Modulus (GPa) = 15.81574 54.32811 35.07193
# Shear Modulus (GPa) = 17.29494 31.46618 24.38056
#
# Velocity S-wave (km/s) = 2.99995 4.04647 3.56185
# Velocity P-wave (km/s) = 4.49773 7.07830 5.93009
#
# Compressibility (1/GPa) = 0.06322814
#
# Stress axis : x y z
#
# Youngs Moduli (GPa) = 122.43702 11.81420 65.06050
#
# Poissons Ratio (x) = 0.09911 0.23359
# Poissons Ratio (y) = 1.02710 0.68298
# Poissons Ratio (z) = 0.43958 0.12402
#
# Static dielectric constant tensor:
#      x y z
#    x 1.650500 0.000000 -0.015700 
#    y 0.000000 1.660110 0.000000 
#    z -0.015700 0.000000 1.648370 
# 
# From -- ./inp_files/230989.got.cif
#   From: 2010.05.17/outbox.cif.g08.bks.cpg/sg12_116_cif.got.tgz:230989.got - 2010.06.03 13:09:07.
