data_PCOD9194883
_publ_section_title
;
Structure prediction by ZEFSAII (Michael W. Deem and Ramdas Pophale) SiO2 
 PCOD9194883
Probable space group: C 2/M
;
_chemical_formula_sum "Si O2"
_cell_formula_units_Z 56
_cell_length_a 23.795163
_cell_length_b 8.428356
_cell_length_c 19.263704
_cell_angle_alpha 90.000000
_cell_angle_beta 127.480182
_cell_angle_gamma 90.000000
_cell_volume 3065.866438
_symmetry_space_group_name_H-M "C 2/M"
_symmetry_group_IT_number 12
_symmetry_cell_setting 'monoclinic'
loop_
_space_group_symop_operation_xyz
x,y,z
-x,y,-z
-x,-y,-z
x,-y,z
1/2+x,1/2+y,z
1/2-x,1/2+y,-z
1/2-x,1/2-y,-z
1/2+x,1/2-y,z
loop_
_atom_site_type_symbol
_atom_site_label
_atom_site_fract_x
_atom_site_fract_y
_atom_site_fract_z
Si Si1 0.529410 0.812725 0.119856
Si Si2 0.121379 0.814231 0.989167
Si Si3 0.810040 0.811311 0.596205
Si Si4 0.185383 0.691663 0.243605
Si Si5 0.967198 0.190408 0.720775
Si Si6 0.388064 0.186779 0.174076
Si Si7 0.759507 0.812958 0.165034
O O1 0.456609 0.732586 0.041268
O O2 0.607633 0.752737 0.158420
O O3 0.530874 0.779906 0.203811
O O4 0.524163 0.000000 0.101763
O O5 0.121680 0.776085 0.906877
O O6 0.133697 0.000000 0.009164
O O7 0.185029 0.715775 0.070234
O O8 0.750000 0.750000 0.500000
O O9 0.802394 0.747773 0.668983
O O10 0.890280 0.771179 0.631863
O O11 0.805724 0.000000 0.596099
O O12 0.182268 0.500000 0.241588
O O13 0.244515 0.739936 0.232740
O O14 0.038658 0.248450 0.738085
O O15 0.970880 0.000000 0.734983
O O16 0.321481 0.221757 0.172564
O O17 0.394122 0.000000 0.164590
O O18 0.775958 0.000000 0.176280
#
# Coordination Sequence:
#
# PCOD9194883 Si02
#       7
#     8   8   8   8   8   8   8
#     4   9  16  30  50  72  98 131 169 211 254 301
#     4  11  21  33  49  72 100 134 177 222 259 297
#     4  10  20  34  58  86 111 133 161 201 248 302
#     4   9  20  36  54  75 103 136 170 206 255 310
#     4   9  17  31  51  77 103 132 166 204 248 296
#     4  11  21  34  52  74 100 135 176 218 256 297
#     4  11  22  36  51  70 100 139 176 215 257 302
#
# _framework density 18.265637000000002
#
# number of rings (size 3 to 8) (size 9 to 14) (size 15 to 20)
#    0.000    2.000    0.000    6.429    0.000    4.000 
#    0.000    2.857    0.000    0.857    0.000    6.000 
#    0.000    0.000    0.000    0.000    0.000    0.000 
#
# Total GULP energy -156250.966228 kJ/mol
# GULP energy per Si atom -5580.391651 kJ/mol
# Density = 1.822406 g / cm^3
# Si number density = 18.265637 Si / 1000 Ang^3
#
#
#
# Elastic Constant Matrix: (Units=GPa)
#
#
# Indices 1 2 3 4 5 6 
#
# 1 86.2925 -7.5656 33.0904 0.0000 4.0451 0.0000
# 2 -7.5656 29.1166 -4.0174 0.0000 -1.9998 0.0000
# 3 33.0904 -4.0174 90.1302 0.0000 14.1147 0.0000
# 4 0.0000 0.0000 0.0000 21.1552 0.0000 6.8154
# 5 4.0451 -1.9998 14.1147 0.0000 19.3468 0.0000
# 6 0.0000 0.0000 0.0000 6.8154 0.0000 23.2865
#
#
#
# Elastic Compliance Matrix: (Units=1/GPa)
#
#
# Indices 1 2 3 4 5 6 
#
# 1 0.013747 0.002948 -0.005095 0.000000 0.001148 0.000000
# 2 0.002948 0.035321 0.000019 0.000000 0.003021 0.000000
# 3 -0.005095 0.000019 0.014451 0.000000 -0.009475 0.000000
# 4 0.000000 0.000000 0.000000 0.052191 0.000000 -0.015275
# 5 0.001148 0.003021 -0.009475 0.000000 0.058673 0.000000
# 6 0.000000 0.000000 0.000000 -0.015275 0.000000 0.047414
#
#
# Mechanical properties :
#
#
# Convention : Reuss Voigt Hill
#
# Bulk Modulus (GPa) = 16.87447 27.61710 22.24578
# Shear Modulus (GPa) = 20.34115 25.02648 22.68381
#
# Velocity S-wave (km/s) = 3.34073 3.70556 3.52786
# Velocity P-wave (km/s) = 4.91315 5.78452 5.36655
#
# Compressibility (1/GPa) = 0.05926113
#
# Stress axis : x y z
#
# Youngs Moduli (GPa) = 72.74273 28.31199 69.20172
#
# Poissons Ratio (x) = -0.08346 0.35261
# Poissons Ratio (y) = -0.21443 -0.00132
# Poissons Ratio (z) = 0.37066 -0.00054
#
# Static dielectric constant tensor:
#      x y z
#    x 1.675990 0.000000 0.010420 
#    y 0.000000 1.636010 0.000000 
#    z 0.010420 0.000000 1.637060 
# 
# From -- ./inp_files/288443.got.cif
#   From: 2010.05.17/outbox.cif.g08.bks.cpg/sg12_145_cif.got.tgz:288443.got - 2010.06.03 13:09:07.
