data_PCOD9194329
_publ_section_title
;
Structure prediction by ZEFSAII (Michael W. Deem and Ramdas Pophale) SiO2 
 PCOD9194329
Probable space group: C 2/M
;
_chemical_formula_sum "Si O2"
_cell_formula_units_Z 56
_cell_length_a 19.521642
_cell_length_b 9.058245
_cell_length_c 28.727000
_cell_angle_alpha 90.000000
_cell_angle_beta 29.437502
_cell_angle_gamma 90.000000
_cell_volume 2496.612435
_symmetry_space_group_name_H-M "C 2/M"
_symmetry_group_IT_number 12
_symmetry_cell_setting 'monoclinic'
loop_
_space_group_symop_operation_xyz
x,y,z
-x,y,-z
-x,-y,-z
x,-y,z
1/2+x,1/2+y,z
1/2-x,1/2+y,-z
1/2-x,1/2-y,-z
1/2+x,1/2-y,z
loop_
_atom_site_type_symbol
_atom_site_label
_atom_site_fract_x
_atom_site_fract_y
_atom_site_fract_z
Si Si1 0.765839 0.335116 0.355977
Si Si2 0.590909 0.671322 0.299612
Si Si3 0.437943 0.836654 0.770811
Si Si4 0.397952 0.335978 0.200230
Si Si5 0.920831 0.323622 0.094088
Si Si6 0.659279 0.176085 0.511086
Si Si7 0.314219 0.335045 0.919098
O O1 0.703822 0.500000 0.389468
O O2 0.781038 0.258794 0.296493
O O3 0.699188 0.238619 0.436610
O O4 0.924602 0.354198 0.279789
O O5 0.573681 0.500000 0.322012
O O6 0.528317 0.711383 0.286365
O O7 0.753930 0.703285 0.194898
O O8 0.500887 0.774790 0.386032
O O9 0.313290 0.771535 0.875382
O O10 0.406809 0.000000 0.769338
O O11 0.347640 0.500000 0.217672
O O12 0.463349 0.256753 0.116465
O O13 0.524672 0.352505 0.161463
O O14 0.940785 0.500000 0.086110
O O15 0.000000 0.276065 0.000000
O O16 0.750000 0.250000 0.500000
O O17 0.676270 0.000000 0.503870
O O18 0.257227 0.500000 0.944353
O O19 0.250000 0.250000 0.000000
#
# Coordination Sequence:
#
# PCOD9194329 Si02
#       7
#     8   8   8   8   8   8   8
#     4  10  20  37  62  91 124 163 199 245 305 370
#     4  11  23  39  61  90 125 163 208 258 307 368
#     4  10  20  34  55  85 121 158 197 244 304 366
#     4  10  22  40  61  88 120 159 205 256 310 368
#     4  10  24  45  66  89 119 165 215 260 311 365
#     4  12  23  37  61  94 131 167 204 252 310 374
#     4  10  21  35  54  83 117 153 198 250 311 372
#
# _framework density 22.430394
#
# number of rings (size 3 to 8) (size 9 to 14) (size 15 to 20)
#    0.000    1.571    1.429    3.429    2.000    4.286 
#    0.000    0.714    0.000    4.286    0.000    0.000 
#    0.000    0.000    0.000    0.000    0.000    0.000 
#
# Total GULP energy -156213.108413 kJ/mol
# GULP energy per Si atom -5579.039586 kJ/mol
# Density = 2.237934 g / cm^3
# Si number density = 22.430394 Si / 1000 Ang^3
#
#
#
# Elastic Constant Matrix: (Units=GPa)
#
#
# Indices 1 2 3 4 5 6 
#
# 1 43.8854 14.3089 25.7239 0.0000 9.1827 0.0004
# 2 14.3089 135.3194 75.7364 0.0001 12.7252 0.0012
# 3 25.7239 75.7364 140.0803 -0.0004 36.4383 0.0001
# 4 0.0000 0.0001 -0.0004 25.4184 0.0001 3.9395
# 5 9.1827 12.7252 36.4383 0.0001 38.9075 0.0001
# 6 0.0004 0.0012 0.0001 3.9395 0.0001 13.9527
#
#
#
# Elastic Compliance Matrix: (Units=1/GPa)
#
#
# Indices 1 2 3 4 5 6 
#
# 1 0.025681 -0.000275 -0.003985 0.000000 -0.002239 -0.000001
# 2 -0.000275 0.010788 -0.006454 0.000000 0.002580 -0.000001
# 3 -0.003985 -0.006454 0.013969 0.000000 -0.010031 0.000001
# 4 0.000000 0.000000 0.000000 0.041142 0.000000 -0.011616
# 5 -0.002239 0.002580 -0.010031 0.000000 0.034781 0.000000
# 6 -0.000001 -0.000001 0.000001 -0.011616 0.000000 0.074950
#
#
# Mechanical properties :
#
#
# Convention : Reuss Voigt Hill
#
# Bulk Modulus (GPa) = 34.46902 61.20260 47.83581
# Shear Modulus (GPa) = 21.51381 29.22345 25.36863
#
# Velocity S-wave (km/s) = 3.10035 3.61342 3.36667
# Velocity P-wave (km/s) = 5.31194 6.68983 6.04031
#
# Compressibility (1/GPa) = 0.02901156
#
# Stress axis : x y z
#
# Youngs Moduli (GPa) = 38.94002 92.69272 71.58574
#
# Poissons Ratio (x) = 0.02545 0.28527
# Poissons Ratio (y) = 0.01069 0.46199
# Poissons Ratio (z) = 0.15518 0.59821
#
# Static dielectric constant tensor:
#      x y z
#    x 1.906440 0.000000 -0.036850 
#    y 0.000000 1.848560 0.000000 
#    z -0.036850 0.000000 1.927010 
# 
# From -- ./inp_files/380624.got.cif
#   From: 2010.05.17/outbox.cif.g08.bks.cpg/sg12_191_cif.got.tgz:380624.got - 2010.06.03 13:09:07.
