data_PCOD9194303
_publ_section_title
;
Structure prediction by ZEFSAII (Michael W. Deem and Ramdas Pophale) SiO2 
 PCOD9194303
Probable space group: C 2/M
;
_chemical_formula_sum "Si O2"
_cell_formula_units_Z 56
_cell_length_a 8.296962
_cell_length_b 32.389934
_cell_length_c 11.887553
_cell_angle_alpha 90.000000
_cell_angle_beta 70.804596
_cell_angle_gamma 90.000000
_cell_volume 3017.024745
_symmetry_space_group_name_H-M "C 2/M"
_symmetry_group_IT_number 12
_symmetry_cell_setting 'monoclinic'
loop_
_space_group_symop_operation_xyz
x,y,z
-x,y,-z
-x,-y,-z
x,-y,z
1/2+x,1/2+y,z
1/2-x,1/2+y,-z
1/2-x,1/2-y,-z
1/2+x,1/2-y,z
loop_
_atom_site_type_symbol
_atom_site_label
_atom_site_fract_x
_atom_site_fract_y
_atom_site_fract_z
Si Si1 0.362747 0.323393 0.265752
Si Si2 0.799820 0.202978 0.517002
Si Si3 0.076217 0.089040 0.855295
Si Si4 0.265781 0.819368 0.221905
Si Si5 0.715327 0.913172 0.858699
Si Si6 0.387755 0.951604 0.879269
Si Si7 0.843253 0.238750 0.091780
O O1 0.278410 0.322913 0.407702
O O2 0.362630 0.366831 0.203641
O O3 0.564106 0.311051 0.238149
O O4 0.273639 0.289647 0.206404
O O5 0.750000 0.250000 0.500000
O O6 0.712888 0.184871 0.648707
O O7 0.000000 0.202854 0.500000
O O8 0.239820 0.059442 0.824996
O O9 0.916976 0.076305 0.812250
O O10 0.000000 0.092581 0.000000
O O11 0.303201 0.864686 0.165077
O O12 0.376849 0.783069 0.141059
O O13 0.581950 0.937727 0.811076
O O14 0.662774 0.925535 0.997797
O O15 0.382888 0.000000 0.906321
O O16 0.750000 0.250000 0.000000
O O17 0.000000 0.214318 0.000000
#
# Coordination Sequence:
#
# PCOD9194303 Si02
#       7
#     8   8   8   8   8   8   8
#     4  10  20  37  52  73 109 146 187 234 275 322
#     4  10  20  37  55  73 103 144 196 242 273 314
#     4   9  19  33  54  77 112 147 176 224 281 342
#     4  10  21  36  51  77 106 146 192 227 275 331
#     4   9  19  33  51  76 112 143 175 226 276 330
#     4  10  20  34  55  85 113 142 180 224 285 358
#     4  12  23  30  49  73 105 147 180 224 274 326
#
# _framework density 18.561333999999999
#
# number of rings (size 3 to 8) (size 9 to 14) (size 15 to 20)
#    0.000    2.000    2.857    1.286    6.000    3.143 
#    2.571    0.000    0.000    0.000    0.000    3.000 
#    0.000   20.000    0.000    0.000    0.000    0.000 
#
# Total GULP energy -155868.452758 kJ/mol
# GULP energy per Si atom -5566.730456 kJ/mol
# Density = 1.851909 g / cm^3
# Si number density = 18.561334 Si / 1000 Ang^3
#
#
#
# Elastic Constant Matrix: (Units=GPa)
#
#
# Indices 1 2 3 4 5 6 
#
# 1 83.9145 43.5456 22.1290 0.0000 12.5929 0.0000
# 2 43.5456 88.1934 41.6437 0.0000 5.4445 0.0000
# 3 22.1290 41.6437 90.6083 0.0000 17.0425 0.0000
# 4 0.0000 0.0000 0.0000 19.7956 0.0000 19.0094
# 5 12.5929 5.4445 17.0425 0.0000 15.7421 0.0000
# 6 0.0000 0.0000 0.0000 19.0094 0.0000 43.1707
#
#
#
# Elastic Compliance Matrix: (Units=1/GPa)
#
#
# Indices 1 2 3 4 5 6 
#
# 1 0.018181 -0.009271 0.002453 0.000000 -0.013993 0.000000
# 2 -0.009271 0.019305 -0.008473 0.000000 0.009912 0.000000
# 3 0.002453 -0.008473 0.017767 0.000000 -0.018267 0.000000
# 4 0.000000 0.000000 0.000000 0.087526 0.000000 -0.038540
# 5 -0.013993 0.009912 -0.018267 0.000000 0.091064 0.000000
# 6 0.000000 0.000000 0.000000 -0.038540 0.000000 0.040134
#
#
# Mechanical properties :
#
#
# Convention : Reuss Voigt Hill
#
# Bulk Modulus (GPa) = 40.53372 53.03921 46.78647
# Shear Modulus (GPa) = 15.98545 26.10155 21.04350
#
# Velocity S-wave (km/s) = 2.93784 3.75404 3.37074
# Velocity P-wave (km/s) = 5.77867 6.88677 6.35691
#
# Compressibility (1/GPa) = 0.02467082
#
# Stress axis : x y z
#
# Youngs Moduli (GPa) = 55.00245 51.79958 56.28285
#
# Poissons Ratio (x) = 0.48024 -0.13804
# Poissons Ratio (y) = 0.50994 0.47687
# Poissons Ratio (z) = -0.13490 0.43889
#
# Static dielectric constant tensor:
#      x y z
#    x 1.795060 0.000000 -0.007000 
#    y 0.000000 1.610480 0.000000 
#    z -0.007000 0.000000 1.643080 
# 
# From -- ./inp_files/125156.got.cif
#   From: 2010.05.17/outbox.cif.g08.bks.cpg/sg12_63_cif.got.tgz:125156.got - 2010.06.03 13:09:07.
