data_PCOD9194427
_publ_section_title
;
Structure prediction by ZEFSAII (Michael W. Deem and Ramdas Pophale) SiO2 
 PCOD9194427
Probable space group: C 2/M
;
_chemical_formula_sum "Si O2"
_cell_formula_units_Z 58
_cell_length_a 8.520733
_cell_length_b 12.278971
_cell_length_c 29.776974
_cell_angle_alpha 90.000000
_cell_angle_beta 92.013671
_cell_angle_gamma 90.000000
_cell_volume 3113.516847
_symmetry_space_group_name_H-M "C 2/M"
_symmetry_group_IT_number 12
_symmetry_cell_setting 'monoclinic'
loop_
_space_group_symop_operation_xyz
x,y,z
-x,y,-z
-x,-y,-z
x,-y,z
1/2+x,1/2+y,z
1/2-x,1/2+y,-z
1/2-x,1/2-y,-z
1/2+x,1/2-y,z
loop_
_atom_site_type_symbol
_atom_site_label
_atom_site_fract_x
_atom_site_fract_y
_atom_site_fract_z
Si Si1 0.072191 0.623150 0.415421
Si Si2 0.001688 0.877113 0.904637
Si Si3 0.871342 0.804387 0.466705
Si Si4 0.000000 0.500000 0.000000
Si Si5 0.594521 0.124266 0.309703
Si Si6 0.498116 0.622639 0.798173
Si Si7 0.692992 0.189704 0.954302
Si Si8 0.701098 0.211006 0.744754
O O1 0.016492 0.500000 0.424615
O O2 0.254304 0.631554 0.432845
O O3 0.065527 0.642771 0.362139
O O4 0.966219 0.711715 0.440180
O O5 0.841000 0.861549 0.930244
O O6 0.974918 0.865782 0.851209
O O7 0.116382 0.783115 0.922920
O O8 0.063888 0.000000 0.914038
O O9 0.750000 0.750000 0.500000
O O10 0.000000 0.862508 0.500000
O O11 0.926668 0.595935 0.032301
O O12 0.433251 0.141687 0.280810
O O13 0.716611 0.210409 0.290835
O O14 0.650082 0.000000 0.304671
O O15 0.555962 0.500000 0.790148
O O16 0.618484 0.711313 0.780499
O O17 0.335561 0.641782 0.770287
O O18 0.750000 0.250000 0.000000
#
# Coordination Sequence:
#
# PCOD9194427 Si02
#       8
#     8   8   8   2   8   8   8   8
#     4  10  20  35  54  78 108 140 182 225 273 320
#     4  11  24  39  61  84 114 147 186 228 274 328
#     4   9  19  34  52  75 105 141 181 222 266 321
#     4  12  24  40  60  84 116 144 186 234 276 328
#     4  10  20  34  56  82 107 142 179 223 271 324
#     4  10  21  38  57  83 111 145 181 222 267 327
#     4  12  24  40  60  85 113 147 187 228 279 328
#     4  10  20  36  58  80 113 142 178 221 273 321
#
# _framework density 18.628451999999999
#
# number of rings (size 3 to 8) (size 9 to 14) (size 15 to 20)
#    0.000    1.655    2.069    2.483    0.966    3.310 
#    0.000    2.069    1.517   11.586    0.000    0.000 
#    0.000    0.000    0.000    0.000    0.000    0.000 
#
# Total GULP energy -161582.918451 kJ/mol
# GULP energy per Si atom -5571.824774 kJ/mol
# Density = 1.858605 g / cm^3
# Si number density = 18.628452 Si / 1000 Ang^3
#
#
#
# Elastic Constant Matrix: (Units=GPa)
#
#
# Indices 1 2 3 4 5 6 
#
# 1 30.1627 1.8456 0.6600 0.0000 -2.6976 0.0000
# 2 1.8456 93.2472 37.0104 0.0000 0.1210 0.0000
# 3 0.6600 37.0104 83.2869 0.0000 -0.7907 0.0000
# 4 0.0000 0.0000 0.0000 -184.4612 0.0000 34.9851
# 5 -2.6976 0.1210 -0.7907 0.0000 22.7621 0.0000
# 6 0.0000 0.0000 0.0000 34.9851 0.0000 6.9630
#
#
#
# Elastic Compliance Matrix: (Units=1/GPa)
#
#
# Indices 1 2 3 4 5 6 
#
# 1 0.033551 -0.000703 0.000084 0.000000 0.003983 0.000000
# 2 -0.000703 0.013037 -0.005791 0.000000 -0.000354 0.000000
# 3 0.000084 -0.005791 0.014585 0.000000 0.000547 0.000000
# 4 0.000000 0.000000 0.000000 -0.002776 0.000000 0.013947
# 5 0.003983 -0.000354 0.000547 0.000000 0.044426 0.000000
# 6 0.000000 0.000000 0.000000 0.013947 0.000000 0.073538
#
#
# Mechanical properties :
#
#
# Convention : Reuss Voigt Hill
#
# Bulk Modulus (GPa) = 20.68105 31.74764 26.21434
# Shear Modulus (GPa) = 24.35490 -19.80181 2.27655
#
# Velocity S-wave (km/s) = 3.61973 -3.26389 1.10668
# Velocity P-wave (km/s) = 5.34751 1.69576 3.96683
#
# Compressibility (1/GPa) = 0.04835345
#
# Stress axis : x y z
#
# Youngs Moduli (GPa) = 29.80549 76.70427 68.56532
#
# Poissons Ratio (x) = 0.05389 -0.00577
# Poissons Ratio (y) = 0.02094 0.39707
# Poissons Ratio (z) = -0.00251 0.44420
#
# Static dielectric constant tensor:
#      x y z
#    x 1.639630 0.000000 0.021580 
#    y 0.000000 1.672710 0.000000 
#    z 0.021580 0.000000 1.621740 
# 
# From -- ./inp_files/355820.got.cif
#   From: 2010.05.17/outbox.cif.g08.bks.cpg/sg12_178_cif.got.tgz:355820.got - 2010.06.03 13:09:07.
