data_PCOD9194791
_publ_section_title
;
Structure prediction by ZEFSAII (Michael W. Deem and Ramdas Pophale) SiO2 
 PCOD9194791
Probable space group: C 2/M
;
_chemical_formula_sum "Si O2"
_cell_formula_units_Z 48
_cell_length_a 21.032339
_cell_length_b 8.767565
_cell_length_c 25.524116
_cell_angle_alpha 90.000000
_cell_angle_beta 145.560220
_cell_angle_gamma 90.000000
_cell_volume 2661.830534
_symmetry_space_group_name_H-M "C 2/M"
_symmetry_group_IT_number 12
_symmetry_cell_setting 'monoclinic'
loop_
_space_group_symop_operation_xyz
x,y,z
-x,y,-z
-x,-y,-z
x,-y,z
1/2+x,1/2+y,z
1/2-x,1/2+y,-z
1/2-x,1/2-y,-z
1/2+x,1/2-y,z
loop_
_atom_site_type_symbol
_atom_site_label
_atom_site_fract_x
_atom_site_fract_y
_atom_site_fract_z
Si Si1 0.146900 0.183664 0.397667
Si Si2 0.925795 0.317448 0.101487
Si Si3 0.338536 0.317074 0.714046
Si Si4 0.092406 0.815955 0.717079
Si Si5 0.274362 0.182454 0.098732
Si Si6 0.111386 0.815716 0.608012
O O1 0.250000 0.250000 0.500000
O O2 0.154679 0.230039 0.342391
O O3 0.028897 0.232015 0.342806
O O4 0.151311 0.000000 0.402833
O O5 0.930102 0.500000 0.101646
O O6 0.867571 0.274393 0.117741
O O7 0.049887 0.248916 0.183104
O O8 0.841985 0.253390 0.000532
O O9 0.340519 0.500000 0.718111
O O10 0.223784 0.254688 0.660333
O O11 0.185393 0.744352 0.818184
O O12 0.101595 0.773345 0.662493
O O13 0.099671 0.000000 0.725587
O O14 0.266081 0.000000 0.093704
O O15 0.000000 0.769118 0.500000
O O16 0.118570 0.000000 0.609727
#
# Coordination Sequence:
#
# PCOD9194791 Si02
#       6
#     8   8   8   8   8   8
#     4  10  21  35  55  82 111 145 188 238 287 334
#     4  10  20  35  58  86 117 153 189 230 284 348
#     4  11  22  37  58  85 117 150 189 241 290 337
#     4  10  20  37  58  82 114 152 192 235 283 342
#     4  10  20  34  57  88 118 149 186 236 289 339
#     4  10  22  40  61  82 113 158 199 235 283 345
#
# _framework density 18.032703000000001
#
# number of rings (size 3 to 8) (size 9 to 14) (size 15 to 20)
#    0.000    1.833    1.667    2.500    0.000    5.667 
#    0.000    0.833    0.000    5.000    0.000    0.000 
#    0.000    0.000    0.000    0.000    0.000    0.000 
#
# Total GULP energy -134068.740058 kJ/mol
# GULP energy per Si atom -5586.197502 kJ/mol
# Density = 1.799166 g / cm^3
# Si number density = 18.032703 Si / 1000 Ang^3
#
#
#
# Elastic Constant Matrix: (Units=GPa)
#
#
# Indices 1 2 3 4 5 6 
#
# 1 144.7754 45.9544 99.0633 0.0000 2.6298 0.0000
# 2 45.9544 29.2657 51.4947 0.0000 -0.7369 0.0000
# 3 99.0633 51.4947 198.7487 0.0000 0.8805 0.0000
# 4 0.0000 0.0000 0.0000 37.0667 0.0000 1.4688
# 5 2.6298 -0.7369 0.8805 0.0000 33.8140 0.0000
# 6 0.0000 0.0000 0.0000 1.4688 0.0000 27.3276
#
#
#
# Elastic Compliance Matrix: (Units=1/GPa)
#
#
# Indices 1 2 3 4 5 6 
#
# 1 0.014450 -0.018499 -0.002403 0.000000 -0.001464 0.000000
# 2 -0.018499 0.086590 -0.013231 0.000000 0.003670 0.000000
# 3 -0.002403 -0.013231 0.009659 0.000000 -0.000353 0.000000
# 4 0.000000 0.000000 0.000000 0.027036 0.000000 -0.001453
# 5 -0.001464 0.003670 -0.000353 0.000000 0.029777 0.000000
# 6 0.000000 0.000000 0.000000 -0.001453 0.000000 0.036671
#
#
# Mechanical properties :
#
#
# Convention : Reuss Voigt Hill
#
# Bulk Modulus (GPa) = 23.56611 85.09053 54.32832
# Shear Modulus (GPa) = 17.44639 31.39351 24.41995
#
# Velocity S-wave (km/s) = 3.11382 4.17696 3.68394
# Velocity P-wave (km/s) = 5.10144 8.39952 6.94898
#
# Compressibility (1/GPa) = 0.04243381
#
# Stress axis : x y z
#
# Youngs Moduli (GPa) = 69.20465 11.54865 103.53238
#
# Poissons Ratio (x) = 0.21363 0.24878
# Poissons Ratio (y) = 1.28020 1.36983
# Poissons Ratio (z) = 0.16629 0.15280
#
# Static dielectric constant tensor:
#      x y z
#    x 1.604910 0.000000 -0.006140 
#    y 0.000000 1.606580 0.000000 
#    z -0.006140 0.000000 1.590240 
# 
# From -- ./inp_files/365545.got.cif
#   From: 2010.05.17/outbox.cif.g08.bks.cpg/sg12_183_cif.got.tgz:365545.got - 2010.06.03 13:09:07.
