data_PCOD9194930
_publ_section_title
;
Structure prediction by ZEFSAII (Michael W. Deem and Ramdas Pophale) SiO2 
 PCOD9194930
Probable space group: C 2/M
;
_chemical_formula_sum "Si O2"
_cell_formula_units_Z 56
_cell_length_a 20.743159
_cell_length_b 8.867145
_cell_length_c 17.947769
_cell_angle_alpha 90.000000
_cell_angle_beta 71.527120
_cell_angle_gamma 90.000000
_cell_volume 3131.082343
_symmetry_space_group_name_H-M "C 2/M"
_symmetry_group_IT_number 12
_symmetry_cell_setting 'monoclinic'
loop_
_space_group_symop_operation_xyz
x,y,z
-x,y,-z
-x,-y,-z
x,-y,z
1/2+x,1/2+y,z
1/2-x,1/2+y,-z
1/2-x,1/2-y,-z
1/2+x,1/2-y,z
loop_
_atom_site_type_symbol
_atom_site_label
_atom_site_fract_x
_atom_site_fract_y
_atom_site_fract_z
Si Si1 0.828851 0.819020 0.664636
Si Si2 0.177455 0.181179 0.504958
Si Si3 0.578612 0.680715 0.674284
Si Si4 0.431039 0.179670 0.746611
Si Si5 0.185400 0.179748 0.766824
Si Si6 0.846335 0.820559 0.909156
Si Si7 0.189180 0.679348 0.923151
O O1 0.840100 0.780610 0.573753
O O2 0.884732 0.745775 0.697293
O O3 0.754896 0.758637 0.715175
O O4 0.830491 0.000000 0.672808
O O5 0.250000 0.250000 0.500000
O O6 0.120436 0.227458 0.585306
O O7 0.183497 0.000000 0.507593
O O8 0.566354 0.500000 0.674650
O O9 0.507797 0.765058 0.708003
O O10 0.627254 0.708978 0.727222
O O11 0.399852 0.245255 0.834403
O O12 0.426771 0.000000 0.748748
O O13 0.167253 0.243797 0.854500
O O14 0.196408 0.000000 0.766926
O O15 0.770349 0.793695 0.904144
O O16 0.856670 0.000000 0.908773
O O17 0.846214 0.750063 0.991472
O O18 0.178621 0.500000 0.924563
#
# Coordination Sequence:
#
# PCOD9194930 Si02
#       7
#     8   8   8   8   8   8   8
#     4  11  22  37  61  89 120 157 198 246 298 354
#     4  10  21  38  62  90 119 155 198 248 299 351
#     4  10  23  42  61  85 121 161 198 243 303 359
#     4  12  25  40  60  87 121 160 201 247 298 354
#     4  11  21  36  61  90 120 156 200 246 293 352
#     4  10  20  36  59  87 121 157 194 243 299 351
#     4  10  20  34  58  90 122 155 196 244 293 347
#
# _framework density 17.885189
#
# number of rings (size 3 to 8) (size 9 to 14) (size 15 to 20)
#    0.000    1.429    2.857    3.000    0.000    4.000 
#    0.000    3.571    0.000    4.286    0.000    0.000 
#    0.000    0.000    0.000    0.000    0.000    0.000 
#
# Total GULP energy -156501.863253 kJ/mol
# GULP energy per Si atom -5589.352259 kJ/mol
# Density = 1.784448 g / cm^3
# Si number density = 17.885189 Si / 1000 Ang^3
#
#
#
# Elastic Constant Matrix: (Units=GPa)
#
#
# Indices 1 2 3 4 5 6 
#
# 1 104.5935 64.9326 86.7419 0.0000 -9.1620 0.0000
# 2 64.9326 79.5533 77.7622 0.0000 -2.3578 0.0000
# 3 86.7419 77.7622 193.9158 0.0000 -2.4239 0.0000
# 4 0.0000 0.0000 0.0000 30.0661 0.0000 -2.2930
# 5 -9.1620 -2.3578 -2.4239 0.0000 27.0083 0.0000
# 6 0.0000 0.0000 0.0000 -2.2930 0.0000 30.9529
#
#
#
# Elastic Compliance Matrix: (Units=1/GPa)
#
#
# Indices 1 2 3 4 5 6 
#
# 1 0.022188 -0.013659 -0.004373 0.000000 0.005942 0.000000
# 2 -0.013659 0.029113 -0.005597 0.000000 -0.002594 0.000000
# 3 -0.004373 -0.005597 0.009343 0.000000 -0.001134 0.000000
# 4 0.000000 0.000000 0.000000 0.033449 0.000000 0.002478
# 5 0.005942 -0.002594 -0.001134 0.000000 0.038713 0.000000
# 6 0.000000 0.000000 0.000000 0.002478 0.000000 0.032491
#
#
# Mechanical properties :
#
#
# Convention : Reuss Voigt Hill
#
# Bulk Modulus (GPa) = 74.70830 92.99289 83.85059
# Shear Modulus (GPa) = 23.03950 27.51386 25.27668
#
# Velocity S-wave (km/s) = 3.59303 3.92645 3.76343
# Velocity P-wave (km/s) = 7.68602 8.52427 8.11597
#
# Compressibility (1/GPa) = 0.01338539
#
# Stress axis : x y z
#
# Youngs Moduli (GPa) = 45.06953 34.34863 107.02659
#
# Poissons Ratio (x) = 0.46917 0.46806
# Poissons Ratio (y) = 0.61561 0.59904
# Poissons Ratio (z) = 0.19710 0.19225
#
# Static dielectric constant tensor:
#      x y z
#    x 1.573870 0.000000 0.008110 
#    y 0.000000 1.595560 0.000000 
#    z 0.008110 0.000000 1.606230 
# 
# From -- ./inp_files/275253.got.cif
#   From: 2010.05.17/outbox.cif.g08.bks.cpg/sg12_138_cif.got.tgz:275253.got - 2010.06.03 13:09:07.
