data_PCOD9194670
_publ_section_title
;
Structure prediction by ZEFSAII (Michael W. Deem and Ramdas Pophale) SiO2 
 PCOD9194670
Probable space group: C 2/M
;
_chemical_formula_sum "Si O2"
_cell_formula_units_Z 48
_cell_length_a 24.843571
_cell_length_b 7.365848
_cell_length_c 20.753117
_cell_angle_alpha 90.000000
_cell_angle_beta 148.135653
_cell_angle_gamma 90.000000
_cell_volume 2004.841093
_symmetry_space_group_name_H-M "C 2/M"
_symmetry_group_IT_number 12
_symmetry_cell_setting 'monoclinic'
loop_
_space_group_symop_operation_xyz
x,y,z
-x,y,-z
-x,-y,-z
x,-y,z
1/2+x,1/2+y,z
1/2-x,1/2+y,-z
1/2-x,1/2-y,-z
1/2+x,1/2-y,z
loop_
_atom_site_type_symbol
_atom_site_label
_atom_site_fract_x
_atom_site_fract_y
_atom_site_fract_z
Si Si1 0.311930 0.281626 0.351756
Si Si2 0.551713 0.705369 0.245451
Si Si3 0.138262 0.778739 0.735481
Si Si4 0.433993 0.277631 0.599301
Si Si5 0.817767 0.715074 0.005864
Si Si6 0.919979 0.213327 0.867053
O O1 0.319671 0.500000 0.360823
O O2 0.371617 0.220869 0.348544
O O3 0.356028 0.218202 0.464724
O O4 0.194423 0.231689 0.224564
O O5 0.593287 0.500000 0.286365
O O6 0.586194 0.787048 0.348705
O O7 0.576740 0.791823 0.202000
O O8 0.428589 0.699351 0.123489
O O9 0.246938 0.721751 0.874939
O O10 0.045664 0.721771 0.687082
O O11 0.137267 0.000000 0.735461
O O12 0.434047 0.500000 0.601787
O O13 0.834160 0.500000 0.016006
O O14 0.750000 0.750000 0.000000
O O15 0.946241 0.000000 0.886439
O O16 0.000000 0.289631 0.000000
#
# Coordination Sequence:
#
# PCOD9194670 Si02
#       6
#     8   8   8   8   8   8
#     4  10  20  34  57  82 103 136 180 223 262 307
#     4  10  20  36  56  77 106 144 180 217 261 314
#     4   9  17  31  53  80 108 137 173 217 264 313
#     4   9  17  32  54  80 107 136 175 220 267 313
#     4  11  20  32  53  81 110 139 173 216 264 311
#     4  10  22  39  56  75 106 146 178 212 267 322
#
# _framework density 23.942049000000001
#
# number of rings (size 3 to 8) (size 9 to 14) (size 15 to 20)
#    0.000    2.167    1.667    2.000    0.000    3.667 
#    0.000    1.667    0.000    1.000    0.000    0.000 
#    0.000    0.000    0.000    0.000    0.000    0.000 
#
# Total GULP energy -134165.225899 kJ/mol
# GULP energy per Si atom -5590.217746 kJ/mol
# Density = 2.388756 g / cm^3
# Si number density = 23.942049 Si / 1000 Ang^3
#
#
#
# Elastic Constant Matrix: (Units=GPa)
#
#
# Indices 1 2 3 4 5 6 
#
# 1 117.0519 -0.4825 18.6752 0.0000 -49.8713 0.0000
# 2 -0.4825 91.8932 1.5242 0.0000 -11.8261 0.0000
# 3 18.6752 1.5242 109.2682 0.0000 -46.1811 0.0000
# 4 0.0000 0.0000 0.0000 3.5221 0.0000 8.1718
# 5 -49.8713 -11.8261 -46.1811 0.0000 49.9262 0.0000
# 6 0.0000 0.0000 0.0000 8.1718 0.0000 1.4501
#
#
#
# Elastic Compliance Matrix: (Units=1/GPa)
#
#
# Indices 1 2 3 4 5 6 
#
# 1 0.018894 0.003483 0.008287 0.000000 0.027364 0.000000
# 2 0.003483 0.012037 0.003140 0.000000 0.009235 0.000000
# 3 0.008287 0.003140 0.018889 0.000000 0.026494 0.000000
# 4 0.000000 0.000000 0.000000 -0.023514 0.000000 0.132507
# 5 0.027364 0.009235 0.026494 0.000000 0.074058 0.000000
# 6 0.000000 0.000000 0.000000 0.132507 0.000000 -0.057111
#
#
# Mechanical properties :
#
#
# Convention : Reuss Voigt Hill
#
# Bulk Modulus (GPa) = 12.55621 39.73854 26.14737
# Shear Modulus (GPa) = 125.06479 30.87945 77.97212
#
# Velocity S-wave (km/s) = 7.23532 3.59522 5.71294
# Velocity P-wave (km/s) = 8.66346 5.81962 7.37982
#
# Compressibility (1/GPa) = 0.07964189
#
# Stress axis : x y z
#
# Youngs Moduli (GPa) = 52.92609 83.07777 52.94039
#
# Poissons Ratio (x) = -0.28939 -0.43874
# Poissons Ratio (y) = -0.18436 -0.16623
# Poissons Ratio (z) = -0.43862 -0.26086
#
# Static dielectric constant tensor:
#      x y z
#    x 1.889550 0.000000 -0.045010 
#    y 0.000000 1.927750 0.000000 
#    z -0.045010 0.000000 1.890850 
# 
# From -- ./inp_files/327345.got.cif
#   From: 2010.05.17/outbox.cif.g08.bks.cpg/sg12_164_cif.got.tgz:327345.got - 2010.06.03 13:09:07.
