data_PCOD9194121
_publ_section_title
;
Structure prediction by ZEFSAII (Michael W. Deem and Ramdas Pophale) SiO2 
 PCOD9194121
Probable space group: C 2/M
;
_chemical_formula_sum "Si O2"
_cell_formula_units_Z 64
_cell_length_a 22.469061
_cell_length_b 8.350534
_cell_length_c 21.550055
_cell_angle_alpha 90.000000
_cell_angle_beta 128.427708
_cell_angle_gamma 90.000000
_cell_volume 3167.577366
_symmetry_space_group_name_H-M "C 2/M"
_symmetry_group_IT_number 12
_symmetry_cell_setting 'monoclinic'
loop_
_space_group_symop_operation_xyz
x,y,z
-x,y,-z
-x,-y,-z
x,-y,z
1/2+x,1/2+y,z
1/2-x,1/2+y,-z
1/2-x,1/2-y,-z
1/2+x,1/2-y,z
loop_
_atom_site_type_symbol
_atom_site_label
_atom_site_fract_x
_atom_site_fract_y
_atom_site_fract_z
Si Si1 0.498905 0.305931 0.926312
Si Si2 0.734810 0.308806 0.419279
Si Si3 0.090873 0.812844 0.246693
Si Si4 0.188695 0.182192 0.870945
Si Si5 0.967688 0.316980 0.253381
Si Si6 0.986160 0.311021 0.406919
Si Si7 0.340685 0.810694 0.014951
Si Si8 0.126231 0.186356 0.573577
O O1 0.504254 0.500000 0.923767
O O2 0.429225 0.252880 0.836023
O O3 0.500000 0.268882 0.000000
O O4 0.574766 0.224652 0.950201
O O5 0.728661 0.500000 0.420470
O O6 0.750000 0.250000 0.500000
O O7 0.658453 0.245241 0.334389
O O8 0.804347 0.265349 0.418424
O O9 0.012419 0.791730 0.233931
O O10 0.108949 0.000000 0.251509
O O11 0.122529 0.291422 0.802160
O O12 0.277128 0.225267 0.921472
O O13 0.176116 0.000000 0.842632
O O14 0.176217 0.200440 0.936855
O O15 0.984007 0.500000 0.246603
O O16 0.994865 0.283420 0.340045
O O17 0.998087 0.500000 0.426546
O O18 0.904150 0.263614 0.381936
O O19 0.052048 0.211546 0.482634
O O20 0.332148 0.000000 0.025219
O O21 0.142289 0.000000 0.593307
#
# Coordination Sequence:
#
# PCOD9194121 Si02
#       8
#     8   8   8   8   8   8   8   8
#     4  10  21  39  61  84 113 155 200 242 296 357
#     4  11  23  40  62  89 123 160 203 247 297 355
#     4  10  22  39  60  85 116 155 196 245 298 351
#     4  10  20  34  55  81 115 148 180 230 290 345
#     4  11  22  35  57  88 116 147 191 240 293 352
#     4  10  21  38  60  86 117 154 193 239 296 354
#     4  10  20  35  56  83 111 144 188 236 287 340
#     4  11  22  38  60  86 117 155 198 240 292 355
#
# _framework density 20.204716000000001
#
# number of rings (size 3 to 8) (size 9 to 14) (size 15 to 20)
#    0.000    1.625    1.250    4.500    0.000    6.750 
#    2.250    0.000    0.000    0.000    0.000    0.000 
#    0.000    0.000    0.000    0.000    0.000    0.000 
#
# Total GULP energy -178382.851072 kJ/mol
# GULP energy per Si atom -5574.464096 kJ/mol
# Density = 2.015873 g / cm^3
# Si number density = 20.204716 Si / 1000 Ang^3
#
#
#
# Elastic Constant Matrix: (Units=GPa)
#
#
# Indices 1 2 3 4 5 6 
#
# 1 57.1847 3.0461 31.7082 0.0000 9.7210 0.0000
# 2 3.0461 28.0737 10.9190 0.0000 -2.4774 0.0000
# 3 31.7082 10.9190 112.0124 0.0000 5.4760 0.0000
# 4 0.0000 0.0000 0.0000 19.8888 0.0000 15.2319
# 5 9.7210 -2.4774 5.4760 0.0000 30.2427 0.0000
# 6 0.0000 0.0000 0.0000 15.2319 0.0000 -25.6018
#
#
#
# Elastic Compliance Matrix: (Units=1/GPa)
#
#
# Indices 1 2 3 4 5 6 
#
# 1 0.021759 -0.000632 -0.005805 0.000000 -0.005995 0.000000
# 2 -0.000632 0.037462 -0.003665 0.000000 0.003936 0.000000
# 3 -0.005805 -0.003665 0.010948 0.000000 -0.000417 0.000000
# 4 0.000000 0.000000 0.000000 0.034541 0.000000 0.020550
# 5 -0.005995 0.003936 -0.000417 0.000000 0.035391 0.000000
# 6 0.000000 0.000000 0.000000 0.020550 0.000000 -0.026833
#
#
# Mechanical properties :
#
#
# Convention : Reuss Voigt Hill
#
# Bulk Modulus (GPa) = 20.01415 32.06860 26.04137
# Shear Modulus (GPa) = 33.30523 15.01242 24.15882
#
# Velocity S-wave (km/s) = 4.06444 2.72879 3.46164
# Velocity P-wave (km/s) = 5.65274 5.08278 5.37532
#
# Compressibility (1/GPa) = 0.04996466
#
# Stress axis : x y z
#
# Youngs Moduli (GPa) = 45.95895 26.69376 91.33741
#
# Poissons Ratio (x) = 0.01688 0.53018
# Poissons Ratio (y) = 0.02906 0.33477
# Poissons Ratio (z) = 0.26678 0.09784
#
# Static dielectric constant tensor:
#      x y z
#    x 1.703800 0.000000 0.010200 
#    y 0.000000 1.707600 0.000000 
#    z 0.010200 0.000000 1.786760 
# 
# From -- ./inp_files/324267.got.cif
#   From: 2010.05.17/outbox.cif.g08.bks.cpg/sg12_163_cif.got.tgz:324267.got - 2010.06.03 13:09:07.
