data_PCOD9194734
_publ_section_title
;
Structure prediction by ZEFSAII (Michael W. Deem and Ramdas Pophale) SiO2 
 PCOD9194734
Probable space group: C 2/M
;
_chemical_formula_sum "Si O2"
_cell_formula_units_Z 64
_cell_length_a 25.339694
_cell_length_b 29.185360
_cell_length_c 9.598380
_cell_angle_alpha 90.000000
_cell_angle_beta 151.691624
_cell_angle_gamma 90.000000
_cell_volume 3366.211550
_symmetry_space_group_name_H-M "C 2/M"
_symmetry_group_IT_number 12
_symmetry_cell_setting 'monoclinic'
loop_
_space_group_symop_operation_xyz
x,y,z
-x,y,-z
-x,-y,-z
x,-y,z
1/2+x,1/2+y,z
1/2-x,1/2+y,-z
1/2-x,1/2-y,-z
1/2+x,1/2-y,z
loop_
_atom_site_type_symbol
_atom_site_label
_atom_site_fract_x
_atom_site_fract_y
_atom_site_fract_z
Si Si1 0.206265 0.555442 0.131530
Si Si2 0.537033 0.553330 0.243254
Si Si3 0.083490 0.102766 0.810235
Si Si4 0.517560 0.216808 0.878889
Si Si5 0.033891 0.610729 0.916339
Si Si6 0.797483 0.705882 0.188490
Si Si7 0.823415 0.606739 0.219809
Si Si8 0.070330 0.204981 0.798464
O O1 0.199237 0.500000 0.126664
O O2 0.336316 0.570738 0.441821
O O3 0.131452 0.579628 0.077274
O O4 0.165657 0.572937 0.885241
O O5 0.544191 0.500000 0.294326
O O6 0.438158 0.574000 0.104081
O O7 0.500000 0.559345 0.000000
O O8 0.030484 0.152998 0.727437
O O9 0.000000 0.083874 0.500000
O O10 0.206756 0.100034 0.031542
O O11 0.565377 0.165124 0.980145
O O12 0.401711 0.215816 0.526487
O O13 0.575703 0.258375 0.933444
O O14 0.500000 0.227037 0.000000
O O15 0.925199 0.603784 0.565330
O O16 0.000000 0.601962 0.000000
O O17 0.822070 0.659654 0.159934
O O18 0.750000 0.750000 0.000000
O O19 0.695815 0.694383 0.050934
O O20 0.000000 0.222919 0.500000
#
# Coordination Sequence:
#
# PCOD9194734 Si02
#       8
#     8   8   8   8   8   8   8   8
#     4  11  24  42  64  92 121 154 204 253 299 359
#     4  10  23  41  62  91 124 158 196 243 302 366
#     4  10  20  38  60  89 123 154 199 248 300 357
#     4  10  22  39  56  84 120 154 198 245 295 351
#     4  10  24  42  61  86 120 162 203 250 306 359
#     4  10  20  35  59  84 115 155 198 237 287 348
#     4  10  22  39  62  89 121 157 202 251 296 353
#     4  10  20  34  57  86 116 152 197 240 285 350
#
# _framework density 19.012471999999999
#
# number of rings (size 3 to 8) (size 9 to 14) (size 15 to 20)
#    0.000    1.875    2.500    0.375    3.500    3.000 
#    0.000    0.000    0.000    0.000    0.000    0.000 
#    0.000    0.000    0.000    0.000    0.000    0.000 
#
# Total GULP energy -178161.003997 kJ/mol
# GULP energy per Si atom -5567.531375 kJ/mol
# Density = 1.896920 g / cm^3
# Si number density = 19.012472 Si / 1000 Ang^3
#
#
#
# Elastic Constant Matrix: (Units=GPa)
#
#
# Indices 1 2 3 4 5 6 
#
# 1 94.6865 42.2724 1.5482 0.0000 -13.0503 0.0000
# 2 42.2724 70.3695 4.4172 0.0000 -6.0140 0.0000
# 3 1.5482 4.4172 27.8529 0.0000 -2.8760 0.0000
# 4 0.0000 0.0000 0.0000 38.5129 0.0000 25.3352
# 5 -13.0503 -6.0140 -2.8760 0.0000 30.9690 0.0000
# 6 0.0000 0.0000 0.0000 25.3352 0.0000 54.7362
#
#
#
# Elastic Compliance Matrix: (Units=1/GPa)
#
#
# Indices 1 2 3 4 5 6 
#
# 1 0.015097 -0.008727 0.001037 0.000000 0.004763 0.000000
# 2 -0.008727 0.019609 -0.002636 0.000000 -0.000114 0.000000
# 3 0.001037 -0.002636 0.036607 0.000000 0.003324 0.000000
# 4 0.000000 0.000000 0.000000 0.037333 0.000000 -0.017280
# 5 0.004763 -0.000114 0.003324 0.000000 0.034584 0.000000
# 6 0.000000 0.000000 0.000000 -0.017280 0.000000 0.026268
#
#
# Mechanical properties :
#
#
# Convention : Reuss Voigt Hill
#
# Bulk Modulus (GPa) = 19.73988 32.15385 25.94686
# Shear Modulus (GPa) = 24.15032 34.48835 29.31934
#
# Velocity S-wave (km/s) = 3.56790 4.26371 3.93123
# Velocity P-wave (km/s) = 5.23244 6.41776 5.85517
#
# Compressibility (1/GPa) = 0.05065886
#
# Stress axis : x y z
#
# Youngs Moduli (GPa) = 66.23905 50.99733 27.31741
#
# Poissons Ratio (x) = 0.44505 -0.02832
# Poissons Ratio (y) = 0.57807 0.07202
# Poissons Ratio (z) = -0.06867 0.13445
#
# Static dielectric constant tensor:
#      x y z
#    x 1.690160 0.000000 0.021630 
#    y 0.000000 1.801300 0.000000 
#    z 0.021630 0.000000 1.672520 
# 
# From -- ./inp_files/100249.got.cif
#   From: 2010.05.17/outbox.cif.g08.bks.cpg/sg12_51_cif.got.tgz:100249.got - 2010.06.03 13:09:07.
