data_PCOD9194893
_publ_section_title
;
Structure prediction by ZEFSAII (Michael W. Deem and Ramdas Pophale) SiO2 
 PCOD9194893
Probable space group: C 2/M
;
_chemical_formula_sum "Si O2"
_cell_formula_units_Z 58
_cell_length_a 9.995287
_cell_length_b 14.908974
_cell_length_c 17.625102
_cell_angle_alpha 90.000000
_cell_angle_beta 77.342702
_cell_angle_gamma 90.000000
_cell_volume 2562.654950
_symmetry_space_group_name_H-M "C 2/M"
_symmetry_group_IT_number 12
_symmetry_cell_setting 'monoclinic'
loop_
_space_group_symop_operation_xyz
x,y,z
-x,y,-z
-x,-y,-z
x,-y,z
1/2+x,1/2+y,z
1/2-x,1/2+y,-z
1/2-x,1/2-y,-z
1/2+x,1/2-y,z
loop_
_atom_site_type_symbol
_atom_site_label
_atom_site_fract_x
_atom_site_fract_y
_atom_site_fract_z
Si Si1 0.528545 0.098443 0.356597
Si Si2 0.609820 0.146464 0.901395
Si Si3 0.401702 0.732032 0.449316
Si Si4 0.917528 0.155863 0.125209
Si Si5 0.191121 0.190950 0.699815
Si Si6 0.500000 0.500000 0.000000
Si Si7 0.689788 0.901620 0.050636
Si Si8 0.285597 0.897527 0.271565
O O1 0.469528 0.173089 0.419607
O O2 0.680852 0.125212 0.316180
O O3 0.434425 0.098683 0.293305
O O4 0.521851 0.000000 0.391663
O O5 0.543479 0.244367 0.902824
O O6 0.471920 0.088535 0.918257
O O7 0.700375 0.116300 0.819760
O O8 0.696074 0.141623 0.967380
O O9 0.500000 0.687991 0.500000
O O10 0.250000 0.750000 0.500000
O O11 0.386299 0.683196 0.370636
O O12 0.904917 0.162892 0.217739
O O13 0.762144 0.145980 0.111178
O O14 0.996486 0.080373 0.068885
O O15 0.252896 0.294327 0.697139
O O16 0.762334 0.000000 0.036394
O O17 0.226410 0.000000 0.294038
#
# Coordination Sequence:
#
# PCOD9194893 Si02
#       8
#     8   8   8   8   8   2   8   8
#     4  10  21  38  70 104 140 189 249 293 347 442
#     4  10  20  34  58  86 123 158 223 285 354 409
#     4  11  22  44  74 109 147 192 237 299 371 445
#     4  11  24  40  61  92 129 183 232 294 355 426
#     4  10  22  39  66 104 136 185 245 300 365 424
#     4  12  24  44  64  86 140 182 240 296 364 414
#     4  11  20  35  57  84 113 161 218 282 342 406
#     4   9  18  35  59  91 132 174 228 293 355 427
#
# _framework density 22.632777999999998
#
# number of rings (size 3 to 8) (size 9 to 14) (size 15 to 20)
#    0.000    1.655    2.069    3.724    0.966    1.379 
#    0.000    2.759    0.000    5.793    0.000    0.000 
#    0.000    0.000    0.000    0.000    0.000    0.000 
#
# Total GULP energy -161513.381436 kJ/mol
# GULP energy per Si atom -5569.426946 kJ/mol
# Density = 2.258126 g / cm^3
# Si number density = 22.632778 Si / 1000 Ang^3
#
#
#
# Elastic Constant Matrix: (Units=GPa)
#
#
# Indices 1 2 3 4 5 6 
#
# 1 41.2072 -7.7612 22.6078 0.0000 5.4457 0.0000
# 2 -7.7612 102.8138 11.4926 0.0000 -8.2387 0.0000
# 3 22.6078 11.4926 146.3507 0.0000 24.5748 0.0000
# 4 0.0000 0.0000 0.0000 7.0791 0.0000 -5.1621
# 5 5.4457 -8.2387 24.5748 0.0000 30.2595 0.0000
# 6 0.0000 0.0000 0.0000 -5.1621 0.0000 32.4482
#
#
#
# Elastic Compliance Matrix: (Units=1/GPa)
#
#
# Indices 1 2 3 4 5 6 
#
# 1 0.027172 0.002467 -0.004264 0.000000 -0.000755 0.000000
# 2 0.002467 0.010433 -0.001856 0.000000 0.003904 0.000000
# 3 -0.004264 -0.001856 0.008792 0.000000 -0.006878 0.000000
# 4 0.000000 0.000000 0.000000 0.159798 0.000000 0.025422
# 5 -0.000755 0.003904 -0.006878 0.000000 0.039832 0.000000
# 6 0.000000 0.000000 0.000000 0.025422 0.000000 0.034863
#
#
# Mechanical properties :
#
#
# Convention : Reuss Voigt Hill
#
# Bulk Modulus (GPa) = 25.58133 38.11667 31.84900
# Shear Modulus (GPa) = 16.59883 31.55955 24.07919
#
# Velocity S-wave (km/s) = 2.71107 3.73824 3.26530
# Velocity P-wave (km/s) = 4.59643 5.95907 5.32155
#
# Compressibility (1/GPa) = 0.03909100
#
# Stress axis : x y z
#
# Youngs Moduli (GPa) = 36.80299 95.85111 113.73455
#
# Poissons Ratio (x) = -0.23649 0.48501
# Poissons Ratio (y) = -0.09080 0.21108
# Poissons Ratio (z) = 0.15694 0.17789
#
# Static dielectric constant tensor:
#      x y z
#    x 1.651540 0.000000 0.050450 
#    y 0.000000 1.915590 0.000000 
#    z 0.050450 0.000000 1.869650 
# 
# From -- ./inp_files/262887.got.cif
#   From: 2010.05.17/outbox.cif.g08.bks.cpg/sg12_132_cif.got.tgz:262887.got - 2010.06.03 13:09:07.
