data_PCOD9194060
_publ_section_title
;
Structure prediction by ZEFSAII (Michael W. Deem and Ramdas Pophale) SiO2 
 PCOD9194060
Probable space group: C 2/M
;
_chemical_formula_sum "Si O2"
_cell_formula_units_Z 56
_cell_length_a 16.770751
_cell_length_b 12.710374
_cell_length_c 16.738428
_cell_angle_alpha 90.000000
_cell_angle_beta 63.035632
_cell_angle_gamma 90.000000
_cell_volume 3180.122892
_symmetry_space_group_name_H-M "C 2/M"
_symmetry_group_IT_number 12
_symmetry_cell_setting 'monoclinic'
loop_
_space_group_symop_operation_xyz
x,y,z
-x,y,-z
-x,-y,-z
x,-y,z
1/2+x,1/2+y,z
1/2-x,1/2+y,-z
1/2-x,1/2-y,-z
1/2+x,1/2-y,z
loop_
_atom_site_type_symbol
_atom_site_label
_atom_site_fract_x
_atom_site_fract_y
_atom_site_fract_z
Si Si1 0.032910 0.251302 0.154214
Si Si2 0.265819 0.746357 0.681661
Si Si3 0.175264 0.218258 0.969824
Si Si4 0.402010 0.624460 0.508130
Si Si5 0.824460 0.622521 0.803125
Si Si6 0.104494 0.874749 0.677377
Si Si7 0.129183 0.624560 0.852334
O O1 0.102426 0.321361 0.173636
O O2 0.978812 0.174664 0.237197
O O3 0.960936 0.326261 0.143686
O O4 0.088796 0.189003 0.061046
O O5 0.330055 0.692097 0.588815
O O6 0.319421 0.815330 0.722116
O O7 0.193093 0.820700 0.672327
O O8 0.209754 0.659206 0.756844
O O9 0.226160 0.137416 0.888582
O O10 0.148626 0.317451 0.927113
O O11 0.250000 0.250000 0.000000
O O12 0.500000 0.643409 0.500000
O O13 0.382021 0.500000 0.526727
O O14 0.402364 0.648076 0.413759
O O15 0.844178 0.500000 0.784429
O O16 0.107378 0.000000 0.687040
O O17 0.123322 0.500000 0.863406
#
# Coordination Sequence:
#
# PCOD9194060 Si02
#       7
#     8   8   8   8   8   8   8
#     4  10  20  35  54  80 109 137 177 223 262 310
#     4  10  20  36  55  78 110 140 174 217 261 316
#     4   9  20  34  49  76 107 138 176 214 259 312
#     4  10  20  35  57  82 106 136 175 219 267 313
#     4  10  20  35  54  76 106 143 178 215 265 318
#     4  10  21  36  56  80 106 141 177 213 265 319
#     4  10  20  34  55  80 106 139 178 221 265 308
#
# _framework density 17.609383000000001
#
# number of rings (size 3 to 8) (size 9 to 14) (size 15 to 20)
#    0.000    2.143    0.000    3.000    0.000    4.000 
#    0.000    7.143    0.000   15.429    0.000    0.000 
#    0.000    0.000    0.000    0.000    0.000    0.000 
#
# Total GULP energy -156248.693602 kJ/mol
# GULP energy per Si atom -5580.310486 kJ/mol
# Density = 1.756930 g / cm^3
# Si number density = 17.609383 Si / 1000 Ang^3
#
#
#
# Elastic Constant Matrix: (Units=GPa)
#
#
# Indices 1 2 3 4 5 6 
#
# 1 100.4780 53.4441 63.7799 0.0000 9.3468 0.0000
# 2 53.4441 69.1704 64.2151 0.0000 -4.1860 0.0000
# 3 63.7799 64.2151 150.4104 0.0000 -8.6575 0.0000
# 4 0.0000 0.0000 0.0000 8.0688 0.0000 1.9205
# 5 9.3468 -4.1860 -8.6575 0.0000 34.4939 0.0000
# 6 0.0000 0.0000 0.0000 1.9205 0.0000 19.4747
#
#
#
# Elastic Compliance Matrix: (Units=1/GPa)
#
#
# Indices 1 2 3 4 5 6 
#
# 1 0.019323 -0.012220 -0.003413 0.000000 -0.007576 0.000000
# 2 -0.012220 0.031682 -0.008048 0.000000 0.005136 0.000000
# 3 -0.003413 -0.008048 0.011698 0.000000 0.002884 0.000000
# 4 0.000000 0.000000 0.000000 0.126914 0.000000 -0.012516
# 5 -0.007576 0.005136 0.002884 0.000000 0.032391 0.000000
# 6 0.000000 0.000000 0.000000 -0.012516 0.000000 0.052583
#
#
# Mechanical properties :
#
#
# Convention : Reuss Voigt Hill
#
# Bulk Modulus (GPa) = 65.18938 75.88190 70.53564
# Shear Modulus (GPa) = 15.28744 21.64878 18.46811
#
# Velocity S-wave (km/s) = 2.94962 3.51007 3.24198
# Velocity P-wave (km/s) = 6.97857 7.72093 7.35911
#
# Compressibility (1/GPa) = 0.01533992
#
# Stress axis : x y z
#
# Youngs Moduli (GPa) = 51.75090 31.56402 85.48693
#
# Poissons Ratio (x) = 0.38572 0.29174
# Poissons Ratio (y) = 0.63241 0.68803
# Poissons Ratio (z) = 0.17661 0.25404
#
# Static dielectric constant tensor:
#      x y z
#    x 1.590180 0.000000 -0.005570 
#    y 0.000000 1.553720 0.000000 
#    z -0.005570 0.000000 1.602650 
# 
# From -- ./inp_files/223736.got.cif
#   From: 2010.05.17/outbox.cif.g08.bks.cpg/sg12_112_cif.got.tgz:223736.got - 2010.06.03 13:09:07.
