data_PCOD9194953
_publ_section_title
;
Structure prediction by ZEFSAII (Michael W. Deem and Ramdas Pophale) SiO2 
 PCOD9194953
Probable space group: C 2/M
;
_chemical_formula_sum "Si O2"
_cell_formula_units_Z 58
_cell_length_a 24.374818
_cell_length_b 7.922276
_cell_length_c 21.189173
_cell_angle_alpha 90.000000
_cell_angle_beta 136.091977
_cell_angle_gamma 90.000000
_cell_volume 2837.615350
_symmetry_space_group_name_H-M "C 2/M"
_symmetry_group_IT_number 12
_symmetry_cell_setting 'monoclinic'
loop_
_space_group_symop_operation_xyz
x,y,z
-x,y,-z
-x,-y,-z
x,-y,z
1/2+x,1/2+y,z
1/2-x,1/2+y,-z
1/2-x,1/2-y,-z
1/2+x,1/2-y,z
loop_
_atom_site_type_symbol
_atom_site_label
_atom_site_fract_x
_atom_site_fract_y
_atom_site_fract_z
Si Si1 0.511236 0.802314 0.328251
Si Si2 0.814034 0.196794 0.502234
Si Si3 0.627383 0.698440 0.865939
Si Si4 0.500000 0.500000 0.000000
Si Si5 0.631246 0.794291 0.130081
Si Si6 0.937105 0.297420 0.395817
Si Si7 0.211702 0.298188 0.061444
Si Si8 0.280486 0.702466 0.335314
O O1 0.597935 0.725992 0.399490
O O2 0.455564 0.777444 0.222040
O O3 0.463076 0.732782 0.348845
O O4 0.523470 0.000000 0.347945
O O5 0.750000 0.250000 0.500000
O O6 0.800935 0.274408 0.421601
O O7 0.803156 0.000000 0.484195
O O8 0.620024 0.500000 0.848646
O O9 0.700214 0.766119 0.883078
O O10 0.653495 0.727828 0.959481
O O11 0.562794 0.653784 0.073596
O O12 0.679118 0.766487 0.103903
O O13 0.693608 0.757513 0.237604
O O14 0.610193 0.000000 0.114699
O O15 0.942942 0.500000 0.399515
O O16 0.848986 0.255424 0.343786
O O17 0.000000 0.233946 0.500000
O O18 0.214257 0.500000 0.054906
O O19 0.284417 0.500000 0.339964
#
# Coordination Sequence:
#
# PCOD9194953 Si02
#       8
#     8   8   8   2   8   8   8   8
#     4  11  22  38  58  89 128 165 205 252 308 365
#     4  11  24  43  63  86 120 165 210 255 304 366
#     4  10  20  35  60  92 126 163 207 250 306 384
#     4  12  26  44  68  98 118 168 218 264 330 380
#     4  10  23  45  67  95 131 164 211 275 324 383
#     4  10  20  34  58  93 129 162 200 257 307 365
#     4   9  19  38  62  89 127 165 198 254 322 376
#     4  10  22  41  66  93 124 164 207 255 325 380
#
# _framework density 20.439696999999999
#
# number of rings (size 3 to 8) (size 9 to 14) (size 15 to 20)
#    0.000    1.793    1.379    2.276    1.931    3.586 
#    2.483    0.000    0.000    0.000    0.000    0.000 
#    0.000    0.000    0.000    0.000    0.000    0.000 
#
# Total GULP energy -161605.592953 kJ/mol
# GULP energy per Si atom -5572.606654 kJ/mol
# Density = 2.039318 g / cm^3
# Si number density = 20.439697 Si / 1000 Ang^3
#
#
#
# Elastic Constant Matrix: (Units=GPa)
#
#
# Indices 1 2 3 4 5 6 
#
# 1 63.1026 12.5460 38.7158 0.0000 12.2220 0.0000
# 2 12.5460 50.9414 20.2003 0.0000 10.0397 0.0000
# 3 38.7158 20.2003 93.1850 0.0000 20.4014 0.0000
# 4 0.0000 0.0000 0.0000 21.7975 0.0000 9.7319
# 5 12.2220 10.0397 20.4014 0.0000 22.3506 0.0000
# 6 0.0000 0.0000 0.0000 9.7319 0.0000 24.6420
#
#
#
# Elastic Compliance Matrix: (Units=1/GPa)
#
#
# Indices 1 2 3 4 5 6 
#
# 1 0.021723 -0.001443 -0.007815 0.000000 -0.004096 0.000000
# 2 -0.001443 0.022418 -0.002785 0.000000 -0.006739 0.000000
# 3 -0.007815 -0.002785 0.016712 0.000000 -0.009730 0.000000
# 4 0.000000 0.000000 0.000000 0.055698 0.000000 -0.021997
# 5 -0.004096 -0.006739 -0.009730 0.000000 0.058891 0.000000
# 6 0.000000 0.000000 0.000000 -0.021997 0.000000 0.049268
#
#
# Mechanical properties :
#
#
# Convention : Reuss Voigt Hill
#
# Bulk Modulus (GPa) = 27.19882 38.90593 33.05237
# Shear Modulus (GPa) = 19.15324 22.80914 20.98119
#
# Velocity S-wave (km/s) = 3.06447 3.34417 3.20737
# Velocity P-wave (km/s) = 5.08498 5.82985 5.47011
#
# Compressibility (1/GPa) = 0.03676630
#
# Stress axis : x y z
#
# Youngs Moduli (GPa) = 46.03490 44.60650 59.83582
#
# Poissons Ratio (x) = 0.06439 0.46764
# Poissons Ratio (y) = 0.06645 0.16662
# Poissons Ratio (z) = 0.35978 0.12421
#
# Static dielectric constant tensor:
#      x y z
#    x 1.691000 0.000000 0.011160 
#    y 0.000000 1.725670 0.000000 
#    z 0.011160 0.000000 1.703990 
# 
# From -- ./inp_files/324654.got.cif
#   From: 2010.05.17/outbox.cif.g08.bks.cpg/sg12_163_cif.got.tgz:324654.got - 2010.06.03 13:09:07.
