data_PCOD9194902
_publ_section_title
;
Structure prediction by ZEFSAII (Michael W. Deem and Ramdas Pophale) SiO2 
 PCOD9194902
Probable space group: C 2/M
;
_chemical_formula_sum "Si O2"
_cell_formula_units_Z 64
_cell_length_a 19.963304
_cell_length_b 9.135809
_cell_length_c 21.867452
_cell_angle_alpha 90.000000
_cell_angle_beta 118.334976
_cell_angle_gamma 90.000000
_cell_volume 3510.370451
_symmetry_space_group_name_H-M "C 2/M"
_symmetry_group_IT_number 12
_symmetry_cell_setting 'monoclinic'
loop_
_space_group_symop_operation_xyz
x,y,z
-x,y,-z
-x,-y,-z
x,-y,z
1/2+x,1/2+y,z
1/2-x,1/2+y,-z
1/2-x,1/2-y,-z
1/2+x,1/2-y,z
loop_
_atom_site_type_symbol
_atom_site_label
_atom_site_fract_x
_atom_site_fract_y
_atom_site_fract_z
Si Si1 0.099995 0.172950 0.794151
Si Si2 0.515530 0.175168 0.937121
Si Si3 0.117003 0.328585 0.438067
Si Si4 0.312723 0.826666 0.657993
Si Si5 0.325027 0.175489 0.059576
Si Si6 0.438412 0.829009 0.344986
Si Si7 0.864076 0.172398 0.425049
Si Si8 0.438728 0.671930 0.792510
O O1 0.153971 0.256213 0.865450
O O2 0.100689 0.242263 0.727312
O O3 0.014184 0.191476 0.783298
O O4 0.117097 0.000000 0.800150
O O5 0.601589 0.206711 0.951846
O O6 0.459039 0.252254 0.865276
O O7 0.505081 0.000000 0.928316
O O8 0.500000 0.220160 0.000000
O O9 0.132791 0.500000 0.458761
O O10 0.169012 0.280403 0.403850
O O11 0.126994 0.233964 0.502909
O O12 0.029602 0.318162 0.378425
O O13 0.223904 0.806895 0.632061
O O14 0.367374 0.742989 0.727807
O O15 0.330536 0.000000 0.668840
O O16 0.316409 0.000000 0.059954
O O17 0.250000 0.250000 0.000000
O O18 0.415569 0.759757 0.399718
O O19 0.417860 0.000000 0.333975
O O20 0.881873 0.000000 0.431229
O O21 0.426825 0.500000 0.795884
#
# Coordination Sequence:
#
# PCOD9194902 Si02
#       8
#     8   8   8   8   8   8   8   8
#     4  10  20  36  59  86 114 146 190 236 281 334
#     4   9  19  37  60  84 112 150 190 227 274 332
#     4  10  21  38  61  83 107 146 193 234 280 339
#     4  10  21  39  59  81 112 151 190 230 280 339
#     4  10  20  36  59  86 116 150 189 231 280 333
#     4  11  22  38  60  83 112 149 189 233 284 338
#     4  11  24  38  55  83 117 150 185 234 288 335
#     4  10  20  34  58  88 114 145 186 237 282 325
#
# _framework density 18.231693
#
# number of rings (size 3 to 8) (size 9 to 14) (size 15 to 20)
#    0.000    1.875    1.250    2.625    0.000    5.750 
#    2.250    0.000    0.000    0.000    0.000    0.000 
#    0.000    0.000    0.000    0.000    0.000    0.000 
#
# Total GULP energy -178753.976950 kJ/mol
# GULP energy per Si atom -5586.061780 kJ/mol
# Density = 1.819020 g / cm^3
# Si number density = 18.231693 Si / 1000 Ang^3
#
#
#
# Elastic Constant Matrix: (Units=GPa)
#
#
# Indices 1 2 3 4 5 6 
#
# 1 20.1419 12.3972 -3.8173 0.0000 -5.5942 0.0000
# 2 12.3972 63.5459 38.6331 0.0000 6.0733 0.0000
# 3 -3.8173 38.6331 91.3429 0.0000 0.7612 0.0000
# 4 0.0000 0.0000 0.0000 39.0606 0.0000 2.8792
# 5 -5.5942 6.0733 0.7612 0.0000 27.9125 0.0000
# 6 0.0000 0.0000 0.0000 2.8792 0.0000 21.9405
#
#
#
# Elastic Compliance Matrix: (Units=1/GPa)
#
#
# Indices 1 2 3 4 5 6 
#
# 1 0.072041 -0.023729 0.012886 0.000000 0.019250 0.000000
# 2 -0.023729 0.029545 -0.013397 0.000000 -0.010819 0.000000
# 3 0.012886 -0.013397 0.017111 0.000000 0.005031 0.000000
# 4 0.000000 0.000000 0.000000 0.025851 0.000000 -0.003392
# 5 0.019250 -0.010819 0.005031 0.000000 0.041901 0.000000
# 6 0.000000 0.000000 0.000000 -0.003392 0.000000 0.046023
#
#
# Mechanical properties :
#
#
# Convention : Reuss Voigt Hill
#
# Bulk Modulus (GPa) = 14.24155 29.93964 22.09059
# Shear Modulus (GPa) = 16.42806 26.30390 21.36598
#
# Velocity S-wave (km/s) = 3.00504 3.80248 3.42704
# Velocity P-wave (km/s) = 4.45744 5.97795 5.27279
#
# Compressibility (1/GPa) = 0.07021710
#
# Stress axis : x y z
#
# Youngs Moduli (GPa) = 13.88097 33.84681 58.44288
#
# Poissons Ratio (x) = 0.80314 -0.75310
# Poissons Ratio (y) = 0.32938 0.78298
# Poissons Ratio (z) = -0.17887 0.45346
#
# Static dielectric constant tensor:
#      x y z
#    x 1.619100 0.000000 -0.003630 
#    y 0.000000 1.606340 0.000000 
#    z -0.003630 0.000000 1.592320 
# 
# From -- ./inp_files/320176.got.cif
#   From: 2010.05.17/outbox.cif.g08.bks.cpg/sg12_161_cif.got.tgz:320176.got - 2010.06.03 13:09:07.
