data_PCOD9194860
_publ_section_title
;
Structure prediction by ZEFSAII (Michael W. Deem and Ramdas Pophale) SiO2 
 PCOD9194860
Probable space group: C 2/M
;
_chemical_formula_sum "Si O2"
_cell_formula_units_Z 56
_cell_length_a 9.053315
_cell_length_b 29.063535
_cell_length_c 14.580365
_cell_angle_alpha 90.000000
_cell_angle_beta 51.132219
_cell_angle_gamma 90.000000
_cell_volume 2987.010257
_symmetry_space_group_name_H-M "C 2/M"
_symmetry_group_IT_number 12
_symmetry_cell_setting 'monoclinic'
loop_
_space_group_symop_operation_xyz
x,y,z
-x,y,-z
-x,-y,-z
x,-y,z
1/2+x,1/2+y,z
1/2-x,1/2+y,-z
1/2-x,1/2-y,-z
1/2+x,1/2-y,z
loop_
_atom_site_type_symbol
_atom_site_label
_atom_site_fract_x
_atom_site_fract_y
_atom_site_fract_z
Si Si1 0.322815 0.714963 0.639153
Si Si2 0.570284 0.303358 0.706721
Si Si3 0.180067 0.621364 0.465934
Si Si4 0.643683 0.447024 0.358538
Si Si5 0.568062 0.125250 0.711349
Si Si6 0.113162 0.052606 0.724255
Si Si7 0.114462 0.132603 0.862199
O O1 0.500000 0.708695 0.500000
O O2 0.393194 0.715243 0.717497
O O3 0.220105 0.762285 0.653565
O O4 0.172128 0.673690 0.687629
O O5 0.641982 0.345870 0.616135
O O6 0.562236 0.326754 0.810255
O O7 0.135552 0.609143 0.585111
O O8 0.205162 0.577920 0.390457
O O9 0.000000 0.649756 0.500000
O O10 0.500000 0.434022 0.500000
O O11 0.700583 0.500000 0.355241
O O12 0.824387 0.413898 0.272588
O O13 0.528457 0.446148 0.307700
O O14 0.340760 0.130504 0.796899
O O15 0.060588 0.085448 0.829401
O O16 0.143088 0.000000 0.739458
O O17 0.000000 0.137622 0.000000
#
# Coordination Sequence:
#
# PCOD9194860 Si02
#       7
#     8   8   8   8   8   8   8
#     4  12  23  35  64  98 132 154 183 240 308 383
#     4  11  23  39  58  92 124 158 196 239 303 358
#     4  11  19  33  54  89 128 154 190 242 300 370
#     4  10  20  34  57  94 133 157 184 235 307 378
#     4  12  21  36  60  91 122 161 201 239 301 360
#     4  10  21  37  60  89 124 158 195 247 305 362
#     4  11  26  46  62  79 117 165 215 262 291 338
#
# _framework density 18.747843
#
# number of rings (size 3 to 8) (size 9 to 14) (size 15 to 20)
#    0.000    1.000    5.714    3.857    0.000    1.143 
#    0.000    5.714    0.000    1.714    0.000    0.000 
#    0.000    0.000    0.000    0.000    0.000    0.000 
#
# Total GULP energy -156016.128855 kJ/mol
# GULP energy per Si atom -5572.004602 kJ/mol
# Density = 1.870517 g / cm^3
# Si number density = 18.747843 Si / 1000 Ang^3
#
#
#
# Elastic Constant Matrix: (Units=GPa)
#
#
# Indices 1 2 3 4 5 6 
#
# 1 95.9341 40.1326 36.6305 0.0000 5.0495 0.0000
# 2 40.1326 107.4102 24.6917 0.0000 -0.1618 0.0000
# 3 36.6305 24.6917 97.8973 0.0000 9.5910 0.0000
# 4 0.0000 0.0000 0.0000 3.5770 0.0000 0.6248
# 5 5.0495 -0.1618 9.5910 0.0000 13.8776 0.0000
# 6 0.0000 0.0000 0.0000 0.6248 0.0000 25.8331
#
#
#
# Elastic Compliance Matrix: (Units=1/GPa)
#
#
# Indices 1 2 3 4 5 6 
#
# 1 0.013812 -0.004279 -0.003852 0.000000 -0.002413 0.000000
# 2 -0.004279 0.011259 -0.001506 0.000000 0.002729 0.000000
# 3 -0.003852 -0.001506 0.012765 0.000000 -0.007438 0.000000
# 4 0.000000 0.000000 0.000000 0.280754 0.000000 -0.006790
# 5 -0.002413 0.002729 -0.007438 0.000000 0.078109 0.000000
# 6 0.000000 0.000000 0.000000 -0.006790 0.000000 0.038874
#
#
# Mechanical properties :
#
#
# Convention : Reuss Voigt Hill
#
# Bulk Modulus (GPa) = 53.87586 56.01680 54.94633
# Shear Modulus (GPa) = 10.84519 21.97664 16.41092
#
# Velocity S-wave (km/s) = 2.40776 3.42749 2.96184
# Velocity P-wave (km/s) = 6.04394 6.75333 6.40846
#
# Compressibility (1/GPa) = 0.01856119
#
# Stress axis : x y z
#
# Youngs Moduli (GPa) = 72.40244 88.81684 78.34022
#
# Poissons Ratio (x) = 0.38001 0.30180
# Poissons Ratio (y) = 0.30978 0.11800
# Poissons Ratio (z) = 0.27892 0.13378
#
# Static dielectric constant tensor:
#      x y z
#    x 1.748010 0.000000 -0.002340 
#    y 0.000000 1.663560 0.000000 
#    z -0.002340 0.000000 1.637040 
# 
# From -- ./inp_files/200839.got.cif
#   From: 2010.05.17/outbox.cif.g08.bks.cpg/sg12_101_cif.got.tgz:200839.got - 2010.06.03 13:09:07.
