data_PCOD9194639
_publ_section_title
;
Structure prediction by ZEFSAII (Michael W. Deem and Ramdas Pophale) SiO2 
 PCOD9194639
Probable space group: C 2/M
;
_chemical_formula_sum "Si O2"
_cell_formula_units_Z 64
_cell_length_a 18.729759
_cell_length_b 17.578647
_cell_length_c 14.013257
_cell_angle_alpha 90.000000
_cell_angle_beta 147.545413
_cell_angle_gamma 90.000000
_cell_volume 2475.896284
_symmetry_space_group_name_H-M "C 2/M"
_symmetry_group_IT_number 12
_symmetry_cell_setting 'monoclinic'
loop_
_space_group_symop_operation_xyz
x,y,z
-x,y,-z
-x,-y,-z
x,-y,z
1/2+x,1/2+y,z
1/2-x,1/2+y,-z
1/2-x,1/2-y,-z
1/2+x,1/2-y,z
loop_
_atom_site_type_symbol
_atom_site_label
_atom_site_fract_x
_atom_site_fract_y
_atom_site_fract_z
Si Si1 0.062780 0.914106 0.440619
Si Si2 0.582980 0.767340 0.189577
Si Si3 0.884565 0.084703 0.944122
Si Si4 0.818045 0.580902 0.623333
Si Si5 0.673777 0.776199 0.007297
Si Si6 0.725293 0.413928 0.971592
Si Si7 0.844308 0.747060 0.392791
Si Si8 0.613161 0.084748 0.518533
O O1 0.158647 0.912961 0.456194
O O2 0.093837 0.831357 0.522627
O O3 0.909574 0.913764 0.241418
O O4 0.090885 0.000000 0.516026
O O5 0.617571 0.854363 0.243124
O O6 0.727687 0.731853 0.340250
O O7 0.500000 0.762608 0.000000
O O8 0.476980 0.746399 0.150797
O O9 0.751639 0.081590 0.731773
O O10 0.934417 0.000000 0.025243
O O11 0.825315 0.113453 0.979767
O O12 0.000000 0.114100 0.000000
O O13 0.859163 0.500000 0.709136
O O14 0.859036 0.586026 0.561336
O O15 0.671606 0.865830 0.975907
O O16 0.762336 0.756751 0.200744
O O17 0.750000 0.750000 0.000000
O O18 0.773731 0.500000 0.039652
O O19 0.935447 0.671362 0.510163
O O20 0.548084 0.000000 0.462249
#
# Coordination Sequence:
#
# PCOD9194639 Si02
#       8
#     8   8   8   8   8   8   8   8
#     4   9  19  37  61  92 126 157 200 254 307 368
#     4   9  21  40  60  84 116 157 206 251 297 365
#     4   9  17  31  55  87 123 161 199 246 306 368
#     4   9  18  34  59  90 120 153 198 253 303 351
#     4  11  24  40  58  85 121 160 203 251 304 370
#     4  10  21  37  60  91 125 161 202 257 321 373
#     4  10  22  40  63  89 120 163 205 249 311 369
#     4  10  20  34  56  89 122 150 193 252 309 365
#
# _framework density 25.849224
#
# number of rings (size 3 to 8) (size 9 to 14) (size 15 to 20)
#    0.000    2.375    0.000    1.500    0.000   11.250 
#    0.000    3.750    0.000    2.250    0.000   10.500 
#    0.000    0.000    0.000    0.000    0.000    0.000 
#
# Total GULP energy -178414.919213 kJ/mol
# GULP energy per Si atom -5575.466225 kJ/mol
# Density = 2.579039 g / cm^3
# Si number density = 25.849224 Si / 1000 Ang^3
#
#
#
# Elastic Constant Matrix: (Units=GPa)
#
#
# Indices 1 2 3 4 5 6 
#
# 1 136.9363 35.5029 -3.4849 0.0000 15.5136 0.0000
# 2 35.5029 192.5942 29.7721 0.0000 -16.9135 0.0000
# 3 -3.4849 29.7721 46.1441 0.0000 7.1158 0.0000
# 4 0.0000 0.0000 0.0000 21.8502 0.0000 -0.3135
# 5 15.5136 -16.9135 7.1158 0.0000 23.6927 0.0000
# 6 0.0000 0.0000 0.0000 -0.3135 0.0000 36.4407
#
#
#
# Elastic Compliance Matrix: (Units=1/GPa)
#
#
# Indices 1 2 3 4 5 6 
#
# 1 0.009356 -0.003244 0.004301 0.000000 -0.009734 0.000000
# 2 -0.003244 0.007664 -0.006670 0.000000 0.009599 0.000000
# 3 0.004301 -0.006670 0.028802 0.000000 -0.016228 0.000000
# 4 0.000000 0.000000 0.000000 0.045772 0.000000 0.000394
# 5 -0.009734 0.009599 -0.016228 0.000000 0.060307 0.000000
# 6 0.000000 0.000000 0.000000 0.000394 0.000000 0.027445
#
#
# Mechanical properties :
#
#
# Convention : Reuss Voigt Hill
#
# Bulk Modulus (GPa) = 28.90586 55.47277 42.18932
# Shear Modulus (GPa) = 24.73942 37.32234 31.03088
#
# Velocity S-wave (km/s) = 3.09700 3.80392 3.46852
# Velocity P-wave (km/s) = 4.89850 6.38747 5.69189
#
# Compressibility (1/GPa) = 0.03459506
#
# Stress axis : x y z
#
# Youngs Moduli (GPa) = 106.88280 130.47219 34.71947
#
# Poissons Ratio (x) = 0.42330 -0.14932
# Poissons Ratio (y) = 0.34677 0.23159
# Poissons Ratio (z) = -0.45969 0.87030
#
# Static dielectric constant tensor:
#      x y z
#    x 2.062070 0.000000 0.038710 
#    y 0.000000 2.253300 0.000000 
#    z 0.038710 0.000000 1.971320 
# 
# From -- ./inp_files/226859.got.cif
#   From: 2010.05.17/outbox.cif.g08.bks.cpg/sg12_114_cif.got.tgz:226859.got - 2010.06.03 13:09:07.
