data_PCOD9194220
_publ_section_title
;
Structure prediction by ZEFSAII (Michael W. Deem and Ramdas Pophale) SiO2 
 PCOD9194220
Probable space group: C 2/M
;
_chemical_formula_sum "Si O2"
_cell_formula_units_Z 56
_cell_length_a 30.687413
_cell_length_b 8.438421
_cell_length_c 11.793831
_cell_angle_alpha 90.000000
_cell_angle_beta 65.913677
_cell_angle_gamma 90.000000
_cell_volume 2788.140265
_symmetry_space_group_name_H-M "C 2/M"
_symmetry_group_IT_number 12
_symmetry_cell_setting 'monoclinic'
loop_
_space_group_symop_operation_xyz
x,y,z
-x,y,-z
-x,-y,-z
x,-y,z
1/2+x,1/2+y,z
1/2-x,1/2+y,-z
1/2-x,1/2-y,-z
1/2+x,1/2-y,z
loop_
_atom_site_type_symbol
_atom_site_label
_atom_site_fract_x
_atom_site_fract_y
_atom_site_fract_z
Si Si1 0.055345 0.191179 0.445146
Si Si2 0.319951 0.808319 0.985521
Si Si3 0.102630 0.810653 0.630665
Si Si4 0.014735 0.308626 0.857802
Si Si5 0.228693 0.690451 0.198573
Si Si6 0.294647 0.810324 0.524472
Si Si7 0.077407 0.309130 0.180397
O O1 0.080348 0.245150 0.533963
O O2 0.080636 0.255730 0.306591
O O3 0.000000 0.242870 0.500000
O O4 0.056085 0.000000 0.441775
O O5 0.301091 0.756334 0.880619
O O6 0.375008 0.758378 0.936746
O O7 0.317757 0.000000 0.992049
O O8 0.283029 0.741800 0.116146
O O9 0.065627 0.755359 0.765061
O O10 0.155807 0.745490 0.582149
O O11 0.104262 0.000000 0.627785
O O12 0.016414 0.500000 0.850728
O O13 0.972337 0.251300 0.819725
O O14 0.000000 0.263053 0.000000
O O15 0.226395 0.500000 0.202031
O O16 0.209795 0.748231 0.340004
O O17 0.250000 0.750000 0.500000
O O18 0.293791 0.000000 0.527554
O O19 0.076509 0.500000 0.178257
#
# Coordination Sequence:
#
# PCOD9194220 Si02
#       7
#     8   8   8   8   8   8   8
#     4  10  20  35  56  85 120 152 188 239 293 345
#     4   9  18  33  55  83 114 147 188 237 289 344
#     4  11  23  40  62  88 119 154 194 241 299 354
#     4  10  22  39  57  81 116 156 198 242 291 347
#     4   9  19  36  56  81 113 147 187 238 291 344
#     4  11  24  42  63  87 118 154 199 246 291 346
#     4  10  20  34  55  83 113 151 196 238 287 347
#
# _framework density 20.085072
#
# number of rings (size 3 to 8) (size 9 to 14) (size 15 to 20)
#    0.000    2.000    1.429    1.714    0.000    5.714 
#    0.000    4.286    0.000    0.000    0.000    0.000 
#    0.000    0.000    0.000    0.000    0.000    0.000 
#
# Total GULP energy -156408.472897 kJ/mol
# GULP energy per Si atom -5586.016889 kJ/mol
# Density = 2.003936 g / cm^3
# Si number density = 20.085072 Si / 1000 Ang^3
#
#
#
# Elastic Constant Matrix: (Units=GPa)
#
#
# Indices 1 2 3 4 5 6 
#
# 1 106.4863 20.0149 54.2016 0.0000 -30.4096 0.0000
# 2 20.0149 12.7159 20.2398 0.0000 -2.0138 0.0000
# 3 54.2016 20.2398 128.6921 0.0000 -23.1090 0.0000
# 4 0.0000 0.0000 0.0000 27.6968 0.0000 -6.2897
# 5 -30.4096 -2.0138 -23.1090 0.0000 37.5452 0.0000
# 6 0.0000 0.0000 0.0000 -6.2897 0.0000 22.2859
#
#
#
# Elastic Compliance Matrix: (Units=1/GPa)
#
#
# Indices 1 2 3 4 5 6 
#
# 1 0.018401 -0.024318 -0.001668 0.000000 0.012573 0.000000
# 2 -0.024318 0.137911 -0.015353 0.000000 -0.021749 0.000000
# 3 -0.001668 -0.015353 0.011801 0.000000 0.005089 0.000000
# 4 0.000000 0.000000 0.000000 0.038578 0.000000 0.010888
# 5 0.012573 -0.021749 0.005089 0.000000 0.038784 0.000000
# 6 0.000000 0.000000 0.000000 0.010888 0.000000 0.047944
#
#
# Mechanical properties :
#
#
# Convention : Reuss Voigt Hill
#
# Bulk Modulus (GPa) = 11.70458 48.53410 30.11934
# Shear Modulus (GPa) = 12.35862 27.73477 20.04670
#
# Velocity S-wave (km/s) = 2.48324 3.72003 3.16268
# Velocity P-wave (km/s) = 3.74995 6.53209 5.32590
#
# Compressibility (1/GPa) = 0.08543666
#
# Stress axis : x y z
#
# Youngs Moduli (GPa) = 54.34503 7.25103 84.73509
#
# Poissons Ratio (x) = 0.17633 0.14132
# Poissons Ratio (y) = 1.32154 1.30096
# Poissons Ratio (z) = 0.09064 0.11133
#
# Static dielectric constant tensor:
#      x y z
#    x 1.715320 0.000000 0.005450 
#    y 0.000000 1.685640 0.000000 
#    z 0.005450 0.000000 1.699370 
# 
# From -- ./inp_files/181038.got.cif
#   From: 2010.05.17/outbox.cif.g08.bks.cpg/sg12_91_cif.got.tgz:181038.got - 2010.06.03 13:09:07.
