data_PCOD9194097
_publ_section_title
;
Structure prediction by ZEFSAII (Michael W. Deem and Ramdas Pophale) SiO2 
 PCOD9194097
Probable space group: C 2/M
;
_chemical_formula_sum "Si O2"
_cell_formula_units_Z 56
_cell_length_a 32.161816
_cell_length_b 9.017622
_cell_length_c 18.363390
_cell_angle_alpha 90.000000
_cell_angle_beta 35.793963
_cell_angle_gamma 90.000000
_cell_volume 3114.916696
_symmetry_space_group_name_H-M "C 2/M"
_symmetry_group_IT_number 12
_symmetry_cell_setting 'monoclinic'
loop_
_space_group_symop_operation_xyz
x,y,z
-x,y,-z
-x,-y,-z
x,-y,z
1/2+x,1/2+y,z
1/2-x,1/2+y,-z
1/2-x,1/2-y,-z
1/2+x,1/2-y,z
loop_
_atom_site_type_symbol
_atom_site_label
_atom_site_fract_x
_atom_site_fract_y
_atom_site_fract_z
Si Si1 0.918660 0.679283 0.594858
Si Si2 0.704277 0.833007 0.870294
Si Si3 0.588407 0.330689 0.953750
Si Si4 0.418857 0.330179 0.204740
Si Si5 0.661520 0.671551 0.425005
Si Si6 0.814227 0.674752 0.454045
Si Si7 0.283834 0.825328 0.881322
O O1 0.914375 0.500000 0.593521
O O2 0.892159 0.752614 0.556866
O O3 0.861497 0.723355 0.739301
O O4 0.000000 0.717557 0.500000
O O5 0.629579 0.785341 0.943905
O O6 0.762453 0.828192 0.723577
O O7 0.730429 0.716789 0.892435
O O8 0.703828 0.000000 0.901192
O O9 0.610572 0.500000 0.939654
O O10 0.604387 0.306407 0.845741
O O11 0.503992 0.321550 0.083957
O O12 0.398896 0.500000 0.253545
O O13 0.383201 0.213678 0.308201
O O14 0.640742 0.500000 0.467158
O O15 0.672310 0.755712 0.485599
O O16 0.801540 0.500000 0.478181
O O17 0.750000 0.750000 0.500000
O O18 0.287981 0.000000 0.887773
O O19 0.250000 0.750000 0.000000
#
# Coordination Sequence:
#
# PCOD9194097 Si02
#       7
#     8   8   8   8   8   8   8
#     4   9  19  38  62  86 113 149 190 235 289 343
#     4  10  20  34  55  81 108 140 181 224 269 326
#     4   9  18  34  56  79 105 141 180 221 273 326
#     4   9  19  36  55  77 108 142 180 225 271 324
#     4  10  21  37  57  83 113 146 187 232 275 330
#     4  12  24  37  55  80 111 148 187 230 278 327
#     4  10  20  36  58  83 112 144 182 231 282 338
#
# _framework density 17.978007999999999
#
# number of rings (size 3 to 8) (size 9 to 14) (size 15 to 20)
#    0.000    2.143    0.000    4.286    0.000    6.000 
#    2.571    1.429    0.000    0.000    0.000    0.000 
#    0.000    0.000    0.000    0.000    0.000    0.000 
#
# Total GULP energy -156188.617089 kJ/mol
# GULP energy per Si atom -5578.164896 kJ/mol
# Density = 1.793709 g / cm^3
# Si number density = 17.978008 Si / 1000 Ang^3
#
#
#
# Elastic Constant Matrix: (Units=GPa)
#
#
# Indices 1 2 3 4 5 6 
#
# 1 102.9447 52.1718 57.4426 -0.0009 -1.4360 0.0007
# 2 52.1718 83.0146 44.7152 0.0012 9.7546 -0.0013
# 3 57.4426 44.7152 67.3560 0.0017 14.9937 -0.0018
# 4 -0.0009 0.0012 0.0017 27.9581 0.0002 1.6820
# 5 -1.4360 9.7546 14.9937 0.0002 24.2270 0.0001
# 6 0.0007 -0.0013 -0.0018 1.6820 0.0001 33.3562
#
#
#
# Elastic Compliance Matrix: (Units=1/GPa)
#
#
# Indices 1 2 3 4 5 6 
#
# 1 0.024601 -0.006413 -0.020438 0.000002 0.016689 -0.000002
# 2 -0.006413 0.020424 -0.007160 -0.000001 -0.004172 0.000001
# 3 -0.020438 -0.007160 0.042515 -0.000003 -0.024640 0.000003
# 4 0.000002 -0.000001 -0.000003 0.035877 0.000002 -0.001809
# 5 0.016689 -0.004172 -0.024640 0.000002 0.059195 -0.000002
# 6 -0.000002 0.000001 0.000003 -0.001809 -0.000002 0.030071
#
#
# Mechanical properties :
#
#
# Convention : Reuss Voigt Hill
#
# Bulk Modulus (GPa) = 51.23873 62.44160 56.84017
# Shear Modulus (GPa) = 17.40881 23.70731 20.55806
#
# Velocity S-wave (km/s) = 3.11519 3.63531 3.38525
# Velocity P-wave (km/s) = 6.44219 7.24073 6.85311
#
# Compressibility (1/GPa) = 0.01951649
#
# Stress axis : x y z
#
# Youngs Moduli (GPa) = 40.64838 48.96253 23.52113
#
# Poissons Ratio (x) = 0.31401 0.48072
# Poissons Ratio (y) = 0.26069 0.16842
# Poissons Ratio (z) = 0.83077 0.35060
#
# Static dielectric constant tensor:
#      x y z
#    x 1.603620 0.000000 0.005000 
#    y 0.000000 1.622660 0.000000 
#    z 0.005000 0.000000 1.627620 
# 
# From -- ./inp_files/295101.got.cif
#   From: 2010.05.17/outbox.cif.g08.bks.cpg/sg12_148_cif.got.tgz:295101.got - 2010.06.03 13:09:07.
