data_PCOD9194746
_publ_section_title
;
Structure prediction by ZEFSAII (Michael W. Deem and Ramdas Pophale) SiO2 
 PCOD9194746
Probable space group: C 2/M
;
_chemical_formula_sum "Si O2"
_cell_formula_units_Z 42
_cell_length_a 15.075524
_cell_length_b 7.406555
_cell_length_c 16.319190
_cell_angle_alpha 90.000000
_cell_angle_beta 109.518216
_cell_angle_gamma 90.000000
_cell_volume 1717.453152
_symmetry_space_group_name_H-M "C 2/M"
_symmetry_group_IT_number 12
_symmetry_cell_setting 'monoclinic'
loop_
_space_group_symop_operation_xyz
x,y,z
-x,y,-z
-x,-y,-z
x,-y,z
1/2+x,1/2+y,z
1/2-x,1/2+y,-z
1/2-x,1/2-y,-z
1/2+x,1/2-y,z
loop_
_atom_site_type_symbol
_atom_site_label
_atom_site_fract_x
_atom_site_fract_y
_atom_site_fract_z
Si Si1 0.609723 0.218824 0.020673
Si Si2 0.357263 0.700126 0.507475
Si Si3 0.760584 0.283358 0.790325
Si Si4 0.587143 0.212207 0.837017
Si Si5 0.000000 0.500000 0.500000
Si Si6 0.602262 0.220379 0.300979
O O1 0.674914 0.285754 0.114258
O O2 0.617426 0.000000 0.026185
O O3 0.500000 0.262663 0.000000
O O4 0.631803 0.284127 0.935239
O O5 0.357016 0.500000 0.470708
O O6 0.250000 0.750000 0.500000
O O7 0.407083 0.703401 0.611952
O O8 0.416435 0.843010 0.474540
O O9 0.767851 0.500000 0.792086
O O10 0.655397 0.235483 0.781614
O O11 0.803135 0.224560 0.717120
O O12 0.484098 0.279531 0.782874
O O13 0.574410 0.000000 0.847854
O O14 0.599717 0.000000 0.308566
#
# Coordination Sequence:
#
# PCOD9194746 Si02
#       6
#     8   8   8   8   2   8
#     4   9  15  30  55  81 112 170 227 273 330 398
#     4  12  26  50  82 114 151 195 242 304 374 454
#     4  10  20  34  58  86 123 173 222 277 341 402
#     4  10  20  34  57  86 126 170 225 280 337 404
#     4  12  26  52  84 116 152 190 246 294 374 452
#     4  10  21  41  63  93 137 177 224 289 347 423
#
# _framework density 24.454815
#
# number of rings (size 3 to 8) (size 9 to 14) (size 15 to 20)
#    0.000    1.714    3.810    0.857    0.000    3.048 
#    0.000    1.905    0.000    1.143    0.000    0.000 
#    0.000    0.000    0.000    0.000    0.000    0.000 
#
# Total GULP energy -117170.268509 kJ/mol
# GULP energy per Si atom -5579.536596 kJ/mol
# Density = 2.439915 g / cm^3
# Si number density = 24.454815 Si / 1000 Ang^3
#
#
#
# Elastic Constant Matrix: (Units=GPa)
#
#
# Indices 1 2 3 4 5 6 
#
# 1 105.4156 19.1018 -18.6134 0.0000 3.5375 0.0000
# 2 19.1018 135.4210 -6.8559 0.0000 10.9231 0.0000
# 3 -18.6134 -6.8559 36.3669 0.0000 -7.5993 0.0000
# 4 0.0000 0.0000 0.0000 17.4276 0.0000 3.3929
# 5 3.5375 10.9231 -7.5993 0.0000 20.8988 0.0000
# 6 0.0000 0.0000 0.0000 3.3929 0.0000 30.0450
#
#
#
# Elastic Compliance Matrix: (Units=1/GPa)
#
#
# Indices 1 2 3 4 5 6 
#
# 1 0.010643 -0.001296 0.005376 0.000000 0.000831 0.000000
# 2 -0.001296 0.007882 0.000008 0.000000 -0.003897 0.000000
# 3 0.005376 0.000008 0.032532 0.000000 0.010915 0.000000
# 4 0.000000 0.000000 0.000000 0.058670 0.000000 -0.006625
# 5 0.000831 -0.003897 0.010915 0.000000 0.053715 0.000000
# 6 0.000000 0.000000 0.000000 -0.006625 0.000000 0.034032
#
#
# Mechanical properties :
#
#
# Convention : Reuss Voigt Hill
#
# Bulk Modulus (GPa) = 16.88239 29.38539 23.13389
# Shear Modulus (GPa) = 23.91886 32.57901 28.24893
#
# Velocity S-wave (km/s) = 3.13083 3.65391 3.40243
# Velocity P-wave (km/s) = 4.47079 5.46294 4.99157
#
# Compressibility (1/GPa) = 0.05923332
#
# Stress axis : x y z
#
# Youngs Moduli (GPa) = 93.96252 126.87203 30.73928
#
# Poissons Ratio (x) = 0.16443 -0.16527
# Poissons Ratio (y) = 0.12178 -0.00025
# Poissons Ratio (z) = -0.50518 -0.00104
#
# Static dielectric constant tensor:
#      x y z
#    x 1.916470 0.000000 -0.016050 
#    y 0.000000 1.950800 0.000000 
#    z -0.016050 0.000000 1.991790 
# 
# From -- ./inp_files/267306.got.cif
#   From: 2010.05.17/outbox.cif.g08.bks.cpg/sg12_134_cif.got.tgz:267306.got - 2010.06.03 13:09:07.
