data_PCOD9194640
_publ_section_title
;
Structure prediction by ZEFSAII (Michael W. Deem and Ramdas Pophale) SiO2 
 PCOD9194640
Probable space group: C 2/M
;
_chemical_formula_sum "Si O2"
_cell_formula_units_Z 58
_cell_length_a 20.657486
_cell_length_b 9.968641
_cell_length_c 24.447033
_cell_angle_alpha 90.000000
_cell_angle_beta 35.265675
_cell_angle_gamma 90.000000
_cell_volume 2906.649948
_symmetry_space_group_name_H-M "C 2/M"
_symmetry_group_IT_number 12
_symmetry_cell_setting 'monoclinic'
loop_
_space_group_symop_operation_xyz
x,y,z
-x,y,-z
-x,-y,-z
x,-y,z
1/2+x,1/2+y,z
1/2-x,1/2+y,-z
1/2-x,1/2-y,-z
1/2+x,1/2-y,z
loop_
_atom_site_type_symbol
_atom_site_label
_atom_site_fract_x
_atom_site_fract_y
_atom_site_fract_z
Si Si1 0.362369 0.145614 0.182010
Si Si2 0.000000 0.000000 0.000000
Si Si3 0.536622 0.658047 0.202329
Si Si4 0.571541 0.844102 0.282466
Si Si5 0.051553 0.337775 0.521948
Si Si6 0.615587 0.152011 0.054709
Si Si7 0.289647 0.654690 0.320213
Si Si8 0.323089 0.727683 0.096477
O O1 0.490135 0.148995 0.115106
O O2 0.297843 0.259067 0.259809
O O3 0.356215 0.171429 0.122044
O O4 0.315060 0.000000 0.228067
O O5 0.080180 0.116576 0.972233
O O6 0.566249 0.500000 0.186871
O O7 0.541184 0.742793 0.254734
O O8 0.609606 0.738238 0.106697
O O9 0.407923 0.664140 0.269467
O O10 0.513866 0.796601 0.378554
O O11 0.705746 0.838105 0.194377
O O12 0.538790 0.000000 0.293715
O O13 0.042391 0.500000 0.527998
O O14 0.183380 0.303814 0.429840
O O15 0.000000 0.289506 0.500000
O O16 0.641724 0.000000 0.055506
O O17 0.689734 0.198751 0.952514
O O18 0.272747 0.500000 0.315744
#
# Coordination Sequence:
#
# PCOD9194640 Si02
#       8
#     8   2   8   8   8   8   8   8
#     4  10  20  34  56  89 122 152 191 242 302 352
#     4  12  24  36  58  96 118 156 202 248 302 368
#     4  10  23  40  60  86 118 158 202 247 291 346
#     4  11  24  40  61  86 119 157 197 242 296 353
#     4   9  18  36  61  93 120 149 191 241 296 352
#     4  10  21  38  60  84 116 155 200 245 294 352
#     4   9  19  36  62  87 117 157 203 245 285 346
#     4  12  23  36  60  87 123 153 198 249 301 353
#
# _framework density 19.954243000000002
#
# number of rings (size 3 to 8) (size 9 to 14) (size 15 to 20)
#    0.000    1.793    2.069    1.655    1.931    4.966 
#    0.000    0.690    0.000    1.655    0.000    0.000 
#    0.000    0.000    0.000    0.000    0.000    0.000 
#
# Total GULP energy -161679.995662 kJ/mol
# GULP energy per Si atom -5575.172264 kJ/mol
# Density = 1.990883 g / cm^3
# Si number density = 19.954243 Si / 1000 Ang^3
#
#
#
# Elastic Constant Matrix: (Units=GPa)
#
#
# Indices 1 2 3 4 5 6 
#
# 1 78.5198 49.9000 30.4008 0.0000 26.2595 -0.0001
# 2 49.9000 121.3061 46.3074 -0.0001 17.6210 -0.0004
# 3 30.4008 46.3074 109.9814 0.0000 25.3472 -0.0001
# 4 0.0000 -0.0001 0.0000 12.7261 0.0000 -17.3269
# 5 26.2595 17.6210 25.3472 0.0000 33.7862 0.0000
# 6 -0.0001 -0.0004 -0.0001 -17.3269 0.0000 -72.1740
#
#
#
# Elastic Compliance Matrix: (Units=1/GPa)
#
#
# Indices 1 2 3 4 5 6 
#
# 1 0.021543 -0.006955 -0.000004 0.000000 -0.013113 0.000000
# 2 -0.006955 0.012238 -0.003633 0.000000 0.001749 0.000000
# 3 -0.000004 -0.003633 0.012315 0.000000 -0.007341 0.000000
# 4 0.000000 0.000000 0.000000 0.059221 0.000000 -0.014217
# 5 -0.013113 0.001749 -0.007341 0.000000 0.044385 0.000000
# 6 0.000000 0.000000 0.000000 -0.014217 0.000000 -0.010442
#
#
# Mechanical properties :
#
#
# Convention : Reuss Voigt Hill
#
# Bulk Modulus (GPa) = 40.14401 62.55820 51.35110
# Shear Modulus (GPa) = 29.62987 7.08093 18.35540
#
# Velocity S-wave (km/s) = 3.85761 1.88581 3.03623
# Velocity P-wave (km/s) = 6.32481 6.01337 6.17105
#
# Compressibility (1/GPa) = 0.02491032
#
# Stress axis : x y z
#
# Youngs Moduli (GPa) = 46.41898 81.71537 81.20048
#
# Poissons Ratio (x) = 0.56837 0.00034
# Poissons Ratio (y) = 0.32286 0.29501
# Poissons Ratio (z) = 0.00019 0.29688
#
# Static dielectric constant tensor:
#      x y z
#    x 1.710720 0.000000 -0.027700 
#    y 0.000000 1.698920 0.000000 
#    z -0.027700 0.000000 1.716210 
# 
# From -- ./inp_files/346498.got.cif
#   From: 2010.05.17/outbox.cif.g08.bks.cpg/sg12_174_cif.got.tgz:346498.got - 2010.06.03 13:09:07.
