data_PCOD9194262
_publ_section_title
;
Structure prediction by ZEFSAII (Michael W. Deem and Ramdas Pophale) SiO2 
 PCOD9194262
Probable space group: C 2/M
;
_chemical_formula_sum "Si O2"
_cell_formula_units_Z 56
_cell_length_a 15.092409
_cell_length_b 18.097186
_cell_length_c 11.118698
_cell_angle_alpha 90.000000
_cell_angle_beta 96.489451
_cell_angle_gamma 90.000000
_cell_volume 3017.393387
_symmetry_space_group_name_H-M "C 2/M"
_symmetry_group_IT_number 12
_symmetry_cell_setting 'monoclinic'
loop_
_space_group_symop_operation_xyz
x,y,z
-x,y,-z
-x,-y,-z
x,-y,z
1/2+x,1/2+y,z
1/2-x,1/2+y,-z
1/2-x,1/2-y,-z
1/2+x,1/2-y,z
loop_
_atom_site_type_symbol
_atom_site_label
_atom_site_fract_x
_atom_site_fract_y
_atom_site_fract_z
Si Si1 0.631365 0.660215 0.775703
Si Si2 0.141542 0.666581 0.811500
Si Si3 0.471937 0.915454 0.854385
Si Si4 0.032887 0.085449 0.141499
Si Si5 0.790844 0.913014 0.706180
Si Si6 0.606417 0.587083 0.527899
Si Si7 0.290976 0.087940 0.935829
O O1 0.645743 0.745660 0.806057
O O2 0.530695 0.637274 0.791824
O O3 0.644852 0.637285 0.639877
O O4 0.696674 0.611909 0.868965
O O5 0.202138 0.632772 0.715598
O O6 0.039484 0.637803 0.795945
O O7 0.182891 0.633498 0.941444
O O8 0.367410 0.897058 0.846752
O O9 0.483636 0.000000 0.814323
O O10 0.500000 0.914071 0.000000
O O11 0.135972 0.103843 0.178843
O O12 0.021935 0.000000 0.180845
O O13 0.000000 0.090163 0.000000
O O14 0.842337 0.899769 0.589217
O O15 0.769459 0.000000 0.710551
O O16 0.500000 0.599677 0.500000
O O17 0.617718 0.500000 0.560708
O O18 0.293663 0.000000 0.963152
#
# Coordination Sequence:
#
# PCOD9194262 Si02
#       7
#     8   8   8   8   8   8   8
#     4  12  23  34  55  87 120 148 179 235 291 339
#     4  11  22  34  54  85 120 148 179 230 295 342
#     4   8  16  33  56  77 104 150 197 227 258 324
#     4  10  20  34  55  84 114 145 183 233 286 335
#     4  10  20  36  60  82 108 150 195 235 271 331
#     4  10  20  39  62  81 106 150 201 230 266 335
#     4  10  20  37  59  81 112 153 195 230 266 330
#
# _framework density 18.559066000000001
#
# number of rings (size 3 to 8) (size 9 to 14) (size 15 to 20)
#    0.000    1.857    1.429    4.714    0.000    4.571 
#    0.000    0.000    0.000    0.000    0.000    4.000 
#    0.000    0.000    0.000    0.000    0.000    0.000 
#
# Total GULP energy -156302.313344 kJ/mol
# GULP energy per Si atom -5582.225477 kJ/mol
# Density = 1.851682 g / cm^3
# Si number density = 18.559066 Si / 1000 Ang^3
#
#
#
# Elastic Constant Matrix: (Units=GPa)
#
#
# Indices 1 2 3 4 5 6 
#
# 1 68.2790 41.8375 14.2818 0.0000 -20.5740 0.0000
# 2 41.8375 88.2068 44.1561 0.0000 -7.5347 0.0000
# 3 14.2818 44.1561 57.2798 0.0000 -8.1448 0.0000
# 4 0.0000 0.0000 0.0000 3.6045 0.0000 6.2907
# 5 -20.5740 -7.5347 -8.1448 0.0000 24.3536 0.0000
# 6 0.0000 0.0000 0.0000 6.2907 0.0000 2.6432
#
#
#
# Elastic Compliance Matrix: (Units=1/GPa)
#
#
# Indices 1 2 3 4 5 6 
#
# 1 0.029893 -0.016479 0.008522 0.000000 0.023005 0.000000
# 2 -0.016479 0.027569 -0.018805 0.000000 -0.011681 0.000000
# 3 0.008522 -0.018805 0.031525 0.000000 0.011925 0.000000
# 4 0.000000 0.000000 0.000000 -0.087974 0.000000 0.209371
# 5 0.023005 -0.011681 0.011925 0.000000 0.060871 0.000000
# 6 0.000000 0.000000 0.000000 0.209371 0.000000 -0.119965
#
#
# Mechanical properties :
#
#
# Convention : Reuss Voigt Hill
#
# Bulk Modulus (GPa) = 28.19896 46.03515 37.11705
# Shear Modulus (GPa) = 688.25914 13.68627 350.97270
#
# Velocity S-wave (km/s) = 19.27830 2.71854 13.76669
# Velocity P-wave (km/s) = 22.60010 5.89173 16.51480
#
# Compressibility (1/GPa) = 0.03546230
#
# Stress axis : x y z
#
# Youngs Moduli (GPa) = 33.45270 36.27242 31.72047
#
# Poissons Ratio (x) = 0.59775 -0.27031
# Poissons Ratio (y) = 0.55128 0.59650
# Poissons Ratio (z) = -0.28507 0.68210
#
# Static dielectric constant tensor:
#      x y z
#    x 1.655450 0.000000 -0.014550 
#    y 0.000000 1.612110 0.000000 
#    z -0.014550 0.000000 1.654840 
# 
# From -- ./inp_files/143728.got.cif
#   From: 2010.05.17/outbox.cif.g08.bks.cpg/sg12_72_cif.got.tgz:143728.got - 2010.06.03 13:09:07.
