data_PCOD9194131
_publ_section_title
;
Structure prediction by ZEFSAII (Michael W. Deem and Ramdas Pophale) SiO2 
 PCOD9194131
Probable space group: C 2/M
;
_chemical_formula_sum "Si O2"
_cell_formula_units_Z 64
_cell_length_a 18.351551
_cell_length_b 17.957679
_cell_length_c 12.867745
_cell_angle_alpha 90.000000
_cell_angle_beta 46.432224
_cell_angle_gamma 90.000000
_cell_volume 3072.554107
_symmetry_space_group_name_H-M "C 2/M"
_symmetry_group_IT_number 12
_symmetry_cell_setting 'monoclinic'
loop_
_space_group_symop_operation_xyz
x,y,z
-x,y,-z
-x,-y,-z
x,-y,z
1/2+x,1/2+y,z
1/2-x,1/2+y,-z
1/2-x,1/2-y,-z
1/2+x,1/2-y,z
loop_
_atom_site_type_symbol
_atom_site_label
_atom_site_fract_x
_atom_site_fract_y
_atom_site_fract_z
Si Si1 0.304284 0.414949 0.947392
Si Si2 0.306802 0.089117 0.272888
Si Si3 0.890607 0.090387 0.076205
Si Si4 0.389932 0.371878 0.658203
Si Si5 0.927037 0.362765 0.334174
Si Si6 0.112089 0.413073 0.023011
Si Si7 0.175213 0.586917 0.351455
Si Si8 0.571822 0.788449 0.330143
O O1 0.279156 0.500000 0.003130
O O2 0.377572 0.417146 0.776548
O O3 0.357241 0.381080 0.995522
O O4 0.201524 0.379204 0.005003
O O5 0.194862 0.102735 0.339556
O O6 0.334306 0.138880 0.345688
O O7 0.318527 0.000000 0.284705
O O8 0.378106 0.112970 0.105506
O O9 0.794083 0.104741 0.244481
O O10 0.899833 0.000000 0.062760
O O11 0.000000 0.119642 0.000000
O O12 0.500000 0.377971 0.500000
O O13 0.367693 0.287617 0.720069
O O14 0.885229 0.397110 0.482819
O O15 0.008112 0.407616 0.185469
O O16 0.997316 0.295039 0.305194
O O17 0.137569 0.500000 0.986353
O O18 0.163276 0.500000 0.338409
O O19 0.133289 0.637071 0.298079
O O20 0.500000 0.782794 0.500000
#
# Coordination Sequence:
#
# PCOD9194131 Si02
#       8
#     8   8   8   8   8   8   8   8
#     4   9  18  33  55  79 103 142 188 227 276 330
#     4  10  21  35  56  88 117 142 181 236 288 327
#     4   9  18  33  51  76 111 142 174 225 280 322
#     4  10  21  40  58  76 110 153 191 224 269 336
#     4  11  20  33  56  85 113 141 181 231 280 328
#     4   9  17  31  52  80 115 146 172 218 287 346
#     4  10  20  34  55  82 108 141 188 230 268 329
#     4   9  21  38  55  79 112 149 183 222 282 337
#
# _framework density 20.829577
#
# number of rings (size 3 to 8) (size 9 to 14) (size 15 to 20)
#    0.000    2.375    0.000    3.375    0.000    7.250 
#    0.000   13.750    0.000    0.000    0.000    0.000 
#    0.000    0.000    0.000    0.000    0.000    0.000 
#
# Total GULP energy -178150.863810 kJ/mol
# GULP energy per Si atom -5567.214494 kJ/mol
# Density = 2.078217 g / cm^3
# Si number density = 20.829577 Si / 1000 Ang^3
#
#
#
# Elastic Constant Matrix: (Units=GPa)
#
#
# Indices 1 2 3 4 5 6 
#
# 1 120.1901 18.8100 43.2831 0.0000 6.6393 0.0000
# 2 18.8100 42.7958 5.8442 0.0000 2.1239 0.0000
# 3 43.2831 5.8442 105.7557 0.0000 -4.0420 0.0000
# 4 0.0000 0.0000 0.0000 -0.5919 0.0000 -3.7586
# 5 6.6393 2.1239 -4.0420 0.0000 39.2716 0.0000
# 6 0.0000 0.0000 0.0000 -3.7586 0.0000 14.5788
#
#
#
# Elastic Compliance Matrix: (Units=1/GPa)
#
#
# Indices 1 2 3 4 5 6 
#
# 1 0.010556 -0.003970 -0.004178 0.000000 -0.002000 0.000000
# 2 -0.003970 0.025116 0.000212 0.000000 -0.000665 0.000000
# 3 -0.004178 0.000212 0.011225 0.000000 0.001850 0.000000
# 4 0.000000 0.000000 0.000000 -0.640653 0.000000 -0.165169
# 5 -0.002000 -0.000665 0.001850 0.000000 0.026028 0.000000
# 6 0.000000 0.000000 0.000000 -0.165169 0.000000 0.026010
#
#
# Mechanical properties :
#
#
# Convention : Reuss Voigt Hill
#
# Bulk Modulus (GPa) = 32.23248 44.95734 38.59491
# Shear Modulus (GPa) = -9.69923 24.03864 7.16970
#
# Velocity S-wave (km/s) = -2.16023 3.40084 1.85730
# Velocity P-wave (km/s) = 3.04727 6.08697 4.81337
#
# Compressibility (1/GPa) = 0.03102461
#
# Stress axis : x y z
#
# Youngs Moduli (GPa) = 94.72950 39.81538 89.09060
#
# Poissons Ratio (x) = 0.15807 0.37218
# Poissons Ratio (y) = 0.37609 -0.01884
# Poissons Ratio (z) = 0.39573 -0.00842
#
# Static dielectric constant tensor:
#      x y z
#    x 1.804320 0.000000 -0.015500 
#    y 0.000000 1.798870 0.000000 
#    z -0.015500 0.000000 1.764990 
# 
# From -- ./inp_files/159552.got.cif
#   From: 2010.05.17/outbox.cif.g08.bks.cpg/sg12_80_cif.got.tgz:159552.got - 2010.06.03 13:09:07.
