data_PCOD9194480
_publ_section_title
;
Structure prediction by ZEFSAII (Michael W. Deem and Ramdas Pophale) SiO2 
 PCOD9194480
Probable space group: C 2/M
;
_chemical_formula_sum "Si O2"
_cell_formula_units_Z 64
_cell_length_a 27.013164
_cell_length_b 12.783864
_cell_length_c 21.054467
_cell_angle_alpha 90.000000
_cell_angle_beta 151.137123
_cell_angle_gamma 90.000000
_cell_volume 3509.721773
_symmetry_space_group_name_H-M "C 2/M"
_symmetry_group_IT_number 12
_symmetry_cell_setting 'monoclinic'
loop_
_space_group_symop_operation_xyz
x,y,z
-x,y,-z
-x,-y,-z
x,-y,z
1/2+x,1/2+y,z
1/2-x,1/2+y,-z
1/2-x,1/2-y,-z
1/2+x,1/2-y,z
loop_
_atom_site_type_symbol
_atom_site_label
_atom_site_fract_x
_atom_site_fract_y
_atom_site_fract_z
Si Si1 0.664846 0.876673 0.616937
Si Si2 0.600527 0.297378 0.645289
Si Si3 0.065050 0.619042 0.853061
Si Si4 0.822588 0.621129 0.896692
Si Si5 0.111501 0.218698 0.137622
Si Si6 0.355808 0.620990 0.584121
Si Si7 0.991013 0.259938 0.649452
Si Si8 0.131692 0.303724 0.300040
O O1 0.626227 0.807827 0.633568
O O2 0.786379 0.852994 0.746277
O O3 0.598717 0.832037 0.483031
O O4 0.647214 0.000000 0.604517
O O5 0.500000 0.346003 0.500000
O O6 0.700639 0.367674 0.753891
O O7 0.567315 0.270671 0.679066
O O8 0.090766 0.500000 0.866568
O O9 0.051646 0.682577 0.773645
O O10 0.955755 0.626975 0.765924
O O11 0.143904 0.657859 0.995280
O O12 0.854343 0.500000 0.925167
O O13 0.870914 0.695872 0.898005
O O14 0.108851 0.277247 0.201986
O O15 0.000000 0.167614 0.000000
O O16 0.371589 0.500000 0.616665
O O17 0.433627 0.662758 0.617988
O O18 0.241237 0.641622 0.430146
O O19 0.367158 0.695920 0.658082
#
# Coordination Sequence:
#
# PCOD9194480 Si02
#       8
#     8   8   8   8   8   8   8   8
#     4  10  21  38  59  85 112 145 189 231 276 333
#     4   9  21  39  57  81 113 146 183 234 283 327
#     4  10  20  34  56  84 110 143 187 231 278 331
#     4  10  22  37  56  83 113 146 186 231 277 333
#     4  11  21  38  57  80 116 151 185 226 272 331
#     4  10  21  36  57  84 114 145 185 230 278 333
#     4  10  20  37  59  84 110 145 186 233 285 327
#     4  10  20  37  54  82 114 150 184 224 275 330
#
# _framework density 18.235064000000001
#
# number of rings (size 3 to 8) (size 9 to 14) (size 15 to 20)
#    0.000    2.000    2.500    0.750    0.000    6.000 
#    0.000    0.000    0.000    0.000    0.000    0.000 
#    0.000    0.000    0.000    0.000    0.000    0.000 
#
# Total GULP energy -178518.990527 kJ/mol
# GULP energy per Si atom -5578.718454 kJ/mol
# Density = 1.819356 g / cm^3
# Si number density = 18.235064 Si / 1000 Ang^3
#
#
#
# Elastic Constant Matrix: (Units=GPa)
#
#
# Indices 1 2 3 4 5 6 
#
# 1 79.5359 4.2043 21.0662 0.0000 -14.7161 0.0000
# 2 4.2043 68.9465 7.9366 0.0000 -10.6667 0.0000
# 3 21.0662 7.9366 79.2606 0.0000 -10.5268 0.0000
# 4 0.0000 0.0000 0.0000 11.3198 0.0000 0.2815
# 5 -14.7161 -10.6667 -10.5268 0.0000 29.9855 0.0000
# 6 0.0000 0.0000 0.0000 0.2815 0.0000 3.9254
#
#
#
# Elastic Compliance Matrix: (Units=1/GPa)
#
#
# Indices 1 2 3 4 5 6 
#
# 1 0.014511 0.000428 -0.003077 0.000000 0.006194 0.000000
# 2 0.000428 0.015416 -0.000945 0.000000 0.005362 0.000000
# 3 -0.003077 -0.000945 0.013934 0.000000 0.003045 0.000000
# 4 0.000000 0.000000 0.000000 0.088499 0.000000 -0.006346
# 5 0.006194 0.005362 0.003045 0.000000 0.039366 0.000000
# 6 0.000000 0.000000 0.000000 -0.006346 0.000000 0.255205
#
#
# Mechanical properties :
#
#
# Convention : Reuss Voigt Hill
#
# Bulk Modulus (GPa) = 27.26898 32.68413 29.97655
# Shear Modulus (GPa) = 11.20213 22.01519 16.60866
#
# Velocity S-wave (km/s) = 2.48123 3.47839 3.02124
# Velocity P-wave (km/s) = 4.81615 5.83909 5.35211
#
# Compressibility (1/GPa) = 0.03667171
#
# Stress axis : x y z
#
# Youngs Moduli (GPa) = 68.91167 64.86642 71.76935
#
# Poissons Ratio (x) = -0.02773 0.22084
# Poissons Ratio (y) = -0.02946 0.06783
# Poissons Ratio (z) = 0.21205 0.06131
#
# Static dielectric constant tensor:
#      x y z
#    x 1.609070 0.000000 0.005010 
#    y 0.000000 1.593470 0.000000 
#    z 0.005010 0.000000 1.646820 
# 
# From -- ./inp_files/327823.got.cif
#   From: 2010.05.17/outbox.cif.g08.bks.cpg/sg12_164_cif.got.tgz:327823.got - 2010.06.03 13:09:07.
