data_PCOD9194625
_publ_section_title
;
Structure prediction by ZEFSAII (Michael W. Deem and Ramdas Pophale) SiO2 
 PCOD9194625
Probable space group: C 2/M
;
_chemical_formula_sum "Si O2"
_cell_formula_units_Z 50
_cell_length_a 28.352350
_cell_length_b 7.370500
_cell_length_c 12.768020
_cell_angle_alpha 90.000000
_cell_angle_beta 122.966964
_cell_angle_gamma 90.000000
_cell_volume 2238.532908
_symmetry_space_group_name_H-M "C 2/M"
_symmetry_group_IT_number 12
_symmetry_cell_setting 'monoclinic'
loop_
_space_group_symop_operation_xyz
x,y,z
-x,y,-z
-x,-y,-z
x,-y,z
1/2+x,1/2+y,z
1/2-x,1/2+y,-z
1/2-x,1/2-y,-z
1/2+x,1/2-y,z
loop_
_atom_site_type_symbol
_atom_site_label
_atom_site_fract_x
_atom_site_fract_y
_atom_site_fract_z
Si Si1 0.000000 0.500000 0.000000
Si Si2 0.494679 0.779622 0.615205
Si Si3 0.901241 0.212677 0.837073
Si Si4 0.309880 0.219650 0.901773
Si Si5 0.875826 0.792080 0.575240
Si Si6 0.614481 0.787645 0.818603
Si Si7 0.315275 0.719639 0.300324
O O1 0.950866 0.341040 0.936684
O O2 0.500000 0.726976 0.500000
O O3 0.437650 0.713297 0.598127
O O4 0.550984 0.715503 0.742356
O O5 0.493083 0.000000 0.616771
O O6 0.849197 0.225887 0.853264
O O7 0.882020 0.282338 0.699112
O O8 0.918329 0.000000 0.848842
O O9 0.246110 0.282822 0.809440
O O10 0.307199 0.000000 0.902590
O O11 0.340853 0.286513 0.044505
O O12 0.834455 0.712466 0.437547
O O13 0.857835 0.000000 0.568085
O O14 0.639302 0.771434 0.732371
O O15 0.608730 0.000000 0.836744
O O16 0.315170 0.500000 0.303760
#
# Coordination Sequence:
#
# PCOD9194625 Si02
#       7
#     2   8   8   8   8   8   8
#     4  12  26  48  72  94 138 172 210 270 330 380
#     4  10  20  34  56  87 122 162 213 265 325 397
#     4  11  26  45  69 102 132 173 222 266 325 395
#     4  10  22  41  63  91 130 177 223 270 333 391
#     4  10  23  40  60  93 129 165 219 274 325 390
#     4  10  21  36  58  90 124 164 221 277 332 395
#     4  10  21  39  62  89 129 173 217 274 332 392
#
# _framework density 22.336058999999999
#
# number of rings (size 3 to 8) (size 9 to 14) (size 15 to 20)
#    0.000    1.760    2.400    0.720    3.360    2.880 
#    0.000    0.000    0.000    0.000    0.000    0.000 
#    0.000    0.000    0.000    0.000    0.000    0.000 
#
# Total GULP energy -139479.786813 kJ/mol
# GULP energy per Si atom -5579.191473 kJ/mol
# Density = 2.228522 g / cm^3
# Si number density = 22.336059 Si / 1000 Ang^3
#
#
#
# Elastic Constant Matrix: (Units=GPa)
#
#
# Indices 1 2 3 4 5 6 
#
# 1 6.9941 -18.0447 54.5122 0.0000 7.2484 0.0000
# 2 -18.0447 97.3841 17.1074 0.0000 10.2403 0.0000
# 3 54.5122 17.1074 12.0305 0.0000 31.8402 0.0000
# 4 0.0000 0.0000 0.0000 1.2705 0.0000 -0.4938
# 5 7.2484 10.2403 31.8402 0.0000 44.2508 0.0000
# 6 0.0000 0.0000 0.0000 -0.4938 0.0000 13.1367
#
#
#
# Elastic Compliance Matrix: (Units=1/GPa)
#
#
# Indices 1 2 3 4 5 6 
#
# 1 0.004476 -0.001053 0.019337 0.000000 -0.014403 0.000000
# 2 -0.001053 0.009888 0.004080 0.000000 -0.005051 0.000000
# 3 0.019337 0.004080 -0.000645 0.000000 -0.003647 0.000000
# 4 0.000000 0.000000 0.000000 0.798765 0.000000 0.030025
# 5 -0.014403 -0.005051 -0.003647 0.000000 0.028751 0.000000
# 6 0.000000 0.000000 0.000000 0.030025 0.000000 0.077251
#
#
# Mechanical properties :
#
#
# Convention : Reuss Voigt Hill
#
# Bulk Modulus (GPa) = 17.10991 24.83982 20.97487
# Shear Modulus (GPa) = 5.59760 15.92051 10.75906
#
# Velocity S-wave (km/s) = 1.58478 2.67268 2.19712
# Velocity P-wave (km/s) = 3.32047 4.54636 3.98089
#
# Compressibility (1/GPa) = 0.05844565
#
# Stress axis : x y z
#
# Youngs Moduli (GPa) = 223.42810 101.13316 -1549.23583
#
# Poissons Ratio (x) = 0.10650 29.95734
# Poissons Ratio (y) = 0.23528 6.32075
# Poissons Ratio (z) = -4.32040 -0.41261
#
# Static dielectric constant tensor:
#      x y z
#    x 1.744800 0.000000 0.007890 
#    y 0.000000 1.836410 0.000000 
#    z 0.007890 0.000000 1.854310 
# 
# From -- ./inp_files/181247.got.cif
#   From: 2010.05.17/outbox.cif.g08.bks.cpg/sg12_91_cif.got.tgz:181247.got - 2010.06.03 13:09:07.
