data_PCOD9194497
_publ_section_title
;
Structure prediction by ZEFSAII (Michael W. Deem and Ramdas Pophale) SiO2 
 PCOD9194497
Probable space group: C 2/M
;
_chemical_formula_sum "Si O2"
_cell_formula_units_Z 56
_cell_length_a 27.293825
_cell_length_b 8.923671
_cell_length_c 17.588121
_cell_angle_alpha 90.000000
_cell_angle_beta 44.741569
_cell_angle_gamma 90.000000
_cell_volume 3015.398154
_symmetry_space_group_name_H-M "C 2/M"
_symmetry_group_IT_number 12
_symmetry_cell_setting 'monoclinic'
loop_
_space_group_symop_operation_xyz
x,y,z
-x,y,-z
-x,-y,-z
x,-y,z
1/2+x,1/2+y,z
1/2-x,1/2+y,-z
1/2-x,1/2-y,-z
1/2+x,1/2-y,z
loop_
_atom_site_type_symbol
_atom_site_label
_atom_site_fract_x
_atom_site_fract_y
_atom_site_fract_z
Si Si1 0.659118 0.320924 0.453967
Si Si2 0.677325 0.179012 0.107163
Si Si3 0.936205 0.679404 0.896355
Si Si4 0.692893 0.677432 0.669081
Si Si5 0.412305 0.820519 0.333424
Si Si6 0.194538 0.178647 0.244729
Si Si7 0.157449 0.176394 0.880642
O O1 0.660108 0.500000 0.462002
O O2 0.731727 0.252353 0.404370
O O3 0.598976 0.248599 0.570839
O O4 0.657385 0.286992 0.365889
O O5 0.617797 0.215891 0.111785
O O6 0.661821 0.243105 0.207662
O O7 0.684491 0.000000 0.102525
O O8 0.750000 0.250000 0.000000
O O9 0.933742 0.500000 0.911313
O O10 0.013514 0.719980 0.784827
O O11 0.908621 0.761243 0.001746
O O12 0.700712 0.500000 0.645943
O O13 0.648004 0.754438 0.653519
O O14 0.655232 0.697196 0.792314
O O15 0.407123 0.000000 0.342826
O O16 0.273812 0.237341 0.165888
O O17 0.195964 0.000000 0.232692
O O18 0.166522 0.000000 0.885796
#
# Coordination Sequence:
#
# PCOD9194497 Si02
#       7
#     8   8   8   8   8   8   8
#     4  10  21  38  60  84 111 146 187 233 278 325
#     4  11  21  35  58  86 113 145 185 228 278 331
#     4  10  23  39  55  79 115 151 185 226 277 336
#     4  10  21  37  58  85 113 144 186 233 278 329
#     4  11  23  39  57  79 110 152 191 228 277 330
#     4  10  20  35  57  85 114 143 181 230 281 329
#     4  10  20  34  56  84 112 145 184 228 278 329
#
# _framework density 18.571345000000001
#
# number of rings (size 3 to 8) (size 9 to 14) (size 15 to 20)
#    0.000    1.714    1.429    3.000    0.000    5.714 
#    0.000    3.571    0.000    4.286    0.000    0.000 
#    0.000    0.000    0.000    0.000    0.000    0.000 
#
# Total GULP energy -156465.605545 kJ/mol
# GULP energy per Si atom -5588.057341 kJ/mol
# Density = 1.852908 g / cm^3
# Si number density = 18.571345 Si / 1000 Ang^3
#
#
#
# Elastic Constant Matrix: (Units=GPa)
#
#
# Indices 1 2 3 4 5 6 
#
# 1 29.4806 15.8772 6.5954 0.0004 14.9068 -0.0008
# 2 15.8772 56.7468 40.1241 -0.0028 13.0149 0.0044
# 3 6.5954 40.1241 111.0611 0.0018 17.8008 -0.0015
# 4 0.0004 -0.0028 0.0018 34.9688 0.0003 5.6407
# 5 14.9068 13.0149 17.8008 0.0003 17.8258 -0.0006
# 6 -0.0008 0.0044 -0.0015 5.6407 -0.0006 25.0807
#
#
#
# Elastic Compliance Matrix: (Units=1/GPa)
#
#
# Indices 1 2 3 4 5 6 
#
# 1 0.067182 -0.012640 0.009646 -0.000002 -0.056585 0.000004
# 2 -0.012640 0.027787 -0.009204 0.000004 -0.000527 -0.000007
# 3 0.009646 -0.009204 0.014254 -0.000002 -0.015580 0.000003
# 4 -0.000002 0.000004 -0.000002 0.029673 0.000000 -0.006674
# 5 -0.056585 -0.000527 -0.015580 0.000000 0.119361 0.000000
# 6 0.000004 -0.000007 0.000003 -0.006674 0.000000 0.041372
#
#
# Mechanical properties :
#
#
# Convention : Reuss Voigt Hill
#
# Bulk Modulus (GPa) = 11.78852 35.83131 23.80992
# Shear Modulus (GPa) = 14.19244 24.55451 19.37347
#
# Velocity S-wave (km/s) = 2.76744 3.64011 3.23335
# Velocity P-wave (km/s) = 4.07101 6.08301 5.17572
#
# Compressibility (1/GPa) = 0.08482828
#
# Stress axis : x y z
#
# Youngs Moduli (GPa) = 14.88495 35.98765 70.15770
#
# Poissons Ratio (x) = 0.45487 -0.67676
# Poissons Ratio (y) = 0.18814 0.64572
# Poissons Ratio (z) = -0.14358 0.33123
#
# Static dielectric constant tensor:
#      x y z
#    x 1.620400 0.000000 0.026340 
#    y 0.000000 1.617430 0.000000 
#    z 0.026340 0.000000 1.651460 
# 
# From -- ./inp_files/288144.got.cif
#   From: 2010.05.17/outbox.cif.g08.bks.cpg/sg12_145_cif.got.tgz:288144.got - 2010.06.03 13:09:07.
