data_PCOD9194188
_publ_section_title
;
Structure prediction by ZEFSAII (Michael W. Deem and Ramdas Pophale) SiO2 
 PCOD9194188
Probable space group: C 2/M
;
_chemical_formula_sum "Si O2"
_cell_formula_units_Z 48
_cell_length_a 7.551015
_cell_length_b 24.559123
_cell_length_c 20.474296
_cell_angle_alpha 90.000000
_cell_angle_beta 142.572466
_cell_angle_gamma 90.000000
_cell_volume 2307.583979
_symmetry_space_group_name_H-M "C 2/M"
_symmetry_group_IT_number 12
_symmetry_cell_setting 'monoclinic'
loop_
_space_group_symop_operation_xyz
x,y,z
-x,y,-z
-x,-y,-z
x,-y,z
1/2+x,1/2+y,z
1/2-x,1/2+y,-z
1/2-x,1/2-y,-z
1/2+x,1/2-y,z
loop_
_atom_site_type_symbol
_atom_site_label
_atom_site_fract_x
_atom_site_fract_y
_atom_site_fract_z
Si Si1 0.163690 0.564302 0.640675
Si Si2 0.447659 0.399362 0.592661
Si Si3 0.140839 0.778916 0.236465
Si Si4 0.426107 0.937116 0.240162
Si Si5 0.657248 0.709406 0.385539
Si Si6 0.773075 0.173730 0.874870
O O1 0.122298 0.500000 0.621457
O O2 0.385833 0.581538 0.649100
O O3 0.852951 0.590618 0.532673
O O4 0.229985 0.573925 0.735992
O O5 0.726577 0.430045 0.647222
O O6 0.482898 0.334542 0.607142
O O7 0.485374 0.765416 0.341784
O O8 0.086210 0.807167 0.289740
O O9 0.084778 0.810512 0.153476
O O10 0.964834 0.721717 0.183138
O O11 0.346986 0.887744 0.168449
O O12 0.367928 0.000000 0.203263
O O13 0.000000 0.712235 0.500000
O O14 0.000000 0.176038 0.000000
#
# Coordination Sequence:
#
# PCOD9194188 Si02
#       6
#     8   8   8   8   8   8
#     4  10  20  34  55  82 118 163 203 239 290 362
#     4  11  19  34  57  84 122 162 201 240 291 366
#     4  10  23  40  60  88 121 155 202 251 306 365
#     4  11  23  39  60  89 123 158 202 256 309 364
#     4  11  20  36  57  89 125 159 192 238 305 371
#     4  11  23  42  65  87 112 156 211 264 310 351
#
# _framework density 20.800977
#
# number of rings (size 3 to 8) (size 9 to 14) (size 15 to 20)
#    0.000    1.333    3.333    4.500    0.000    1.667 
#    0.000    0.000    0.000    0.000    0.000    4.667 
#    0.000    0.000    0.000    0.000    0.000    0.000 
#
# Total GULP energy -133958.622925 kJ/mol
# GULP energy per Si atom -5581.609289 kJ/mol
# Density = 2.075363 g / cm^3
# Si number density = 20.800977 Si / 1000 Ang^3
#
#
#
# Elastic Constant Matrix: (Units=GPa)
#
#
# Indices 1 2 3 4 5 6 
#
# 1 66.9542 17.9001 12.1118 0.0000 -11.1826 0.0000
# 2 17.9001 85.6496 28.8452 -0.0001 -17.2203 0.0001
# 3 12.1118 28.8452 59.4652 -0.0005 -13.6960 0.0000
# 4 0.0000 -0.0001 -0.0005 16.3621 0.0000 -5.2370
# 5 -11.1826 -17.2203 -13.6960 0.0000 21.4161 0.0000
# 6 0.0000 0.0001 0.0000 -5.2370 0.0000 27.9155
#
#
#
# Elastic Compliance Matrix: (Units=1/GPa)
#
#
# Indices 1 2 3 4 5 6 
#
# 1 0.016709 -0.001827 -0.000992 0.000000 0.006622 0.000000
# 2 -0.001827 0.015460 -0.005258 0.000000 0.008114 0.000000
# 3 -0.000992 -0.005258 0.021668 0.000001 0.009111 0.000000
# 4 0.000000 0.000000 0.000001 0.065021 0.000000 0.012198
# 5 0.006622 0.008114 0.009111 0.000000 0.062502 0.000000
# 6 0.000000 0.000000 0.000000 0.012198 0.000000 0.038111
#
#
# Mechanical properties :
#
#
# Convention : Reuss Voigt Hill
#
# Bulk Modulus (GPa) = 26.53744 36.64256 31.59000
# Shear Modulus (GPa) = 20.14622 23.35287 21.74954
#
# Velocity S-wave (km/s) = 3.11549 3.35428 3.23708
# Velocity P-wave (km/s) = 5.07219 5.71451 5.40290
#
# Compressibility (1/GPa) = 0.03768262
#
# Stress axis : x y z
#
# Youngs Moduli (GPa) = 59.84666 64.68513 46.15171
#
# Poissons Ratio (x) = 0.11816 0.04579
# Poissons Ratio (y) = 0.10932 0.24267
# Poissons Ratio (z) = 0.05938 0.34012
#
# Static dielectric constant tensor:
#      x y z
#    x 1.800220 0.000000 -0.010680 
#    y 0.000000 1.785540 0.000000 
#    z -0.010680 0.000000 1.722880 
# 
# From -- ./inp_files/121924.got.cif
#   From: 2010.05.17/outbox.cif.g08.bks.cpg/sg12_61_cif.got.tgz:121924.got - 2010.06.03 13:09:07.
