data_PCOD9194717
_publ_section_title
;
Structure prediction by ZEFSAII (Michael W. Deem and Ramdas Pophale) SiO2 
 PCOD9194717
Probable space group: C 2/M
;
_chemical_formula_sum "Si O2"
_cell_formula_units_Z 32
_cell_length_a 13.198895
_cell_length_b 32.114686
_cell_length_c 10.008383
_cell_angle_alpha 90.000000
_cell_angle_beta 20.911683
_cell_angle_gamma 90.000000
_cell_volume 1514.210928
_symmetry_space_group_name_H-M "C 2/M"
_symmetry_group_IT_number 12
_symmetry_cell_setting 'monoclinic'
loop_
_space_group_symop_operation_xyz
x,y,z
-x,y,-z
-x,-y,-z
x,-y,z
1/2+x,1/2+y,z
1/2-x,1/2+y,-z
1/2-x,1/2-y,-z
1/2+x,1/2-y,z
loop_
_atom_site_type_symbol
_atom_site_label
_atom_site_fract_x
_atom_site_fract_y
_atom_site_fract_z
Si Si1 0.226476 0.818354 0.608502
Si Si2 0.860024 0.047452 0.821144
Si Si3 0.636092 0.096119 0.684073
Si Si4 0.157164 0.768573 0.440092
O O1 0.377373 0.859315 0.370084
O O2 0.080849 0.797552 0.658147
O O3 0.405854 0.779535 0.445615
O O4 0.000000 0.829786 0.000000
O O5 0.000000 0.047237 0.500000
O O6 0.049597 0.078026 0.677911
O O7 0.866380 0.000000 0.862744
O O8 0.546887 0.064365 0.178980
O O9 0.500000 0.099681 0.000000
O O10 0.000000 0.781021 0.500000
O O11 0.500000 0.771147 0.000000
#
# Coordination Sequence:
#
# PCOD9194717 Si02
#       4
#     8   8   8   8
#     4  10  23  39  60  88 120 155 195 241 291 343
#     4   9  18  34  57  84 111 144 190 239 283 333
#     4  10  20  34  57  85 114 148 188 236 286 341
#     4  10  23  42  62  83 115 158 201 242 285 338
#
# _framework density 21.133119000000001
#
# number of rings (size 3 to 8) (size 9 to 14) (size 15 to 20)
#    0.000    2.250    0.000    1.500    0.000   22.000 
#    0.000    0.000    0.000    4.500    0.000    0.000 
#    0.000    0.000    0.000    0.000    0.000    0.000 
#
# Total GULP energy -89402.345176 kJ/mol
# GULP energy per Si atom -5587.646574 kJ/mol
# Density = 2.108502 g / cm^3
# Si number density = 21.133119 Si / 1000 Ang^3
#
#
#
# Elastic Constant Matrix: (Units=GPa)
#
#
# Indices 1 2 3 4 5 6 
#
# 1 103.2018 8.9019 41.6465 -0.0001 -6.0152 0.0001
# 2 8.9019 85.0668 16.3698 0.0000 6.2332 0.0000
# 3 41.6465 16.3698 45.7045 -0.0001 -6.7652 0.0001
# 4 -0.0001 0.0000 -0.0001 -8.3402 0.0001 29.7623
# 5 -6.0152 6.2332 -6.7652 0.0001 27.3712 -0.0001
# 6 0.0001 0.0000 0.0001 29.7623 -0.0001 -5.8168
#
#
#
# Elastic Compliance Matrix: (Units=1/GPa)
#
#
# Indices 1 2 3 4 5 6 
#
# 1 0.015439 0.001226 -0.014580 0.000000 -0.000490 0.000000
# 2 0.001226 0.013193 -0.006484 0.000000 -0.004338 0.000000
# 3 -0.014580 -0.006484 0.038646 0.000000 0.007824 0.000000
# 4 0.000000 0.000000 0.000000 0.006947 0.000000 0.035546
# 5 -0.000490 -0.004338 0.007824 0.000000 0.039349 0.000000
# 6 0.000000 0.000000 0.000000 0.035546 0.000000 0.009961
#
#
# Mechanical properties :
#
#
# Convention : Reuss Voigt Hill
#
# Bulk Modulus (GPa) = 36.23061 40.86774 38.54917
# Shear Modulus (GPa) = 29.00030 13.77982 21.39006
#
# Velocity S-wave (km/s) = 3.70843 2.55629 3.18489
# Velocity P-wave (km/s) = 5.95968 5.30029 5.63963
#
# Compressibility (1/GPa) = 0.02760097
#
# Stress axis : x y z
#
# Youngs Moduli (GPa) = 64.77062 75.79871 25.87604
#
# Poissons Ratio (x) = -0.09292 0.37727
# Poissons Ratio (y) = -0.07940 0.16779
# Poissons Ratio (z) = 0.94435 0.49151
#
# Static dielectric constant tensor:
#      x y z
#    x 1.741630 0.000000 -0.006300 
#    y 0.000000 1.732740 0.000000 
#    z -0.006300 0.000000 1.809780 
# 
# From -- ./inp_files/3740.got.cif
#   From: 2010.05.17/outbox.cif.g08.bks.cpg/sg12_2_cif.got.tgz:3740.got - 2010.06.03 13:09:07.
