data_PCOD9194077
_publ_section_title
;
Structure prediction by ZEFSAII (Michael W. Deem and Ramdas Pophale) SiO2 
 PCOD9194077
Probable space group: C 2/M
;
_chemical_formula_sum "Si O2"
_cell_formula_units_Z 64
_cell_length_a 18.253208
_cell_length_b 20.614168
_cell_length_c 17.857080
_cell_angle_alpha 90.000000
_cell_angle_beta 146.961741
_cell_angle_gamma 90.000000
_cell_volume 3663.282865
_symmetry_space_group_name_H-M "C 2/M"
_symmetry_group_IT_number 12
_symmetry_cell_setting 'monoclinic'
loop_
_space_group_symop_operation_xyz
x,y,z
-x,y,-z
-x,-y,-z
x,-y,z
1/2+x,1/2+y,z
1/2-x,1/2+y,-z
1/2-x,1/2-y,-z
1/2+x,1/2-y,z
loop_
_atom_site_type_symbol
_atom_site_label
_atom_site_fract_x
_atom_site_fract_y
_atom_site_fract_z
Si Si1 0.204888 0.679302 0.334659
Si Si2 0.006185 0.075621 0.094842
Si Si3 0.210366 0.576302 0.905354
Si Si4 0.293882 0.673111 0.655880
Si Si5 0.315530 0.426680 0.156161
Si Si6 0.463274 0.683023 0.648723
Si Si7 0.146048 0.572179 0.161645
Si Si8 0.531218 0.169470 0.339369
O O1 0.198395 0.754465 0.303363
O O2 0.358375 0.669590 0.492588
O O3 0.167946 0.628286 0.239907
O O4 0.110105 0.669255 0.326810
O O5 0.860012 0.093888 0.003792
O O6 0.029236 0.000000 0.134713
O O7 0.000000 0.080581 0.000000
O O8 0.125975 0.120240 0.228091
O O9 0.189014 0.500000 0.869905
O O10 0.092515 0.620222 0.770787
O O11 0.216078 0.583586 0.000557
O O12 0.374152 0.680654 0.647007
O O13 0.142511 0.656171 0.499441
O O14 0.370848 0.500000 0.193175
O O15 0.426208 0.371537 0.249678
O O16 0.245118 0.423541 0.175959
O O17 0.516808 0.756441 0.688763
O O18 0.160294 0.500000 0.208307
O O19 0.000000 0.576829 0.000000
#
# Coordination Sequence:
#
# PCOD9194077 Si02
#       8
#     8   8   8   8   8   8   8   8
#     4   9  19  35  54  78 110 145 182 223 264 313
#     4  10  21  38  58  79 106 137 173 224 277 326
#     4  10  20  36  56  82 110 136 178 226 268 324
#     4   9  18  37  58  79 107 142 182 221 267 325
#     4  10  20  34  55  80 110 146 183 222 267 321
#     4   9  18  35  55  78 108 140 181 227 268 311
#     4  10  21  36  51  75 114 151 183 224 269 316
#     4   9  19  35  57  81 109 143 179 225 269 314
#
# _framework density 17.470668
#
# number of rings (size 3 to 8) (size 9 to 14) (size 15 to 20)
#    0.000    2.500    1.250    2.250    0.000    4.000 
#    4.500    4.375    0.000    2.250    0.000    0.000 
#    0.000    0.000    0.000    0.000    0.000    0.000 
#
# Total GULP energy -178371.895567 kJ/mol
# GULP energy per Si atom -5574.121736 kJ/mol
# Density = 1.743090 g / cm^3
# Si number density = 17.470668 Si / 1000 Ang^3
#
#
#
# Elastic Constant Matrix: (Units=GPa)
#
#
# Indices 1 2 3 4 5 6 
#
# 1 31.8597 38.4442 28.8217 0.0011 -4.7593 0.0004
# 2 38.4442 143.1977 109.2125 0.0003 9.0771 0.0007
# 3 28.8217 109.2125 110.8915 0.0027 7.1224 0.0015
# 4 0.0011 0.0003 0.0027 73.5703 0.0013 -7.0398
# 5 -4.7593 9.0771 7.1224 0.0013 23.0216 0.0008
# 6 0.0004 0.0007 0.0015 -7.0398 0.0008 30.1479
#
#
#
# Elastic Compliance Matrix: (Units=1/GPa)
#
#
# Indices 1 2 3 4 5 6 
#
# 1 0.052017 -0.015646 0.000819 -0.000001 0.016669 -0.000001
# 2 -0.015646 0.032915 -0.027862 0.000001 -0.007592 0.000001
# 3 0.000819 -0.027862 0.036249 -0.000001 -0.000060 -0.000001
# 4 -0.000001 0.000001 -0.000001 0.013903 -0.000001 0.003247
# 5 0.016669 -0.007592 -0.000060 -0.000001 0.049896 -0.000002
# 6 -0.000001 0.000001 -0.000001 0.003247 -0.000002 0.033928
#
#
# Mechanical properties :
#
#
# Convention : Reuss Voigt Hill
#
# Bulk Modulus (GPa) = 27.93153 70.98954 49.46053
# Shear Modulus (GPa) = 15.81179 32.64598 24.22889
#
# Velocity S-wave (km/s) = 3.01167 4.32744 3.72806
# Velocity P-wave (km/s) = 5.30244 8.10498 6.84860
#
# Compressibility (1/GPa) = 0.03580183
#
# Stress axis : x y z
#
# Youngs Moduli (GPa) = 19.22465 30.38150 27.58686
#
# Poissons Ratio (x) = 0.47535 -0.02259
# Poissons Ratio (y) = 0.30079 0.76863
# Poissons Ratio (z) = -0.01574 0.84650
#
# Static dielectric constant tensor:
#      x y z
#    x 1.637490 0.000000 0.032880 
#    y 0.000000 1.595630 0.000000 
#    z 0.032880 0.000000 1.604620 
# 
# From -- ./inp_files/285232.got.cif
#   From: 2010.05.17/outbox.cif.g08.bks.cpg/sg12_143_cif.got.tgz:285232.got - 2010.06.03 13:09:07.
