data_PCOD9194714
_publ_section_title
;
Structure prediction by ZEFSAII (Michael W. Deem and Ramdas Pophale) SiO2 
 PCOD9194714
Probable space group: C 2/M
;
_chemical_formula_sum "Si O2"
_cell_formula_units_Z 64
_cell_length_a 24.992895
_cell_length_b 19.293222
_cell_length_c 19.909447
_cell_angle_alpha 90.000000
_cell_angle_beta 157.418989
_cell_angle_gamma 90.000000
_cell_volume 3686.376434
_symmetry_space_group_name_H-M "C 2/M"
_symmetry_group_IT_number 12
_symmetry_cell_setting 'monoclinic'
loop_
_space_group_symop_operation_xyz
x,y,z
-x,y,-z
-x,-y,-z
x,-y,z
1/2+x,1/2+y,z
1/2-x,1/2+y,-z
1/2-x,1/2-y,-z
1/2+x,1/2-y,z
loop_
_atom_site_type_symbol
_atom_site_label
_atom_site_fract_x
_atom_site_fract_y
_atom_site_fract_z
Si Si1 0.634609 0.689537 0.609319
Si Si2 0.794970 0.639849 0.584320
Si Si3 0.656182 0.419783 0.163921
Si Si4 0.153498 0.582689 0.208046
Si Si5 0.474872 0.724826 0.754508
Si Si6 0.036079 0.285968 0.689341
Si Si7 0.870401 0.423104 0.533277
Si Si8 0.220470 0.803584 0.135391
O O1 0.500000 0.672347 0.500000
O O2 0.722839 0.624483 0.685739
O O3 0.572999 0.737433 0.477926
O O4 0.741313 0.737817 0.774379
O O5 0.835805 0.605804 0.701913
O O6 0.636743 0.667444 0.397633
O O7 0.889173 0.707976 0.680086
O O8 0.819776 0.589331 0.550314
O O9 0.649727 0.500000 0.133701
O O10 0.744194 0.417803 0.334296
O O11 0.724758 0.370836 0.187668
O O12 0.500000 0.395830 0.000000
O O13 0.172059 0.500000 0.223520
O O14 0.000000 0.599870 0.000000
O O15 0.562494 0.747937 0.790643
O O16 0.572183 0.700470 0.927439
O O17 0.970634 0.360130 0.630932
O O18 0.164930 0.300307 0.790302
O O19 0.932397 0.500000 0.598333
#
# Coordination Sequence:
#
# PCOD9194714 Si02
#       8
#     8   8   8   8   8   8   8   8
#     4  10  21  38  58  84 117 149 188 236 290 344
#     4  10  20  36  57  84 112 143 184 230 285 339
#     4  10  21  35  52  81 116 148 188 231 278 339
#     4  11  23  39  61  88 113 145 193 241 286 344
#     4  10  20  34  57  85 113 144 186 235 281 333
#     4  10  20  37  54  82 113 148 194 231 275 341
#     4  10  20  35  55  79 113 151 182 226 280 330
#     4  11  21  34  59  83 110 151 189 235 281 328
#
# _framework density 17.361222000000001
#
# number of rings (size 3 to 8) (size 9 to 14) (size 15 to 20)
#    0.000    1.750    2.500    2.250    0.000    2.250 
#    0.000    1.875    0.000    0.000    0.000    0.000 
#    0.000    0.000    0.000    0.000    0.000    0.000 
#
# Total GULP energy -178530.068337 kJ/mol
# GULP energy per Si atom -5579.064636 kJ/mol
# Density = 1.732171 g / cm^3
# Si number density = 17.361222 Si / 1000 Ang^3
#
#
#
# Elastic Constant Matrix: (Units=GPa)
#
#
# Indices 1 2 3 4 5 6 
#
# 1 96.8952 47.5363 37.0225 0.0005 -14.0321 0.0004
# 2 47.5363 91.8223 38.1262 0.0003 -3.1200 0.0015
# 3 37.0225 38.1262 88.0076 -0.0002 -17.9568 0.0011
# 4 0.0005 0.0003 -0.0002 22.2274 -0.0001 3.7847
# 5 -14.0321 -3.1200 -17.9568 -0.0001 26.2241 0.0008
# 6 0.0004 0.0015 0.0011 3.7847 0.0008 4.7729
#
#
#
# Elastic Compliance Matrix: (Units=1/GPa)
#
#
# Indices 1 2 3 4 5 6 
#
# 1 0.015395 -0.006799 -0.002342 0.000000 0.005825 0.000001
# 2 -0.006799 0.016454 -0.005360 0.000000 -0.005351 -0.000003
# 3 -0.002342 -0.005360 0.016604 0.000001 0.009478 -0.000004
# 4 0.000000 0.000000 0.000001 0.052012 0.000002 -0.041244
# 5 0.005825 -0.005351 0.009478 0.000002 0.047103 -0.000010
# 6 0.000001 -0.000003 -0.000004 -0.041244 -0.000010 0.242222
#
#
# Mechanical properties :
#
#
# Convention : Reuss Voigt Hill
#
# Bulk Modulus (GPa) = 51.41271 58.01057 54.71164
# Shear Modulus (GPa) = 11.75708 20.91419 16.33564
#
# Velocity S-wave (km/s) = 2.60514 3.47457 3.07078
# Velocity P-wave (km/s) = 6.22309 7.04154 6.64493
#
# Compressibility (1/GPa) = 0.01945044
#
# Stress axis : x y z
#
# Youngs Moduli (GPa) = 64.95798 60.77464 60.22752
#
# Poissons Ratio (x) = 0.41323 0.14106
# Poissons Ratio (y) = 0.44167 0.32280
# Poissons Ratio (z) = 0.15213 0.32573
#
# Static dielectric constant tensor:
#      x y z
#    x 1.587810 0.000000 0.000850 
#    y 0.000000 1.567220 0.000000 
#    z 0.000850 0.000000 1.578960 
# 
# From -- ./inp_files/328677.got.cif
#   From: 2010.05.17/outbox.cif.g08.bks.cpg/sg12_165_cif.got.tgz:328677.got - 2010.06.03 13:09:07.
