data_PCOD9194398
_publ_section_title
;
Structure prediction by ZEFSAII (Michael W. Deem and Ramdas Pophale) SiO2 
 PCOD9194398
Probable space group: C 2/M
;
_chemical_formula_sum "Si O2"
_cell_formula_units_Z 64
_cell_length_a 16.054460
_cell_length_b 14.611031
_cell_length_c 33.561118
_cell_angle_alpha 90.000000
_cell_angle_beta 158.010997
_cell_angle_gamma 90.000000
_cell_volume 2947.691517
_symmetry_space_group_name_H-M "C 2/M"
_symmetry_group_IT_number 12
_symmetry_cell_setting 'monoclinic'
loop_
_space_group_symop_operation_xyz
x,y,z
-x,y,-z
-x,-y,-z
x,-y,z
1/2+x,1/2+y,z
1/2-x,1/2+y,-z
1/2-x,1/2-y,-z
1/2+x,1/2-y,z
loop_
_atom_site_type_symbol
_atom_site_label
_atom_site_fract_x
_atom_site_fract_y
_atom_site_fract_z
Si Si1 0.331395 0.300087 0.996201
Si Si2 0.473572 0.201624 0.212311
Si Si3 0.103191 0.888632 0.626729
Si Si4 0.658325 0.153562 0.101110
Si Si5 0.731624 0.106196 0.801733
Si Si6 0.396083 0.394446 0.284415
Si Si7 0.417428 0.888877 0.593214
Si Si8 0.385808 0.887545 0.489722
O O1 0.139035 0.326702 0.879859
O O2 0.250000 0.250000 0.000000
O O3 0.490944 0.233379 0.041302
O O4 0.505118 0.378319 0.085463
O O5 0.730492 0.171565 0.326058
O O6 0.382603 0.304983 0.180286
O O7 0.360177 0.147610 0.198251
O O8 0.171409 0.861202 0.702248
O O9 0.838205 0.869000 0.507568
O O10 0.134044 0.000000 0.633730
O O11 0.729151 0.109750 0.173986
O O12 0.500000 0.101176 0.000000
O O13 0.595428 0.146906 0.703960
O O14 0.683307 0.000000 0.781372
O O15 0.448003 0.500000 0.315714
O O16 0.631350 0.354267 0.375680
O O17 0.466951 0.858926 0.569773
O O18 0.429465 0.000000 0.597594
O O19 0.500000 0.855311 0.500000
O O20 0.398242 0.000000 0.494438
#
# Coordination Sequence:
#
# PCOD9194398 Si02
#       8
#     8   8   8   8   8   8   8   8
#     4  10  21  38  56  73 105 153 188 222 270 327
#     4  10  20  34  56  79 107 153 187 215 270 338
#     4   9  17  31  56  84 109 140 180 224 270 324
#     4   9  19  35  51  71 105 144 177 216 276 329
#     4  10  20  35  58  86 115 142 181 235 276 324
#     4   9  17  31  55  80 102 133 178 231 273 316
#     4   8  16  31  51  81 116 144 172 221 286 329
#     4   8  14  28  51  75 103 140 177 217 269 326
#
# _framework density 21.711905000000002
#
# number of rings (size 3 to 8) (size 9 to 14) (size 15 to 20)
#    0.000    2.875    0.000    3.750    0.000    2.250 
#    4.500    2.500    5.500    6.750    0.000    0.000 
#    0.000    0.000    0.000    0.000    0.000    0.000 
#
# Total GULP energy -178287.975185 kJ/mol
# GULP energy per Si atom -5571.499225 kJ/mol
# Density = 2.166249 g / cm^3
# Si number density = 21.711905 Si / 1000 Ang^3
#
#
#
# Elastic Constant Matrix: (Units=GPa)
#
#
# Indices 1 2 3 4 5 6 
#
# 1 88.2206 9.4930 26.6289 -0.0050 3.0443 -0.0077
# 2 9.4930 37.0905 1.9575 0.0109 2.0597 0.0062
# 3 26.6289 1.9575 64.0700 0.0508 -23.3761 0.0216
# 4 -0.0050 0.0109 0.0508 116.2765 -0.0273 56.1086
# 5 3.0443 2.0597 -23.3761 -0.0273 43.1238 -0.0141
# 6 -0.0077 0.0062 0.0216 56.1086 -0.0141 50.2422
#
#
#
# Elastic Compliance Matrix: (Units=1/GPa)
#
#
# Indices 1 2 3 4 5 6 
#
# 1 0.014113 -0.002936 -0.007590 0.000002 -0.004970 0.000002
# 2 -0.002936 0.027778 -0.000046 -0.000002 -0.001145 -0.000002
# 3 -0.007590 -0.000046 0.023634 -0.000008 0.013349 0.000002
# 4 0.000002 -0.000002 -0.000008 0.018651 0.000000 -0.020829
# 5 -0.004970 -0.001145 0.013349 0.000000 0.030831 0.000002
# 6 0.000002 -0.000002 0.000002 -0.020829 0.000002 0.043164
#
#
# Mechanical properties :
#
#
# Convention : Reuss Voigt Hill
#
# Bulk Modulus (GPa) = 22.53092 29.50443 26.01767
# Shear Modulus (GPa) = 25.75863 52.01527 38.88695
#
# Velocity S-wave (km/s) = 3.44813 4.89990 4.23666
# Velocity P-wave (km/s) = 5.12372 6.75504 5.99513
#
# Compressibility (1/GPa) = 0.04438345
#
# Stress axis : x y z
#
# Youngs Moduli (GPa) = 70.85415 35.99917 42.31134
#
# Poissons Ratio (x) = 0.10568 0.32113
# Poissons Ratio (y) = 0.20801 0.00195
# Poissons Ratio (z) = 0.53775 0.00166
#
# Static dielectric constant tensor:
#      x y z
#    x 1.789660 0.000000 -0.035350 
#    y 0.000000 1.859620 0.000000 
#    z -0.035350 0.000000 1.886480 
# 
# From -- ./inp_files/377116.got.cif
#   From: 2010.05.17/outbox.cif.g08.bks.cpg/sg12_189_cif.got.tgz:377116.got - 2010.06.03 13:09:07.
