data_PCOD9194560
_publ_section_title
;
Structure prediction by ZEFSAII (Michael W. Deem and Ramdas Pophale) SiO2 
 PCOD9194560
Probable space group: C 2/M
;
_chemical_formula_sum "Si O2"
_cell_formula_units_Z 32
_cell_length_a 20.841248
_cell_length_b 8.255022
_cell_length_c 25.511548
_cell_angle_alpha 90.000000
_cell_angle_beta 160.923946
_cell_angle_gamma 90.000000
_cell_volume 1434.469448
_symmetry_space_group_name_H-M "C 2/M"
_symmetry_group_IT_number 12
_symmetry_cell_setting 'monoclinic'
loop_
_space_group_symop_operation_xyz
x,y,z
-x,y,-z
-x,-y,-z
x,-y,z
1/2+x,1/2+y,z
1/2-x,1/2+y,-z
1/2-x,1/2-y,-z
1/2+x,1/2-y,z
loop_
_atom_site_type_symbol
_atom_site_label
_atom_site_fract_x
_atom_site_fract_y
_atom_site_fract_z
Si Si1 0.499998 0.679276 0.436553
Si Si2 0.168749 0.500000 0.674499
Si Si3 0.051969 0.686232 0.248182
Si Si4 0.412967 0.500000 0.991125
Si Si5 0.765458 0.680047 0.926671
O O1 0.500000 0.667344 0.500000
O O2 0.441268 0.500000 0.371816
O O3 0.720211 0.715800 0.587287
O O4 0.365752 0.833316 0.321081
O O5 0.385877 0.500000 0.818943
O O6 0.000000 0.500000 0.500000
O O7 0.033034 0.500000 0.252265
O O8 0.944295 0.799827 0.206620
O O9 0.927821 0.693669 0.098483
O O10 0.500000 0.500000 0.000000
O O11 0.301115 0.335223 0.918231
O O12 0.784966 0.500000 0.918535
#
# Coordination Sequence:
#
# PCOD9194560 Si02
#       5
#     8   4   8   4   8
#     4   9  17  29  48  82 117 145 174 234 296 343
#     4  10  20  34  58  84 110 147 195 241 282 344
#     4   9  17  31  55  90 126 144 189 256 302 337
#     4  12  26  42  58  84 127 161 195 241 296 360
#     4  10  20  34  56  85 116 160 197 241 296 352
#
# _framework density 22.307898999999999
#
# number of rings (size 3 to 8) (size 9 to 14) (size 15 to 20)
#    0.000    2.250    1.250    3.000    3.500    3.500 
#    0.000    0.000    0.000    1.500    0.000    0.000 
#    0.000    0.000    0.000    0.000    0.000    0.000 
#
# Total GULP energy -89309.049071 kJ/mol
# GULP energy per Si atom -5581.815567 kJ/mol
# Density = 2.225713 g / cm^3
# Si number density = 22.307899 Si / 1000 Ang^3
#
#
#
# Elastic Constant Matrix: (Units=GPa)
#
#
# Indices 1 2 3 4 5 6 
#
# 1 76.6958 62.9205 25.1611 0.0042 16.8124 0.0001
# 2 62.9205 224.3400 34.2757 0.0179 30.2299 -0.0033
# 3 25.1611 34.2757 50.1974 0.0733 14.8673 -0.0235
# 4 0.0042 0.0179 0.0733 16.0596 -0.0054 18.0461
# 5 16.8124 30.2299 14.8673 -0.0054 31.0063 -0.0002
# 6 0.0001 -0.0033 -0.0235 18.0461 -0.0002 -2.0767
#
#
#
# Elastic Compliance Matrix: (Units=1/GPa)
#
#
# Indices 1 2 3 4 5 6 
#
# 1 0.018961 -0.003947 -0.005715 -0.000005 -0.003692 0.000026
# 2 -0.003947 0.006204 -0.001282 -0.000001 -0.003294 0.000000
# 3 -0.005715 -0.001282 0.026077 0.000020 -0.008154 -0.000123
# 4 -0.000005 -0.000001 0.000020 0.005785 -0.000005 0.050266
# 5 -0.003692 -0.003294 -0.008154 -0.000005 0.041375 0.000054
# 6 0.000026 0.000000 -0.000123 0.050266 0.000054 -0.044732
#
#
# Mechanical properties :
#
#
# Convention : Reuss Voigt Hill
#
# Bulk Modulus (GPa) = 34.06862 66.21643 50.14252
# Shear Modulus (GPa) = 58.58637 24.25622 41.42130
#
# Velocity S-wave (km/s) = 5.13027 3.30106 4.31373
# Velocity P-wave (km/s) = 7.09915 6.65407 6.88021
#
# Compressibility (1/GPa) = 0.02935252
#
# Stress axis : x y z
#
# Youngs Moduli (GPa) = 52.73921 161.17641 38.34828
#
# Poissons Ratio (x) = 0.63621 0.21917
# Poissons Ratio (y) = 0.20818 0.04918
# Poissons Ratio (z) = 0.30142 0.20669
#
# Static dielectric constant tensor:
#      x y z
#    x 1.823670 0.000090 -0.037590 
#    y 0.000090 2.569250 0.000160 
#    z -0.037590 0.000160 1.830510 
# 
# From -- ./inp_files/161817.got.cif
#   From: 2010.05.17/outbox.cif.g08.bks.cpg/sg12_81_cif.got.tgz:161817.got - 2010.06.03 13:09:07.
