data_PCOD9194811
_publ_section_title
;
Structure prediction by ZEFSAII (Michael W. Deem and Ramdas Pophale) SiO2 
 PCOD9194811
Probable space group: C 2/M
;
_chemical_formula_sum "Si O2"
_cell_formula_units_Z 58
_cell_length_a 7.965384
_cell_length_b 17.487635
_cell_length_c 18.267794
_cell_angle_alpha 90.000000
_cell_angle_beta 71.214922
_cell_angle_gamma 90.000000
_cell_volume 2409.081492
_symmetry_space_group_name_H-M "C 2/M"
_symmetry_group_IT_number 12
_symmetry_cell_setting 'monoclinic'
loop_
_space_group_symop_operation_xyz
x,y,z
-x,y,-z
-x,-y,-z
x,-y,z
1/2+x,1/2+y,z
1/2-x,1/2+y,-z
1/2-x,1/2-y,-z
1/2+x,1/2-y,z
loop_
_atom_site_type_symbol
_atom_site_label
_atom_site_fract_x
_atom_site_fract_y
_atom_site_fract_z
Si Si1 0.682806 0.779865 0.087281
Si Si2 0.000000 0.500000 0.000000
Si Si3 0.337452 0.310129 0.381005
Si Si4 0.556277 0.581769 0.262887
Si Si5 0.007445 0.646156 0.666652
Si Si6 0.757873 0.912333 0.177779
Si Si7 0.191143 0.582602 0.514148
Si Si8 0.319305 0.868778 0.120183
O O1 0.792572 0.848098 0.111088
O O2 0.495216 0.819427 0.104415
O O3 0.678083 0.700405 0.131254
O O4 0.750000 0.750000 0.000000
O O5 0.865565 0.431913 0.052342
O O6 0.507420 0.354157 0.326514
O O7 0.379799 0.223650 0.354322
O O8 0.296794 0.343945 0.467632
O O9 0.166362 0.336404 0.358723
O O10 0.528371 0.500000 0.302214
O O11 0.417143 0.584953 0.214058
O O12 0.748887 0.588657 0.201159
O O13 0.134751 0.588050 0.606433
O O14 0.916813 0.616177 0.753508
O O15 0.732819 0.000000 0.152514
O O16 0.275709 0.500000 0.486277
O O17 0.000000 0.583279 0.500000
#
# Coordination Sequence:
#
# PCOD9194811 Si02
#       8
#     8   2   8   8   8   8   8   8
#     4  12  25  43  65  92 124 159 205 257 321 384
#     4  12  24  44  68  94 122 160 208 258 318 388
#     4  10  20  34  57  88 124 161 208 253 310 368
#     4  10  21  39  63  92 125 163 208 261 315 379
#     4  10  20  36  57  87 122 164 207 258 309 375
#     4  10  23  41  65  95 128 165 214 268 323 382
#     4   9  17  32  57  85 117 160 209 257 305 362
#     4  12  25  44  68  93 125 164 204 258 320 387
#
# _framework density 24.075568000000001
#
# number of rings (size 3 to 8) (size 9 to 14) (size 15 to 20)
#    0.000    1.517    2.069    2.897    0.966    6.621 
#    0.000    0.000    0.000    7.448    0.000    0.000 
#    0.000    0.000    0.000    0.000    0.000    0.000 
#
# Total GULP energy -161598.548280 kJ/mol
# GULP energy per Si atom -5572.363734 kJ/mol
# Density = 2.402077 g / cm^3
# Si number density = 24.075568 Si / 1000 Ang^3
#
#
#
# Elastic Constant Matrix: (Units=GPa)
#
#
# Indices 1 2 3 4 5 6 
#
# 1 50.2116 30.4636 28.1210 0.0000 -10.3317 0.0000
# 2 30.4636 185.4470 21.3739 0.0000 -14.4974 0.0000
# 3 28.1210 21.3739 72.9299 0.0000 -25.5481 0.0000
# 4 0.0000 0.0000 0.0000 44.2765 0.0000 -7.4745
# 5 -10.3317 -14.4974 -25.5481 0.0000 17.9508 0.0000
# 6 0.0000 0.0000 0.0000 -7.4745 0.0000 19.8015
#
#
#
# Elastic Compliance Matrix: (Units=1/GPa)
#
#
# Indices 1 2 3 4 5 6 
#
# 1 0.027326 -0.003437 -0.009956 0.000000 -0.001217 0.000000
# 2 -0.003437 0.006188 0.001135 0.000000 0.004636 0.000000
# 3 -0.009956 0.001135 0.030975 0.000000 0.039272 0.000000
# 4 0.000000 0.000000 0.000000 0.024122 0.000000 0.009106
# 5 -0.001217 0.004636 0.039272 0.000000 0.114644 0.000000
# 6 0.000000 0.000000 0.000000 0.009106 0.000000 0.053938
#
#
# Mechanical properties :
#
#
# Convention : Reuss Voigt Hill
#
# Bulk Modulus (GPa) = 25.01519 52.05615 38.53567
# Shear Modulus (GPa) = 16.94725 31.64778 24.29751
#
# Velocity S-wave (km/s) = 2.65603 3.62956 3.18027
# Velocity P-wave (km/s) = 4.45183 6.26370 5.43381
#
# Compressibility (1/GPa) = 0.03997571
#
# Stress axis : x y z
#
# Youngs Moduli (GPa) = 36.59515 161.59113 32.28399
#
# Poissons Ratio (x) = 0.55532 0.32141
# Poissons Ratio (y) = 0.12576 -0.03666
# Poissons Ratio (z) = 0.36434 -0.18348
#
# Static dielectric constant tensor:
#      x y z
#    x 2.089850 0.000000 0.074000 
#    y 0.000000 2.027860 0.000000 
#    z 0.074000 0.000000 1.960140 
# 
# From -- ./inp_files/301130.got.cif
#   From: 2010.05.17/outbox.cif.g08.bks.cpg/sg12_151_cif.got.tgz:301130.got - 2010.06.03 13:09:07.
