data_PCOD9194087
_publ_section_title
;
Structure prediction by ZEFSAII (Michael W. Deem and Ramdas Pophale) SiO2 
 PCOD9194087
Probable space group: C 2/M
;
_chemical_formula_sum "Si O2"
_cell_formula_units_Z 56
_cell_length_a 19.369618
_cell_length_b 8.335379
_cell_length_c 23.313545
_cell_angle_alpha 90.000000
_cell_angle_beta 51.666375
_cell_angle_gamma 90.000000
_cell_volume 2952.563411
_symmetry_space_group_name_H-M "C 2/M"
_symmetry_group_IT_number 12
_symmetry_cell_setting 'monoclinic'
loop_
_space_group_symop_operation_xyz
x,y,z
-x,y,-z
-x,-y,-z
x,-y,z
1/2+x,1/2+y,z
1/2-x,1/2+y,-z
1/2-x,1/2-y,-z
1/2+x,1/2-y,z
loop_
_atom_site_type_symbol
_atom_site_label
_atom_site_fract_x
_atom_site_fract_y
_atom_site_fract_z
Si Si1 0.097508 0.308391 0.932759
Si Si2 0.102992 0.192316 0.801084
Si Si3 0.420732 0.196428 0.500459
Si Si4 0.773307 0.806295 0.365842
Si Si5 0.073489 0.693589 0.633311
Si Si6 0.255192 0.192060 0.931975
Si Si7 0.949297 0.694158 0.799718
O O1 0.096123 0.500000 0.937168
O O2 0.115344 0.258397 0.858197
O O3 0.172693 0.247819 0.936871
O O4 0.000000 0.247472 0.000000
O O5 0.179244 0.246610 0.717432
O O6 0.011067 0.247571 0.819951
O O7 0.103892 0.000000 0.802848
O O8 0.500000 0.249071 0.500000
O O9 0.326146 0.248518 0.573323
O O10 0.433929 0.249386 0.428097
O O11 0.420467 0.000000 0.500371
O O12 0.835384 0.748701 0.385373
O O13 0.773442 0.000000 0.365617
O O14 0.071945 0.500000 0.633670
O O15 0.996632 0.747836 0.716466
O O16 0.348988 0.248638 0.858002
O O17 0.255959 0.000000 0.931398
O O18 0.250000 0.250000 0.000000
O O19 0.950194 0.500000 0.800138
#
# Coordination Sequence:
#
# PCOD9194087 Si02
#       7
#     8   8   8   8   8   8   8
#     4  11  24  40  57  78 106 139 175 217 262 308
#     4  10  20  34  55  81 107 137 173 215 262 312
#     4   9  17  29  48  74 102 134 173 214 254 299
#     4   9  18  32  51  76 104 133 168 212 256 301
#     4   9  17  31  53  76  99 134 174 209 251 305
#     4  11  23  38  57  81 109 140 175 216 261 310
#     4   9  19  35  54  78 107 137 172 216 262 309
#
# _framework density 18.966570000000001
#
# number of rings (size 3 to 8) (size 9 to 14) (size 15 to 20)
#    0.000    2.286    0.000    2.571    0.000    7.429 
#    0.000    4.286    0.000    1.714    0.000    0.000 
#    0.000    0.000    0.000    0.000    0.000    0.000 
#
# Total GULP energy -156320.724328 kJ/mol
# GULP energy per Si atom -5582.883012 kJ/mol
# Density = 1.892340 g / cm^3
# Si number density = 18.966570 Si / 1000 Ang^3
#
#
#
# Elastic Constant Matrix: (Units=GPa)
#
#
# Indices 1 2 3 4 5 6 
#
# 1 201.1537 23.0646 139.2903 0.0000 -0.9809 0.0006
# 2 23.0646 15.8455 21.0765 0.0000 -2.4663 0.0011
# 3 139.2903 21.0765 143.4503 0.0000 -5.8325 0.0000
# 4 0.0000 0.0000 0.0000 12.7688 0.0000 -2.1558
# 5 -0.9809 -2.4663 -5.8325 0.0000 38.1585 0.0000
# 6 0.0006 0.0011 0.0000 -2.1558 0.0000 30.2258
#
#
#
# Elastic Compliance Matrix: (Units=1/GPa)
#
#
# Indices 1 2 3 4 5 6 
#
# 1 0.015454 -0.003410 -0.014589 0.000000 -0.002053 0.000000
# 2 -0.003410 0.079613 -0.008232 0.000000 0.003800 -0.000003
# 3 -0.014589 -0.008232 0.022449 0.000000 0.002524 0.000001
# 4 0.000000 0.000000 0.000000 0.079270 0.000000 0.005654
# 5 -0.002053 0.003800 0.002524 0.000000 0.026785 0.000000
# 6 0.000000 -0.000003 0.000001 0.005654 0.000000 0.033488
#
#
# Mechanical properties :
#
#
# Convention : Reuss Voigt Hill
#
# Bulk Modulus (GPa) = 15.37138 80.81245 48.09192
# Shear Modulus (GPa) = 15.09640 28.03184 21.56412
#
# Velocity S-wave (km/s) = 2.82432 3.84860 3.37553
# Velocity P-wave (km/s) = 4.33102 7.90248 6.37209
#
# Compressibility (1/GPa) = 0.06505597
#
# Stress axis : x y z
#
# Youngs Moduli (GPa) = 64.70720 12.56069 44.54630
#
# Poissons Ratio (x) = 0.04283 0.64986
# Poissons Ratio (y) = 0.22066 0.36669
# Poissons Ratio (z) = 0.94398 0.10339
#
# Static dielectric constant tensor:
#      x y z
#    x 1.621720 0.000000 -0.008190 
#    y 0.000000 1.657460 0.000000 
#    z -0.008190 0.000000 1.676160 
# 
# From -- ./inp_files/342216.got.cif
#   From: 2010.05.17/outbox.cif.g08.bks.cpg/sg12_172_cif.got.tgz:342216.got - 2010.06.03 13:09:07.
