data_PCOD9194072
_publ_section_title
;
Structure prediction by ZEFSAII (Michael W. Deem and Ramdas Pophale) SiO2 
 PCOD9194072
Probable space group: C 2/M
;
_chemical_formula_sum "Si O2"
_cell_formula_units_Z 64
_cell_length_a 22.259124
_cell_length_b 12.633786
_cell_length_c 23.543528
_cell_angle_alpha 90.000000
_cell_angle_beta 147.270308
_cell_angle_gamma 90.000000
_cell_volume 3579.731814
_symmetry_space_group_name_H-M "C 2/M"
_symmetry_group_IT_number 12
_symmetry_cell_setting 'monoclinic'
loop_
_space_group_symop_operation_xyz
x,y,z
-x,y,-z
-x,-y,-z
x,-y,z
1/2+x,1/2+y,z
1/2-x,1/2+y,-z
1/2-x,1/2-y,-z
1/2+x,1/2-y,z
loop_
_atom_site_type_symbol
_atom_site_label
_atom_site_fract_x
_atom_site_fract_y
_atom_site_fract_z
Si Si1 0.179268 0.731359 0.502740
Si Si2 0.289512 0.124363 0.966070
Si Si3 0.469306 0.122830 0.286371
Si Si4 0.640210 0.379816 0.278058
Si Si5 0.577887 0.723875 0.856012
Si Si6 0.882071 0.877974 0.874583
Si Si7 0.199723 0.234065 0.783894
Si Si8 0.508037 0.626492 0.439298
O O1 0.250000 0.750000 0.500000
O O2 0.085681 0.646273 0.410046
O O3 0.266142 0.692844 0.619241
O O4 0.104231 0.821607 0.475283
O O5 0.185669 0.156131 0.923952
O O6 0.250492 0.160757 0.873263
O O7 0.313891 0.000000 0.989188
O O8 0.388637 0.200862 0.065059
O O9 0.459111 0.196220 0.222948
O O10 0.369786 0.167748 0.245441
O O11 0.456852 0.000000 0.263229
O O12 0.674073 0.500000 0.316237
O O13 0.523412 0.353199 0.213785
O O14 0.617200 0.368632 0.192869
O O15 0.797644 0.788734 0.827646
O O16 0.846820 0.000000 0.859662
O O17 0.000000 0.863673 0.000000
O O18 0.109468 0.165137 0.678984
O O19 0.500000 0.657462 0.500000
O O20 0.520010 0.500000 0.446099
#
# Coordination Sequence:
#
# PCOD9194072 Si02
#       8
#     8   8   8   8   8   8   8   8
#     4  11  22  39  57  88 121 155 197 248 301 359
#     4  10  20  34  55  80 108 144 187 234 284 340
#     4  10  20  35  55  80 112 149 187 232 289 349
#     4  11  22  37  58  83 115 151 189 235 294 353
#     4  10  20  35  53  80 112 145 185 231 284 342
#     4  10  21  37  59  86 115 152 195 245 300 351
#     4  10  20  36  58  82 111 147 192 241 287 347
#     4  10  22  40  62  86 116 159 204 246 297 359
#
# _framework density 17.878433999999999
#
# number of rings (size 3 to 8) (size 9 to 14) (size 15 to 20)
#    0.000    1.750    1.250    3.375    0.000    1.000 
#    0.000    3.750    0.000   15.000    0.000    0.000 
#    0.000    0.000    0.000    0.000    0.000    0.000 
#
# Total GULP energy -178356.090348 kJ/mol
# GULP energy per Si atom -5573.627823 kJ/mol
# Density = 1.783774 g / cm^3
# Si number density = 17.878434 Si / 1000 Ang^3
#
#
#
# Elastic Constant Matrix: (Units=GPa)
#
#
# Indices 1 2 3 4 5 6 
#
# 1 50.0002 24.8100 7.2822 0.0000 -4.6299 0.0000
# 2 24.8100 50.9056 -1.6924 0.0000 -2.8591 0.0000
# 3 7.2822 -1.6924 82.4954 0.0000 -11.0041 0.0000
# 4 0.0000 0.0000 0.0000 1.4741 0.0000 10.3996
# 5 -4.6299 -2.8591 -11.0041 0.0000 22.0002 0.0000
# 6 0.0000 0.0000 0.0000 10.3996 0.0000 3.6984
#
#
#
# Elastic Compliance Matrix: (Units=1/GPa)
#
#
# Indices 1 2 3 4 5 6 
#
# 1 0.027111 -0.013129 -0.002281 0.000000 0.002858 0.000000
# 2 -0.013129 0.026196 0.001909 0.000000 0.001596 0.000000
# 3 -0.002281 0.001909 0.013213 0.000000 0.006377 0.000000
# 4 0.000000 0.000000 0.000000 -0.036011 0.000000 0.101262
# 5 0.002858 0.001596 0.006377 0.000000 0.049453 0.000000
# 6 0.000000 0.000000 0.000000 0.101262 0.000000 -0.014353
#
#
# Mechanical properties :
#
#
# Convention : Reuss Voigt Hill
#
# Bulk Modulus (GPa) = 25.30429 27.13342 26.21886
# Shear Modulus (GPa) = 47.26674 15.63463 31.45069
#
# Velocity S-wave (km/s) = 5.14735 2.96040 4.19876
# Velocity P-wave (km/s) = 7.03642 5.18602 6.18086
#
# Compressibility (1/GPa) = 0.03951899
#
# Stress axis : x y z
#
# Youngs Moduli (GPa) = 36.88513 38.17395 75.68274
#
# Poissons Ratio (x) = 0.50117 0.17265
# Poissons Ratio (y) = 0.48425 -0.14450
# Poissons Ratio (z) = 0.08415 -0.07288
#
# Static dielectric constant tensor:
#      x y z
#    x 1.655140 0.000000 -0.014150 
#    y 0.000000 1.582430 0.000000 
#    z -0.014150 0.000000 1.606490 
# 
# From -- ./inp_files/349398.got.cif
#   From: 2010.05.17/outbox.cif.g08.bks.cpg/sg12_175_cif.got.tgz:349398.got - 2010.06.03 13:09:07.
