data_PCOD9194514
_publ_section_title
;
Structure prediction by ZEFSAII (Michael W. Deem and Ramdas Pophale) SiO2 
 PCOD9194514
Probable space group: C 2/M
;
_chemical_formula_sum "Si O2"
_cell_formula_units_Z 56
_cell_length_a 29.919960
_cell_length_b 7.642932
_cell_length_c 22.519668
_cell_angle_alpha 90.000000
_cell_angle_beta 29.737944
_cell_angle_gamma 90.000000
_cell_volume 2554.431530
_symmetry_space_group_name_H-M "C 2/M"
_symmetry_group_IT_number 12
_symmetry_cell_setting 'monoclinic'
loop_
_space_group_symop_operation_xyz
x,y,z
-x,y,-z
-x,-y,-z
x,-y,z
1/2+x,1/2+y,z
1/2-x,1/2+y,-z
1/2-x,1/2-y,-z
1/2+x,1/2-y,z
loop_
_atom_site_type_symbol
_atom_site_label
_atom_site_fract_x
_atom_site_fract_y
_atom_site_fract_z
Si Si1 0.472588 0.298978 0.093941
Si Si2 0.944850 0.713621 0.653488
Si Si3 0.007434 0.792971 0.181864
Si Si4 0.668412 0.709678 0.549579
Si Si5 0.769332 0.294224 0.319593
Si Si6 0.633711 0.789083 0.380236
Si Si7 0.644780 0.792079 0.121138
O O1 0.506602 0.500000 0.052720
O O2 0.507871 0.219234 0.114760
O O3 0.364411 0.297105 0.219857
O O4 0.500000 0.213963 0.000000
O O5 0.945410 0.500000 0.653897
O O6 0.883479 0.766321 0.667840
O O7 0.906313 0.776214 0.760774
O O8 0.046385 0.769424 0.519441
O O9 0.096679 0.773649 0.117251
O O10 0.924061 0.719220 0.316493
O O11 0.989033 0.000000 0.195756
O O12 0.658777 0.500000 0.555818
O O13 0.750000 0.750000 0.500000
O O14 0.698112 0.774085 0.450629
O O15 0.784750 0.500000 0.312334
O O16 0.724407 0.270674 0.307379
O O17 0.633464 0.000000 0.380724
O O18 0.634662 0.000000 0.133494
O O19 0.750000 0.750000 0.000000
#
# Coordination Sequence:
#
# PCOD9194514 Si02
#       7
#     8   8   8   8   8   8   8
#     4  10  22  40  60  79 105 149 197 231 267 326
#     4   8  17  35  58  83 107 139 187 235 274 324
#     4  10  21  39  60  84 113 144 186 239 284 328
#     4  10  20  34  56  84 115 148 183 227 279 335
#     4  11  22  34  52  85 120 146 178 225 284 340
#     4   9  17  34  60  83 107 142 184 229 277 330
#     4  11  23  39  59  83 112 148 190 233 280 334
#
# _framework density 21.922685999999999
#
# number of rings (size 3 to 8) (size 9 to 14) (size 15 to 20)
#    0.000    2.143    1.429    2.571    0.000    3.143 
#    0.000    9.286    0.000    0.000    0.000    0.000 
#    0.000    0.000    0.000    0.000    0.000    0.000 
#
# Total GULP energy -156398.433055 kJ/mol
# GULP energy per Si atom -5585.658323 kJ/mol
# Density = 2.187279 g / cm^3
# Si number density = 21.922686 Si / 1000 Ang^3
#
#
#
# Elastic Constant Matrix: (Units=GPa)
#
#
# Indices 1 2 3 4 5 6 
#
# 1 166.0022 -15.3737 60.8069 -0.0116 10.9724 0.0094
# 2 -15.3737 42.7855 0.1924 -0.0465 11.4889 0.0260
# 3 60.8069 0.1924 88.7825 -0.0351 22.4208 0.0302
# 4 -0.0116 -0.0465 -0.0351 4.6677 0.0154 -7.8379
# 5 10.9724 11.4889 22.4208 0.0154 34.7993 -0.0059
# 6 0.0094 0.0260 0.0302 -7.8379 -0.0059 20.0460
#
#
#
# Elastic Compliance Matrix: (Units=1/GPa)
#
#
# Indices 1 2 3 4 5 6 
#
# 1 0.008422 0.003032 -0.005794 0.000026 0.000077 0.000011
# 2 0.003032 0.027206 0.000447 0.000722 -0.010227 0.000242
# 3 -0.005794 0.000447 0.017684 0.000318 -0.009715 0.000097
# 4 0.000026 0.000722 0.000318 0.623803 -0.000687 0.243903
# 5 0.000077 -0.010227 -0.009715 -0.000687 0.038348 -0.000229
# 6 0.000011 0.000242 0.000097 0.243903 -0.000229 0.145250
#
#
# Mechanical properties :
#
#
# Convention : Reuss Voigt Hill
#
# Bulk Modulus (GPa) = 20.54114 43.20239 31.87176
# Shear Modulus (GPa) = 5.67169 28.69892 17.18530
#
# Velocity S-wave (km/s) = 1.61020 3.62207 2.80287
# Velocity P-wave (km/s) = 3.58429 6.10262 5.00446
#
# Compressibility (1/GPa) = 0.04868280
#
# Stress axis : x y z
#
# Youngs Moduli (GPa) = 118.73424 36.75596 56.54698
#
# Poissons Ratio (x) = -0.11143 0.32765
# Poissons Ratio (y) = -0.35997 -0.02530
# Poissons Ratio (z) = 0.68798 -0.01644
#
# Static dielectric constant tensor:
#      x y z
#    x 1.661500 0.000080 0.066420 
#    y 0.000080 1.942220 0.000000 
#    z 0.066420 0.000000 1.795140 
# 
# From -- ./inp_files/329459.got.cif
#   From: 2010.05.17/outbox.cif.g08.bks.cpg/sg12_165_cif.got.tgz:329459.got - 2010.06.03 13:09:07.
