data_PCOD9194387
_publ_section_title
;
Structure prediction by ZEFSAII (Michael W. Deem and Ramdas Pophale) SiO2 
 PCOD9194387
Probable space group: C 2/M
;
_chemical_formula_sum "Si O2"
_cell_formula_units_Z 46
_cell_length_a 15.236152
_cell_length_b 27.242852
_cell_length_c 14.915476
_cell_angle_alpha 90.000000
_cell_angle_beta 160.313538
_cell_angle_gamma 90.000000
_cell_volume 2085.599559
_symmetry_space_group_name_H-M "C 2/M"
_symmetry_group_IT_number 12
_symmetry_cell_setting 'monoclinic'
loop_
_space_group_symop_operation_xyz
x,y,z
-x,y,-z
-x,-y,-z
x,-y,z
1/2+x,1/2+y,z
1/2-x,1/2+y,-z
1/2-x,1/2-y,-z
1/2+x,1/2-y,z
loop_
_atom_site_type_symbol
_atom_site_label
_atom_site_fract_x
_atom_site_fract_y
_atom_site_fract_z
Si Si1 0.500000 0.000000 0.500000
Si Si2 0.500000 0.329976 0.000000
Si Si3 0.352501 0.297151 0.045328
Si Si4 0.216934 0.500000 0.393010
Si Si5 0.179311 0.000000 0.981053
Si Si6 0.663469 0.148951 0.409259
Si Si7 0.659169 0.580477 0.272977
Si Si8 0.270107 0.099816 0.708156
O O1 0.346664 0.042123 0.409081
O O2 0.371848 0.296916 0.955124
O O3 0.655493 0.370175 0.209434
O O4 0.633852 0.311209 0.356643
O O5 0.250000 0.250000 0.000000
O O6 0.135161 0.338494 0.857032
O O7 0.474579 0.500000 0.702305
O O8 0.212570 0.547582 0.325364
O O9 0.963655 0.500000 0.213276
O O10 0.107972 0.951273 0.970747
O O11 0.746787 0.099521 0.540680
O O12 0.703773 0.140876 0.343312
O O13 0.000000 0.103639 0.500000
O O14 0.500000 0.104040 0.000000
#
# Coordination Sequence:
#
# PCOD9194387 Si02
#       8
#     2   4   8   4   4   8   8   8
#     4  10  20  34  56 104 140 180 222 272 314 412
#     4  10  24  43  72 100 140 182 234 275 356 428
#     4  11  25  48  74 105 137 178 225 292 359 431
#     4  12  24  41  63  93 138 188 243 282 340 392
#     4  11  24  37  65  95 138 190 232 285 328 418
#     4  11  24  45  73  97 140 181 227 289 357 413
#     4  10  22  39  65  99 144 183 230 274 344 410
#     4  12  25  43  67  99 136 187 242 292 340 403
#
# _framework density 22.056007999999999
#
# number of rings (size 3 to 8) (size 9 to 14) (size 15 to 20)
#    0.000    1.043    1.739    4.174    4.870    6.261 
#    4.696    0.000    0.000    0.000    0.000    0.000 
#    0.000    0.000    0.000    0.000    0.000    0.000 
#
# Total GULP energy -128382.153067 kJ/mol
# GULP energy per Si atom -5581.832742 kJ/mol
# Density = 2.200581 g / cm^3
# Si number density = 22.056008 Si / 1000 Ang^3
#
#
#
# Elastic Constant Matrix: (Units=GPa)
#
#
# Indices 1 2 3 4 5 6 
#
# 1 197.7000 39.4576 51.0885 0.0001 1.0205 -0.0025
# 2 39.4576 62.9403 -10.1346 0.0019 -9.5884 -0.0021
# 3 51.0885 -10.1346 101.6780 0.0005 -7.7576 0.0019
# 4 0.0001 0.0019 0.0005 0.6386 0.0000 7.6844
# 5 1.0205 -9.5884 -7.7576 0.0000 46.0798 -0.0013
# 6 -0.0025 -0.0021 0.0019 7.6844 -0.0013 40.1478
#
#
#
# Elastic Compliance Matrix: (Units=1/GPa)
#
#
# Indices 1 2 3 4 5 6 
#
# 1 0.007327 -0.005617 -0.004399 -0.000012 -0.002072 0.000003
# 2 -0.005617 0.021094 0.005338 0.000058 0.005412 -0.000010
# 3 -0.004399 0.005338 0.012834 0.000016 0.003369 -0.000003
# 4 -0.000012 0.000058 0.000016 -1.201660 0.000021 0.230001
# 5 -0.002072 0.005412 0.003369 0.000021 0.023441 -0.000003
# 6 0.000003 -0.000010 -0.000003 0.230001 -0.000003 -0.019115
#
#
# Mechanical properties :
#
#
# Convention : Reuss Voigt Hill
#
# Bulk Modulus (GPa) = 31.35062 58.12682 44.73872
# Shear Modulus (GPa) = -4.40106 36.16705 15.88299
#
# Velocity S-wave (km/s) = -1.41412 4.05382 2.68642
# Velocity P-wave (km/s) = 3.40274 6.95145 5.47272
#
# Compressibility (1/GPa) = 0.03189729
#
# Stress axis : x y z
#
# Youngs Moduli (GPa) = 136.48497 47.40797 77.91500
#
# Poissons Ratio (x) = 0.26630 0.34277
# Poissons Ratio (y) = 0.76666 -0.41589
# Poissons Ratio (z) = 0.60044 -0.25305
#
# Static dielectric constant tensor:
#      x y z
#    x 1.813490 0.000000 -0.047820 
#    y 0.000000 1.827090 0.000000 
#    z -0.047820 0.000000 1.833190 
# 
# From -- ./inp_files/219656.got.cif
#   From: 2010.05.17/outbox.cif.g08.bks.cpg/sg12_110_cif.got.tgz:219656.got - 2010.06.03 13:09:07.
