data_PCOD9194438
_publ_section_title
;
Structure prediction by ZEFSAII (Michael W. Deem and Ramdas Pophale) SiO2 
 PCOD9194438
Probable space group: C 2/M
;
_chemical_formula_sum "Si O2"
_cell_formula_units_Z 50
_cell_length_a 18.464325
_cell_length_b 14.675762
_cell_length_c 9.879911
_cell_angle_alpha 90.000000
_cell_angle_beta 58.145235
_cell_angle_gamma 90.000000
_cell_volume 2274.016276
_symmetry_space_group_name_H-M "C 2/M"
_symmetry_group_IT_number 12
_symmetry_cell_setting 'monoclinic'
loop_
_space_group_symop_operation_xyz
x,y,z
-x,y,-z
-x,-y,-z
x,-y,z
1/2+x,1/2+y,z
1/2-x,1/2+y,-z
1/2-x,1/2-y,-z
1/2+x,1/2-y,z
loop_
_atom_site_type_symbol
_atom_site_label
_atom_site_fract_x
_atom_site_fract_y
_atom_site_fract_z
Si Si1 0.000000 0.000000 0.000000
Si Si2 0.116432 0.178958 0.924375
Si Si3 0.707212 0.397967 0.202416
Si Si4 0.923421 0.251323 0.740438
Si Si5 0.760262 0.394116 0.441951
Si Si6 0.208327 0.605095 0.176620
Si Si7 0.389905 0.259261 0.361908
O O1 0.931462 0.918599 0.023743
O O2 0.217837 0.158205 0.815238
O O3 0.087304 0.231555 0.819374
O O4 0.099911 0.233296 0.078377
O O5 0.671064 0.500000 0.244521
O O6 0.630542 0.326981 0.280339
O O7 0.768420 0.387688 0.270728
O O8 0.757502 0.389323 0.012308
O O9 0.881734 0.344849 0.732292
O O10 0.024718 0.244408 0.635352
O O11 0.763158 0.500000 0.478545
O O12 0.667956 0.348700 0.557393
O O13 0.831127 0.329560 0.437863
O O14 0.204432 0.500000 0.220212
#
# Coordination Sequence:
#
# PCOD9194438 Si02
#       7
#     2   8   8   8   8   8   8
#     4  12  20  32  60  88 116 146 178 236 278 322
#     4  11  21  36  56  87 117 141 180 231 279 320
#     4   9  19  36  56  79 109 142 181 217 267 325
#     4  11  21  34  57  84 113 142 176 227 275 331
#     4  10  23  41  58  76 105 150 187 229 273 322
#     4  10  20  34  56  82 114 148 177 216 276 331
#     4  11  23  37  57  82 110 141 187 229 275 328
#
# _framework density 21.987528999999999
#
# number of rings (size 3 to 8) (size 9 to 14) (size 15 to 20)
#    0.000    1.600    2.400    3.840    2.240    1.920 
#    0.000    1.600    0.000    4.800    0.000    6.720 
#    0.000    0.000    0.000    0.000    0.000    0.000 
#
# Total GULP energy -139582.950711 kJ/mol
# GULP energy per Si atom -5583.318028 kJ/mol
# Density = 2.193748 g / cm^3
# Si number density = 21.987529 Si / 1000 Ang^3
#
#
#
# Elastic Constant Matrix: (Units=GPa)
#
#
# Indices 1 2 3 4 5 6 
#
# 1 98.0756 52.1661 10.3238 0.0000 -16.4442 0.0000
# 2 52.1661 122.9927 10.6575 0.0000 -24.1863 0.0000
# 3 10.3238 10.6575 41.7233 0.0000 9.2847 0.0000
# 4 0.0000 0.0000 0.0000 14.9475 0.0000 0.5067
# 5 -16.4442 -24.1863 9.2847 0.0000 34.8635 0.0000
# 6 0.0000 0.0000 0.0000 0.5067 0.0000 34.5028
#
#
#
# Elastic Compliance Matrix: (Units=1/GPa)
#
#
# Indices 1 2 3 4 5 6 
#
# 1 0.013724 -0.004774 -0.003062 0.000000 0.003977 0.000000
# 2 -0.004774 0.011785 -0.003346 0.000000 0.006815 0.000000
# 3 -0.003062 -0.003346 0.028082 0.000000 -0.011244 0.000000
# 4 0.000000 0.000000 0.000000 0.066934 0.000000 -0.000983
# 5 0.003977 0.006815 -0.011244 0.000000 0.038282 0.000000
# 6 0.000000 0.000000 0.000000 -0.000983 0.000000 0.028998
#
#
# Mechanical properties :
#
#
# Convention : Reuss Voigt Hill
#
# Bulk Modulus (GPa) = 32.02117 45.45403 38.73760
# Shear Modulus (GPa) = 22.66782 29.50570 26.08676
#
# Velocity S-wave (km/s) = 3.21431 3.66721 3.44820
# Velocity P-wave (km/s) = 5.32641 6.21681 5.78876
#
# Compressibility (1/GPa) = 0.03122934
#
# Stress axis : x y z
#
# Youngs Moduli (GPa) = 72.86273 84.85032 35.61037
#
# Poissons Ratio (x) = 0.40505 0.10902
# Poissons Ratio (y) = 0.34783 0.11915
# Poissons Ratio (z) = 0.22307 0.28390
#
# Static dielectric constant tensor:
#      x y z
#    x 1.807470 0.000000 0.028510 
#    y 0.000000 1.769330 0.000000 
#    z 0.028510 0.000000 1.889540 
# 
# From -- ./inp_files/155907.got.cif
#   From: 2010.05.17/outbox.cif.g08.bks.cpg/sg12_78_cif.got.tgz:155907.got - 2010.06.03 13:09:07.
