data_PCOD9194332
_publ_section_title
;
Structure prediction by ZEFSAII (Michael W. Deem and Ramdas Pophale) SiO2 
 PCOD9194332
Probable space group: C 2/M
;
_chemical_formula_sum "Si O2"
_cell_formula_units_Z 40
_cell_length_a 15.117311
_cell_length_b 8.661817
_cell_length_c 30.472057
_cell_angle_alpha 90.000000
_cell_angle_beta 149.756103
_cell_angle_gamma 90.000000
_cell_volume 2009.748534
_symmetry_space_group_name_H-M "C 2/M"
_symmetry_group_IT_number 12
_symmetry_cell_setting 'monoclinic'
loop_
_space_group_symop_operation_xyz
x,y,z
-x,y,-z
-x,-y,-z
x,-y,z
1/2+x,1/2+y,z
1/2-x,1/2+y,-z
1/2-x,1/2-y,-z
1/2+x,1/2-y,z
loop_
_atom_site_type_symbol
_atom_site_label
_atom_site_fract_x
_atom_site_fract_y
_atom_site_fract_z
Si Si1 0.356580 0.175089 0.906798
Si Si2 0.430153 0.173957 0.092471
Si Si3 0.188357 0.184832 0.600882
Si Si4 0.746308 0.316493 0.275113
Si Si5 0.954775 0.186524 0.281076
O O1 0.452530 0.164695 0.901142
O O2 0.167820 0.241699 0.812593
O O3 0.326586 0.000000 0.911590
O O4 0.500000 0.252666 0.000000
O O5 0.547322 0.269477 0.176674
O O6 0.400453 0.000000 0.096086
O O7 0.250000 0.250000 0.000000
O O8 0.202983 0.241051 0.657153
O O9 0.348111 0.260544 0.642643
O O10 0.000000 0.227678 0.500000
O O11 0.205917 0.000000 0.606655
O O12 0.759488 0.500000 0.283451
O O13 0.871896 0.253851 0.290069
O O14 0.942430 0.000000 0.277025
#
# Coordination Sequence:
#
# PCOD9194332 Si02
#       5
#     8   8   8   8   8
#     4   8  16  31  52  81 116 154 195 239 295 357
#     4  10  20  34  55  85 122 161 204 253 307 366
#     4  11  25  44  66  93 124 160 207 264 322 378
#     4  11  23  41  64  89 125 168 210 258 311 372
#     4  10  21  39  64  92 126 164 205 258 313 373
#
# _framework density 19.902988000000001
#
# number of rings (size 3 to 8) (size 9 to 14) (size 15 to 20)
#    0.000    2.000    0.000    4.800    2.800    2.400 
#    0.000    0.000    0.000    3.600    0.000    0.000 
#    0.000    0.000    0.000    0.000    0.000    0.000 
#
# Total GULP energy -111652.028107 kJ/mol
# GULP energy per Si atom -5582.601405 kJ/mol
# Density = 1.985769 g / cm^3
# Si number density = 19.902988 Si / 1000 Ang^3
#
#
#
# Elastic Constant Matrix: (Units=GPa)
#
#
# Indices 1 2 3 4 5 6 
#
# 1 61.4025 9.0247 44.9218 -0.0001 6.8048 0.0000
# 2 9.0247 56.1113 32.3209 0.0000 10.3952 0.0000
# 3 44.9218 32.3209 164.0592 -0.0003 13.3837 0.0000
# 4 -0.0001 0.0000 -0.0003 30.0880 0.0000 1.9107
# 5 6.8048 10.3952 13.3837 0.0000 37.4015 0.0000
# 6 0.0000 0.0000 0.0000 1.9107 0.0000 26.6115
#
#
#
# Elastic Compliance Matrix: (Units=1/GPa)
#
#
# Indices 1 2 3 4 5 6 
#
# 1 0.020481 0.000211 -0.005501 0.000000 -0.001816 0.000000
# 2 0.000211 0.020798 -0.003791 0.000000 -0.004462 0.000000
# 3 -0.005501 -0.003791 0.008427 0.000000 -0.000961 0.000000
# 4 0.000000 0.000000 0.000000 0.033388 0.000000 -0.002397
# 5 -0.001816 -0.004462 -0.000961 0.000000 0.028651 0.000000
# 6 0.000000 0.000000 0.000000 -0.002397 0.000000 0.037750
#
#
# Mechanical properties :
#
#
# Convention : Reuss Voigt Hill
#
# Bulk Modulus (GPa) = 31.70213 50.45643 41.07928
# Shear Modulus (GPa) = 28.06261 31.84058 29.95159
#
# Velocity S-wave (km/s) = 3.75903 4.00408 3.88349
# Velocity P-wave (km/s) = 5.89943 6.83981 6.38695
#
# Compressibility (1/GPa) = 0.03154362
#
# Stress axis : x y z
#
# Youngs Moduli (GPa) = 48.82553 48.08101 118.66568
#
# Poissons Ratio (x) = -0.01016 0.65284
# Poissons Ratio (y) = -0.01032 0.44989
# Poissons Ratio (z) = 0.26861 0.18229
#
# Static dielectric constant tensor:
#      x y z
#    x 1.691760 0.000000 0.004540 
#    y 0.000000 1.687740 0.000000 
#    z 0.004540 0.000000 1.712200 
# 
# From -- ./inp_files/249504.got.cif
#   From: 2010.05.17/outbox.cif.g08.bks.cpg/sg12_125_cif.got.tgz:249504.got - 2010.06.03 13:09:07.
