data_PCOD9194418
_publ_section_title
;
Structure prediction by ZEFSAII (Michael W. Deem and Ramdas Pophale) SiO2 
 PCOD9194418
Probable space group: C 2/M
;
_chemical_formula_sum "Si O2"
_cell_formula_units_Z 64
_cell_length_a 23.127964
_cell_length_b 25.205311
_cell_length_c 11.781622
_cell_angle_alpha 90.000000
_cell_angle_beta 154.827470
_cell_angle_gamma 90.000000
_cell_volume 2921.301082
_symmetry_space_group_name_H-M "C 2/M"
_symmetry_group_IT_number 12
_symmetry_cell_setting 'monoclinic'
loop_
_space_group_symop_operation_xyz
x,y,z
-x,y,-z
-x,-y,-z
x,-y,z
1/2+x,1/2+y,z
1/2-x,1/2+y,-z
1/2-x,1/2-y,-z
1/2+x,1/2-y,z
loop_
_atom_site_type_symbol
_atom_site_label
_atom_site_fract_x
_atom_site_fract_y
_atom_site_fract_z
Si Si1 0.335463 0.560987 0.998055
Si Si2 0.040432 0.441366 0.907745
Si Si3 0.293648 0.939421 0.002782
Si Si4 0.933251 0.137892 0.498450
Si Si5 0.685040 0.331431 0.319481
Si Si6 0.974637 0.786124 0.771012
Si Si7 0.500365 0.174930 0.130079
Si Si8 0.776649 0.942404 0.627816
O O1 0.378382 0.500000 0.088785
O O2 0.216846 0.570834 0.881318
O O3 0.458737 0.598393 0.251501
O O4 0.294923 0.566008 0.795329
O O5 0.101274 0.500000 0.048784
O O6 0.080192 0.380969 0.012988
O O7 0.886073 0.444024 0.676620
O O8 0.064830 0.438916 0.814788
O O9 0.196531 0.897300 0.767390
O O10 0.241094 0.000000 0.893975
O O11 0.919618 0.186047 0.561096
O O12 0.000000 0.157167 0.500000
O O13 0.647556 0.291524 0.354179
O O14 0.841112 0.333620 0.560272
O O15 0.658657 0.391581 0.316681
O O16 0.592814 0.317511 0.048053
O O17 0.033935 0.727000 0.858811
O O18 0.500000 0.193546 0.000000
O O19 0.832035 0.000000 0.692986
#
# Coordination Sequence:
#
# PCOD9194418 Si02
#       8
#     8   8   8   8   8   8   8   8
#     4   9  16  29  53  79 108 150 187 225 274 327
#     4   9  20  36  54  80 110 142 181 228 279 331
#     4   9  18  32  52  82 111 142 192 231 268 329
#     4  10  20  34  56  81 116 148 182 228 284 321
#     4  10  21  38  56  85 111 143 189 230 267 328
#     4  11  22  37  61  82 109 147 189 229 267 332
#     4  11  23  37  61  84 108 146 184 228 279 326
#     4   9  17  33  54  78 115 149 179 226 283 327
#
# _framework density 21.908048000000001
#
# number of rings (size 3 to 8) (size 9 to 14) (size 15 to 20)
#    0.000    2.250    2.500    0.750    1.750    2.250 
#    0.000    5.000    5.500    2.250    0.000    0.000 
#    0.000    0.000    0.000    0.000    0.000    0.000 
#
# Total GULP energy -178222.497687 kJ/mol
# GULP energy per Si atom -5569.453053 kJ/mol
# Density = 2.185818 g / cm^3
# Si number density = 21.908048 Si / 1000 Ang^3
#
#
#
# Elastic Constant Matrix: (Units=GPa)
#
#
# Indices 1 2 3 4 5 6 
#
# 1 45.2151 22.6927 8.8350 0.0000 -6.1529 0.0000
# 2 22.6927 161.2130 10.8405 0.0000 -11.6012 0.0000
# 3 8.8350 10.8405 32.0650 0.0000 -6.0670 0.0000
# 4 0.0000 0.0000 0.0000 17.5597 0.0000 -3.2465
# 5 -6.1529 -11.6012 -6.0670 0.0000 27.9834 0.0000
# 6 0.0000 0.0000 0.0000 -3.2465 0.0000 23.7473
#
#
#
# Elastic Compliance Matrix: (Units=1/GPa)
#
#
# Indices 1 2 3 4 5 6 
#
# 1 0.025060 -0.002944 -0.005316 0.000000 0.003137 0.000000
# 2 -0.002944 0.006833 -0.001132 0.000000 0.001940 0.000000
# 3 -0.005316 -0.001132 0.034124 0.000000 0.005760 0.000000
# 4 0.000000 0.000000 0.000000 0.058425 0.000000 0.007987
# 5 0.003137 0.001940 0.005760 0.000000 0.038478 0.000000
# 6 0.000000 0.000000 0.000000 0.007987 0.000000 0.043202
#
#
# Mechanical properties :
#
#
# Convention : Reuss Voigt Hill
#
# Bulk Modulus (GPa) = 21.17168 35.91439 28.54304
# Shear Modulus (GPa) = 20.77699 26.93307 23.85503
#
# Velocity S-wave (km/s) = 3.08291 3.51004 3.30338
# Velocity P-wave (km/s) = 4.72835 5.73202 5.25420
#
# Compressibility (1/GPa) = 0.04723290
#
# Stress axis : x y z
#
# Youngs Moduli (GPa) = 39.90455 146.34574 29.30496
#
# Poissons Ratio (x) = 0.43088 0.15578
# Poissons Ratio (y) = 0.11749 0.03317
# Poissons Ratio (z) = 0.21213 0.16564
#
# Static dielectric constant tensor:
#      x y z
#    x 1.818180 0.000000 0.024820 
#    y 0.000000 1.892210 0.000000 
#    z 0.024820 0.000000 1.823950 
# 
# From -- ./inp_files/178433.got.cif
#   From: 2010.05.17/outbox.cif.g08.bks.cpg/sg12_90_cif.got.tgz:178433.got - 2010.06.03 13:09:07.
