data_PCOD9194795
_publ_section_title
;
Structure prediction by ZEFSAII (Michael W. Deem and Ramdas Pophale) SiO2 
 PCOD9194795
Probable space group: C 2/M
;
_chemical_formula_sum "Si O2"
_cell_formula_units_Z 48
_cell_length_a 28.624356
_cell_length_b 8.950313
_cell_length_c 10.459452
_cell_angle_alpha 90.000000
_cell_angle_beta 89.894807
_cell_angle_gamma 90.000000
_cell_volume 2679.675139
_symmetry_space_group_name_H-M "C 2/M"
_symmetry_group_IT_number 12
_symmetry_cell_setting 'monoclinic'
loop_
_space_group_symop_operation_xyz
x,y,z
-x,y,-z
-x,-y,-z
x,-y,z
1/2+x,1/2+y,z
1/2-x,1/2+y,-z
1/2-x,1/2-y,-z
1/2+x,1/2-y,z
loop_
_atom_site_type_symbol
_atom_site_label
_atom_site_fract_x
_atom_site_fract_y
_atom_site_fract_z
Si Si1 0.389803 0.178603 0.756179
Si Si2 0.195361 0.322174 0.641643
Si Si3 0.303162 0.322416 0.637577
Si Si4 0.555169 0.177740 0.504721
Si Si5 0.554480 0.180050 0.986707
Si Si6 0.894067 0.822373 0.254897
O O1 0.340990 0.262201 0.736744
O O2 0.421309 0.212105 0.631473
O O3 0.417629 0.218233 0.884123
O O4 0.381699 0.000000 0.757467
O O5 0.187818 0.500000 0.640214
O O6 0.249416 0.292279 0.675604
O O7 0.188378 0.259075 0.498148
O O8 0.157941 0.244927 0.733027
O O9 0.308243 0.500000 0.619133
O O10 0.500000 0.206966 0.500000
O O11 0.579386 0.268306 0.617463
O O12 0.561678 0.000000 0.529462
O O13 0.556364 0.000000 0.969982
O O14 0.500000 0.221412 0.000000
O O15 0.578574 0.256926 0.866166
O O16 0.892236 0.000000 0.249690
#
# Coordination Sequence:
#
# PCOD9194795 Si02
#       6
#     8   8   8   8   8   8
#     4  10  20  35  59  87 114 151 195 240 290 347
#     4  10  20  36  58  84 116 155 196 235 284 352
#     4  10  20  34  57  88 119 150 187 240 299 347
#     4  10  20  36  59  85 113 149 194 241 287 346
#     4  10  22  42  64  84 112 158 205 239 283 350
#     4  12  24  37  57  88 120 153 192 242 299 342
#
# _framework density 17.912618999999999
#
# number of rings (size 3 to 8) (size 9 to 14) (size 15 to 20)
#    0.000    1.667    1.667    3.500    0.000    6.000 
#    0.000    2.500    0.000    0.000    0.000    0.000 
#    0.000    0.000    0.000    0.000    0.000    0.000 
#
# Total GULP energy -134103.338567 kJ/mol
# GULP energy per Si atom -5587.639107 kJ/mol
# Density = 1.787185 g / cm^3
# Si number density = 17.912619 Si / 1000 Ang^3
#
#
#
# Elastic Constant Matrix: (Units=GPa)
#
#
# Indices 1 2 3 4 5 6 
#
# 1 155.8976 75.2405 76.0900 0.0000 -6.6869 0.0000
# 2 75.2405 72.0431 66.6008 0.0000 -5.5754 0.0000
# 3 76.0900 66.6008 117.9573 0.0000 -8.2103 0.0000
# 4 0.0000 0.0000 0.0000 -11.9746 0.0000 3.3631
# 5 -6.6869 -5.5754 -8.2103 0.0000 33.1339 0.0000
# 6 0.0000 0.0000 0.0000 3.3631 0.0000 29.3460
#
#
#
# Elastic Compliance Matrix: (Units=1/GPa)
#
#
# Indices 1 2 3 4 5 6 
#
# 1 0.013063 -0.012238 -0.001502 0.000000 0.000205 0.000000
# 2 -0.012238 0.040525 -0.014942 0.000000 0.000647 0.000000
# 3 -0.001502 -0.014942 0.017997 0.000000 0.001642 0.000000
# 4 0.000000 0.000000 0.000000 -0.080906 0.000000 0.009272
# 5 0.000205 0.000647 0.001642 0.000000 0.030738 0.000000
# 6 0.000000 0.000000 0.000000 0.009272 0.000000 0.033014
#
#
# Mechanical properties :
#
#
# Convention : Reuss Voigt Hill
#
# Bulk Modulus (GPa) = 70.31862 86.86230 78.59046
# Shear Modulus (GPa) = 42.90562 18.63216 30.76889
#
# Velocity S-wave (km/s) = 4.89946 3.22867 4.14904
# Velocity P-wave (km/s) = 8.44677 7.90548 8.18060
#
# Compressibility (1/GPa) = 0.01422098
#
# Stress axis : x y z
#
# Youngs Moduli (GPa) = 76.55270 24.67633 55.56336
#
# Poissons Ratio (x) = 0.30199 0.08348
# Poissons Ratio (y) = 0.93684 0.83021
# Poissons Ratio (z) = 0.11501 0.36871
#
# Static dielectric constant tensor:
#      x y z
#    x 1.618460 0.000000 0.002620 
#    y 0.000000 1.597190 0.000000 
#    z 0.002620 0.000000 1.577590 
# 
# From -- ./inp_files/108731.got.cif
#   From: 2010.05.17/outbox.cif.g08.bks.cpg/sg12_55_cif.got.tgz:108731.got - 2010.06.03 13:09:07.
