data_PCOD9194133
_publ_section_title
;
Structure prediction by ZEFSAII (Michael W. Deem and Ramdas Pophale) SiO2 
 PCOD9194133
Probable space group: C 2/M
;
_chemical_formula_sum "Si O2"
_cell_formula_units_Z 40
_cell_length_a 23.000901
_cell_length_b 8.928028
_cell_length_c 11.687880
_cell_angle_alpha 90.000000
_cell_angle_beta 72.717555
_cell_angle_gamma 90.000000
_cell_volume 2291.775849
_symmetry_space_group_name_H-M "C 2/M"
_symmetry_group_IT_number 12
_symmetry_cell_setting 'monoclinic'
loop_
_space_group_symop_operation_xyz
x,y,z
-x,y,-z
-x,-y,-z
x,-y,z
1/2+x,1/2+y,z
1/2-x,1/2+y,-z
1/2-x,1/2-y,-z
1/2+x,1/2-y,z
loop_
_atom_site_type_symbol
_atom_site_label
_atom_site_fract_x
_atom_site_fract_y
_atom_site_fract_z
Si Si1 0.918325 0.679383 0.437728
Si Si2 0.301968 0.678455 0.390101
Si Si3 0.283338 0.177967 0.154002
Si Si4 0.842765 0.822453 0.903585
Si Si5 0.058430 0.678991 0.311931
O O1 0.908557 0.500000 0.432216
O O2 0.866590 0.767553 0.401736
O O3 0.918170 0.714657 0.573414
O O4 0.986431 0.712408 0.353290
O O5 0.297177 0.500000 0.395759
O O6 0.250000 0.750000 0.500000
O O7 0.293380 0.738475 0.266851
O O8 0.215424 0.207049 0.144790
O O9 0.290324 0.000000 0.165409
O O10 0.328805 0.237464 0.029651
O O11 0.902434 0.764677 0.804517
O O12 0.845378 0.000000 0.922659
O O13 0.065443 0.500000 0.292402
#
# Coordination Sequence:
#
# PCOD9194133 Si02
#       5
#     8   8   8   8   8
#     4   9  19  36  56  80 109 141 180 220 262 315
#     4  12  24  37  55  80 110 142 176 218 267 315
#     4  10  21  37  56  79 108 142 179 219 265 316
#     4  10  20  34  55  82 109 139 177 221 266 314
#     4   9  18  34  57  81 107 142 179 218 264 315
#
# _framework density 17.453714000000002
#
# number of rings (size 3 to 8) (size 9 to 14) (size 15 to 20)
#    0.000    2.000    0.000    5.400    0.000    7.200 
#    0.000    3.000    0.000    6.000    0.000    0.000 
#    0.000    0.000    0.000    0.000    0.000    0.000 
#
# Total GULP energy -111721.559598 kJ/mol
# GULP energy per Si atom -5586.077980 kJ/mol
# Density = 1.741399 g / cm^3
# Si number density = 17.453714 Si / 1000 Ang^3
#
#
#
# Elastic Constant Matrix: (Units=GPa)
#
#
# Indices 1 2 3 4 5 6 
#
# 1 80.8844 70.5429 75.2330 0.0000 9.0918 0.0000
# 2 70.5429 100.0970 82.9030 0.0000 7.8268 0.0000
# 3 75.2330 82.9030 143.2039 0.0000 -4.7334 0.0000
# 4 0.0000 0.0000 0.0000 33.9261 0.0000 -2.6933
# 5 9.0918 7.8268 -4.7334 0.0000 25.4622 0.0000
# 6 0.0000 0.0000 0.0000 -2.6933 0.0000 28.4786
#
#
#
# Elastic Compliance Matrix: (Units=1/GPa)
#
#
# Indices 1 2 3 4 5 6 
#
# 1 0.038804 -0.018026 -0.010288 0.000000 -0.010227 0.000000
# 2 -0.018026 0.029342 -0.007649 0.000000 -0.004005 0.000000
# 3 -0.010288 -0.007649 0.017121 0.000000 0.009208 0.000000
# 4 0.000000 0.000000 0.000000 0.029699 0.000000 0.002809
# 5 -0.010227 -0.004005 0.009208 0.000000 0.045869 0.000000
# 6 0.000000 0.000000 0.000000 0.002809 0.000000 0.035380
#
#
# Mechanical properties :
#
#
# Convention : Reuss Voigt Hill
#
# Bulk Modulus (GPa) = 74.96290 86.83813 80.90052
# Shear Modulus (GPa) = 18.34278 23.94046 21.14162
#
# Velocity S-wave (km/s) = 3.24534 3.70760 3.48414
# Velocity P-wave (km/s) = 7.55551 8.25771 7.91440
#
# Compressibility (1/GPa) = 0.01333993
#
# Stress axis : x y z
#
# Youngs Moduli (GPa) = 25.77083 34.08039 58.40936
#
# Poissons Ratio (x) = 0.61433 0.60093
# Poissons Ratio (y) = 0.46454 0.44678
# Poissons Ratio (z) = 0.26514 0.26068
#
# Static dielectric constant tensor:
#      x y z
#    x 1.576720 0.000000 -0.002980 
#    y 0.000000 1.577510 0.000000 
#    z -0.002980 0.000000 1.564590 
# 
# From -- ./inp_files/162353.got.cif
#   From: 2010.05.17/outbox.cif.g08.bks.cpg/sg12_82_cif.got.tgz:162353.got - 2010.06.03 13:09:07.
