data_PCOD9194496
_publ_section_title
;
Structure prediction by ZEFSAII (Michael W. Deem and Ramdas Pophale) SiO2 
 PCOD9194496
Probable space group: C 2/M
;
_chemical_formula_sum "Si O2"
_cell_formula_units_Z 56
_cell_length_a 9.187692
_cell_length_b 17.918072
_cell_length_c 19.563700
_cell_angle_alpha 90.000000
_cell_angle_beta 120.048667
_cell_angle_gamma 90.000000
_cell_volume 2787.829081
_symmetry_space_group_name_H-M "C 2/M"
_symmetry_group_IT_number 12
_symmetry_cell_setting 'monoclinic'
loop_
_space_group_symop_operation_xyz
x,y,z
-x,y,-z
-x,-y,-z
x,-y,z
1/2+x,1/2+y,z
1/2-x,1/2+y,-z
1/2-x,1/2-y,-z
1/2+x,1/2-y,z
loop_
_atom_site_type_symbol
_atom_site_label
_atom_site_fract_x
_atom_site_fract_y
_atom_site_fract_z
Si Si1 0.116814 0.089861 0.313800
Si Si2 0.179233 0.833337 0.001794
Si Si3 0.020284 0.590420 0.582368
Si Si4 0.133743 0.415227 0.319553
Si Si5 0.342742 0.333986 0.155064
Si Si6 0.017117 0.914742 0.430421
Si Si7 0.005123 0.671786 0.841788
O O1 0.305917 0.108957 0.337383
O O2 0.967765 0.121355 0.233684
O O3 0.118741 0.119153 0.392525
O O4 0.100828 0.000000 0.312699
O O5 0.164242 0.868951 0.922930
O O6 0.250000 0.750000 0.000000
O O7 0.331810 0.865075 0.083316
O O8 0.000000 0.830715 0.000000
O O9 0.014896 0.500000 0.574873
O O10 0.000000 0.618623 0.500000
O O11 0.885067 0.613285 0.607006
O O12 0.067441 0.500000 0.301849
O O13 0.332214 0.419150 0.354939
O O14 0.049169 0.369077 0.239999
O O15 0.431643 0.253861 0.164976
O O16 0.157104 0.326093 0.145418
O O17 0.000000 0.878420 0.500000
O O18 0.083325 0.000000 0.458000
#
# Coordination Sequence:
#
# PCOD9194496 Si02
#       7
#     8   8   8   8   8   8   8
#     4  10  20  34  56  84 112 144 184 228 274 321
#     4  10  20  36  59  82 107 141 184 224 262 323
#     4   9  18  32  53  82 113 146 184 229 275 321
#     4  10  20  34  56  84 112 144 184 228 274 321
#     4  11  22  37  59  83 112 144 181 225 272 327
#     4   9  16  30  53  80 107 138 184 231 265 309
#     4  11  22  37  59  83 112 144 181 225 272 327
#
# _framework density 20.087313000000002
#
# number of rings (size 3 to 8) (size 9 to 14) (size 15 to 20)
#    0.000    2.000    1.429    4.714    4.000    3.429 
#    0.000    0.714    0.000    7.714    0.000    0.000 
#    0.000    0.000    0.000    0.000    0.000    0.000 
#
# Total GULP energy -155882.943313 kJ/mol
# GULP energy per Si atom -5567.247975 kJ/mol
# Density = 2.004159 g / cm^3
# Si number density = 20.087313 Si / 1000 Ang^3
#
#
#
# Elastic Constant Matrix: (Units=GPa)
#
#
# Indices 1 2 3 4 5 6 
#
# 1 147.2075 12.9243 43.2619 0.0000 4.4151 0.0000
# 2 12.9243 14.0800 25.7495 0.0000 0.4461 0.0000
# 3 43.2619 25.7495 132.1338 0.0000 0.8645 0.0000
# 4 0.0000 0.0000 0.0000 27.9002 0.0000 2.7520
# 5 4.4151 0.4461 0.8645 0.0000 39.2550 0.0000
# 6 0.0000 0.0000 0.0000 2.7520 0.0000 15.4212
#
#
#
# Elastic Compliance Matrix: (Units=1/GPa)
#
#
# Indices 1 2 3 4 5 6 
#
# 1 0.007668 -0.003779 -0.001769 0.000000 -0.000781 0.000000
# 2 -0.003779 0.112236 -0.020632 0.000000 -0.000396 0.000000
# 3 -0.001769 -0.020632 0.012167 0.000000 0.000166 0.000000
# 4 0.000000 0.000000 0.000000 0.036484 0.000000 -0.006511
# 5 -0.000781 -0.000396 0.000166 0.000000 0.025563 0.000000
# 6 0.000000 0.000000 0.000000 -0.006511 0.000000 0.066008
#
#
# Mechanical properties :
#
#
# Convention : Reuss Voigt Hill
#
# Bulk Modulus (GPa) = 12.54530 50.81030 31.67780
# Shear Modulus (GPa) = 14.74680 30.61432 22.68056
#
# Velocity S-wave (km/s) = 2.71243 3.90816 3.36385
# Velocity P-wave (km/s) = 4.00857 6.76126 5.55802
#
# Compressibility (1/GPa) = 0.07971115
#
# Stress axis : x y z
#
# Youngs Moduli (GPa) = 130.40830 8.90980 82.18979
#
# Poissons Ratio (x) = 0.03367 0.14541
# Poissons Ratio (y) = 0.49275 1.69576
# Poissons Ratio (z) = 0.23072 0.18383
#
# Static dielectric constant tensor:
#      x y z
#    x 1.738820 0.000000 -0.012320 
#    y 0.000000 1.709450 0.000000 
#    z -0.012320 0.000000 1.764090 
# 
# From -- ./inp_files/257127.got.cif
#   From: 2010.05.17/outbox.cif.g08.bks.cpg/sg12_129_cif.got.tgz:257127.got - 2010.06.03 13:09:07.
