data_PCOD9194174
_publ_section_title
;
Structure prediction by ZEFSAII (Michael W. Deem and Ramdas Pophale) SiO2 
 PCOD9194174
Probable space group: C 2/M
;
_chemical_formula_sum "Si O2"
_cell_formula_units_Z 64
_cell_length_a 29.991628
_cell_length_b 8.947985
_cell_length_c 17.867838
_cell_angle_alpha 90.000000
_cell_angle_beta 39.846417
_cell_angle_gamma 90.000000
_cell_volume 3072.370878
_symmetry_space_group_name_H-M "C 2/M"
_symmetry_group_IT_number 12
_symmetry_cell_setting 'monoclinic'
loop_
_space_group_symop_operation_xyz
x,y,z
-x,y,-z
-x,-y,-z
x,-y,z
1/2+x,1/2+y,z
1/2-x,1/2+y,-z
1/2-x,1/2-y,-z
1/2+x,1/2-y,z
loop_
_atom_site_type_symbol
_atom_site_label
_atom_site_fract_x
_atom_site_fract_y
_atom_site_fract_z
Si Si1 0.528981 0.664252 0.048278
Si Si2 0.898774 0.179492 0.494135
Si Si3 0.156383 0.333359 0.844987
Si Si4 0.693797 0.175936 0.129633
Si Si5 0.287324 0.172648 0.723757
Si Si6 0.313620 0.330323 0.459054
Si Si7 0.457145 0.678953 0.633668
Si Si8 0.905478 0.662262 0.241968
O O1 0.518372 0.500000 0.095312
O O2 0.486672 0.803192 0.135442
O O3 0.500000 0.656316 0.000000
O O4 0.608979 0.710058 0.945625
O O5 0.863626 0.264389 0.608407
O O6 0.851729 0.228832 0.484192
O O7 0.981014 0.208725 0.385442
O O8 0.891166 0.000000 0.512274
O O9 0.151239 0.500000 0.883752
O O10 0.234348 0.276093 0.746884
O O11 0.126827 0.341701 0.799076
O O12 0.726998 0.185787 0.169921
O O13 0.615548 0.245864 0.244697
O O14 0.685569 0.000000 0.121359
O O15 0.750000 0.250000 0.000000
O O16 0.281843 0.000000 0.708294
O O17 0.293120 0.500000 0.499531
O O18 0.250000 0.250000 0.500000
O O19 0.373781 0.307266 0.321122
O O20 0.500000 0.716800 0.500000
O O21 0.443967 0.500000 0.645551
O O22 0.890066 0.500000 0.296866
#
# Coordination Sequence:
#
# PCOD9194174 Si02
#       8
#     8   8   8   8   8   8   8   8
#     4   9  17  31  52  76 104 142 190 242 297 358
#     4  10  22  40  63  93 124 163 212 259 312 376
#     4  10  20  34  55  82 113 153 200 250 301 362
#     4  11  25  44  67  97 132 168 207 258 320 386
#     4  11  23  38  60  91 123 157 202 256 308 370
#     4  11  23  38  56  82 119 160 203 254 309 363
#     4  10  20  40  72 100 127 167 211 260 321 390
#     4  10  20  35  54  78 111 152 199 248 302 364
#
# _framework density 20.830819000000002
#
# number of rings (size 3 to 8) (size 9 to 14) (size 15 to 20)
#    0.000    1.750    1.250    3.000    0.000    9.250 
#    2.250    0.000    0.000    0.000    0.000    0.000 
#    0.000    0.000    0.000    0.000    0.000    0.000 
#
# Total GULP energy -178182.232752 kJ/mol
# GULP energy per Si atom -5568.194774 kJ/mol
# Density = 2.078341 g / cm^3
# Si number density = 20.830819 Si / 1000 Ang^3
#
#
#
# Elastic Constant Matrix: (Units=GPa)
#
#
# Indices 1 2 3 4 5 6 
#
# 1 68.7291 36.8294 35.4132 -0.0010 -17.8267 0.0004
# 2 36.8294 88.7308 50.1698 0.0024 -10.5200 -0.0007
# 3 35.4132 50.1698 96.8404 -0.0017 -25.3128 0.0014
# 4 -0.0010 0.0024 -0.0017 28.4292 0.0026 2.0029
# 5 -17.8267 -10.5200 -25.3128 0.0026 26.9840 -0.0019
# 6 0.0004 -0.0007 0.0014 2.0029 -0.0019 11.5310
#
#
#
# Elastic Compliance Matrix: (Units=1/GPa)
#
#
# Indices 1 2 3 4 5 6 
#
# 1 0.021723 -0.006813 -0.001798 0.000000 0.010008 0.000001
# 2 -0.006813 0.018160 -0.008271 -0.000002 -0.005179 0.000002
# 3 -0.001798 -0.008271 0.018700 0.000001 0.013130 -0.000001
# 4 0.000000 -0.000002 0.000001 0.035611 -0.000004 -0.006185
# 5 0.010008 -0.005179 0.013130 -0.000004 0.053968 0.000008
# 6 0.000001 0.000002 -0.000001 -0.006185 0.000008 0.087797
#
#
# Mechanical properties :
#
#
# Convention : Reuss Voigt Hill
#
# Bulk Modulus (GPa) = 40.29001 55.45834 47.87417
# Shear Modulus (GPa) = 17.98574 22.18136 20.08355
#
# Velocity S-wave (km/s) = 2.94159 3.26672 3.10841
# Velocity P-wave (km/s) = 5.56065 6.39606 5.99293
#
# Compressibility (1/GPa) = 0.02482005
#
# Stress axis : x y z
#
# Youngs Moduli (GPa) = 46.03356 55.06529 53.47453
#
# Poissons Ratio (x) = 0.37518 0.09615
# Poissons Ratio (y) = 0.31365 0.44226
# Poissons Ratio (z) = 0.08277 0.45542
#
# Static dielectric constant tensor:
#      x y z
#    x 1.865020 0.000040 -0.042020 
#    y 0.000040 1.631480 -0.000030 
#    z -0.042020 -0.000030 1.855400 
# 
# From -- ./inp_files/295503.got.cif
#   From: 2010.05.17/outbox.cif.g08.bks.cpg/sg12_148_cif.got.tgz:295503.got - 2010.06.03 13:09:07.
