data_PCOD9194059
_publ_section_title
;
Structure prediction by ZEFSAII (Michael W. Deem and Ramdas Pophale) SiO2 
 PCOD9194059
Probable space group: C 2/M
;
_chemical_formula_sum "Si O2"
_cell_formula_units_Z 56
_cell_length_a 21.365324
_cell_length_b 7.467334
_cell_length_c 23.039091
_cell_angle_alpha 90.000000
_cell_angle_beta 137.645769
_cell_angle_gamma 90.000000
_cell_volume 2476.366177
_symmetry_space_group_name_H-M "C 2/M"
_symmetry_group_IT_number 12
_symmetry_cell_setting 'monoclinic'
loop_
_space_group_symop_operation_xyz
x,y,z
-x,y,-z
-x,-y,-z
x,-y,z
1/2+x,1/2+y,z
1/2-x,1/2+y,-z
1/2-x,1/2-y,-z
1/2+x,1/2-y,z
loop_
_atom_site_type_symbol
_atom_site_label
_atom_site_fract_x
_atom_site_fract_y
_atom_site_fract_z
Si Si1 0.886172 0.217175 0.065110
Si Si2 0.404182 0.780999 0.311221
Si Si3 0.110025 0.281923 0.425076
Si Si4 0.952339 0.780755 0.907551
Si Si5 0.201565 0.707504 0.875390
Si Si6 0.261578 0.707017 0.731362
Si Si7 0.205227 0.293593 0.376721
O O1 0.867922 0.281108 0.117645
O O2 0.981690 0.271534 0.100713
O O3 0.882634 0.000000 0.064218
O O4 0.799225 0.281902 0.966020
O O5 0.510339 0.720644 0.379599
O O6 0.347162 0.720270 0.215213
O O7 0.340155 0.722935 0.321383
O O8 0.411501 0.000000 0.315352
O O9 0.113188 0.500000 0.426832
O O10 0.132661 0.221230 0.374683
O O11 0.194902 0.220854 0.523395
O O12 0.848010 0.714599 0.826254
O O13 0.950643 0.000000 0.907113
O O14 0.000000 0.724284 0.000000
O O15 0.221106 0.500000 0.875496
O O16 0.257979 0.500000 0.746698
O O17 0.286406 0.711267 0.680826
O O18 0.181800 0.500000 0.350841
#
# Coordination Sequence:
#
# PCOD9194059 Si02
#       7
#     8   8   8   8   8   8   8
#     4   9  17  29  46  72 101 133 171 213 257 300
#     4   9  18  33  54  78 100 134 179 217 252 301
#     4   9  19  37  59  78 101 136 176 216 257 310
#     4   9  17  30  50  75 104 138 176 216 255 296
#     4   9  17  30  49  71 100 134 172 212 253 302
#     4  10  20  34  55  80 106 138 178 219 257 305
#     4  10  21  37  56  80 108 135 168 214 267 319
#
# _framework density 22.613779000000001
#
# number of rings (size 3 to 8) (size 9 to 14) (size 15 to 20)
#    0.000    2.714    0.000    1.286    2.000    4.571 
#    0.000    5.000    0.000    3.429    0.000    0.000 
#    0.000    0.000    0.000    0.000    0.000    0.000 
#
# Total GULP energy -156328.135459 kJ/mol
# GULP energy per Si atom -5583.147695 kJ/mol
# Density = 2.256231 g / cm^3
# Si number density = 22.613779 Si / 1000 Ang^3
#
#
#
# Elastic Constant Matrix: (Units=GPa)
#
#
# Indices 1 2 3 4 5 6 
#
# 1 134.5899 -3.1864 41.7246 -0.0001 25.8101 0.0001
# 2 -3.1864 62.6074 -6.9365 -0.0003 3.2089 0.0005
# 3 41.7246 -6.9365 48.5257 0.0000 3.9429 0.0000
# 4 -0.0001 -0.0003 0.0000 -27.8267 0.0000 7.2086
# 5 25.8101 3.2089 3.9429 0.0000 31.1183 0.0000
# 6 0.0001 0.0005 0.0000 7.2086 0.0000 9.5629
#
#
#
# Elastic Compliance Matrix: (Units=1/GPa)
#
#
# Indices 1 2 3 4 5 6 
#
# 1 0.012137 -0.000006 -0.009719 0.000000 -0.008835 0.000000
# 2 -0.000006 0.016352 0.002505 0.000000 -0.001998 -0.000001
# 3 -0.009719 0.002505 0.028987 0.000000 0.004130 0.000000
# 4 0.000000 0.000000 0.000000 -0.030066 0.000000 0.022664
# 5 -0.008835 -0.001998 0.004130 0.000000 0.039146 0.000000
# 6 0.000000 -0.000001 0.000000 0.022664 0.000000 0.087487
#
#
# Mechanical properties :
#
#
# Convention : Reuss Voigt Hill
#
# Bulk Modulus (GPa) = 23.23625 34.32515 28.78070
# Shear Modulus (GPa) = 27.34796 16.84563 22.09680
#
# Velocity S-wave (km/s) = 3.48134 2.73230 3.12931
# Velocity P-wave (km/s) = 5.14366 5.01655 5.08050
#
# Compressibility (1/GPa) = 0.04303621
#
# Stress axis : x y z
#
# Youngs Moduli (GPa) = 82.39229 61.15371 34.49815
#
# Poissons Ratio (x) = 0.00039 0.33529
# Poissons Ratio (y) = 0.00052 -0.08643
# Poissons Ratio (z) = 0.80078 -0.15321
#
# Static dielectric constant tensor:
#      x y z
#    x 1.841340 0.000000 0.014830 
#    y 0.000000 -0.810850 0.000000 
#    z 0.014830 0.000000 1.797660 
# 
# From -- ./inp_files/315405.got.cif
#   From: 2010.05.17/outbox.cif.g08.bks.cpg/sg12_158_cif.got.tgz:315405.got - 2010.06.03 13:09:07.
