data_PCOD9194037
_publ_section_title
;
Structure prediction by ZEFSAII (Michael W. Deem and Ramdas Pophale) SiO2 
 PCOD9194037
Probable space group: C 2/M
;
_chemical_formula_sum "Si O2"
_cell_formula_units_Z 64
_cell_length_a 12.575008
_cell_length_b 14.110384
_cell_length_c 30.295249
_cell_angle_alpha 90.000000
_cell_angle_beta 143.665494
_cell_angle_gamma 90.000000
_cell_volume 3184.995607
_symmetry_space_group_name_H-M "C 2/M"
_symmetry_group_IT_number 12
_symmetry_cell_setting 'monoclinic'
loop_
_space_group_symop_operation_xyz
x,y,z
-x,y,-z
-x,-y,-z
x,-y,z
1/2+x,1/2+y,z
1/2-x,1/2+y,-z
1/2-x,1/2-y,-z
1/2+x,1/2-y,z
loop_
_atom_site_type_symbol
_atom_site_label
_atom_site_fract_x
_atom_site_fract_y
_atom_site_fract_z
Si Si1 0.987972 0.771095 0.367241
Si Si2 0.447514 0.386356 0.828108
Si Si3 0.891512 0.389656 0.856810
Si Si4 0.220108 0.609182 0.666195
Si Si5 0.845276 0.385295 0.981283
Si Si6 0.141906 0.277644 0.773912
Si Si7 0.632031 0.888459 0.255613
Si Si8 0.291304 0.109803 0.437415
O O1 0.946617 0.679179 0.382512
O O2 0.952553 0.738872 0.304918
O O3 0.831997 0.846141 0.327625
O O4 0.179007 0.821599 0.430932
O O5 0.448069 0.500000 0.831873
O O6 0.364964 0.364355 0.752154
O O7 0.647990 0.349755 0.903648
O O8 0.312150 0.343520 0.818640
O O9 0.847126 0.500000 0.851418
O O10 0.731197 0.321358 0.818569
O O11 0.910397 0.378127 0.810667
O O12 0.074861 0.366281 0.943644
O O13 0.167415 0.500000 0.655830
O O14 0.289285 0.615570 0.639398
O O15 0.836683 0.500000 0.973752
O O16 0.000000 0.350771 0.000000
O O17 0.007745 0.329373 0.762049
O O18 0.626257 0.000000 0.264696
O O19 0.500000 0.132415 0.500000
O O20 0.278953 0.000000 0.447635
#
# Coordination Sequence:
#
# PCOD9194037 Si02
#       8
#     8   8   8   8   8   8   8   8
#     4  10  20  35  56  82 110 142 179 216 258 312
#     4   9  18  33  53  76 104 139 179 223 268 315
#     4   9  20  36  52  74 105 139 179 225 271 319
#     4   9  19  36  57  81 109 140 176 217 261 311
#     4   9  18  32  50  73 102 138 180 225 271 317
#     4  10  20  34  55  79 106 139 181 221 265 318
#     4  10  20  35  55  79 108 141 177 222 271 316
#     4  10  21  37  58  84 111 139 173 214 260 311
#
# _framework density 20.094218999999999
#
# number of rings (size 3 to 8) (size 9 to 14) (size 15 to 20)
#    0.000    2.500    0.000    1.500    0.000    7.000 
#    0.000    8.750    0.000    4.125    0.000    0.000 
#    0.000    0.000    0.000    0.000    0.000    0.000 
#
# Total GULP energy -178685.674418 kJ/mol
# GULP energy per Si atom -5583.927326 kJ/mol
# Density = 2.004848 g / cm^3
# Si number density = 20.094219 Si / 1000 Ang^3
#
#
#
# Elastic Constant Matrix: (Units=GPa)
#
#
# Indices 1 2 3 4 5 6 
#
# 1 97.5638 61.1884 28.5349 0.0000 25.9803 0.0000
# 2 61.1884 98.1194 26.8484 0.0000 13.4995 0.0000
# 3 28.5349 26.8484 53.4080 0.0000 13.0120 0.0000
# 4 0.0000 0.0000 0.0000 17.2039 0.0000 8.7655
# 5 25.9803 13.4995 13.0120 0.0000 29.2576 0.0000
# 6 0.0000 0.0000 0.0000 8.7655 0.0000 35.5602
#
#
#
# Elastic Compliance Matrix: (Units=1/GPa)
#
#
# Indices 1 2 3 4 5 6 
#
# 1 0.021115 -0.010656 -0.002865 0.000000 -0.012559 0.000000
# 2 -0.010656 0.017460 -0.003843 0.000000 0.003115 0.000000
# 3 -0.002865 -0.003843 0.023703 0.000000 -0.006225 0.000000
# 4 0.000000 0.000000 0.000000 0.066475 0.000000 -0.016386
# 5 -0.012559 0.003115 -0.006225 0.000000 0.046662 0.000000
# 6 0.000000 0.000000 0.000000 -0.016386 0.000000 0.032160
#
#
# Mechanical properties :
#
#
# Convention : Reuss Voigt Hill
#
# Bulk Modulus (GPa) = 36.29708 53.58165 44.93936
# Shear Modulus (GPa) = 19.88192 25.23898 22.56045
#
# Velocity S-wave (km/s) = 3.14894 3.54790 3.35436
# Velocity P-wave (km/s) = 5.59676 6.59595 6.11679
#
# Compressibility (1/GPa) = 0.02755043
#
# Stress axis : x y z
#
# Youngs Moduli (GPa) = 47.36039 57.27529 42.18926
#
# Poissons Ratio (x) = 0.61030 0.12086
# Poissons Ratio (y) = 0.50465 0.16213
# Poissons Ratio (z) = 0.13568 0.22010
#
# Static dielectric constant tensor:
#      x y z
#    x 1.692650 0.000000 -0.007540 
#    y 0.000000 1.731430 0.000000 
#    z -0.007540 0.000000 1.741960 
# 
# From -- ./inp_files/305463.got.cif
#   From: 2010.05.17/outbox.cif.g08.bks.cpg/sg12_153_cif.got.tgz:305463.got - 2010.06.03 13:09:07.
