data_PCOD9194527
_publ_section_title
;
Structure prediction by ZEFSAII (Michael W. Deem and Ramdas Pophale) SiO2 
 PCOD9194527
Probable space group: C 2/M
;
_chemical_formula_sum "Si O2"
_cell_formula_units_Z 58
_cell_length_a 23.643285
_cell_length_b 7.606250
_cell_length_c 20.349288
_cell_angle_alpha 90.000000
_cell_angle_beta 44.493848
_cell_angle_gamma 90.000000
_cell_volume 2564.731903
_symmetry_space_group_name_H-M "C 2/M"
_symmetry_group_IT_number 12
_symmetry_cell_setting 'monoclinic'
loop_
_space_group_symop_operation_xyz
x,y,z
-x,y,-z
-x,-y,-z
x,-y,z
1/2+x,1/2+y,z
1/2-x,1/2+y,-z
1/2-x,1/2-y,-z
1/2+x,1/2-y,z
loop_
_atom_site_type_symbol
_atom_site_label
_atom_site_fract_x
_atom_site_fract_y
_atom_site_fract_z
Si Si1 0.177320 0.289242 0.510744
Si Si2 0.003134 0.714514 0.706089
Si Si3 0.102752 0.689554 0.866910
Si Si4 0.220547 0.713351 0.329433
Si Si5 0.500000 0.500000 0.000000
Si Si6 0.148177 0.285871 0.255758
Si Si7 0.467601 0.703985 0.884154
Si Si8 0.214005 0.210895 0.958042
O O1 0.170669 0.500000 0.511360
O O2 0.250000 0.250000 0.500000
O O3 0.091614 0.227547 0.609790
O O4 0.196611 0.223044 0.421534
O O5 0.001881 0.500000 0.712862
O O6 0.934417 0.766607 0.710960
O O7 0.981388 0.791587 0.794903
O O8 0.100327 0.500000 0.901652
O O9 0.190854 0.725434 0.765249
O O10 0.039428 0.694300 0.859218
O O11 0.070689 0.844997 0.938282
O O12 0.222288 0.500000 0.329497
O O13 0.160487 0.768103 0.320719
O O14 0.149576 0.500000 0.253384
O O15 0.224350 0.225357 0.148689
O O16 0.477285 0.500000 0.901977
O O17 0.377778 0.774386 0.969861
O O18 0.208851 0.000000 0.956726
O O19 0.250000 0.250000 0.000000
#
# Coordination Sequence:
#
# PCOD9194527 Si02
#       8
#     8   8   8   8   2   8   8   8
#     4  10  22  38  63  93 121 164 220 280 342 401
#     4  10  20  37  60  92 125 162 226 281 328 402
#     4  12  26  43  68  98 131 178 224 273 331 391
#     4  10  21  41  65  90 131 176 216 273 341 404
#     4  12  26  48  64  94 140 174 222 270 328 400
#     4   9  19  35  60  87 124 171 212 272 338 395
#     4  11  22  37  60  91 130 174 218 274 329 391
#     4  10  20  34  56  84 120 166 213 258 321 390
#
# _framework density 22.614450000000001
#
# number of rings (size 3 to 8) (size 9 to 14) (size 15 to 20)
#    0.000    1.655    2.759    1.448    1.931    4.414 
#    0.000    4.138    0.000    0.000    0.000    2.897 
#    0.000    0.000    0.000    0.000    0.000    0.000 
#
# Total GULP energy -162119.226238 kJ/mol
# GULP energy per Si atom -5590.318146 kJ/mol
# Density = 2.256298 g / cm^3
# Si number density = 22.614450 Si / 1000 Ang^3
#
#
#
# Elastic Constant Matrix: (Units=GPa)
#
#
# Indices 1 2 3 4 5 6 
#
# 1 170.0582 11.1990 80.6422 0.0095 1.1975 -0.0009
# 2 11.1990 93.6692 22.8419 0.0629 0.2320 -0.0242
# 3 80.6422 22.8419 158.7489 0.0197 -7.6722 -0.0167
# 4 0.0095 0.0629 0.0197 -77.4189 -0.0160 -20.3694
# 5 1.1975 0.2320 -7.6722 -0.0160 45.1265 0.0073
# 6 -0.0009 -0.0242 -0.0167 -20.3694 0.0073 9.0044
#
#
#
# Elastic Compliance Matrix: (Units=1/GPa)
#
#
# Indices 1 2 3 4 5 6 
#
# 1 0.007782 0.000048 -0.004003 0.000001 -0.000887 -0.000003
# 2 0.000048 0.011069 -0.001633 0.000001 -0.000336 0.000029
# 3 -0.004003 -0.001633 0.008644 -0.000002 0.001584 0.000006
# 4 0.000001 0.000001 -0.000002 -0.008097 0.000000 -0.018317
# 5 -0.000887 -0.000336 0.001584 0.000000 0.022455 -0.000017
# 6 -0.000003 0.000029 0.000006 -0.018317 -0.000017 0.069620
#
#
# Mechanical properties :
#
#
# Convention : Reuss Voigt Hill
#
# Bulk Modulus (GPa) = 61.27895 72.42696 66.85295
# Shear Modulus (GPa) = 39.03564 15.86193 27.44879
#
# Velocity S-wave (km/s) = 4.15919 2.65128 3.48770
# Velocity P-wave (km/s) = 7.08669 6.43962 6.77089
#
# Compressibility (1/GPa) = 0.01631882
#
# Stress axis : x y z
#
# Youngs Moduli (GPa) = 128.50964 90.34018 115.68530
#
# Poissons Ratio (x) = -0.00433 0.46305
# Poissons Ratio (y) = -0.00616 0.18895
# Poissons Ratio (z) = 0.51438 0.14755
#
# Static dielectric constant tensor:
#      x y z
#    x 1.766980 -0.000010 -0.020950 
#    y -0.000010 1.879830 0.000000 
#    z -0.020950 0.000000 1.758820 
# 
# From -- ./inp_files/324532.got.cif
#   From: 2010.05.17/outbox.cif.g08.bks.cpg/sg12_163_cif.got.tgz:324532.got - 2010.06.03 13:09:07.
