data_PCOD9194229
_publ_section_title
;
Structure prediction by ZEFSAII (Michael W. Deem and Ramdas Pophale) SiO2 
 PCOD9194229
Probable space group: C 2/M
;
_chemical_formula_sum "Si O2"
_cell_formula_units_Z 40
_cell_length_a 7.755358
_cell_length_b 21.700968
_cell_length_c 18.619355
_cell_angle_alpha 90.000000
_cell_angle_beta 37.835285
_cell_angle_gamma 90.000000
_cell_volume 1922.139003
_symmetry_space_group_name_H-M "C 2/M"
_symmetry_group_IT_number 12
_symmetry_cell_setting 'monoclinic'
loop_
_space_group_symop_operation_xyz
x,y,z
-x,y,-z
-x,-y,-z
x,-y,z
1/2+x,1/2+y,z
1/2-x,1/2+y,-z
1/2-x,1/2-y,-z
1/2+x,1/2-y,z
loop_
_atom_site_type_symbol
_atom_site_label
_atom_site_fract_x
_atom_site_fract_y
_atom_site_fract_z
Si Si1 0.644353 0.426351 0.377803
Si Si2 0.289621 0.216384 0.154437
Si Si3 0.236392 0.926987 0.771995
Si Si4 0.646236 0.334208 0.044762
Si Si5 0.193417 0.145350 0.633271
O O1 0.500000 0.406658 0.500000
O O2 0.609128 0.500000 0.382670
O O3 0.487536 0.395610 0.362681
O O4 0.973795 0.413895 0.281459
O O5 0.402275 0.285210 0.107516
O O6 0.219845 0.187423 0.100875
O O7 0.003766 0.205629 0.291528
O O8 0.561926 0.177627 0.092402
O O9 0.230158 0.890918 0.697360
O O10 0.983006 0.901310 0.904768
O O11 0.217217 0.000000 0.765169
O O12 0.500000 0.157725 0.500000
#
# Coordination Sequence:
#
# PCOD9194229 Si02
#       5
#     8   8   8   8   8
#     4  10  20  34  55  83 114 156 195 223 279 349
#     4   9  20  37  60  85 109 151 193 228 286 345
#     4  10  21  37  59  85 116 150 189 238 284 334
#     4   9  19  39  60  83 112 149 192 234 284 337
#     4  11  21  36  57  87 117 148 188 236 286 336
#
# _framework density 20.81015
#
# number of rings (size 3 to 8) (size 9 to 14) (size 15 to 20)
#    0.000    2.200    2.000    0.600    2.800    0.800 
#    0.000   14.000    0.000    2.400    0.000    0.000 
#    0.000    0.000    0.000    0.000    0.000    0.000 
#
# Total GULP energy -111474.266158 kJ/mol
# GULP energy per Si atom -5573.713308 kJ/mol
# Density = 2.076279 g / cm^3
# Si number density = 20.810150 Si / 1000 Ang^3
#
#
#
# Elastic Constant Matrix: (Units=GPa)
#
#
# Indices 1 2 3 4 5 6 
#
# 1 118.5765 18.8889 37.0541 -0.0011 -23.4040 0.0011
# 2 18.8889 45.1375 43.0086 0.0003 -19.2879 -0.0005
# 3 37.0541 43.0086 100.5470 -0.0024 -22.8263 0.0037
# 4 -0.0011 0.0003 -0.0024 102.3196 0.0009 -175.5909
# 5 -23.4040 -19.2879 -22.8263 0.0009 19.5158 -0.0013
# 6 0.0011 -0.0005 0.0037 -175.5909 -0.0013 381.4314
#
#
#
# Elastic Compliance Matrix: (Units=1/GPa)
#
#
# Indices 1 2 3 4 5 6 
#
# 1 0.011508 0.003903 -0.002589 0.000000 0.014630 0.000000
# 2 0.003903 0.050313 -0.014443 -0.000001 0.037512 0.000000
# 3 -0.002589 -0.014443 0.017880 0.000001 0.003533 0.000000
# 4 0.000000 -0.000001 0.000001 0.046540 -0.000001 0.021425
# 5 0.014630 0.037512 0.003533 -0.000001 0.109993 0.000000
# 6 0.000000 0.000000 0.000000 0.021425 0.000000 0.012484
#
#
# Mechanical properties :
#
#
# Convention : Reuss Voigt Hill
#
# Bulk Modulus (GPa) = 18.71195 51.35158 35.03177
# Shear Modulus (GPa) = 17.07696 111.67399 64.37547
#
# Velocity S-wave (km/s) = 2.86773 7.33347 5.56793
# Velocity P-wave (km/s) = 4.46950 9.82019 7.62930
#
# Compressibility (1/GPa) = 0.05344178
#
# Stress axis : x y z
#
# Youngs Moduli (GPa) = 86.89324 19.87555 55.92843
#
# Poissons Ratio (x) = -0.07757 0.14481
# Poissons Ratio (y) = -0.33912 0.80779
# Poissons Ratio (z) = 0.22498 0.28707
#
# Static dielectric constant tensor:
#      x y z
#    x 1.838140 0.000000 0.013380 
#    y 0.000000 1.733840 0.000000 
#    z 0.013380 0.000000 1.836490 
# 
# From -- ./inp_files/120391.got.cif
#   From: 2010.05.17/outbox.cif.g08.bks.cpg/sg12_61_cif.got.tgz:120391.got - 2010.06.03 13:09:07.
