data_PCOD9194227
_publ_section_title
;
Structure prediction by ZEFSAII (Michael W. Deem and Ramdas Pophale) SiO2 
 PCOD9194227
Probable space group: C 2/M
;
_chemical_formula_sum "Si O2"
_cell_formula_units_Z 48
_cell_length_a 22.531832
_cell_length_b 11.199439
_cell_length_c 12.045841
_cell_angle_alpha 90.000000
_cell_angle_beta 47.268716
_cell_angle_gamma 90.000000
_cell_volume 2232.789782
_symmetry_space_group_name_H-M "C 2/M"
_symmetry_group_IT_number 12
_symmetry_cell_setting 'monoclinic'
loop_
_space_group_symop_operation_xyz
x,y,z
-x,y,-z
-x,-y,-z
x,-y,z
1/2+x,1/2+y,z
1/2-x,1/2+y,-z
1/2-x,1/2-y,-z
1/2+x,1/2-y,z
loop_
_atom_site_type_symbol
_atom_site_label
_atom_site_fract_x
_atom_site_fract_y
_atom_site_fract_z
Si Si1 0.577739 0.640517 0.512266
Si Si2 0.586195 0.271241 0.843898
Si Si3 0.158632 0.306020 0.980927
Si Si4 0.981884 0.632315 0.271213
Si Si5 0.705456 0.626691 0.533257
Si Si6 0.837688 0.134043 0.816471
O O1 0.547828 0.500000 0.555784
O O2 0.533875 0.751448 0.630307
O O3 0.663382 0.633472 0.467708
O O4 0.599463 0.674800 0.358371
O O5 0.564919 0.165148 0.783912
O O6 0.632133 0.369176 0.714072
O O7 0.500000 0.312574 0.000000
O O8 0.641434 0.232650 0.876753
O O9 0.161306 0.201608 0.068964
O O10 0.076781 0.372797 0.121010
O O11 0.246657 0.362929 0.883097
O O12 0.957405 0.500000 0.344194
O O13 0.750055 0.500000 0.487673
O O14 0.750000 0.750000 0.500000
O O15 0.860043 0.000000 0.812282
#
# Coordination Sequence:
#
# PCOD9194227 Si02
#       6
#     8   8   8   8   8   8
#     4   9  20  39  59  82 116 157 198 239 288 347
#     4   9  20  37  58  86 118 150 189 242 300 352
#     4  10  21  37  57  87 119 150 194 245 293 344
#     4  10  21  38  63  92 118 149 192 245 301 352
#     4  10  20  34  55  83 114 151 192 240 294 345
#     4  10  21  38  59  81 114 162 204 237 283 347
#
# _framework density 21.497769000000002
#
# number of rings (size 3 to 8) (size 9 to 14) (size 15 to 20)
#    0.000    2.333    0.000    1.500    0.000    8.667 
#    0.000   10.000    0.000    0.000    0.000    0.000 
#    0.000    0.000    0.000    0.000    0.000    0.000 
#
# Total GULP energy -133752.735657 kJ/mol
# GULP energy per Si atom -5573.030652 kJ/mol
# Density = 2.144884 g / cm^3
# Si number density = 21.497769 Si / 1000 Ang^3
#
#
#
# Elastic Constant Matrix: (Units=GPa)
#
#
# Indices 1 2 3 4 5 6 
#
# 1 122.8326 57.1375 14.1745 0.0000 5.6959 0.0000
# 2 57.1375 130.2029 57.6043 0.0000 12.1212 0.0000
# 3 14.1745 57.6043 90.8365 0.0000 6.4827 0.0000
# 4 0.0000 0.0000 0.0000 13.7279 0.0000 -2.2970
# 5 5.6959 12.1212 6.4827 0.0000 29.6649 0.0000
# 6 0.0000 0.0000 0.0000 -2.2970 0.0000 -10.1430
#
#
#
# Elastic Compliance Matrix: (Units=1/GPa)
#
#
# Indices 1 2 3 4 5 6 
#
# 1 0.010432 -0.005344 0.001776 0.000000 -0.000207 0.000000
# 2 -0.005344 0.013670 -0.007628 0.000000 -0.002892 0.000000
# 3 0.001776 -0.007628 0.015615 0.000000 -0.000636 0.000000
# 4 0.000000 0.000000 0.000000 0.070185 0.000000 -0.015894
# 5 -0.000207 -0.002892 -0.000636 0.000000 0.035071 0.000000
# 6 0.000000 0.000000 0.000000 -0.015894 0.000000 -0.094991
#
#
# Mechanical properties :
#
#
# Convention : Reuss Voigt Hill
#
# Bulk Modulus (GPa) = 57.72665 66.85607 62.29136
# Shear Modulus (GPa) = 63.98052 20.98033 42.48042
#
# Velocity S-wave (km/s) = 5.46133 3.12738 4.45009
# Velocity P-wave (km/s) = 8.16571 6.64885 7.44601
#
# Compressibility (1/GPa) = 0.01732302
#
# Stress axis : x y z
#
# Youngs Moduli (GPa) = 95.86066 73.15397 64.04255
#
# Poissons Ratio (x) = 0.39096 -0.11374
# Poissons Ratio (y) = 0.51231 0.48854
# Poissons Ratio (z) = -0.17026 0.55805
#
# Static dielectric constant tensor:
#      x y z
#    x 1.845790 0.000000 -0.031410 
#    y 0.000000 1.792050 0.000000 
#    z -0.031410 0.000000 1.808350 
# 
# From -- ./inp_files/165457.got.cif
#   From: 2010.05.17/outbox.cif.g08.bks.cpg/sg12_83_cif.got.tgz:165457.got - 2010.06.03 13:09:07.
