data_PCOD9194633
_publ_section_title
;
Structure prediction by ZEFSAII (Michael W. Deem and Ramdas Pophale) SiO2 
 PCOD9194633
Probable space group: C 2/M
;
_chemical_formula_sum "Si O2"
_cell_formula_units_Z 56
_cell_length_a 26.511899
_cell_length_b 19.071866
_cell_length_c 18.209558
_cell_angle_alpha 90.000000
_cell_angle_beta 19.400610
_cell_angle_gamma 90.000000
_cell_volume 3058.407633
_symmetry_space_group_name_H-M "C 2/M"
_symmetry_group_IT_number 12
_symmetry_cell_setting 'monoclinic'
loop_
_space_group_symop_operation_xyz
x,y,z
-x,y,-z
-x,-y,-z
x,-y,z
1/2+x,1/2+y,z
1/2-x,1/2+y,-z
1/2-x,1/2-y,-z
1/2+x,1/2-y,z
loop_
_atom_site_type_symbol
_atom_site_label
_atom_site_fract_x
_atom_site_fract_y
_atom_site_fract_z
Si Si1 0.153717 0.424645 0.048404
Si Si2 0.138450 0.101193 0.361471
Si Si3 0.140506 0.268515 0.359450
Si Si4 0.612604 0.415782 0.774821
Si Si5 0.057528 0.075353 0.240512
Si Si6 0.103080 0.314868 0.580043
Si Si7 0.469516 0.685163 0.847288
O O1 0.078882 0.500000 0.166136
O O2 0.050569 0.359143 0.205498
O O3 0.210543 0.422641 0.886398
O O4 0.301922 0.420094 0.896286
O O5 0.135850 0.184699 0.364066
O O6 0.000000 0.076509 0.500000
O O7 0.095906 0.077366 0.500830
O O8 0.123697 0.290156 0.467613
O O9 0.000000 0.293730 0.500000
O O10 0.306370 0.290202 0.102217
O O11 0.636649 0.500000 0.726679
O O12 0.764124 0.370608 0.583958
O O13 0.539910 0.370523 0.808151
O O14 0.500000 0.412236 0.000000
O O15 0.062200 0.140844 0.181914
O O16 0.068385 0.000000 0.186795
O O17 0.077404 0.250048 0.672590
#
# Coordination Sequence:
#
# PCOD9194633 Si02
#       7
#     8   8   8   8   8   8   8
#     4  10  20  34  56  88 124 160 197 239 294 357
#     4   9  17  32  54  83 122 161 190 230 287 354
#     4  11  22  36  59  95 129 155 192 241 297 355
#     4  11  25  46  66  83 113 157 205 253 305 354
#     4  10  20  34  56  88 124 160 197 239 294 357
#     4  12  23  40  64  89 118 157 202 251 295 353
#     4  12  23  40  64  89 118 157 202 251 295 353
#
# _framework density 18.310182000000001
#
# number of rings (size 3 to 8) (size 9 to 14) (size 15 to 20)
#    0.000    1.286    4.286    2.571    0.000    2.857 
#    0.000    0.000    0.000    3.429    0.000    4.000 
#    0.000    0.000    0.000    0.000    0.000    0.000 
#
# Total GULP energy -156028.384743 kJ/mol
# GULP energy per Si atom -5572.442312 kJ/mol
# Density = 1.826851 g / cm^3
# Si number density = 18.310182 Si / 1000 Ang^3
#
#
#
# Elastic Constant Matrix: (Units=GPa)
#
#
# Indices 1 2 3 4 5 6 
#
# 1 67.3549 51.8608 42.6859 0.0009 2.5573 0.0002
# 2 51.8608 156.2422 57.7069 -0.0021 5.7740 0.0002
# 3 42.6859 57.7069 89.5682 -0.0021 17.9722 0.0000
# 4 0.0009 -0.0021 -0.0021 35.2359 0.0000 5.0366
# 5 2.5573 5.7740 17.9722 0.0000 27.2303 0.0002
# 6 0.0002 0.0002 0.0000 5.0366 0.0002 29.5875
#
#
#
# Elastic Compliance Matrix: (Units=1/GPa)
#
#
# Indices 1 2 3 4 5 6 
#
# 1 0.024371 -0.004741 -0.009570 -0.000002 0.005033 0.000000
# 2 -0.004741 0.009423 -0.004034 0.000000 0.001110 0.000000
# 3 -0.009570 -0.004034 0.020716 0.000001 -0.011919 0.000000
# 4 -0.000002 0.000000 0.000001 0.029088 -0.000001 -0.004952
# 5 0.005033 0.001110 -0.011919 -0.000001 0.043882 0.000000
# 6 0.000000 0.000000 0.000000 -0.004952 0.000000 0.034641
#
#
# Mechanical properties :
#
#
# Convention : Reuss Voigt Hill
#
# Bulk Modulus (GPa) = 56.11731 68.63030 62.37381
# Shear Modulus (GPa) = 24.41986 29.13819 26.77903
#
# Velocity S-wave (km/s) = 3.65592 3.99352 3.82844
# Velocity P-wave (km/s) = 6.96675 7.66992 7.32678
#
# Compressibility (1/GPa) = 0.01781981
#
# Stress axis : x y z
#
# Youngs Moduli (GPa) = 41.03281 106.12410 48.27099
#
# Poissons Ratio (x) = 0.50310 0.46196
# Poissons Ratio (y) = 0.19452 0.19475
# Poissons Ratio (z) = 0.39269 0.42815
#
# Static dielectric constant tensor:
#      x y z
#    x 1.634120 0.000000 0.005960 
#    y 0.000000 1.641580 0.000000 
#    z 0.005960 0.000000 1.640770 
# 
# From -- ./inp_files/293835.got.cif
#   From: 2010.05.17/outbox.cif.g08.bks.cpg/sg12_147_cif.got.tgz:293835.got - 2010.06.03 13:09:07.
