data_PCOD9194954
_publ_section_title
;
Structure prediction by ZEFSAII (Michael W. Deem and Ramdas Pophale) SiO2 
 PCOD9194954
Probable space group: C 2/M
;
_chemical_formula_sum "Si O2"
_cell_formula_units_Z 48
_cell_length_a 19.386651
_cell_length_b 13.542109
_cell_length_c 19.142046
_cell_angle_alpha 90.000000
_cell_angle_beta 27.712466
_cell_angle_gamma 90.000000
_cell_volume 2337.021927
_symmetry_space_group_name_H-M "C 2/M"
_symmetry_group_IT_number 12
_symmetry_cell_setting 'monoclinic'
loop_
_space_group_symop_operation_xyz
x,y,z
-x,y,-z
-x,-y,-z
x,-y,z
1/2+x,1/2+y,z
1/2-x,1/2+y,-z
1/2-x,1/2-y,-z
1/2+x,1/2-y,z
loop_
_atom_site_type_symbol
_atom_site_label
_atom_site_fract_x
_atom_site_fract_y
_atom_site_fract_z
Si Si1 0.642005 0.888536 0.825226
Si Si2 0.383021 0.890699 0.316835
Si Si3 0.885149 0.116840 0.038880
Si Si4 0.382839 0.764077 0.660516
Si Si5 0.585596 0.290659 0.136959
Si Si6 0.467015 0.389617 0.369568
O O1 0.597429 0.890536 0.784499
O O2 0.771006 0.810664 0.721513
O O3 0.691224 0.000000 0.800012
O O4 0.500000 0.865043 0.000000
O O5 0.476904 0.798144 0.257303
O O6 0.208296 0.877895 0.486412
O O7 0.428022 0.000000 0.302774
O O8 0.724164 0.157753 0.206090
O O9 0.879237 0.000000 0.029810
O O10 0.934612 0.174647 0.924701
O O11 0.000000 0.132063 0.000000
O O12 0.500000 0.806626 0.500000
O O13 0.470851 0.694962 0.635897
O O14 0.552588 0.378635 0.219937
O O15 0.750000 0.250000 0.000000
O O16 0.487393 0.500000 0.381220
#
# Coordination Sequence:
#
# PCOD9194954 Si02
#       6
#     8   8   8   8   8   8
#     4  10  20  34  58  93 130 168 210 256 316 384
#     4  10  22  40  62  92 131 170 214 263 321 396
#     4  11  26  48  70  95 130 177 231 281 328 393
#     4  12  22  38  67  97 132 173 212 271 327 397
#     4  12  24  44  69  96 131 176 220 281 335 392
#     4  11  24  41  63  98 136 174 216 265 331 400
#
# _framework density 20.538961
#
# number of rings (size 3 to 8) (size 9 to 14) (size 15 to 20)
#    0.000    1.000    3.333    4.000    0.000    2.333 
#    0.000    0.000    0.000    0.000    0.000    0.000 
#    0.000    0.000    0.000    0.000    0.000    0.000 
#
# Total GULP energy -134173.001137 kJ/mol
# GULP energy per Si atom -5590.541714 kJ/mol
# Density = 2.049221 g / cm^3
# Si number density = 20.538961 Si / 1000 Ang^3
#
#
#
# Elastic Constant Matrix: (Units=GPa)
#
#
# Indices 1 2 3 4 5 6 
#
# 1 51.6946 17.0156 6.0188 0.0002 3.6495 -0.0001
# 2 17.0156 114.6472 20.1924 0.0004 -15.6611 -0.0002
# 3 6.0188 20.1924 102.3181 0.0006 8.3956 -0.0004
# 4 0.0002 0.0004 0.0006 27.7049 -0.0004 3.4659
# 5 3.6495 -15.6611 8.3956 -0.0004 31.1690 0.0002
# 6 -0.0001 -0.0002 -0.0004 3.4659 0.0002 18.7275
#
#
#
# Elastic Compliance Matrix: (Units=1/GPa)
#
#
# Indices 1 2 3 4 5 6 
#
# 1 0.020862 -0.003646 -0.000160 0.000000 -0.004231 0.000000
# 2 -0.003646 0.010556 -0.002392 0.000000 0.006375 0.000000
# 3 -0.000160 -0.002392 0.010586 0.000000 -0.004034 0.000000
# 4 0.000000 0.000000 0.000000 0.036950 0.000001 -0.006838
# 5 -0.004231 0.006375 -0.004034 0.000001 0.036868 -0.000001
# 6 0.000000 0.000000 0.000000 -0.006838 -0.000001 0.054663
#
#
# Mechanical properties :
#
#
# Convention : Reuss Voigt Hill
#
# Bulk Modulus (GPa) = 33.77580 39.45707 36.61643
# Shear Modulus (GPa) = 25.94026 30.54915 28.24471
#
# Velocity S-wave (km/s) = 3.55770 3.86083 3.71236
# Velocity P-wave (km/s) = 5.77553 6.25518 6.02013
#
# Compressibility (1/GPa) = 0.02960700
#
# Stress axis : x y z
#
# Youngs Moduli (GPa) = 47.93422 94.73617 94.46505
#
# Poissons Ratio (x) = 0.34541 0.01516
# Poissons Ratio (y) = 0.17477 0.22594
# Poissons Ratio (z) = 0.00769 0.22659
#
# Static dielectric constant tensor:
#      x y z
#    x 1.737020 0.000000 0.015740 
#    y 0.000000 1.750030 0.000000 
#    z 0.015740 0.000000 1.710590 
# 
# From -- ./inp_files/278036.got.cif
#   From: 2010.05.17/outbox.cif.g08.bks.cpg/sg12_140_cif.got.tgz:278036.got - 2010.06.03 13:09:07.
