data_PCOD9194259
_publ_section_title
;
Structure prediction by ZEFSAII (Michael W. Deem and Ramdas Pophale) SiO2 
 PCOD9194259
Probable space group: C 2/M
;
_chemical_formula_sum "Si O2"
_cell_formula_units_Z 64
_cell_length_a 19.274217
_cell_length_b 13.230111
_cell_length_c 24.558979
_cell_angle_alpha 90.000000
_cell_angle_beta 32.496280
_cell_angle_gamma 90.000000
_cell_volume 3364.517566
_symmetry_space_group_name_H-M "C 2/M"
_symmetry_group_IT_number 12
_symmetry_cell_setting 'monoclinic'
loop_
_space_group_symop_operation_xyz
x,y,z
-x,y,-z
-x,-y,-z
x,-y,z
1/2+x,1/2+y,z
1/2-x,1/2+y,-z
1/2-x,1/2-y,-z
1/2+x,1/2-y,z
loop_
_atom_site_type_symbol
_atom_site_label
_atom_site_fract_x
_atom_site_fract_y
_atom_site_fract_z
Si Si1 0.282841 0.115233 0.752478
Si Si2 0.068069 0.886000 0.805365
Si Si3 0.487305 0.118204 0.774658
Si Si4 0.211856 0.763755 0.158935
Si Si5 0.532092 0.784781 0.542221
Si Si6 0.015209 0.118781 0.636444
Si Si7 0.873306 0.287844 0.952597
Si Si8 0.170546 0.206819 0.629561
O O1 0.200381 0.122254 0.751712
O O2 0.231305 0.196839 0.829675
O O3 0.430573 0.144523 0.641438
O O4 0.273224 0.000000 0.778784
O O5 0.092330 0.857496 0.726633
O O6 0.967871 0.807120 0.895788
O O7 0.019687 0.000000 0.841918
O O8 0.379682 0.182166 0.812332
O O9 0.447858 0.133362 0.864373
O O10 0.619720 0.178764 0.673730
O O11 0.490929 0.000000 0.758502
O O12 0.116308 0.847698 0.246295
O O13 0.314828 0.812576 0.050012
O O14 0.500000 0.790505 0.500000
O O15 0.512257 0.673199 0.580169
O O16 0.679992 0.810189 0.457026
O O17 0.127792 0.169378 0.598584
O O18 0.030716 0.000000 0.623521
O O19 0.750000 0.250000 0.000000
#
# Coordination Sequence:
#
# PCOD9194259 Si02
#       8
#     8   8   8   8   8   8   8   8
#     4  10  21  35  55  84 113 146 183 223 285 347
#     4  10  20  34  55  84 114 144 180 225 280 339
#     4   9  18  33  55  82 111 144 187 232 279 329
#     4   9  19  36  55  80 116 148 181 233 279 333
#     4  11  22  39  59  82 115 152 189 236 284 344
#     4  10  22  38  58  84 112 150 194 237 283 333
#     4   9  19  33  52  79 108 143 183 223 274 327
#     4  10  20  37  57  83 115 147 186 239 287 326
#
# _framework density 19.022043
#
# number of rings (size 3 to 8) (size 9 to 14) (size 15 to 20)
#    0.000    2.250    1.250    1.875    0.000    5.500 
#    0.000    1.250    0.000    0.000    0.000    3.500 
#    0.000    0.000    0.000    0.000    0.000    0.000 
#
# Total GULP energy -178497.097956 kJ/mol
# GULP energy per Si atom -5578.034311 kJ/mol
# Density = 1.897875 g / cm^3
# Si number density = 19.022043 Si / 1000 Ang^3
#
#
#
# Elastic Constant Matrix: (Units=GPa)
#
#
# Indices 1 2 3 4 5 6 
#
# 1 32.2244 -7.1405 -14.1030 0.0002 3.9758 0.0000
# 2 -7.1405 50.4366 -17.2086 0.0003 -12.4511 -0.0001
# 3 -14.1030 -17.2086 33.9544 0.0009 -6.7275 -0.0003
# 4 0.0002 0.0003 0.0009 5.1859 -0.0002 -3.6111
# 5 3.9758 -12.4511 -6.7275 -0.0002 32.0776 0.0000
# 6 0.0000 -0.0001 -0.0003 -3.6111 0.0000 20.7904
#
#
#
# Elastic Compliance Matrix: (Units=1/GPa)
#
#
# Indices 1 2 3 4 5 6 
#
# 1 0.048212 0.019667 0.031635 -0.000009 0.008293 -0.000001
# 2 0.019667 0.037844 0.031067 -0.000008 0.018767 -0.000001
# 3 0.031635 0.031067 0.062548 -0.000014 0.021256 -0.000001
# 4 -0.000009 -0.000008 -0.000014 0.219360 -0.000004 0.038101
# 5 0.008293 0.018767 0.021256 -0.000004 0.041889 0.000000
# 6 -0.000001 -0.000001 -0.000001 0.038101 0.000000 0.054717
#
#
# Mechanical properties :
#
#
# Convention : Reuss Voigt Hill
#
# Bulk Modulus (GPa) = 3.19141 4.41236 3.80188
# Shear Modulus (GPa) = 12.36769 21.94861 17.15815
#
# Velocity S-wave (km/s) = 2.55262 3.40052 3.00661
# Velocity P-wave (km/s) = 3.22013 4.21221 3.74913
#
# Compressibility (1/GPa) = 0.31334143
#
# Stress axis : x y z
#
# Youngs Moduli (GPa) = 20.74160 26.42432 15.98783
#
# Poissons Ratio (x) = -0.51968 -0.50578
# Poissons Ratio (y) = -0.40792 -0.49669
# Poissons Ratio (z) = -0.65617 -0.82092
#
# Static dielectric constant tensor:
#      x y z
#    x 1.603150 0.000000 0.206200 
#    y 0.000000 1.625680 0.000000 
#    z 0.206200 0.000000 1.175890 
# 
# From -- ./inp_files/365996.got.cif
#   From: 2010.05.17/outbox.cif.g08.bks.cpg/sg12_183_cif.got.tgz:365996.got - 2010.06.03 13:09:07.
