data_PCOD9194623
_publ_section_title
;
Structure prediction by ZEFSAII (Michael W. Deem and Ramdas Pophale) SiO2 
 PCOD9194623
Probable space group: C 2/M
;
_chemical_formula_sum "Si O2"
_cell_formula_units_Z 64
_cell_length_a 20.340096
_cell_length_b 26.156513
_cell_length_c 11.795016
_cell_angle_alpha 90.000000
_cell_angle_beta 32.449534
_cell_angle_gamma 90.000000
_cell_volume 3367.029133
_symmetry_space_group_name_H-M "C 2/M"
_symmetry_group_IT_number 12
_symmetry_cell_setting 'monoclinic'
loop_
_space_group_symop_operation_xyz
x,y,z
-x,y,-z
-x,-y,-z
x,-y,z
1/2+x,1/2+y,z
1/2-x,1/2+y,-z
1/2-x,1/2-y,-z
1/2+x,1/2-y,z
loop_
_atom_site_type_symbol
_atom_site_label
_atom_site_fract_x
_atom_site_fract_y
_atom_site_fract_z
Si Si1 0.472227 0.557480 0.242542
Si Si2 0.776385 0.115820 0.117297
Si Si3 0.857434 0.798493 0.171057
Si Si4 0.850696 0.616191 0.933817
Si Si5 0.370602 0.180340 0.122381
Si Si6 0.376267 0.557849 0.632880
Si Si7 0.892742 0.438727 0.450002
Si Si8 0.236712 0.872785 0.513797
O O1 0.478870 0.500000 0.184888
O O2 0.396288 0.554943 0.469914
O O3 0.392601 0.597417 0.286709
O O4 0.606524 0.579183 0.072724
O O5 0.827253 0.165421 0.108503
O O6 0.706692 0.130684 0.103811
O O7 0.685070 0.084934 0.333062
O O8 0.831230 0.739378 0.184709
O O9 0.775550 0.822458 0.390776
O O10 0.000000 0.801768 0.000000
O O11 0.968457 0.580691 0.742888
O O12 0.883591 0.661045 0.974511
O O13 0.744717 0.585063 0.151568
O O14 0.275630 0.146109 0.333170
O O15 0.500000 0.175566 0.000000
O O16 0.500000 0.583447 0.500000
O O17 0.372110 0.500000 0.685801
O O18 0.884169 0.500000 0.459155
O O19 0.835013 0.412185 0.422296
#
# Coordination Sequence:
#
# PCOD9194623 Si02
#       8
#     8   8   8   8   8   8   8   8
#     4  11  21  35  61  94 125 157 199 254 308 364
#     4  11  24  41  62  92 127 165 210 256 307 369
#     4  10  22  41  66  89 118 162 209 258 313 369
#     4  12  23  40  64  91 131 163 206 256 309 372
#     4  11  23  42  64  89 119 163 209 261 317 370
#     4  10  20  34  56  87 121 160 200 243 302 364
#     4  11  25  41  61  90 130 175 210 247 302 375
#     4  11  21  41  64  93 124 158 208 261 310 372
#
# _framework density 19.007856
#
# number of rings (size 3 to 8) (size 9 to 14) (size 15 to 20)
#    0.000    1.125    5.000    1.875    0.000    2.500 
#    0.000    2.500    0.000    1.500    0.000    0.000 
#    0.000    0.000    0.000    0.000    0.000    0.000 
#
# Total GULP energy -178657.074666 kJ/mol
# GULP energy per Si atom -5583.033583 kJ/mol
# Density = 1.896459 g / cm^3
# Si number density = 19.007856 Si / 1000 Ang^3
#
#
#
# Elastic Constant Matrix: (Units=GPa)
#
#
# Indices 1 2 3 4 5 6 
#
# 1 92.0372 67.3805 35.7306 -0.0051 -1.6054 -0.0007
# 2 67.3805 140.5366 44.1377 0.0029 1.9439 0.0006
# 3 35.7306 44.1377 88.9229 -0.0039 -7.7196 -0.0017
# 4 -0.0051 0.0029 -0.0039 72.4763 -0.0005 14.4055
# 5 -1.6054 1.9439 -7.7196 -0.0005 34.7431 0.0006
# 6 -0.0007 0.0006 -0.0017 14.4055 0.0006 21.4371
#
#
#
# Elastic Compliance Matrix: (Units=1/GPa)
#
#
# Indices 1 2 3 4 5 6 
#
# 1 0.017581 -0.007381 -0.003359 0.000001 0.000479 -0.000001
# 2 -0.007381 0.011599 -0.002934 -0.000001 -0.001642 0.000000
# 3 -0.003359 -0.002934 0.014329 0.000001 0.003193 0.000001
# 4 0.000001 -0.000001 0.000001 0.015925 0.000001 -0.010701
# 5 0.000479 -0.001642 0.003193 0.000001 0.029606 -0.000001
# 6 -0.000001 0.000000 0.000001 -0.010701 -0.000001 0.053839
#
#
# Mechanical properties :
#
#
# Convention : Reuss Voigt Hill
#
# Bulk Modulus (GPa) = 61.87858 68.44381 65.16119
# Shear Modulus (GPa) = 28.47164 37.34782 32.90973
#
# Velocity S-wave (km/s) = 3.87445 4.43749 4.16549
# Velocity P-wave (km/s) = 7.25535 7.89566 7.58226
#
# Compressibility (1/GPa) = 0.01616068
#
# Stress axis : x y z
#
# Youngs Moduli (GPa) = 56.87876 86.21792 69.78919
#
# Poissons Ratio (x) = 0.63637 0.23444
# Poissons Ratio (y) = 0.41982 0.20475
# Poissons Ratio (z) = 0.19107 0.25294
#
# Static dielectric constant tensor:
#      x y z
#    x 1.693470 0.000000 0.002450 
#    y 0.000000 1.644530 0.000000 
#    z 0.002450 0.000000 1.655260 
# 
# From -- ./inp_files/170592.got.cif
#   From: 2010.05.17/outbox.cif.g08.bks.cpg/sg12_86_cif.got.tgz:170592.got - 2010.06.03 13:09:07.
