data_PCOD9194992
_publ_section_title
;
Structure prediction by ZEFSAII (Michael W. Deem and Ramdas Pophale) SiO2 
 PCOD9194992
Probable space group: C 2/M
;
_chemical_formula_sum "Si O2"
_cell_formula_units_Z 48
_cell_length_a 27.849489
_cell_length_b 7.916260
_cell_length_c 17.497559
_cell_angle_alpha 90.000000
_cell_angle_beta 143.915321
_cell_angle_gamma 90.000000
_cell_volume 2272.037525
_symmetry_space_group_name_H-M "C 2/M"
_symmetry_group_IT_number 12
_symmetry_cell_setting 'monoclinic'
loop_
_space_group_symop_operation_xyz
x,y,z
-x,y,-z
-x,-y,-z
x,-y,z
1/2+x,1/2+y,z
1/2-x,1/2+y,-z
1/2-x,1/2-y,-z
1/2+x,1/2-y,z
loop_
_atom_site_type_symbol
_atom_site_label
_atom_site_fract_x
_atom_site_fract_y
_atom_site_fract_z
Si Si1 0.843940 0.797918 0.113064
Si Si2 0.104499 0.793186 0.283501
Si Si3 0.084738 0.793426 0.957759
Si Si4 0.008905 0.301000 0.597668
Si Si5 0.355935 0.697750 0.497876
Si Si6 0.813974 0.199448 0.767035
O O1 0.879040 0.737333 0.076659
O O2 0.901271 0.726761 0.253377
O O3 0.851342 0.000000 0.124748
O O4 0.750000 0.750000 0.000000
O O5 0.139741 0.733190 0.409989
O O6 0.152812 0.732677 0.271161
O O7 0.009621 0.744864 0.155742
O O8 0.107078 0.000000 0.288729
O O9 0.086834 0.000000 0.959941
O O10 0.138644 0.732180 0.098388
O O11 0.990835 0.500000 0.573052
O O12 0.000000 0.234547 0.500000
O O13 0.942949 0.220313 0.569604
O O14 0.337864 0.500000 0.479159
O O15 0.282823 0.778028 0.355985
O O16 0.831903 0.000000 0.788978
#
# Coordination Sequence:
#
# PCOD9194992 Si02
#       6
#     8   8   8   8   8   8
#     4  11  23  41  64  91 124 157 195 244 299 357
#     4   9  17  34  59  86 115 155 202 242 287 344
#     4   9  18  35  59  86 117 152 195 243 286 339
#     4  11  25  44  65  88 115 152 202 253 303 360
#     4  11  22  38  59  86 123 157 192 243 300 356
#     4  10  20  34  59  89 118 157 201 241 283 343
#
# _framework density 21.126411999999998
#
# number of rings (size 3 to 8) (size 9 to 14) (size 15 to 20)
#    0.000    1.833    1.667    2.500    2.333    3.333 
#    0.000    1.667    0.000    1.000    0.000    0.000 
#    0.000    0.000    0.000    0.000    0.000    0.000 
#
# Total GULP energy -134136.692732 kJ/mol
# GULP energy per Si atom -5589.028864 kJ/mol
# Density = 2.107833 g / cm^3
# Si number density = 21.126412 Si / 1000 Ang^3
#
#
#
# Elastic Constant Matrix: (Units=GPa)
#
#
# Indices 1 2 3 4 5 6 
#
# 1 70.9601 -1.0574 30.7812 0.0000 -6.2333 0.0000
# 2 -1.0574 20.5736 -8.9331 0.0000 -10.7093 0.0000
# 3 30.7812 -8.9331 127.5739 0.0000 -12.1141 0.0000
# 4 0.0000 0.0000 0.0000 19.9515 0.0000 5.7956
# 5 -6.2333 -10.7093 -12.1141 0.0000 42.2866 0.0000
# 6 0.0000 0.0000 0.0000 5.7956 0.0000 12.2116
#
#
#
# Elastic Compliance Matrix: (Units=1/GPa)
#
#
# Indices 1 2 3 4 5 6 
#
# 1 0.015807 -0.000159 -0.003708 0.000000 0.001227 0.000000
# 2 -0.000159 0.059879 0.005828 0.000000 0.016811 0.000000
# 3 -0.003708 0.005828 0.009488 0.000000 0.003647 0.000000
# 4 0.000000 0.000000 0.000000 0.058137 0.000000 -0.027592
# 5 0.001227 0.016811 0.003647 0.000000 0.029131 0.000000
# 6 0.000000 0.000000 0.000000 -0.027592 0.000000 0.094985
#
#
# Mechanical properties :
#
#
# Convention : Reuss Voigt Hill
#
# Bulk Modulus (GPa) = 11.22416 28.96542 20.09479
# Shear Modulus (GPa) = 17.05304 28.11106 22.58205
#
# Velocity S-wave (km/s) = 2.84419 3.65171 3.27295
# Velocity P-wave (km/s) = 4.01376 5.61429 4.88009
#
# Compressibility (1/GPa) = 0.08909350
#
# Stress axis : x y z
#
# Youngs Moduli (GPa) = 63.26506 16.70041 105.39905
#
# Poissons Ratio (x) = 0.00265 0.39086
# Poissons Ratio (y) = 0.01005 -0.61421
# Poissons Ratio (z) = 0.23461 -0.09732
#
# Static dielectric constant tensor:
#      x y z
#    x 1.740570 0.000000 -0.021970 
#    y 0.000000 1.784590 0.000000 
#    z -0.021970 0.000000 1.730570 
# 
# From -- ./inp_files/281799.got.cif
#   From: 2010.05.17/outbox.cif.g08.bks.cpg/sg12_141_cif.got.tgz:281799.got - 2010.06.03 13:09:07.
