data_PCOD9194736
_publ_section_title
;
Structure prediction by ZEFSAII (Michael W. Deem and Ramdas Pophale) SiO2 
 PCOD9194736
Probable space group: C 2/M
;
_chemical_formula_sum "Si O2"
_cell_formula_units_Z 56
_cell_length_a 19.867036
_cell_length_b 7.712973
_cell_length_c 14.793970
_cell_angle_alpha 90.000000
_cell_angle_beta 87.871935
_cell_angle_gamma 90.000000
_cell_volume 2265.374450
_symmetry_space_group_name_H-M "C 2/M"
_symmetry_group_IT_number 12
_symmetry_cell_setting 'monoclinic'
loop_
_space_group_symop_operation_xyz
x,y,z
-x,y,-z
-x,-y,-z
x,-y,z
1/2+x,1/2+y,z
1/2-x,1/2+y,-z
1/2-x,1/2-y,-z
1/2+x,1/2-y,z
loop_
_atom_site_type_symbol
_atom_site_label
_atom_site_fract_x
_atom_site_fract_y
_atom_site_fract_z
Si Si1 0.307642 0.697736 0.129493
Si Si2 0.529385 0.302435 0.716254
Si Si3 0.979075 0.703444 0.903529
Si Si4 0.763047 0.787901 0.317144
Si Si5 0.873213 0.789133 0.446113
Si Si6 0.886906 0.299072 0.651685
Si Si7 0.834333 0.796439 0.934617
O O1 0.331680 0.500000 0.134778
O O2 0.307164 0.774872 0.229542
O O3 0.227839 0.701163 0.108345
O O4 0.341152 0.773428 0.037635
O O5 0.551724 0.500000 0.723165
O O6 0.529600 0.230252 0.817870
O O7 0.573806 0.227544 0.632671
O O8 0.452459 0.292976 0.686410
O O9 0.969177 0.500000 0.915024
O O10 0.905705 0.778295 0.883812
O O11 0.000000 0.778550 0.000000
O O12 0.800693 0.742960 0.407586
O O13 0.686180 0.727532 0.316036
O O14 0.761538 0.000000 0.312685
O O15 0.886765 0.711834 0.543010
O O16 0.877713 0.000000 0.454490
O O17 0.891519 0.500000 0.680496
O O18 0.816133 0.000000 0.940286
#
# Coordination Sequence:
#
# PCOD9194736 Si02
#       7
#     8   8   8   8   8   8   8
#     4   9  18  34  58  84 116 156 198 246 299 352
#     4  11  24  41  65  91 118 157 205 253 300 357
#     4  11  25  42  60  84 120 159 195 244 305 364
#     4   9  19  36  59  86 116 156 200 245 299 351
#     4  10  22  40  62  88 121 157 202 254 302 352
#     4  11  22  38  63  91 124 162 200 244 299 364
#     4  10  20  34  57  86 116 153 202 249 293 351
#
# _framework density 24.719974000000001
#
# number of rings (size 3 to 8) (size 9 to 14) (size 15 to 20)
#    0.000    1.857    0.000    3.429    2.000    5.714 
#    0.000    2.143    0.000    0.000    0.000    0.000 
#    0.000    0.000    0.000    0.000    0.000    0.000 
#
# Total GULP energy -156630.258645 kJ/mol
# GULP energy per Si atom -5593.937809 kJ/mol
# Density = 2.466371 g / cm^3
# Si number density = 24.719974 Si / 1000 Ang^3
#
#
#
# Elastic Constant Matrix: (Units=GPa)
#
#
# Indices 1 2 3 4 5 6 
#
# 1 74.9156 -8.6517 7.7608 0.0000 -13.8480 0.0000
# 2 -8.6517 58.0804 -13.3925 0.0000 2.2503 0.0000
# 3 7.7608 -13.3925 125.6565 0.0000 -9.0186 0.0000
# 4 0.0000 0.0000 0.0000 21.7841 0.0000 -3.4560
# 5 -13.8480 2.2503 -9.0186 0.0000 44.0548 0.0000
# 6 0.0000 0.0000 0.0000 -3.4560 0.0000 8.1490
#
#
#
# Elastic Compliance Matrix: (Units=1/GPa)
#
#
# Indices 1 2 3 4 5 6 
#
# 1 0.014411 0.001891 -0.000376 0.000000 0.004356 0.000000
# 2 0.001891 0.017911 0.001796 0.000000 0.000047 0.000000
# 3 -0.000376 0.001796 0.008279 0.000000 0.001485 0.000000
# 4 0.000000 0.000000 0.000000 0.049216 0.000000 0.020872
# 5 0.004356 0.000047 0.001485 0.000000 0.024370 0.000000
# 6 0.000000 0.000000 0.000000 0.020872 0.000000 0.131566
#
#
# Mechanical properties :
#
#
# Convention : Reuss Voigt Hill
#
# Bulk Modulus (GPa) = 21.17580 25.56508 23.37044
# Shear Modulus (GPa) = 19.61757 32.99330 26.30544
#
# Velocity S-wave (km/s) = 2.82013 3.65729 3.26565
# Velocity P-wave (km/s) = 4.38053 5.31025 4.86764
#
# Compressibility (1/GPa) = 0.04722372
#
# Stress axis : x y z
#
# Youngs Moduli (GPa) = 69.39167 55.83023 120.78209
#
# Poissons Ratio (x) = -0.10559 0.04539
# Poissons Ratio (y) = -0.13123 -0.21687
# Poissons Ratio (z) = 0.02608 -0.10025
#
# Static dielectric constant tensor:
#      x y z
#    x 1.935340 0.000000 -0.005270 
#    y 0.000000 1.946080 0.000000 
#    z -0.005270 0.000000 1.987120 
# 
# From -- ./inp_files/231063.got.cif
#   From: 2010.05.17/outbox.cif.g08.bks.cpg/sg12_116_cif.got.tgz:231063.got - 2010.06.03 13:09:07.
