data_PCOD9194122
_publ_section_title
;
Structure prediction by ZEFSAII (Michael W. Deem and Ramdas Pophale) SiO2 
 PCOD9194122
Probable space group: C 2/M
;
_chemical_formula_sum "Si O2"
_cell_formula_units_Z 56
_cell_length_a 26.418016
_cell_length_b 7.598872
_cell_length_c 14.932816
_cell_angle_alpha 90.000000
_cell_angle_beta 121.226379
_cell_angle_gamma 90.000000
_cell_volume 2563.427183
_symmetry_space_group_name_H-M "C 2/M"
_symmetry_group_IT_number 12
_symmetry_cell_setting 'monoclinic'
loop_
_space_group_symop_operation_xyz
x,y,z
-x,y,-z
-x,-y,-z
x,-y,z
1/2+x,1/2+y,z
1/2-x,1/2+y,-z
1/2-x,1/2-y,-z
1/2+x,1/2-y,z
loop_
_atom_site_type_symbol
_atom_site_label
_atom_site_fract_x
_atom_site_fract_y
_atom_site_fract_z
Si Si1 0.294278 0.790920 0.621388
Si Si2 0.991545 0.284400 0.389320
Si Si3 0.350569 0.287448 0.011823
Si Si4 0.139372 0.291179 0.776091
Si Si5 0.752645 0.208972 0.782199
Si Si6 0.078771 0.294998 0.320728
Si Si7 0.482942 0.713338 0.084658
O O1 0.250000 0.750000 0.500000
O O2 0.270237 0.730421 0.695343
O O3 0.359095 0.717255 0.655105
O O4 0.299567 0.000000 0.634816
O O5 0.992170 0.500000 0.384659
O O6 0.045126 0.219578 0.376250
O O7 0.000000 0.236129 0.500000
O O8 0.927435 0.221562 0.295652
O O9 0.351228 0.500000 0.008243
O O10 0.337670 0.236422 0.102072
O O11 0.416913 0.226949 0.048784
O O12 0.303088 0.221509 0.895966
O O13 0.133951 0.500000 0.755532
O O14 0.188254 0.220283 0.751765
O O15 0.750123 0.000000 0.796540
O O16 0.090747 0.500000 0.352436
O O17 0.031031 0.283319 0.197883
O O18 0.484351 0.500000 0.090745
O O19 0.500000 0.765118 0.000000
#
# Coordination Sequence:
#
# PCOD9194122 Si02
#       7
#     8   8   8   8   8   8   8
#     4  11  25  42  62  87 116 154 195 242 293 343
#     4   9  18  33  57  85 112 144 186 238 288 335
#     4  10  20  35  55  84 122 157 191 238 293 348
#     4  10  20  35  60  88 114 153 197 240 292 346
#     4  10  22  39  60  86 117 157 201 239 285 349
#     4  10  21  38  60  86 113 145 192 241 282 334
#     4  10  20  34  55  81 115 158 192 227 286 347
#
# _framework density 21.845752000000001
#
# number of rings (size 3 to 8) (size 9 to 14) (size 15 to 20)
#    0.000    2.000    1.429    1.714    2.000    3.714 
#    0.000    0.000    0.000    0.857    0.000    0.000 
#    0.000    0.000    0.000    0.000    0.000    0.000 
#
# Total GULP energy -156462.044439 kJ/mol
# GULP energy per Si atom -5587.930159 kJ/mol
# Density = 2.179603 g / cm^3
# Si number density = 21.845752 Si / 1000 Ang^3
#
#
#
# Elastic Constant Matrix: (Units=GPa)
#
#
# Indices 1 2 3 4 5 6 
#
# 1 196.5575 3.3048 53.5567 0.0000 -22.8496 0.0000
# 2 3.3048 41.2579 -17.3530 0.0000 7.5455 0.0000
# 3 53.5567 -17.3530 83.7714 0.0000 -24.3847 0.0000
# 4 0.0000 0.0000 0.0000 -1.5320 0.0000 4.5173
# 5 -22.8496 7.5455 -24.3847 0.0000 35.0993 0.0000
# 6 0.0000 0.0000 0.0000 4.5173 0.0000 5.9171
#
#
#
# Elastic Compliance Matrix: (Units=1/GPa)
#
#
# Indices 1 2 3 4 5 6 
#
# 1 0.006477 -0.002603 -0.004124 0.000000 0.001911 0.000000
# 2 -0.002603 0.027755 0.006497 0.000000 -0.003147 0.000000
# 3 -0.004124 0.006497 0.018466 0.000000 0.008748 0.000000
# 4 0.000000 0.000000 0.000000 -0.200779 0.000000 0.153279
# 5 0.001911 -0.003147 0.008748 0.000000 0.036489 0.000000
# 6 0.000000 0.000000 0.000000 0.153279 0.000000 0.051985
#
#
# Mechanical properties :
#
#
# Convention : Reuss Voigt Hill
#
# Bulk Modulus (GPa) = 19.14286 44.51151 31.82719
# Shear Modulus (GPa) = -119.79948 26.70209 -46.54869
#
# Velocity S-wave (km/s) = -7.41336 3.49994 -4.62106
# Velocity P-wave (km/s) = 8.03090 6.06237 3.72445
#
# Compressibility (1/GPa) = 0.05223879
#
# Stress axis : x y z
#
# Youngs Moduli (GPa) = 154.38929 36.03009 54.15400
#
# Poissons Ratio (x) = 0.09378 0.22332
# Poissons Ratio (y) = 0.40185 -0.35185
# Poissons Ratio (z) = 0.63667 -0.23410
#
# Static dielectric constant tensor:
#      x y z
#    x 1.813500 0.000000 0.017010 
#    y 0.000000 1.854210 0.000000 
#    z 0.017010 0.000000 1.731870 
# 
# From -- ./inp_files/244323.got.cif
#   From: 2010.05.17/outbox.cif.g08.bks.cpg/sg12_123_cif.got.tgz:244323.got - 2010.06.03 13:09:07.
