data_PCOD9194289
_publ_section_title
;
Structure prediction by ZEFSAII (Michael W. Deem and Ramdas Pophale) SiO2 
 PCOD9194289
Probable space group: C 2/M
;
_chemical_formula_sum "Si O2"
_cell_formula_units_Z 48
_cell_length_a 7.738674
_cell_length_b 13.039607
_cell_length_c 23.542401
_cell_angle_alpha 90.000000
_cell_angle_beta 107.905826
_cell_angle_gamma 90.000000
_cell_volume 2260.577604
_symmetry_space_group_name_H-M "C 2/M"
_symmetry_group_IT_number 12
_symmetry_cell_setting 'monoclinic'
loop_
_space_group_symop_operation_xyz
x,y,z
-x,y,-z
-x,-y,-z
x,-y,z
1/2+x,1/2+y,z
1/2-x,1/2+y,-z
1/2-x,1/2-y,-z
1/2+x,1/2-y,z
loop_
_atom_site_type_symbol
_atom_site_label
_atom_site_fract_x
_atom_site_fract_y
_atom_site_fract_z
Si Si1 0.069285 0.881154 0.670612
Si Si2 0.350121 0.117468 0.802388
Si Si3 0.241754 0.768669 0.397505
Si Si4 0.783431 0.118868 0.490835
Si Si5 0.102002 0.782810 0.868236
Si Si6 0.644688 0.617866 0.065259
O O1 0.205854 0.875324 0.736870
O O2 0.133604 0.804729 0.627844
O O3 0.870979 0.834061 0.660027
O O4 0.060196 0.000000 0.651188
O O5 0.244488 0.146808 0.849554
O O6 0.503903 0.204532 0.814612
O O7 0.417587 0.000000 0.810503
O O8 0.277373 0.849699 0.452018
O O9 0.165393 0.680082 0.432852
O O10 0.000000 0.143050 0.500000
O O11 0.763136 0.000000 0.480597
O O12 0.199875 0.704108 0.921649
O O13 0.960341 0.853324 0.887252
O O14 0.710335 0.500000 0.072438
O O15 0.500000 0.627008 0.000000
#
# Coordination Sequence:
#
# PCOD9194289 Si02
#       6
#     8   8   8   8   8   8
#     4  11  23  40  59  81 112 143 182 231 278 325
#     4  10  21  37  58  81 107 147 188 230 278 323
#     4  11  21  36  61  83 106 145 177 220 276 332
#     4  10  20  37  59  82 110 144 178 218 276 336
#     4  10  20  36  57  83 112 148 192 232 268 332
#     4  10  20  34  55  84 118 152 185 229 280 325
#
# _framework density 21.233509999999999
#
# number of rings (size 3 to 8) (size 9 to 14) (size 15 to 20)
#    0.000    1.667    1.667    3.500    0.000    0.000 
#    0.000    4.167    0.000   18.000    0.000    0.000 
#    0.000    0.000    0.000    0.000    0.000    0.000 
#
# Total GULP energy -133692.734662 kJ/mol
# GULP energy per Si atom -5570.530611 kJ/mol
# Density = 2.118518 g / cm^3
# Si number density = 21.233510 Si / 1000 Ang^3
#
#
#
# Elastic Constant Matrix: (Units=GPa)
#
#
# Indices 1 2 3 4 5 6 
#
# 1 91.5994 270.1121 -162.5168 0.0000 -212.4514 0.0000
# 2 270.1121 1048.2439 -536.8935 0.0000 -761.6291 0.0000
# 3 -162.5168 -536.8935 428.0243 0.0000 504.3815 0.0000
# 4 0.0000 0.0000 0.0000 12.1549 0.0000 2.9500
# 5 -212.4514 -761.6291 504.3815 0.0000 679.7702 0.0000
# 6 0.0000 0.0000 0.0000 2.9500 0.0000 22.4997
#
#
#
# Elastic Compliance Matrix: (Units=1/GPa)
#
#
# Indices 1 2 3 4 5 6 
#
# 1 0.055262 -0.010629 0.010594 0.000000 -0.002499 0.000000
# 2 -0.010629 0.007598 -0.004952 0.000000 0.008865 0.000000
# 3 0.010594 -0.004952 0.022155 0.000000 -0.018676 0.000000
# 4 0.000000 0.000000 0.000000 0.084975 0.000000 -0.011141
# 5 -0.002499 0.008865 -0.018676 0.000000 0.024480 0.000000
# 6 0.000000 0.000000 0.000000 -0.011141 0.000000 0.045906
#
#
# Mechanical properties :
#
#
# Convention : Reuss Voigt Hill
#
# Bulk Modulus (GPa) = 13.32638 78.80789 46.06714
# Shear Modulus (GPa) = 18.15774 276.02934 147.09354
#
# Velocity S-wave (km/s) = 2.92746 11.41399 8.33214
# Velocity P-wave (km/s) = 4.20909 14.52243 10.69153
#
# Compressibility (1/GPa) = 0.07503915
#
# Stress axis : x y z
#
# Youngs Moduli (GPa) = 18.09559 131.62200 45.13624
#
# Poissons Ratio (x) = 1.39907 -0.47817
# Poissons Ratio (y) = 0.19235 0.22352
# Poissons Ratio (z) = -0.19170 0.65182
#
# Static dielectric constant tensor:
#      x y z
#    x 1.936550 0.000000 0.062940 
#    y 0.000000 1.745100 0.000000 
#    z 0.062940 0.000000 1.766760 
# 
# From -- ./inp_files/332274.got.cif
#   From: 2010.05.17/outbox.cif.g08.bks.cpg/sg12_167_cif.got.tgz:332274.got - 2010.06.03 13:09:07.
