data_PCOD9194809
_publ_section_title
;
Structure prediction by ZEFSAII (Michael W. Deem and Ramdas Pophale) SiO2 
 PCOD9194809
Probable space group: C 2/M
;
_chemical_formula_sum "Si O2"
_cell_formula_units_Z 56
_cell_length_a 10.449876
_cell_length_b 21.068203
_cell_length_c 19.443310
_cell_angle_alpha 90.000000
_cell_angle_beta 44.830221
_cell_angle_gamma 90.000000
_cell_volume 3017.887948
_symmetry_space_group_name_H-M "C 2/M"
_symmetry_group_IT_number 12
_symmetry_cell_setting 'monoclinic'
loop_
_space_group_symop_operation_xyz
x,y,z
-x,y,-z
-x,-y,-z
x,-y,z
1/2+x,1/2+y,z
1/2-x,1/2+y,-z
1/2-x,1/2-y,-z
1/2+x,1/2-y,z
loop_
_atom_site_type_symbol
_atom_site_label
_atom_site_fract_x
_atom_site_fract_y
_atom_site_fract_z
Si Si1 0.036918 0.424879 0.564059
Si Si2 0.111294 0.333922 0.022452
Si Si3 0.794366 0.638067 0.762416
Si Si4 0.983951 0.223588 0.845980
Si Si5 0.635757 0.338438 0.506867
Si Si6 0.283747 0.574964 0.068563
Si Si7 0.431918 0.745172 0.342785
O O1 0.069267 0.500000 0.551691
O O2 0.209723 0.388214 0.529631
O O3 0.000000 0.403387 0.500000
O O4 0.861296 0.408176 0.676877
O O5 0.994779 0.287308 0.116686
O O6 0.206754 0.386710 0.032937
O O7 0.270086 0.290413 0.929211
O O8 0.000000 0.359407 0.000000
O O9 0.591512 0.664667 0.836938
O O10 0.817789 0.603913 0.826248
O O11 0.916901 0.700623 0.706415
O O12 0.056005 0.227189 0.741200
O O13 0.500000 0.363094 0.500000
O O14 0.543748 0.311051 0.611317
O O15 0.740096 0.278462 0.432828
O O16 0.250400 0.500000 0.074578
O O17 0.500000 0.582990 0.000000
#
# Coordination Sequence:
#
# PCOD9194809 Si02
#       7
#     8   8   8   8   8   8   8
#     4  10  22  40  61  84 116 160 207 247 287 350
#     4  11  24  37  58  91 122 156 198 249 310 356
#     4  11  20  36  62  89 113 156 204 247 292 353
#     4  11  21  35  59  88 125 154 193 252 305 357
#     4  10  21  36  57  90 122 153 194 240 304 360
#     4  11  23  42  63  84 118 165 210 242 288 361
#     4  10  20  34  57  88 124 153 186 243 307 359
#
# _framework density 18.556025000000002
#
# number of rings (size 3 to 8) (size 9 to 14) (size 15 to 20)
#    0.000    1.429    2.857    3.000    2.000    4.571 
#    0.000    0.000    0.000    0.000    0.000    0.000 
#    0.000    0.000    0.000    0.000    0.000    0.000 
#
# Total GULP energy -156245.705282 kJ/mol
# GULP energy per Si atom -5580.203760 kJ/mol
# Density = 1.851379 g / cm^3
# Si number density = 18.556025 Si / 1000 Ang^3
#
#
#
# Elastic Constant Matrix: (Units=GPa)
#
#
# Indices 1 2 3 4 5 6 
#
# 1 127.1831 51.0461 34.5812 0.0001 20.4991 0.0000
# 2 51.0461 74.4205 38.3510 0.0000 17.4740 0.0000
# 3 34.5812 38.3510 85.5768 0.0000 19.3974 0.0000
# 4 0.0001 0.0000 0.0000 15.0057 0.0000 0.3827
# 5 20.4991 17.4740 19.3974 0.0000 26.7301 0.0000
# 6 0.0000 0.0000 0.0000 0.3827 0.0000 19.7982
#
#
#
# Elastic Compliance Matrix: (Units=1/GPa)
#
#
# Indices 1 2 3 4 5 6 
#
# 1 0.011280 -0.006412 -0.000807 0.000000 -0.003873 0.000000
# 2 -0.006412 0.022239 -0.006217 0.000000 -0.005109 0.000000
# 3 -0.000807 -0.006217 0.016440 0.000000 -0.007247 0.000000
# 4 0.000000 0.000000 0.000000 0.066674 0.000000 -0.001289
# 5 -0.003873 -0.005109 -0.007247 0.000000 0.048981 0.000000
# 6 0.000000 0.000000 0.000000 -0.001289 0.000000 0.050535
#
#
# Mechanical properties :
#
#
# Convention : Reuss Voigt Hill
#
# Bulk Modulus (GPa) = 43.31356 59.45969 51.38663
# Shear Modulus (GPa) = 19.94298 23.18695 21.56497
#
# Velocity S-wave (km/s) = 3.28189 3.53875 3.41274
# Velocity P-wave (km/s) = 6.14441 6.98641 6.57889
#
# Compressibility (1/GPa) = 0.02308746
#
# Stress axis : x y z
#
# Youngs Moduli (GPa) = 88.65445 44.96705 60.82599
#
# Poissons Ratio (x) = 0.28832 0.04907
# Poissons Ratio (y) = 0.56843 0.37816
# Poissons Ratio (z) = 0.07152 0.27957
#
# Static dielectric constant tensor:
#      x y z
#    x 1.669590 0.000000 -0.005370 
#    y 0.000000 1.636150 0.000000 
#    z -0.005370 0.000000 1.665080 
# 
# From -- ./inp_files/259145.got.cif
#   From: 2010.05.17/outbox.cif.g08.bks.cpg/sg12_130_cif.got.tgz:259145.got - 2010.06.03 13:09:07.
