data_PCOD9194413
_publ_section_title
;
Structure prediction by ZEFSAII (Michael W. Deem and Ramdas Pophale) SiO2 
 PCOD9194413
Probable space group: C 2/M
;
_chemical_formula_sum "Si O2"
_cell_formula_units_Z 56
_cell_length_a 21.642051
_cell_length_b 9.097653
_cell_length_c 15.571059
_cell_angle_alpha 90.000000
_cell_angle_beta 86.916526
_cell_angle_gamma 90.000000
_cell_volume 3061.376323
_symmetry_space_group_name_H-M "C 2/M"
_symmetry_group_IT_number 12
_symmetry_cell_setting 'monoclinic'
loop_
_space_group_symop_operation_xyz
x,y,z
-x,y,-z
-x,-y,-z
x,-y,z
1/2+x,1/2+y,z
1/2-x,1/2+y,-z
1/2-x,1/2-y,-z
1/2+x,1/2-y,z
loop_
_atom_site_type_symbol
_atom_site_label
_atom_site_fract_x
_atom_site_fract_y
_atom_site_fract_z
Si Si1 0.294546 0.326996 0.872834
Si Si2 0.988735 0.176401 0.724357
Si Si3 0.561291 0.676175 0.551785
Si Si4 0.360631 0.173215 0.710025
Si Si5 0.170153 0.174212 0.934983
Si Si6 0.030928 0.821266 0.908765
Si Si7 0.686665 0.174724 0.474150
O O1 0.294722 0.500000 0.854737
O O2 0.328260 0.241580 0.795151
O O3 0.225465 0.266566 0.890643
O O4 0.327963 0.304494 0.962219
O O5 0.926699 0.249912 0.694710
O O6 0.043224 0.206396 0.652304
O O7 0.001339 0.226923 0.820999
O O8 0.980263 0.000000 0.726420
O O9 0.500000 0.716281 0.500000
O O10 0.569857 0.500000 0.540398
O O11 0.624105 0.757054 0.519833
O O12 0.320771 0.197131 0.627520
O O13 0.369357 0.000000 0.720677
O O14 0.103248 0.215812 0.905129
O O15 0.180777 0.000000 0.918766
O O16 0.026695 0.000000 0.910117
O O17 0.000000 0.769095 0.000000
O O18 0.750000 0.250000 0.500000
O O19 0.688578 0.000000 0.491090
#
# Coordination Sequence:
#
# PCOD9194413 Si02
#       7
#     8   8   8   8   8   8   8
#     4  10  20  34  56  81 109 149 192 234 285 344
#     4  10  20  35  59  86 111 149 194 234 283 346
#     4  10  20  37  61  88 120 155 193 241 292 354
#     4  11  23  38  57  83 113 146 188 237 289 348
#     4   9  18  34  54  79 113 150 189 236 285 336
#     4   9  17  31  53  81 112 145 185 230 275 328
#     4  11  25  42  62  87 118 154 194 246 304 360
#
# _framework density 18.292427
#
# number of rings (size 3 to 8) (size 9 to 14) (size 15 to 20)
#    0.000    2.000    1.429    2.143    0.000    6.571 
#    0.000    3.571    0.000    1.714    0.000    0.000 
#    0.000    0.000    0.000    0.000    0.000    0.000 
#
# Total GULP energy -156302.461848 kJ/mol
# GULP energy per Si atom -5582.230780 kJ/mol
# Density = 1.825079 g / cm^3
# Si number density = 18.292427 Si / 1000 Ang^3
#
#
#
# Elastic Constant Matrix: (Units=GPa)
#
#
# Indices 1 2 3 4 5 6 
#
# 1 103.6784 43.8219 41.9314 0.0000 9.5976 0.0000
# 2 43.8219 38.8075 40.7127 0.0000 -1.9133 0.0000
# 3 41.9314 40.7127 65.2894 0.0000 -11.4400 0.0000
# 4 0.0000 0.0000 0.0000 25.6020 0.0000 -3.3108
# 5 9.5976 -1.9133 -11.4400 0.0000 27.3317 0.0000
# 6 0.0000 0.0000 0.0000 -3.3108 0.0000 26.4337
#
#
#
# Elastic Compliance Matrix: (Units=1/GPa)
#
#
# Indices 1 2 3 4 5 6 
#
# 1 0.020359 -0.023390 -0.000032 0.000000 -0.008800 0.000000
# 2 -0.023390 0.107882 -0.053405 0.000000 -0.006588 0.000000
# 3 -0.000032 -0.053405 0.051783 0.000000 0.017947 0.000000
# 4 0.000000 0.000000 0.000000 0.039702 0.000000 0.004973
# 5 -0.008800 -0.006588 0.017947 0.000000 0.046728 0.000000
# 6 0.000000 0.000000 0.000000 0.004973 0.000000 0.038453
#
#
# Mechanical properties :
#
#
# Convention : Reuss Voigt Hill
#
# Bulk Modulus (GPa) = 37.91992 51.18970 44.55481
# Shear Modulus (GPa) = 10.69856 21.29411 15.99633
#
# Velocity S-wave (km/s) = 2.42102 3.41558 2.96037
# Velocity P-wave (km/s) = 5.34696 6.60301 6.00790
#
# Compressibility (1/GPa) = 0.02637136
#
# Stress axis : x y z
#
# Youngs Moduli (GPa) = 49.11823 9.26935 19.31129
#
# Poissons Ratio (x) = 0.21681 0.00061
# Poissons Ratio (y) = 1.14889 1.03131
# Poissons Ratio (z) = 0.00156 0.49503
#
# Static dielectric constant tensor:
#      x y z
#    x 1.603200 0.000000 0.003420 
#    y 0.000000 1.606450 0.000000 
#    z 0.003420 0.000000 1.636830 
# 
# From -- ./inp_files/230966.got.cif
#   From: 2010.05.17/outbox.cif.g08.bks.cpg/sg12_116_cif.got.tgz:230966.got - 2010.06.03 13:09:07.
