data_PCOD9194506
_publ_section_title
;
Structure prediction by ZEFSAII (Michael W. Deem and Ramdas Pophale) SiO2 
 PCOD9194506
Probable space group: C 2/M
;
_chemical_formula_sum "Si O2"
_cell_formula_units_Z 40
_cell_length_a 9.814947
_cell_length_b 29.776351
_cell_length_c 5.634831
_cell_angle_alpha 90.000000
_cell_angle_beta 83.989683
_cell_angle_gamma 90.000000
_cell_volume 1637.745639
_symmetry_space_group_name_H-M "C 2/M"
_symmetry_group_IT_number 12
_symmetry_cell_setting 'monoclinic'
loop_
_space_group_symop_operation_xyz
x,y,z
-x,y,-z
-x,-y,-z
x,-y,z
1/2+x,1/2+y,z
1/2-x,1/2+y,-z
1/2-x,1/2-y,-z
1/2+x,1/2-y,z
loop_
_atom_site_type_symbol
_atom_site_label
_atom_site_fract_x
_atom_site_fract_y
_atom_site_fract_z
Si Si1 0.643330 0.414204 0.199004
Si Si2 0.668538 0.447442 0.695180
Si Si3 0.450947 0.847607 0.751272
Si Si4 0.170380 0.821458 0.965176
Si Si5 0.143299 0.737881 0.723861
O O1 0.711150 0.422219 0.443477
O O2 0.494702 0.437410 0.250335
O O3 0.718703 0.434029 0.951505
O O4 0.616889 0.362075 0.136405
O O5 0.691600 0.500000 0.653722
O O6 0.500000 0.870522 0.500000
O O7 0.288033 0.843291 0.778136
O O8 0.500000 0.865655 0.000000
O O9 0.480863 0.797406 0.273262
O O10 0.088873 0.786759 0.813950
O O11 0.259409 0.789247 0.114941
O O12 0.250000 0.750000 0.500000
#
# Coordination Sequence:
#
# PCOD9194506 Si02
#       5
#     8   8   8   8   8
#     4  10  20  34  56  84 113 149 183 234 273 363
#     4  10  20  39  59  85 118 148 176 231 310 363
#     4  10  20  36  53  73 102 152 195 237 289 317
#     4  10  22  36  51  84 112 148 209 235 283 333
#     4  10  20  37  55  71 113 162 198 245 279 326
#
# _framework density 24.423817
#
# number of rings (size 3 to 8) (size 9 to 14) (size 15 to 20)
#    0.000    2.000    2.000    3.000    2.800    0.000 
#   18.000    0.000    0.000    0.000    0.000    0.000 
#    0.000  116.800    0.000    0.000    0.000    0.000 
#
# Total GULP energy -111515.628434 kJ/mol
# GULP energy per Si atom -5575.781422 kJ/mol
# Density = 2.436823 g / cm^3
# Si number density = 24.423817 Si / 1000 Ang^3
#
#
#
# Elastic Constant Matrix: (Units=GPa)
#
#
# Indices 1 2 3 4 5 6 
#
# 1 37.6319 5.1160 10.1372 0.0000 -5.0270 0.0000
# 2 5.1160 139.7191 49.1748 0.0000 14.1841 0.0000
# 3 10.1372 49.1748 229.3204 0.0000 4.5824 0.0000
# 4 0.0000 0.0000 0.0000 557.6183 0.0000 -57.3381
# 5 -5.0270 14.1841 4.5824 0.0000 32.2718 0.0000
# 6 0.0000 0.0000 0.0000 -57.3381 0.0000 26.5011
#
#
#
# Elastic Compliance Matrix: (Units=1/GPa)
#
#
# Indices 1 2 3 4 5 6 
#
# 1 0.027682 -0.001138 -0.001079 0.000000 0.004965 0.000000
# 2 -0.001138 0.008127 -0.001622 0.000000 -0.003519 0.000000
# 3 -0.001079 -0.001622 0.004759 0.000000 -0.000131 0.000000
# 4 0.000000 0.000000 0.000000 0.002306 0.000000 0.004990
# 5 0.004965 -0.003519 -0.000131 0.000000 0.033326 0.000000
# 6 0.000000 0.000000 0.000000 0.004990 0.000000 0.048531
#
#
# Mechanical properties :
#
#
# Convention : Reuss Voigt Hill
#
# Bulk Modulus (GPa) = 30.40460 59.50306 44.95383
# Shear Modulus (GPa) = 34.87423 146.09445 90.48434
#
# Velocity S-wave (km/s) = 3.78283 7.74250 6.09328
# Velocity P-wave (km/s) = 5.61743 10.21489 8.24316
#
# Compressibility (1/GPa) = 0.03288976
#
# Stress axis : x y z
#
# Youngs Moduli (GPa) = 36.12481 123.04608 210.13440
#
# Poissons Ratio (x) = 0.14002 0.22671
# Poissons Ratio (y) = 0.04111 0.34086
# Poissons Ratio (z) = 0.03897 0.19960
#
# Static dielectric constant tensor:
#      x y z
#    x -43.130930 0.000000 -66.317390 
#    y 0.000000 1.973170 0.000000 
#    z -66.317390 0.000000 -95.261290 
# 
# From -- ./inp_files/12629.got.cif
#   From: 2010.05.17/outbox.cif.g08.bks.cpg/sg12_7_cif.got.tgz:12629.got - 2010.06.03 13:09:07.
