data_PCOD9194085
_publ_section_title
;
Structure prediction by ZEFSAII (Michael W. Deem and Ramdas Pophale) SiO2 
 PCOD9194085
Probable space group: C 2/M
;
_chemical_formula_sum "Si O2"
_cell_formula_units_Z 48
_cell_length_a 20.264934
_cell_length_b 29.128178
_cell_length_c 8.055166
_cell_angle_alpha 90.000000
_cell_angle_beta 149.969180
_cell_angle_gamma 90.000000
_cell_volume 2379.618784
_symmetry_space_group_name_H-M "C 2/M"
_symmetry_group_IT_number 12
_symmetry_cell_setting 'monoclinic'
loop_
_space_group_symop_operation_xyz
x,y,z
-x,y,-z
-x,-y,-z
x,-y,z
1/2+x,1/2+y,z
1/2-x,1/2+y,-z
1/2-x,1/2-y,-z
1/2+x,1/2-y,z
loop_
_atom_site_type_symbol
_atom_site_label
_atom_site_fract_x
_atom_site_fract_y
_atom_site_fract_z
Si Si1 0.561715 0.648602 0.950065
Si Si2 0.193769 0.192985 0.724118
Si Si3 0.543150 0.853384 0.784383
Si Si4 0.702295 0.202976 0.670701
Si Si5 0.404204 0.050451 0.949739
Si Si6 0.371651 0.550558 0.837243
O O1 0.440127 0.664392 0.572892
O O2 0.500000 0.648864 0.000000
O O3 0.682384 0.683754 0.194256
O O4 0.612403 0.596953 0.022272
O O5 0.171256 0.243131 0.596059
O O6 0.313141 0.169005 0.885878
O O7 0.241148 0.197047 0.017965
O O8 0.500000 0.847678 0.500000
O O9 0.429619 0.827034 0.638063
O O10 0.554624 0.906672 0.851318
O O11 0.256686 0.056293 0.557680
O O12 0.413183 0.000000 0.049849
O O13 0.500000 0.050439 0.000000
O O14 0.359800 0.500000 0.894558
O O15 0.500000 0.548767 0.000000
#
# Coordination Sequence:
#
# PCOD9194085 Si02
#       6
#     8   8   8   8   8   8
#     4  11  21  34  56  84 110 137 176 226 268 307
#     4  10  21  38  57  77 105 147 185 213 262 323
#     4  10  20  34  55  81 106 137 181 227 263 304
#     4  10  21  38  57  76 107 147 182 215 260 324
#     4  10  20  35  55  77 105 142 177 212 265 327
#     4   9  18  33  53  76 104 139 174 209 259 321
#
# _framework density 20.171299000000001
#
# number of rings (size 3 to 8) (size 9 to 14) (size 15 to 20)
#    0.000    2.000    0.000    4.500    0.000    3.667 
#    0.000    3.333    0.000    4.000    0.000    0.000 
#    0.000    0.000    0.000    0.000    0.000    0.000 
#
# Total GULP energy -133980.791152 kJ/mol
# GULP energy per Si atom -5582.532965 kJ/mol
# Density = 2.012539 g / cm^3
# Si number density = 20.171299 Si / 1000 Ang^3
#
#
#
# Elastic Constant Matrix: (Units=GPa)
#
#
# Indices 1 2 3 4 5 6 
#
# 1 45.2497 10.0565 13.5359 0.0000 20.9094 0.0000
# 2 10.0565 135.8198 16.8972 0.0000 -4.7843 0.0000
# 3 13.5359 16.8972 56.3245 0.0000 16.8347 0.0000
# 4 0.0000 0.0000 0.0000 22.0934 0.0000 4.8746
# 5 20.9094 -4.7843 16.8347 0.0000 21.7157 0.0000
# 6 0.0000 0.0000 0.0000 4.8746 0.0000 23.1017
#
#
#
# Elastic Compliance Matrix: (Units=1/GPa)
#
#
# Indices 1 2 3 4 5 6 
#
# 1 0.043632 -0.005565 0.005346 0.000000 -0.047382 0.000000
# 2 -0.005565 0.008713 -0.004493 0.000000 0.010761 0.000000
# 3 0.005346 -0.004493 0.025578 0.000000 -0.025966 0.000000
# 4 0.000000 0.000000 0.000000 0.047473 0.000000 -0.010017
# 5 -0.047382 0.010761 -0.025966 0.000000 0.114173 0.000000
# 6 0.000000 0.000000 0.000000 -0.010017 0.000000 0.045401
#
#
# Mechanical properties :
#
#
# Convention : Reuss Voigt Hill
#
# Bulk Modulus (GPa) = 14.59863 35.37480 24.98672
# Shear Modulus (GPa) = 15.76165 26.50911 21.13538
#
# Velocity S-wave (km/s) = 2.79837 3.62912 3.24048
# Velocity P-wave (km/s) = 4.20645 5.92756 5.13956
#
# Compressibility (1/GPa) = 0.06849957
#
# Stress axis : x y z
#
# Youngs Moduli (GPa) = 22.91898 114.77496 39.09555
#
# Poissons Ratio (x) = 0.63869 -0.20899
# Poissons Ratio (y) = 0.12754 0.17564
# Poissons Ratio (z) = -0.12252 0.51565
#
# Static dielectric constant tensor:
#      x y z
#    x 1.719980 0.000000 -0.011120 
#    y 0.000000 1.748400 0.000000 
#    z -0.011120 0.000000 1.699470 
# 
# From -- ./inp_files/51931.got.cif
#   From: 2010.05.17/outbox.cif.g08.bks.cpg/sg12_26_cif.got.tgz:51931.got - 2010.06.03 13:09:07.
