data_PCOD9194014
_publ_section_title
;
Structure prediction by ZEFSAII (Michael W. Deem and Ramdas Pophale) SiO2 
 PCOD9194014
Probable space group: C 2/M
;
_chemical_formula_sum "Si O2"
_cell_formula_units_Z 48
_cell_length_a 16.018944
_cell_length_b 25.725137
_cell_length_c 8.680219
_cell_angle_alpha 90.000000
_cell_angle_beta 52.097790
_cell_angle_gamma 90.000000
_cell_volume 2822.490604
_symmetry_space_group_name_H-M "C 2/M"
_symmetry_group_IT_number 12
_symmetry_cell_setting 'monoclinic'
loop_
_space_group_symop_operation_xyz
x,y,z
-x,y,-z
-x,-y,-z
x,-y,z
1/2+x,1/2+y,z
1/2-x,1/2+y,-z
1/2-x,1/2-y,-z
1/2+x,1/2-y,z
loop_
_atom_site_type_symbol
_atom_site_label
_atom_site_fract_x
_atom_site_fract_y
_atom_site_fract_z
Si Si1 0.809778 0.862690 0.939556
Si Si2 0.108213 0.870207 0.472849
Si Si3 0.010624 0.059240 0.170752
Si Si4 0.587116 0.256299 0.036997
Si Si5 0.593276 0.821421 0.301960
Si Si6 0.704775 0.263254 0.386736
O O1 0.805921 0.874766 0.760841
O O2 0.882241 0.908891 0.920462
O O3 0.872701 0.808981 0.918968
O O4 0.692623 0.856040 0.138212
O O5 0.131248 0.812635 0.502976
O O6 0.000000 0.871397 0.500000
O O7 0.085940 0.910761 0.633912
O O8 0.015959 0.000000 0.222699
O O9 0.000000 0.058663 0.000000
O O10 0.554379 0.213430 0.200916
O O11 0.500000 0.266014 0.000000
O O12 0.692179 0.231769 0.839365
O O13 0.500000 0.849675 0.500000
O O14 0.638261 0.780162 0.374495
O O15 0.750000 0.250000 0.500000
#
# Coordination Sequence:
#
# PCOD9194014 Si02
#       6
#     8   8   8   8   8   8
#     4  10  20  36  54  77 110 144 185 227 269 325
#     4  10  20  34  55  74 109 143 179 221 274 319
#     4  10  23  39  59  84 108 135 180 234 288 333
#     4  11  21  33  50  77 112 154 187 218 266 322
#     4  11  21  35  50  77 115 151 189 219 263 321
#     4  11  21  31  49  78 111 150 187 218 263 325
#
# _framework density 17.006257000000002
#
# number of rings (size 3 to 8) (size 9 to 14) (size 15 to 20)
#    0.000    1.500    3.333    3.000   11.667    3.000 
#    0.000    0.000    0.000    0.500    0.000    0.000 
#    0.000    4.000    0.000    0.000    0.000    0.000 
#
# Total GULP energy -133659.928613 kJ/mol
# GULP energy per Si atom -5569.163692 kJ/mol
# Density = 1.696755 g / cm^3
# Si number density = 17.006257 Si / 1000 Ang^3
#
#
#
# Elastic Constant Matrix: (Units=GPa)
#
#
# Indices 1 2 3 4 5 6 
#
# 1 28.5895 -3.3439 24.3809 0.0000 5.6053 0.0000
# 2 -3.3439 74.7943 45.0962 0.0000 -4.1588 0.0000
# 3 24.3809 45.0962 145.6423 0.0000 -13.7349 0.0000
# 4 0.0000 0.0000 0.0000 3.2097 0.0000 19.3085
# 5 5.6053 -4.1588 -13.7349 0.0000 35.3257 0.0000
# 6 0.0000 0.0000 0.0000 19.3085 0.0000 1.2723
#
#
#
# Elastic Compliance Matrix: (Units=1/GPa)
#
#
# Indices 1 2 3 4 5 6 
#
# 1 0.048278 0.008663 -0.011824 0.000000 -0.011238 0.000000
# 2 0.008663 0.017993 -0.007216 0.000000 -0.002062 0.000000
# 3 -0.011824 -0.007216 0.011602 0.000000 0.005538 0.000000
# 4 0.000000 0.000000 0.000000 -0.003451 0.000000 0.052364
# 5 -0.011238 -0.002062 0.005538 0.000000 0.032001 0.000000
# 6 0.000000 0.000000 0.000000 0.052364 0.000000 -0.008705
#
#
# Mechanical properties :
#
#
# Convention : Reuss Voigt Hill
#
# Bulk Modulus (GPa) = 17.50742 42.36582 29.93662
# Shear Modulus (GPa) = 36.36003 20.15440 28.25721
#
# Velocity S-wave (km/s) = 4.62891 3.44629 4.08067
# Velocity P-wave (km/s) = 6.23587 6.38763 6.31221
#
# Compressibility (1/GPa) = 0.05711865
#
# Stress axis : x y z
#
# Youngs Moduli (GPa) = 20.71350 55.57576 86.19163
#
# Poissons Ratio (x) = -0.48143 1.01912
# Poissons Ratio (y) = -0.17943 0.62196
# Poissons Ratio (z) = 0.24491 0.40104
#
# Static dielectric constant tensor:
#      x y z
#    x 1.657800 0.000000 0.076930 
#    y 0.000000 1.568340 0.000000 
#    z 0.076930 0.000000 1.747800 
# 
# From -- ./inp_files/78649.got.cif
#   From: 2010.05.17/outbox.cif.g08.bks.cpg/sg12_40_cif.got.tgz:78649.got - 2010.06.03 13:09:07.
