data_PCOD9194725
_publ_section_title
;
Structure prediction by ZEFSAII (Michael W. Deem and Ramdas Pophale) SiO2 
 PCOD9194725
Probable space group: C 2/M
;
_chemical_formula_sum "Si O2"
_cell_formula_units_Z 56
_cell_length_a 13.662236
_cell_length_b 25.344199
_cell_length_c 12.677349
_cell_angle_alpha 90.000000
_cell_angle_beta 46.655262
_cell_angle_gamma 90.000000
_cell_volume 3192.307989
_symmetry_space_group_name_H-M "C 2/M"
_symmetry_group_IT_number 12
_symmetry_cell_setting 'monoclinic'
loop_
_space_group_symop_operation_xyz
x,y,z
-x,y,-z
-x,-y,-z
x,-y,z
1/2+x,1/2+y,z
1/2-x,1/2+y,-z
1/2-x,1/2-y,-z
1/2+x,1/2-y,z
loop_
_atom_site_type_symbol
_atom_site_label
_atom_site_fract_x
_atom_site_fract_y
_atom_site_fract_z
Si Si1 0.688167 0.255397 0.163177
Si Si2 0.637029 0.165916 0.835392
Si Si3 0.617957 0.251805 0.668737
Si Si4 0.779575 0.063695 0.680380
Si Si5 0.646752 0.669601 0.834470
Si Si6 0.606243 0.440981 0.825828
Si Si7 0.471811 0.436928 0.351852
O O1 0.746098 0.307078 0.179825
O O2 0.526841 0.254163 0.280337
O O3 0.749668 0.205817 0.179786
O O4 0.750000 0.250000 0.000000
O O5 0.623816 0.200918 0.740335
O O6 0.662023 0.104710 0.791139
O O7 0.500000 0.173099 0.000000
O O8 0.750000 0.250000 0.500000
O O9 0.626392 0.303005 0.737120
O O10 0.848172 0.080009 0.518009
O O11 0.891436 0.075641 0.687681
O O12 0.752140 0.000000 0.701103
O O13 0.695478 0.609368 0.788823
O O14 0.500000 0.670715 0.000000
O O15 0.665373 0.500000 0.769758
O O16 0.538051 0.424777 0.764485
O O17 0.500000 0.444567 0.000000
O O18 0.465558 0.500000 0.361446
#
# Coordination Sequence:
#
# PCOD9194725 Si02
#       7
#     8   8   8   8   8   8   8
#     4  11  20  40  62  76 114 158 186 235 292 341
#     4  11  23  37  57  86 112 151 197 228 292 357
#     4  11  24  38  58  86 111 142 197 245 283 342
#     4   9  19  33  55  84 117 152 193 239 292 346
#     4  10  20  34  57  86 111 151 192 224 292 346
#     4   9  18  31  51  83 120 149 188 238 282 342
#     4   8  16  32  52  81 116 152 191 239 289 338
#
# _framework density 17.542168
#
# number of rings (size 3 to 8) (size 9 to 14) (size 15 to 20)
#    0.000    2.143    2.857    1.714    4.000    3.714 
#    0.000    0.000    0.000    0.857    0.000    1.000 
#    0.000    0.000    0.000    0.000    0.000    0.000 
#
# Total GULP energy -155933.955754 kJ/mol
# GULP energy per Si atom -5569.069848 kJ/mol
# Density = 1.750224 g / cm^3
# Si number density = 17.542168 Si / 1000 Ang^3
#
#
#
# Elastic Constant Matrix: (Units=GPa)
#
#
# Indices 1 2 3 4 5 6 
#
# 1 89.9955 34.4276 48.5888 0.0000 -4.7113 0.0000
# 2 34.4276 130.6082 33.8990 0.0000 -3.3404 0.0000
# 3 48.5888 33.8990 115.2347 0.0000 -2.2835 0.0000
# 4 0.0000 0.0000 0.0000 8.8117 0.0000 -10.9235
# 5 -4.7113 -3.3404 -2.2835 0.0000 29.6425 0.0000
# 6 0.0000 0.0000 0.0000 -10.9235 0.0000 6.4324
#
#
#
# Elastic Compliance Matrix: (Units=1/GPa)
#
#
# Indices 1 2 3 4 5 6 
#
# 1 0.015203 -0.002500 -0.005641 0.000000 0.001700 0.000000
# 2 -0.002500 0.008717 -0.001501 0.000000 0.000469 0.000000
# 3 -0.005641 -0.001501 0.011495 0.000000 -0.000180 0.000000
# 4 0.000000 0.000000 0.000000 -0.102685 0.000000 -0.174380
# 5 0.001700 0.000469 -0.000180 0.000000 0.034045 0.000000
# 6 0.000000 0.000000 0.000000 -0.174380 0.000000 -0.140668
#
#
# Mechanical properties :
#
#
# Convention : Reuss Voigt Hill
#
# Bulk Modulus (GPa) = 61.99478 63.29656 62.64567
# Shear Modulus (GPa) = -33.50440 23.57220 -4.96610
#
# Velocity S-wave (km/s) = -4.37502 3.66969 -1.68437
# Velocity P-wave (km/s) = 3.14580 7.35638 5.65740
#
# Compressibility (1/GPa) = 0.01613039
#
# Stress axis : x y z
#
# Youngs Moduli (GPa) = 65.77836 114.71864 86.99807
#
# Poissons Ratio (x) = 0.28676 0.49077
# Poissons Ratio (y) = 0.16443 0.13058
# Poissons Ratio (z) = 0.37106 0.17219
#
# Static dielectric constant tensor:
#      x y z
#    x 1.603380 0.000000 0.056860 
#    y 0.000000 1.622740 0.000000 
#    z 0.056860 0.000000 1.557800 
# 
# From -- ./inp_files/136939.got.cif
#   From: 2010.05.17/outbox.cif.g08.bks.cpg/sg12_69_cif.got.tgz:136939.got - 2010.06.03 13:09:07.
