data_PCOD9194643
_publ_section_title
;
Structure prediction by ZEFSAII (Michael W. Deem and Ramdas Pophale) SiO2 
 PCOD9194643
Probable space group: C 2/M
;
_chemical_formula_sum "Si O2"
_cell_formula_units_Z 56
_cell_length_a 16.467212
_cell_length_b 16.409311
_cell_length_c 14.815178
_cell_angle_alpha 90.000000
_cell_angle_beta 136.986443
_cell_angle_gamma 90.000000
_cell_volume 2730.931442
_symmetry_space_group_name_H-M "C 2/M"
_symmetry_group_IT_number 12
_symmetry_cell_setting 'monoclinic'
loop_
_space_group_symop_operation_xyz
x,y,z
-x,y,-z
-x,-y,-z
x,-y,z
1/2+x,1/2+y,z
1/2-x,1/2+y,-z
1/2-x,1/2-y,-z
1/2+x,1/2-y,z
loop_
_atom_site_type_symbol
_atom_site_label
_atom_site_fract_x
_atom_site_fract_y
_atom_site_fract_z
Si Si1 0.109400 0.134470 0.715749
Si Si2 0.617159 0.825171 0.766716
Si Si3 0.174561 0.091850 0.955415
Si Si4 0.319131 0.841447 0.379848
Si Si5 0.121233 0.406402 0.382953
Si Si6 0.936411 0.095343 0.851641
Si Si7 0.344741 0.652427 0.448851
O O1 0.120860 0.229442 0.751438
O O2 0.179992 0.090484 0.852228
O O3 0.160562 0.119337 0.657688
O O4 0.967153 0.119572 0.592351
O O5 0.620954 0.861392 0.667595
O O6 0.499619 0.854693 0.722630
O O7 0.730564 0.853413 0.916301
O O8 0.039529 0.118916 0.865898
O O9 0.187001 0.000000 0.002503
O O10 0.346514 0.900123 0.485010
O O11 0.178216 0.848401 0.247606
O O12 0.353917 0.750544 0.441838
O O13 0.101524 0.500000 0.341080
O O14 0.230847 0.369829 0.415451
O O15 0.902652 0.000000 0.809948
O O16 0.000000 0.100895 0.000000
#
# Coordination Sequence:
#
# PCOD9194643 Si02
#       7
#     8   8   8   8   8   8   8
#     4  10  22  43  67  88 116 166 216 258 305 356
#     4  11  23  40  61  91 128 163 204 253 310 381
#     4  11  23  39  61  91 126 164 204 253 313 371
#     4  11  21  39  64  89 123 165 203 254 311 366
#     4  12  25  38  61  95 128 166 203 251 318 371
#     4  10  20  34  56  89 125 157 195 248 304 364
#     4  10  23  43  64  90 122 156 214 266 297 358
#
# _framework density 20.505825000000002
#
# number of rings (size 3 to 8) (size 9 to 14) (size 15 to 20)
#    0.000    1.286    2.857    3.000    2.000    4.571 
#    0.000    2.143    0.000    1.714    0.000    0.000 
#    0.000    0.000    0.000    0.000    0.000    0.000 
#
# Total GULP energy -156460.669088 kJ/mol
# GULP energy per Si atom -5587.881039 kJ/mol
# Density = 2.045915 g / cm^3
# Si number density = 20.505825 Si / 1000 Ang^3
#
#
#
# Elastic Constant Matrix: (Units=GPa)
#
#
# Indices 1 2 3 4 5 6 
#
# 1 124.4082 18.4917 30.6709 0.0000 0.8492 0.0000
# 2 18.4917 35.5132 13.5611 0.0000 -2.2887 0.0000
# 3 30.6709 13.5611 72.0823 0.0000 -7.2560 0.0000
# 4 0.0000 0.0000 0.0000 -5.2107 0.0000 -1.3857
# 5 0.8492 -2.2887 -7.2560 0.0000 30.5703 0.0000
# 6 0.0000 0.0000 0.0000 -1.3857 0.0000 16.5214
#
#
#
# Elastic Compliance Matrix: (Units=1/GPa)
#
#
# Indices 1 2 3 4 5 6 
#
# 1 0.009449 -0.003685 -0.003464 0.000000 -0.001361 0.000000
# 2 -0.003685 0.031801 -0.004267 0.000000 0.001470 0.000000
# 3 -0.003464 -0.004267 0.016522 0.000000 0.003698 0.000000
# 4 0.000000 0.000000 0.000000 -0.187724 0.000000 -0.015745
# 5 -0.001361 0.001470 0.003698 0.000000 0.033737 0.000000
# 6 0.000000 0.000000 0.000000 -0.015745 0.000000 0.059207
#
#
# Mechanical properties :
#
#
# Convention : Reuss Voigt Hill
#
# Bulk Modulus (GPa) = 28.62028 39.71679 34.16854
# Shear Modulus (GPa) = -1977.72724 19.66153 -979.03286
#
# Velocity S-wave (km/s) = -31.08962 3.09985 -21.87414
# Velocity P-wave (km/s) = 35.70386 5.67650 24.92532
#
# Compressibility (1/GPa) = 0.03494026
#
# Stress axis : x y z
#
# Youngs Moduli (GPa) = 105.82987 31.44512 60.52492
#
# Poissons Ratio (x) = 0.11587 0.20968
# Poissons Ratio (y) = 0.38998 0.25826
# Poissons Ratio (z) = 0.36662 0.13418
#
# Static dielectric constant tensor:
#      x y z
#    x 1.762780 0.000000 -0.021160 
#    y 0.000000 1.726980 0.000000 
#    z -0.021160 0.000000 1.715300 
# 
# From -- ./inp_files/145514.got.cif
#   From: 2010.05.17/outbox.cif.g08.bks.cpg/sg12_73_cif.got.tgz:145514.got - 2010.06.03 13:09:07.
