data_PCOD9194187
_publ_section_title
;
Structure prediction by ZEFSAII (Michael W. Deem and Ramdas Pophale) SiO2 
 PCOD9194187
Probable space group: C 2/M
;
_chemical_formula_sum "Si O2"
_cell_formula_units_Z 48
_cell_length_a 9.390232
_cell_length_b 10.694465
_cell_length_c 25.065581
_cell_angle_alpha 90.000000
_cell_angle_beta 76.032538
_cell_angle_gamma 90.000000
_cell_volume 2442.748180
_symmetry_space_group_name_H-M "C 2/M"
_symmetry_group_IT_number 12
_symmetry_cell_setting 'monoclinic'
loop_
_space_group_symop_operation_xyz
x,y,z
-x,y,-z
-x,-y,-z
x,-y,z
1/2+x,1/2+y,z
1/2-x,1/2+y,-z
1/2-x,1/2-y,-z
1/2+x,1/2-y,z
loop_
_atom_site_type_symbol
_atom_site_label
_atom_site_fract_x
_atom_site_fract_y
_atom_site_fract_z
Si Si1 0.852584 0.715770 0.367820
Si Si2 0.200019 0.650593 0.825016
Si Si3 0.631392 0.000000 0.028977
Si Si4 0.909257 0.257552 0.892131
Si Si5 0.564797 0.500000 0.052825
Si Si6 0.866355 0.857293 0.704328
Si Si7 0.571119 0.856743 0.440259
O O1 0.756400 0.646418 0.331413
O O2 0.723063 0.794314 0.408173
O O3 0.983813 0.789986 0.326318
O O4 0.947010 0.647567 0.405251
O O5 0.208604 0.500000 0.828077
O O6 0.270670 0.711744 0.870935
O O7 0.288645 0.692990 0.764697
O O8 0.032000 0.692062 0.840395
O O9 0.626910 0.126729 0.065098
O O10 0.500000 0.000000 0.000000
O O11 0.765117 0.000000 0.976256
O O12 0.968984 0.130540 0.914750
O O13 0.500000 0.500000 0.000000
O O14 0.906064 0.000000 0.711340
O O15 0.500000 0.798044 0.500000
O O16 0.606975 0.000000 0.449049
#
# Coordination Sequence:
#
# PCOD9194187 Si02
#       7
#     8   8   4   8   4   8   8
#     4  10  20  36  56  85 113 154 200 241 290 352
#     4  11  23  42  62  91 121 157 200 251 306 360
#     4  12  24  42  66  94 124 162 198 246 299 360
#     4  12  23  43  66  90 126 159 199 250 301 359
#     4  12  24  40  62  96 122 156 204 244 291 364
#     4  10  21  37  60  83 116 153 194 246 298 350
#     4  10  20  34  55  82 118 155 194 243 294 346
#
# _framework density 19.649999999999999
#
# number of rings (size 3 to 8) (size 9 to 14) (size 15 to 20)
#    0.000    1.167    1.667    5.500    0.000    0.000 
#    0.000    0.000    7.333    8.000    0.000    0.000 
#    0.000    0.000    0.000    0.000    0.000    0.000 
#
# Total GULP energy -133852.052858 kJ/mol
# GULP energy per Si atom -5577.168869 kJ/mol
# Density = 1.960528 g / cm^3
# Si number density = 19.650000 Si / 1000 Ang^3
#
#
#
# Elastic Constant Matrix: (Units=GPa)
#
#
# Indices 1 2 3 4 5 6 
#
# 1 92.1406 12.1981 13.7478 0.0000 -18.1298 0.0000
# 2 12.1981 91.6112 40.2675 0.0000 -14.7714 0.0000
# 3 13.7478 40.2675 101.0872 0.0000 -23.9320 0.0000
# 4 0.0000 0.0000 0.0000 14.4984 0.0000 13.6547
# 5 -18.1298 -14.7714 -23.9320 0.0000 40.5345 0.0000
# 6 0.0000 0.0000 0.0000 13.6547 0.0000 -5.5696
#
#
#
# Elastic Compliance Matrix: (Units=1/GPa)
#
#
# Indices 1 2 3 4 5 6 
#
# 1 0.011954 -0.000717 -0.000158 0.000000 0.004992 0.000000
# 2 -0.000717 0.013415 -0.004842 0.000000 0.001709 0.000000
# 3 -0.000158 -0.004842 0.013262 0.000000 0.005995 0.000000
# 4 0.000000 0.000000 0.000000 0.020844 0.000000 0.051103
# 5 0.004992 0.001709 0.005995 0.000000 0.031065 0.000000
# 6 0.000000 0.000000 0.000000 0.051103 0.000000 -0.054260
#
#
# Mechanical properties :
#
#
# Convention : Reuss Voigt Hill
#
# Bulk Modulus (GPa) = 36.76947 46.36286 41.56616
# Shear Modulus (GPa) = 88.06045 24.46771 56.26408
#
# Velocity S-wave (km/s) = 6.70162 3.53253 5.35680
# Velocity P-wave (km/s) = 8.86765 6.34696 7.71100
#
# Compressibility (1/GPa) = 0.02719648
#
# Stress axis : x y z
#
# Youngs Moduli (GPa) = 83.65592 74.54411 75.40451
#
# Poissons Ratio (x) = 0.05346 0.01193
# Poissons Ratio (y) = 0.06000 0.36507
# Poissons Ratio (z) = 0.01324 0.36091
#
# Static dielectric constant tensor:
#      x y z
#    x 1.639190 0.000000 0.003400 
#    y 0.000000 1.689050 0.000000 
#    z 0.003400 0.000000 1.712920 
# 
# From -- ./inp_files/332241.got.cif
#   From: 2010.05.17/outbox.cif.g08.bks.cpg/sg12_167_cif.got.tgz:332241.got - 2010.06.03 13:09:07.
