data_PCOD9194694
_publ_section_title
;
Structure prediction by ZEFSAII (Michael W. Deem and Ramdas Pophale) SiO2 
 PCOD9194694
Probable space group: C 2/M
;
_chemical_formula_sum "Si O2"
_cell_formula_units_Z 58
_cell_length_a 25.457606
_cell_length_b 9.270234
_cell_length_c 22.306596
_cell_angle_alpha 90.000000
_cell_angle_beta 139.994425
_cell_angle_gamma 90.000000
_cell_volume 3384.226422
_symmetry_space_group_name_H-M "C 2/M"
_symmetry_group_IT_number 12
_symmetry_cell_setting 'monoclinic'
loop_
_space_group_symop_operation_xyz
x,y,z
-x,y,-z
-x,-y,-z
x,-y,z
1/2+x,1/2+y,z
1/2-x,1/2+y,-z
1/2-x,1/2-y,-z
1/2+x,1/2-y,z
loop_
_atom_site_type_symbol
_atom_site_label
_atom_site_fract_x
_atom_site_fract_y
_atom_site_fract_z
Si Si1 0.492698 0.327015 0.188605
Si Si2 0.519155 0.328426 0.685921
Si Si3 0.000000 0.500000 0.000000
Si Si4 0.784543 0.172114 0.317379
Si Si5 0.293077 0.331188 0.183456
Si Si6 0.399559 0.840962 0.811133
Si Si7 0.805257 0.827401 0.998426
Si Si8 0.440173 0.172558 0.503734
O O1 0.497699 0.500000 0.191047
O O2 0.507543 0.283786 0.270695
O O3 0.553291 0.259201 0.193686
O O4 0.399567 0.287152 0.090454
O O5 0.503680 0.500000 0.664638
O O6 0.617173 0.309695 0.766074
O O7 0.476664 0.241152 0.595847
O O8 0.952187 0.376159 0.916949
O O9 0.797336 0.197219 0.257749
O O10 0.691307 0.209799 0.251947
O O11 0.852079 0.260204 0.412347
O O12 0.795597 0.000000 0.336990
O O13 0.270188 0.500000 0.154924
O O14 0.228488 0.230486 0.094005
O O15 0.390544 0.000000 0.773993
O O16 0.797563 0.000000 0.996933
O O17 0.750000 0.750000 0.000000
O O18 0.500000 0.208596 0.500000
O O19 0.436049 0.000000 0.504879
#
# Coordination Sequence:
#
# PCOD9194694 Si02
#       8
#     8   8   2   8   8   8   8   8
#     4  10  22  39  57  83 120 157 197 241 294 358
#     4  10  20  38  59  83 115 156 199 239 293 364
#     4   8  20  40  62  88 118 148 204 248 272 338
#     4  10  21  38  61  86 114 153 198 241 294 358
#     4  10  20  34  57  84 115 150 192 241 295 350
#     4   9  21  38  62  87 117 152 199 241 285 340
#     4  11  22  35  52  81 117 153 192 236 288 355
#     4  11  23  37  57  89 123 152 195 251 304 354
#
# _framework density 17.138332999999999
#
# number of rings (size 3 to 8) (size 9 to 14) (size 15 to 20)
#    0.414    1.517    2.759    0.828    1.931    3.862 
#    0.000    1.034    0.000    0.000    0.000    0.000 
#    0.000    0.000    0.000    0.000    0.000    0.000 
#
# Total GULP energy -161498.595151 kJ/mol
# GULP energy per Si atom -5568.917074 kJ/mol
# Density = 1.709933 g / cm^3
# Si number density = 17.138333 Si / 1000 Ang^3
#
#
#
# Elastic Constant Matrix: (Units=GPa)
#
#
# Indices 1 2 3 4 5 6 
#
# 1 88.6907 30.9207 51.6285 0.0000 6.2859 0.0000
# 2 30.9207 35.5547 51.9681 0.0000 -2.8782 0.0000
# 3 51.6285 51.9681 127.8222 0.0000 -8.4213 0.0000
# 4 0.0000 0.0000 0.0000 32.8420 0.0000 -1.5079
# 5 6.2859 -2.8782 -8.4213 0.0000 19.0853 0.0000
# 6 0.0000 0.0000 0.0000 -1.5079 0.0000 28.6143
#
#
#
# Elastic Compliance Matrix: (Units=1/GPa)
#
#
# Indices 1 2 3 4 5 6 
#
# 1 0.017756 -0.011885 -0.002929 0.000000 -0.008933 0.000000
# 2 -0.011885 0.077350 -0.026388 0.000000 0.003935 0.000000
# 3 -0.002929 -0.026388 0.020121 0.000000 0.005863 0.000000
# 4 0.000000 0.000000 0.000000 0.030523 0.000000 0.001608
# 5 -0.008933 0.003935 0.005863 0.000000 0.058519 0.000000
# 6 0.000000 0.000000 0.000000 0.001608 0.000000 0.035032
#
#
# Mechanical properties :
#
#
# Convention : Reuss Voigt Hill
#
# Bulk Modulus (GPa) = 30.46505 57.90025 44.18265
# Shear Modulus (GPa) = 15.03094 23.94498 19.48796
#
# Velocity S-wave (km/s) = 2.96469 3.74191 3.37575
# Velocity P-wave (km/s) = 5.43450 7.24753 6.40548
#
# Compressibility (1/GPa) = 0.03282450
#
# Stress axis : x y z
#
# Youngs Moduli (GPa) = 56.31742 12.92819 49.69902
#
# Poissons Ratio (x) = 0.15365 0.14555
# Poissons Ratio (y) = 0.66933 1.31147
# Poissons Ratio (z) = 0.16493 0.34115
#
# Static dielectric constant tensor:
#      x y z
#    x 1.576810 0.000000 -0.002640 
#    y 0.000000 1.573720 0.000000 
#    z -0.002640 0.000000 1.566620 
# 
# From -- ./inp_files/324641.got.cif
#   From: 2010.05.17/outbox.cif.g08.bks.cpg/sg12_163_cif.got.tgz:324641.got - 2010.06.03 13:09:07.
