data_PCOD9194656
_publ_section_title
;
Structure prediction by ZEFSAII (Michael W. Deem and Ramdas Pophale) SiO2 
 PCOD9194656
Probable space group: C 2/M
;
_chemical_formula_sum "Si O2"
_cell_formula_units_Z 44
_cell_length_a 25.118435
_cell_length_b 14.675798
_cell_length_c 8.886526
_cell_angle_alpha 90.000000
_cell_angle_beta 132.151477
_cell_angle_gamma 90.000000
_cell_volume 2428.640326
_symmetry_space_group_name_H-M "C 2/M"
_symmetry_group_IT_number 12
_symmetry_cell_setting 'monoclinic'
loop_
_space_group_symop_operation_xyz
x,y,z
-x,y,-z
-x,-y,-z
x,-y,z
1/2+x,1/2+y,z
1/2-x,1/2+y,-z
1/2-x,1/2-y,-z
1/2+x,1/2-y,z
loop_
_atom_site_type_symbol
_atom_site_label
_atom_site_fract_x
_atom_site_fract_y
_atom_site_fract_z
Si Si1 0.041999 0.348278 0.428086
Si Si2 0.312867 0.500000 0.875944
Si Si3 0.209325 0.847866 0.421853
Si Si4 0.549085 0.329202 0.240802
Si Si5 0.658064 0.000000 0.625317
Si Si6 0.187933 0.500000 0.319653
Si Si7 0.963826 0.500000 0.093951
Si Si8 0.020843 0.000000 0.715876
O O1 0.054290 0.258194 0.356951
O O2 0.112970 0.410567 0.585996
O O3 0.000000 0.326863 0.500000
O O4 0.990595 0.412890 0.233590
O O5 0.303089 0.407677 0.755477
O O6 0.240123 0.500000 0.836986
O O7 0.392294 0.500000 0.096966
O O8 0.250000 0.750000 0.500000
O O9 0.130461 0.846037 0.342539
O O10 0.263566 0.912487 0.614214
O O11 0.513399 0.412656 0.264202
O O12 0.500000 0.312347 0.000000
O O13 0.662474 0.000000 0.448656
O O14 0.119936 0.500000 0.086956
O O15 0.000000 0.500000 0.000000
O O16 0.000000 0.000000 0.500000
#
# Coordination Sequence:
#
# PCOD9194656 Si02
#       8
#     8   4   8   8   4   4   4   4
#     4  11  23  38  58  91 126 163 196 244 309 370
#     4  10  20  39  61  93 118 157 203 249 313 356
#     4  10  21  36  62  92 120 149 200 262 300 342
#     4  12  23  40  66  86 116 160 211 252 293 353
#     4   9  18  37  63  85 128 152 195 251 312 363
#     4  10  20  34  56  95 118 144 204 254 299 347
#     4  11  20  35  62  90 122 154 202 243 299 365
#     4  12  25  43  63  89 126 162 208 253 302 364
#
# _framework density 18.117132999999999
#
# number of rings (size 3 to 8) (size 9 to 14) (size 15 to 20)
#    0.000    1.455    3.636    5.727    2.545    0.000 
#    0.000    3.636    0.000    4.364    0.000    0.000 
#    0.000    0.000    0.000    0.000    0.000    0.000 
#
# Total GULP energy -122673.709872 kJ/mol
# GULP energy per Si atom -5576.077721 kJ/mol
# Density = 1.807590 g / cm^3
# Si number density = 18.117133 Si / 1000 Ang^3
#
#
#
# Elastic Constant Matrix: (Units=GPa)
#
#
# Indices 1 2 3 4 5 6 
#
# 1 122.9370 45.8365 53.4526 0.0000 29.2274 0.0000
# 2 45.8365 132.9176 31.8013 0.0000 18.6605 0.0000
# 3 53.4526 31.8013 94.5134 0.0000 35.2551 0.0000
# 4 0.0000 0.0000 0.0000 -3.9277 0.0000 15.2419
# 5 29.2274 18.6605 35.2551 0.0000 48.8164 0.0000
# 6 0.0000 0.0000 0.0000 15.2419 0.0000 -2.7769
#
#
#
# Elastic Compliance Matrix: (Units=1/GPa)
#
#
# Indices 1 2 3 4 5 6 
#
# 1 0.011812 -0.002548 -0.004857 0.000000 -0.002591 0.000000
# 2 -0.002548 0.008819 -0.001147 0.000000 -0.001018 0.000000
# 3 -0.004857 -0.001147 0.017061 0.000000 -0.008975 0.000000
# 4 0.000000 0.000000 0.000000 0.012542 0.000000 0.068840
# 5 -0.002591 -0.001018 -0.008975 0.000000 0.028907 0.000000
# 6 0.000000 0.000000 0.000000 0.068840 0.000000 0.017740
#
#
# Mechanical properties :
#
#
# Convention : Reuss Voigt Hill
#
# Bulk Modulus (GPa) = 48.56856 68.06097 58.31477
# Shear Modulus (GPa) = 41.37498 23.04087 32.20793
#
# Velocity S-wave (km/s) = 4.78404 3.57006 4.22092
# Velocity P-wave (km/s) = 7.57512 7.39206 7.48415
#
# Compressibility (1/GPa) = 0.02058945
#
# Stress axis : x y z
#
# Youngs Moduli (GPa) = 84.66237 113.38785 58.61289
#
# Poissons Ratio (x) = 0.28886 0.28466
# Poissons Ratio (y) = 0.21568 0.06724
# Poissons Ratio (z) = 0.41117 0.13007
#
# Static dielectric constant tensor:
#      x y z
#    x 1.518160 0.000000 0.050740 
#    y 0.000000 1.695540 0.000000 
#    z 0.050740 0.000000 1.605330 
# 
# From -- ./inp_files/96629.got.cif
#   From: 2010.05.17/outbox.cif.g08.bks.cpg/sg12_49_cif.got.tgz:96629.got - 2010.06.03 13:09:07.
