data_PCOD9194978
_publ_section_title
;
Structure prediction by ZEFSAII (Michael W. Deem and Ramdas Pophale) SiO2 
 PCOD9194978
Probable space group: C 2/M
;
_chemical_formula_sum "Si O2"
_cell_formula_units_Z 56
_cell_length_a 17.897303
_cell_length_b 13.285119
_cell_length_c 24.064860
_cell_angle_alpha 90.000000
_cell_angle_beta 150.283452
_cell_angle_gamma 90.000000
_cell_volume 2836.374953
_symmetry_space_group_name_H-M "C 2/M"
_symmetry_group_IT_number 12
_symmetry_cell_setting 'monoclinic'
loop_
_space_group_symop_operation_xyz
x,y,z
-x,y,-z
-x,-y,-z
x,-y,z
1/2+x,1/2+y,z
1/2-x,1/2+y,-z
1/2-x,1/2-y,-z
1/2+x,1/2-y,z
loop_
_atom_site_type_symbol
_atom_site_label
_atom_site_fract_x
_atom_site_fract_y
_atom_site_fract_z
Si Si1 0.257662 0.110707 0.126428
Si Si2 0.117787 0.884555 0.704381
Si Si3 0.869888 0.659355 0.079190
Si Si4 0.921369 0.617650 0.610479
Si Si5 0.711787 0.122267 0.298911
Si Si6 0.673325 0.276316 0.522622
Si Si7 0.858172 0.667556 0.946309
O O1 0.321790 0.105170 0.104822
O O2 0.401032 0.127738 0.260188
O O3 0.152826 0.209742 0.059536
O O4 0.191721 0.000000 0.096882
O O5 0.229026 0.860598 0.724982
O O6 0.206930 0.866654 0.818243
O O7 0.966387 0.823492 0.600579
O O8 0.075881 0.000000 0.671363
O O9 0.048990 0.673595 0.201514
O O10 0.750000 0.750000 0.000000
O O11 0.863687 0.621269 0.011489
O O12 0.885737 0.500000 0.594238
O O13 0.825796 0.682608 0.592982
O O14 0.860338 0.659431 0.511808
O O15 0.822448 0.177492 0.413395
O O16 0.702258 0.000000 0.302378
O O17 0.000000 0.637543 0.000000
#
# Coordination Sequence:
#
# PCOD9194978 Si02
#       7
#     8   8   8   8   8   8   8
#     4  10  20  38  61  85 114 154 200 238 283 355
#     4  11  23  36  55  86 117 151 193 239 298 355
#     4  10  21  35  58  84 115 153 194 235 285 342
#     4  10  20  34  59  86 112 149 191 233 290 351
#     4  11  21  36  59  85 116 157 195 234 293 360
#     4  11  21  36  58  84 118 146 190 244 288 339
#     4  11  22  39  58  86 121 153 193 247 300 347
#
# _framework density 19.743511000000002
#
# number of rings (size 3 to 8) (size 9 to 14) (size 15 to 20)
#    0.000    1.429    4.286    2.143    0.000    2.857 
#    0.000    0.000    0.000    6.857    0.000    0.000 
#    0.000    0.000    0.000    0.000    0.000    0.000 
#
# Total GULP energy -156008.720646 kJ/mol
# GULP energy per Si atom -5571.740023 kJ/mol
# Density = 1.969857 g / cm^3
# Si number density = 19.743511 Si / 1000 Ang^3
#
#
#
# Elastic Constant Matrix: (Units=GPa)
#
#
# Indices 1 2 3 4 5 6 
#
# 1 56.3935 1.5176 13.6043 0.0007 -6.3525 0.0002
# 2 1.5176 59.8272 4.5696 0.0024 2.8368 0.0008
# 3 13.6043 4.5696 99.9131 0.0049 -14.8937 0.0021
# 4 0.0007 0.0024 0.0049 1.8993 0.0032 -0.1126
# 5 -6.3525 2.8368 -14.8937 0.0032 33.2124 0.0012
# 6 0.0002 0.0008 0.0021 -0.1126 0.0012 9.8485
#
#
#
# Elastic Compliance Matrix: (Units=1/GPa)
#
#
# Indices 1 2 3 4 5 6 
#
# 1 0.018551 -0.000434 -0.002113 -0.000006 0.002638 0.000000
# 2 -0.000434 0.016897 -0.001009 -0.000015 -0.001979 -0.000001
# 3 -0.002113 -0.001009 0.011033 -0.000035 0.004629 -0.000003
# 4 -0.000006 -0.000015 -0.000035 0.526873 -0.000067 0.006022
# 5 0.002638 -0.001979 0.004629 -0.000067 0.032859 -0.000006
# 6 0.000000 -0.000001 -0.000003 0.006022 -0.000006 0.101607
#
#
# Mechanical properties :
#
#
# Convention : Reuss Voigt Hill
#
# Bulk Modulus (GPa) = 25.40076 28.39077 26.89576
# Shear Modulus (GPa) = 6.86763 22.08819 14.47791
#
# Velocity S-wave (km/s) = 1.86708 3.34841 2.71089
# Velocity P-wave (km/s) = 4.18823 5.41850 4.84259
#
# Compressibility (1/GPa) = 0.03936890
#
# Stress axis : x y z
#
# Youngs Moduli (GPa) = 53.90526 59.18325 90.64031
#
# Poissons Ratio (x) = 0.02570 0.19151
# Poissons Ratio (y) = 0.02341 0.09142
# Poissons Ratio (z) = 0.11389 0.05969
#
# Static dielectric constant tensor:
#      x y z
#    x 1.729910 0.000000 -0.029790 
#    y 0.000000 1.742240 0.000000 
#    z -0.029790 0.000000 1.690100 
# 
# From -- ./inp_files/316746.got.cif
#   From: 2010.05.17/outbox.cif.g08.bks.cpg/sg12_159_cif.got.tgz:316746.got - 2010.06.03 13:09:07.
