data_PCOD9194069
_publ_section_title
;
Structure prediction by ZEFSAII (Michael W. Deem and Ramdas Pophale) SiO2 
 PCOD9194069
Probable space group: C 2/M
;
_chemical_formula_sum "Si O2"
_cell_formula_units_Z 64
_cell_length_a 20.315313
_cell_length_b 9.100462
_cell_length_c 23.464495
_cell_angle_alpha 90.000000
_cell_angle_beta 44.809789
_cell_angle_gamma 90.000000
_cell_volume 3057.289755
_symmetry_space_group_name_H-M "C 2/M"
_symmetry_group_IT_number 12
_symmetry_cell_setting 'monoclinic'
loop_
_space_group_symop_operation_xyz
x,y,z
-x,y,-z
-x,-y,-z
x,-y,z
1/2+x,1/2+y,z
1/2-x,1/2+y,-z
1/2-x,1/2-y,-z
1/2+x,1/2-y,z
loop_
_atom_site_type_symbol
_atom_site_label
_atom_site_fract_x
_atom_site_fract_y
_atom_site_fract_z
Si Si1 0.504565 0.671226 0.831613
Si Si2 0.940471 0.667708 0.979330
Si Si3 0.387615 0.829553 0.403004
Si Si4 0.262000 0.822906 0.155302
Si Si5 0.297401 0.326142 0.689177
Si Si6 0.915314 0.331081 0.785596
Si Si7 0.203315 0.171934 0.645250
Si Si8 0.488354 0.325756 0.441654
O O1 0.479697 0.500000 0.843350
O O2 0.437158 0.769396 0.834331
O O3 0.607169 0.686680 0.740896
O O4 0.492519 0.731940 0.902105
O O5 0.930516 0.500000 0.963040
O O6 0.841225 0.726945 0.062666
O O7 0.000000 0.658670 0.000000
O O8 0.487310 0.823338 0.308688
O O9 0.316344 0.747259 0.403907
O O10 0.414145 0.756109 0.447196
O O11 0.361025 0.000000 0.425845
O O12 0.267703 0.775284 0.218223
O O13 0.163432 0.768696 0.193339
O O14 0.266798 0.000000 0.153681
O O15 0.282571 0.500000 0.688598
O O16 0.277783 0.246183 0.641742
O O17 0.404209 0.307956 0.644631
O O18 0.885055 0.500000 0.804774
O O19 0.222678 0.000000 0.625328
O O20 0.500000 0.276735 0.500000
O O21 0.465825 0.500000 0.455383
#
# Coordination Sequence:
#
# PCOD9194069 Si02
#       8
#     8   8   8   8   8   8   8   8
#     4  10  21  36  54  77 108 145 185 231 283 332
#     4  10  21  36  53  74 104 142 185 230 279 335
#     4  10  20  36  59  86 116 151 190 231 280 336
#     4  10  20  34  55  80 107 144 185 230 281 331
#     4  10  20  36  59  86 116 148 187 233 280 337
#     4  10  20  34  55  81 107 141 184 231 277 329
#     4  10  21  36  58  85 114 150 193 239 281 331
#     4  10  21  38  62  90 119 151 185 226 279 337
#
# _framework density 20.933574
#
# number of rings (size 3 to 8) (size 9 to 14) (size 15 to 20)
#    0.000    2.000    1.250    2.250    0.000    6.000 
#    0.000    0.625    0.000    0.000    0.000    0.000 
#    0.000    0.000    0.000    0.000    0.000    0.000 
#
# Total GULP energy -178693.881850 kJ/mol
# GULP energy per Si atom -5584.183808 kJ/mol
# Density = 2.088593 g / cm^3
# Si number density = 20.933574 Si / 1000 Ang^3
#
#
#
# Elastic Constant Matrix: (Units=GPa)
#
#
# Indices 1 2 3 4 5 6 
#
# 1 103.0142 27.8158 7.9908 0.0001 23.8783 0.0002
# 2 27.8158 28.8506 19.4041 0.0009 14.8331 0.0019
# 3 7.9908 19.4041 77.8959 -0.0003 19.4376 -0.0007
# 4 0.0001 0.0009 -0.0003 -199.0931 0.0000 -477.1587
# 5 23.8783 14.8331 19.4376 0.0000 33.3547 0.0000
# 6 0.0002 0.0019 -0.0007 -477.1587 0.0000-1075.0804
#
#
#
# Elastic Compliance Matrix: (Units=1/GPa)
#
#
# Indices 1 2 3 4 5 6 
#
# 1 0.014424 -0.012765 0.003347 0.000000 -0.006600 0.000000
# 2 -0.012765 0.060041 -0.010841 0.000000 -0.011245 0.000000
# 3 0.003347 -0.010841 0.017072 0.000000 -0.007524 0.000000
# 4 0.000000 0.000000 0.000000 0.078823 0.000000 -0.034984
# 5 -0.006600 -0.011245 -0.007524 0.000000 0.044091 0.000000
# 6 0.000000 0.000000 0.000000 -0.034984 0.000000 0.014597
#
#
# Mechanical properties :
#
#
# Convention : Reuss Voigt Hill
#
# Bulk Modulus (GPa) = 19.60007 35.57580 27.58794
# Shear Modulus (GPa) = 17.44760 -237.86043 -110.20642
#
# Velocity S-wave (km/s) = 2.89013 -10.67113 -7.26361
# Velocity P-wave (km/s) = 4.52995 11.61030 7.55906
#
# Compressibility (1/GPa) = 0.05102022
#
# Stress axis : x y z
#
# Youngs Moduli (GPa) = 69.32703 16.65532 58.57445
#
# Poissons Ratio (x) = 0.21260 -0.19605
# Poissons Ratio (y) = 0.88494 0.63500
# Poissons Ratio (z) = -0.23204 0.18056
#
# Static dielectric constant tensor:
#      x y z
#    x 1.743430 0.000000 -0.018390 
#    y 0.000000 1.712250 0.000000 
#    z -0.018390 0.000000 1.821500 
# 
# From -- ./inp_files/345949.got.cif
#   From: 2010.05.17/outbox.cif.g08.bks.cpg/sg12_173_cif.got.tgz:345949.got - 2010.06.03 13:09:07.
