data_PCOD9194872
_publ_section_title
;
Structure prediction by ZEFSAII (Michael W. Deem and Ramdas Pophale) SiO2 
 PCOD9194872
Probable space group: C 2/M
;
_chemical_formula_sum "Si O2"
_cell_formula_units_Z 44
_cell_length_a 27.934872
_cell_length_b 7.778804
_cell_length_c 12.093502
_cell_angle_alpha 90.000000
_cell_angle_beta 50.261107
_cell_angle_gamma 90.000000
_cell_volume 2020.778005
_symmetry_space_group_name_H-M "C 2/M"
_symmetry_group_IT_number 12
_symmetry_cell_setting 'monoclinic'
loop_
_space_group_symop_operation_xyz
x,y,z
-x,y,-z
-x,-y,-z
x,-y,z
1/2+x,1/2+y,z
1/2-x,1/2+y,-z
1/2-x,1/2-y,-z
1/2+x,1/2-y,z
loop_
_atom_site_type_symbol
_atom_site_label
_atom_site_fract_x
_atom_site_fract_y
_atom_site_fract_z
Si Si1 0.000000 0.247164 0.500000
Si Si2 0.706722 0.295584 0.255554
Si Si3 0.083788 0.209224 0.571463
Si Si4 0.385720 0.193332 0.786765
Si Si5 0.565706 0.709565 0.850666
Si Si6 0.652284 0.701568 0.918121
O O1 0.036975 0.302864 0.556596
O O2 0.062537 0.183585 0.343622
O O3 0.712301 0.500000 0.235064
O O4 0.653726 0.259122 0.425267
O O5 0.678765 0.222792 0.182582
O O6 0.773774 0.225286 0.188346
O O7 0.074061 0.263385 0.711794
O O8 0.072433 0.000000 0.578672
O O9 0.408019 0.000000 0.728604
O O10 0.376093 0.214381 0.930292
O O11 0.566292 0.500000 0.846773
O O12 0.620247 0.765799 0.853248
O O13 0.500000 0.762906 0.000000
O O14 0.637862 0.500000 0.948884
#
# Coordination Sequence:
#
# PCOD9194872 Si02
#       6
#     4   8   8   8   8   8
#     4  10  20  34  58  84 111 144 181 226 279 326
#     4  10  21  37  57  82 112 145 185 231 276 324
#     4   9  18  33  55  84 114 146 185 227 271 325
#     4  11  22  37  57  82 114 146 182 227 276 330
#     4   9  18  33  54  81 112 144 182 226 271 325
#     4  11  22  36  57  82 110 147 187 227 274 325
#
# _framework density 21.773793999999999
#
# number of rings (size 3 to 8) (size 9 to 14) (size 15 to 20)
#    0.000    2.000    0.000    3.818    0.000    4.364 
#    0.000    0.000    0.000   19.636    0.000    0.000 
#    0.000    0.000    0.000    0.000    0.000    0.000 
#
# Total GULP energy -122681.178254 kJ/mol
# GULP energy per Si atom -5576.417193 kJ/mol
# Density = 2.172424 g / cm^3
# Si number density = 21.773794 Si / 1000 Ang^3
#
#
#
# Elastic Constant Matrix: (Units=GPa)
#
#
# Indices 1 2 3 4 5 6 
#
# 1 186.9409 16.3473 93.8934 0.0000 21.4345 0.0000
# 2 16.3473 66.6108 16.6357 0.0000 9.4435 0.0000
# 3 93.8934 16.6357 126.2179 0.0000 36.1312 0.0000
# 4 0.0000 0.0000 0.0000 113.2480 0.0000 -77.5798
# 5 21.4345 9.4435 36.1312 0.0000 48.1186 0.0000
# 6 0.0000 0.0000 0.0000 -77.5798 0.0000 63.0217
#
#
#
# Elastic Compliance Matrix: (Units=1/GPa)
#
#
# Indices 1 2 3 4 5 6 
#
# 1 0.008623 -0.000628 -0.006710 0.000000 0.001320 0.000000
# 2 -0.000628 0.015710 -0.001021 0.000000 -0.002037 0.000000
# 3 -0.006710 -0.001021 0.015459 0.000000 -0.008418 0.000000
# 4 0.000000 0.000000 0.000000 0.056347 0.000000 0.069363
# 5 0.001320 -0.002037 -0.008418 0.000000 0.026915 0.000000
# 6 0.000000 0.000000 0.000000 0.069363 0.000000 0.101254
#
#
# Mechanical properties :
#
#
# Convention : Reuss Voigt Hill
#
# Bulk Modulus (GPa) = 43.33538 70.39138 56.86338
# Shear Modulus (GPa) = 20.10334 61.73723 40.92028
#
# Velocity S-wave (km/s) = 3.04185 5.33062 4.33983
# Velocity P-wave (km/s) = 5.68180 8.38367 7.16131
#
# Compressibility (1/GPa) = 0.02307583
#
# Stress axis : x y z
#
# Youngs Moduli (GPa) = 115.97111 63.65243 64.68925
#
# Poissons Ratio (x) = 0.03995 0.43405
# Poissons Ratio (y) = 0.07279 0.06602
# Poissons Ratio (z) = 0.77814 0.06496
#
# Static dielectric constant tensor:
#      x y z
#    x 1.756970 0.000000 -0.005720 
#    y 0.000000 1.909780 0.000000 
#    z -0.005720 0.000000 1.753470 
# 
# From -- ./inp_files/180449.got.cif
#   From: 2010.05.17/outbox.cif.g08.bks.cpg/sg12_91_cif.got.tgz:180449.got - 2010.06.03 13:09:07.
