data_PCOD9194405
_publ_section_title
;
Structure prediction by ZEFSAII (Michael W. Deem and Ramdas Pophale) SiO2 
 PCOD9194405
Probable space group: C 2/M
;
_chemical_formula_sum "Si O2"
_cell_formula_units_Z 36
_cell_length_a 22.099974
_cell_length_b 10.832369
_cell_length_c 8.242386
_cell_angle_alpha 90.000000
_cell_angle_beta 99.819710
_cell_angle_gamma 90.000000
_cell_volume 1944.278010
_symmetry_space_group_name_H-M "C 2/M"
_symmetry_group_IT_number 12
_symmetry_cell_setting 'monoclinic'
loop_
_space_group_symop_operation_xyz
x,y,z
-x,y,-z
-x,-y,-z
x,-y,z
1/2+x,1/2+y,z
1/2-x,1/2+y,-z
1/2-x,1/2-y,-z
1/2+x,1/2-y,z
loop_
_atom_site_type_symbol
_atom_site_label
_atom_site_fract_x
_atom_site_fract_y
_atom_site_fract_z
Si Si1 0.862042 0.136676 0.927066
Si Si2 0.525169 0.143861 0.681732
Si Si3 0.662948 0.138452 0.850557
Si Si4 0.733425 0.361392 0.375427
Si Si5 0.500000 0.713382 0.000000
O O1 0.833841 0.151122 0.734863
O O2 0.935643 0.142174 0.965652
O O3 0.842032 0.000000 0.976099
O O4 0.837339 0.249998 0.022749
O O5 0.500000 0.195481 0.500000
O O6 0.599097 0.150605 0.722630
O O7 0.507107 0.000000 0.680848
O O8 0.501848 0.207411 0.835214
O O9 0.719526 0.144619 0.754138
O O10 0.662178 0.000000 0.925377
O O11 0.739058 0.500000 0.449911
O O12 0.750000 0.250000 0.500000
#
# Coordination Sequence:
#
# PCOD9194405 Si02
#       5
#     8   8   8   8   4
#     4  10  21  37  57  80 112 147 183 227 276 332
#     4   9  18  32  53  81 113 146 186 235 278 329
#     4   9  19  36  56  80 107 140 187 231 278 328
#     4  10  22  37  55  82 112 144 183 229 277 332
#     4  10  20  34  56  80 113 152 189 222 283 332
#
# _framework density 18.515872999999999
#
# number of rings (size 3 to 8) (size 9 to 14) (size 15 to 20)
#    0.000    2.444    0.000    1.333    3.111    2.667 
#    0.000    0.000    0.000    3.333    0.000    0.000 
#    0.000    0.000    0.000    0.000    0.000    0.000 
#
# Total GULP energy -100312.690305 kJ/mol
# GULP energy per Si atom -5572.927239 kJ/mol
# Density = 1.847373 g / cm^3
# Si number density = 18.515873 Si / 1000 Ang^3
#
#
#
# Elastic Constant Matrix: (Units=GPa)
#
#
# Indices 1 2 3 4 5 6 
#
# 1 50.6667 33.5524 20.1755 0.0000 0.3144 0.0000
# 2 33.5524 154.4384 79.2270 0.0000 13.0309 0.0000
# 3 20.1755 79.2270 106.4863 0.0000 8.2009 0.0000
# 4 0.0000 0.0000 0.0000 10.7741 0.0000 -15.2085
# 5 0.3144 13.0309 8.2009 0.0000 15.2543 0.0000
# 6 0.0000 0.0000 0.0000 -15.2085 0.0000 3.8836
#
#
#
# Elastic Compliance Matrix: (Units=1/GPa)
#
#
# Indices 1 2 3 4 5 6 
#
# 1 0.023380 -0.004850 -0.001151 0.000000 0.004280 0.000000
# 2 -0.004850 0.011851 -0.007434 0.000000 -0.006027 0.000000
# 3 -0.001151 -0.007434 0.015282 0.000000 -0.001841 0.000000
# 4 0.000000 0.000000 0.000000 -0.020499 0.000000 -0.080275
# 5 0.004280 -0.006027 -0.001841 0.000000 0.071605 0.000000
# 6 0.000000 0.000000 0.000000 -0.080275 0.000000 -0.056869
#
#
# Mechanical properties :
#
#
# Convention : Reuss Voigt Hill
#
# Bulk Modulus (GPa) = 42.29602 64.16678 53.23140
# Shear Modulus (GPa) = 62.89120 17.89152 40.39136
#
# Velocity S-wave (km/s) = 5.83437 3.11188 4.67566
# Velocity P-wave (km/s) = 8.26312 6.90232 7.61318
#
# Compressibility (1/GPa) = 0.02364289
#
# Stress axis : x y z
#
# Youngs Moduli (GPa) = 42.77080 84.38009 65.43694
#
# Poissons Ratio (x) = 0.40927 0.07530
# Poissons Ratio (y) = 0.20745 0.48648
# Poissons Ratio (z) = 0.04922 0.62730
#
# Static dielectric constant tensor:
#      x y z
#    x 1.661310 0.000000 0.033430 
#    y 0.000000 1.648610 0.000000 
#    z 0.033430 0.000000 1.624760 
# 
# From -- ./inp_files/92367.got.cif
#   From: 2010.05.17/outbox.cif.g08.bks.cpg/sg12_47_cif.got.tgz:92367.got - 2010.06.03 13:09:07.
