data_PCOD9194013
_publ_section_title
;
Structure prediction by ZEFSAII (Michael W. Deem and Ramdas Pophale) SiO2 
 PCOD9194013
Probable space group: C 2/M
;
_chemical_formula_sum "Si O2"
_cell_formula_units_Z 56
_cell_length_a 21.173555
_cell_length_b 16.477234
_cell_length_c 14.344265
_cell_angle_alpha 90.000000
_cell_angle_beta 30.921861
_cell_angle_gamma 90.000000
_cell_volume 2571.629960
_symmetry_space_group_name_H-M "C 2/M"
_symmetry_group_IT_number 12
_symmetry_cell_setting 'monoclinic'
loop_
_space_group_symop_operation_xyz
x,y,z
-x,y,-z
-x,-y,-z
x,-y,z
1/2+x,1/2+y,z
1/2-x,1/2+y,-z
1/2-x,1/2-y,-z
1/2+x,1/2-y,z
loop_
_atom_site_type_symbol
_atom_site_label
_atom_site_fract_x
_atom_site_fract_y
_atom_site_fract_z
Si Si1 0.704954 0.785469 0.397637
Si Si2 0.715229 0.909023 0.005937
Si Si3 0.462665 0.232451 0.830976
Si Si4 0.205014 0.087031 0.567063
Si Si5 0.940787 0.908244 0.818677
Si Si6 0.353331 0.909298 0.688198
Si Si7 0.391696 0.149998 0.195119
O O1 0.568590 0.771122 0.615435
O O2 0.776243 0.840303 0.384465
O O3 0.694682 0.839342 0.318526
O O4 0.783965 0.703544 0.283721
O O5 0.639682 0.836411 0.056284
O O6 0.684053 0.904768 0.156102
O O7 0.680687 0.000000 0.016605
O O8 0.864364 0.902585 0.818640
O O9 0.407719 0.322285 0.906726
O O10 0.532332 0.212592 0.837330
O O11 0.323233 0.090833 0.351889
O O12 0.087350 0.094277 0.648373
O O13 0.195829 0.000000 0.627377
O O14 0.909707 0.000000 0.893149
O O15 0.500000 0.903786 0.500000
O O16 0.320309 0.000000 0.694895
O O17 0.500000 0.109562 0.000000
#
# Coordination Sequence:
#
# PCOD9194013 Si02
#       7
#     8   8   8   8   8   8   8
#     4  11  20  36  59  87 120 152 196 243 300 365
#     4  10  22  37  60  93 123 154 200 245 297 366
#     4  11  20  39  62  85 116 164 200 242 300 357
#     4  10  20  38  63  85 114 162 205 248 305 353
#     4  10  20  37  58  85 119 154 201 252 294 359
#     4  10  20  34  54  89 126 152 183 239 301 365
#     4  11  24  39  58  87 123 151 203 258 297 362
#
# _framework density 21.776071999999999
#
# number of rings (size 3 to 8) (size 9 to 14) (size 15 to 20)
#    0.000    1.571    4.286    1.714    2.000    2.571 
#    0.000    0.000    0.000    4.714    0.000    5.000 
#    0.000    0.000    0.000    0.000    0.000    0.000 
#
# Total GULP energy -155959.932802 kJ/mol
# GULP energy per Si atom -5569.997600 kJ/mol
# Density = 2.172651 g / cm^3
# Si number density = 21.776072 Si / 1000 Ang^3
#
#
#
# Elastic Constant Matrix: (Units=GPa)
#
#
# Indices 1 2 3 4 5 6 
#
# 1 46.4345 24.6163 9.4188 0.0000 -17.1813 0.0000
# 2 24.6163 118.6955 -1.7200 0.0000 -23.0297 0.0000
# 3 9.4188 -1.7200 74.3149 0.0000 -16.8457 0.0000
# 4 0.0000 0.0000 0.0000 16.3405 0.0000 -20.5890
# 5 -17.1813 -23.0297 -16.8457 0.0000 31.6239 0.0000
# 6 0.0000 0.0000 0.0000 -20.5890 0.0000 22.5625
#
#
#
# Elastic Compliance Matrix: (Units=1/GPa)
#
#
# Indices 1 2 3 4 5 6 
#
# 1 0.028087 -0.003453 -0.000854 0.000000 0.012290 0.000000
# 2 -0.003453 0.010533 0.002269 0.000000 0.007003 0.000000
# 3 -0.000854 0.002269 0.015793 0.000000 0.009601 0.000000
# 4 0.000000 0.000000 0.000000 -0.408558 0.000000 -0.372822
# 5 0.012290 0.007003 0.009601 0.000000 0.048513 0.000000
# 6 0.000000 0.000000 0.000000 -0.372822 0.000000 -0.295890
#
#
# Mechanical properties :
#
#
# Convention : Reuss Voigt Hill
#
# Bulk Modulus (GPa) = 19.86583 33.78611 26.82597
# Shear Modulus (GPa) = -8.61078 27.91405 9.65163
#
# Velocity S-wave (km/s) = -1.99068 3.58420 2.10757
# Velocity P-wave (km/s) = 1.96439 5.71643 4.27413
#
# Compressibility (1/GPa) = 0.05033769
#
# Stress axis : x y z
#
# Youngs Moduli (GPa) = 35.60386 94.94359 63.31769
#
# Poissons Ratio (x) = 0.32781 0.05405
# Poissons Ratio (y) = 0.12293 -0.14365
# Poissons Ratio (z) = 0.03039 -0.21541
#
# Static dielectric constant tensor:
#      x y z
#    x 1.779110 0.000000 -0.028670 
#    y 0.000000 1.826360 0.000000 
#    z -0.028670 0.000000 1.871880 
# 
# From -- ./inp_files/234644.got.cif
#   From: 2010.05.17/outbox.cif.g08.bks.cpg/sg12_118_cif.got.tgz:234644.got - 2010.06.03 13:09:07.
