data_PCOD9194601
_publ_section_title
;
Structure prediction by ZEFSAII (Michael W. Deem and Ramdas Pophale) SiO2 
 PCOD9194601
Probable space group: C 2/M
;
_chemical_formula_sum "Si O2"
_cell_formula_units_Z 64
_cell_length_a 18.142581
_cell_length_b 15.272396
_cell_length_c 11.208183
_cell_angle_alpha 90.000000
_cell_angle_beta 81.289205
_cell_angle_gamma 90.000000
_cell_volume 3069.749373
_symmetry_space_group_name_H-M "C 2/M"
_symmetry_group_IT_number 12
_symmetry_cell_setting 'monoclinic'
loop_
_space_group_symop_operation_xyz
x,y,z
-x,y,-z
-x,-y,-z
x,-y,z
1/2+x,1/2+y,z
1/2-x,1/2+y,-z
1/2-x,1/2-y,-z
1/2+x,1/2-y,z
loop_
_atom_site_type_symbol
_atom_site_label
_atom_site_fract_x
_atom_site_fract_y
_atom_site_fract_z
Si Si1 0.892894 0.900704 0.109650
Si Si2 0.733082 0.097122 0.263621
Si Si3 0.396061 0.772779 0.730878
Si Si4 0.949199 0.738091 0.214046
Si Si5 0.241526 0.854507 0.479663
Si Si6 0.321429 0.898617 0.210791
Si Si7 0.078899 0.811296 0.514640
Si Si8 0.164583 0.900713 0.145862
O O1 0.817925 0.884499 0.205297
O O2 0.948923 0.824553 0.132444
O O3 0.920269 0.000000 0.126470
O O4 0.865468 0.896048 0.980811
O O5 0.675353 0.167739 0.229615
O O6 0.730014 0.100521 0.407604
O O7 0.714696 0.000000 0.224138
O O8 0.468571 0.800428 0.786621
O O9 0.412741 0.766345 0.585425
O O10 0.377006 0.673348 0.770148
O O11 0.889196 0.668691 0.181938
O O12 0.925775 0.771753 0.351912
O O13 0.250000 0.750000 0.500000
O O14 0.284377 0.881900 0.350287
O O15 0.152918 0.869365 0.488492
O O16 0.253314 0.883486 0.135475
O O17 0.344675 0.000000 0.196861
O O18 0.000000 0.854901 0.500000
O O19 0.152871 0.000000 0.193205
#
# Coordination Sequence:
#
# PCOD9194601 Si02
#       8
#     8   8   8   8   8   8   8   8
#     4  10  22  40  62  87 113 145 191 246 299 350
#     4  11  22  36  58  88 118 154 198 239 281 339
#     4  11  22  38  59  84 119 158 190 233 291 346
#     4  11  22  38  59  84 119 158 190 233 291 346
#     4  12  17  34  61  84 114 152 196 239 282 332
#     4  11  22  36  58  88 118 154 198 239 281 339
#     4  10  20  34  56  86 120 151 184 230 289 347
#     4  10  22  40  62  87 113 145 191 246 299 350
#
# _framework density 20.848607999999999
#
# number of rings (size 3 to 8) (size 9 to 14) (size 15 to 20)
#    0.000    1.250    5.000    1.125    0.000    3.500 
#    0.000    1.875    0.000    7.500    0.000    5.250 
#    0.000    0.000    0.000    0.000    0.000    0.000 
#
# Total GULP energy -178842.733231 kJ/mol
# GULP energy per Si atom -5588.835413 kJ/mol
# Density = 2.080116 g / cm^3
# Si number density = 20.848608 Si / 1000 Ang^3
#
#
#
# Elastic Constant Matrix: (Units=GPa)
#
#
# Indices 1 2 3 4 5 6 
#
# 1 81.4606 30.1247 -0.4964 0.0000 12.0840 0.0000
# 2 30.1247 73.0109 17.5838 0.0000 8.8063 0.0000
# 3 -0.4964 17.5838 37.9855 0.0000 12.1270 0.0000
# 4 0.0000 0.0000 0.0000 14.3078 0.0000 8.5269
# 5 12.0840 8.8063 12.1270 0.0000 19.9418 0.0000
# 6 0.0000 0.0000 0.0000 8.5269 0.0000 6.2020
#
#
#
# Elastic Compliance Matrix: (Units=1/GPa)
#
#
# Indices 1 2 3 4 5 6 
#
# 1 0.016669 -0.007246 0.007167 0.000000 -0.011259 0.000000
# 2 -0.007246 0.018717 -0.009334 0.000000 0.001802 0.000000
# 3 0.007167 -0.009334 0.038234 0.000000 -0.023472 0.000000
# 4 0.000000 0.000000 0.000000 0.386917 0.000000 -0.531956
# 5 -0.011259 0.001802 -0.023472 0.000000 0.070447 0.000000
# 6 0.000000 0.000000 0.000000 -0.531956 0.000000 0.892603
#
#
# Mechanical properties :
#
#
# Convention : Reuss Voigt Hill
#
# Bulk Modulus (GPa) = 18.25035 31.87567 25.06301
# Shear Modulus (GPa) = 3.42307 17.77330 10.59819
#
# Velocity S-wave (km/s) = 1.28274 2.92292 2.25709
# Velocity P-wave (km/s) = 3.31160 5.16852 4.34052
#
# Compressibility (1/GPa) = 0.05479346
#
# Stress axis : x y z
#
# Youngs Moduli (GPa) = 59.99050 53.42757 26.15493
#
# Poissons Ratio (x) = 0.38712 -0.18744
# Poissons Ratio (y) = 0.43468 0.24413
# Poissons Ratio (z) = -0.42993 0.49870
#
# Static dielectric constant tensor:
#      x y z
#    x 1.778380 0.000000 -0.002370 
#    y 0.000000 1.730010 0.000000 
#    z -0.002370 0.000000 1.761770 
# 
# From -- ./inp_files/156656.got.cif
#   From: 2010.05.17/outbox.cif.g08.bks.cpg/sg12_79_cif.got.tgz:156656.got - 2010.06.03 13:09:07.
