data_PCOD9194852
_publ_section_title
;
Structure prediction by ZEFSAII (Michael W. Deem and Ramdas Pophale) SiO2 
 PCOD9194852
Probable space group: C 2/M
;
_chemical_formula_sum "Si O2"
_cell_formula_units_Z 56
_cell_length_a 26.094395
_cell_length_b 18.526663
_cell_length_c 7.671049
_cell_angle_alpha 90.000000
_cell_angle_beta 134.826489
_cell_angle_gamma 90.000000
_cell_volume 2630.240185
_symmetry_space_group_name_H-M "C 2/M"
_symmetry_group_IT_number 12
_symmetry_cell_setting 'monoclinic'
loop_
_space_group_symop_operation_xyz
x,y,z
-x,y,-z
-x,-y,-z
x,-y,z
1/2+x,1/2+y,z
1/2-x,1/2+y,-z
1/2-x,1/2-y,-z
1/2+x,1/2-y,z
loop_
_atom_site_type_symbol
_atom_site_label
_atom_site_fract_x
_atom_site_fract_y
_atom_site_fract_z
Si Si1 0.145170 0.084844 0.138077
Si Si2 0.647858 0.918935 0.162011
Si Si3 0.146094 0.215746 0.690665
Si Si4 0.224648 0.309186 0.583396
Si Si5 0.988470 0.172864 0.172335
Si Si6 0.302014 0.420450 0.343768
Si Si7 0.570285 0.802465 0.789489
O O1 0.206887 0.138672 0.215820
O O2 0.152187 0.093011 0.367514
O O3 0.157676 0.000000 0.131691
O O4 0.066658 0.112474 0.888029
O O5 0.666581 0.864066 0.361268
O O6 0.720835 0.920986 0.221917
O O7 0.631243 0.000000 0.178764
O O8 0.588649 0.880814 0.902091
O O9 0.186195 0.266685 0.646865
O O10 0.189028 0.141044 0.777327
O O11 0.134291 0.264019 0.833561
O O12 0.065173 0.187803 0.446133
O O13 0.250000 0.250000 0.500000
O O14 0.946008 0.248163 0.091725
O O15 0.000000 0.155873 0.000000
O O16 0.321202 0.500000 0.323446
O O17 0.500000 0.804784 0.500000
#
# Coordination Sequence:
#
# PCOD9194852 Si02
#       7
#     8   8   8   8   8   8   8
#     4  10  20  34  57  92 124 154 197 251 302 354
#     4  10  20  37  59  83 113 152 195 243 292 350
#     4  11  21  36  59  86 120 159 198 248 297 352
#     4  11  18  36  62  87 114 153 201 248 292 352
#     4  11  20  37  60  87 114 156 203 246 293 361
#     4   9  18  33  55  86 117 151 191 237 296 350
#     4  10  24  39  57  85 117 155 200 249 303 354
#
# _framework density 21.290831000000001
#
# number of rings (size 3 to 8) (size 9 to 14) (size 15 to 20)
#    0.000    1.714    4.286    3.000    0.000    1.714 
#    0.000    2.143    0.000   11.571    0.000    0.000 
#    0.000    0.000    0.000    0.000    0.000    0.000 
#
# Total GULP energy -156325.295691 kJ/mol
# GULP energy per Si atom -5583.046275 kJ/mol
# Density = 2.124237 g / cm^3
# Si number density = 21.290831 Si / 1000 Ang^3
#
#
#
# Elastic Constant Matrix: (Units=GPa)
#
#
# Indices 1 2 3 4 5 6 
#
# 1 60.9539 33.8827 16.3062 0.0000 10.2092 0.0000
# 2 33.8827 166.3977 33.1143 0.0000 6.3067 0.0000
# 3 16.3062 33.1143 46.9326 0.0000 11.5336 0.0000
# 4 0.0000 0.0000 0.0000 24.2006 0.0000 1.1002
# 5 10.2092 6.3067 11.5336 0.0000 19.1754 0.0000
# 6 0.0000 0.0000 0.0000 1.1002 0.0000 13.4400
#
#
#
# Elastic Compliance Matrix: (Units=1/GPa)
#
#
# Indices 1 2 3 4 5 6 
#
# 1 0.020322 -0.003283 -0.002759 0.000000 -0.008081 0.000000
# 2 -0.003283 0.007532 -0.004687 0.000000 0.002090 0.000000
# 3 -0.002759 -0.004687 0.029140 0.000000 -0.014517 0.000000
# 4 0.000000 0.000000 0.000000 0.041476 0.000000 -0.003395
# 5 -0.008081 0.002090 -0.014517 0.000000 0.064497 0.000000
# 6 0.000000 0.000000 0.000000 -0.003395 0.000000 0.074683
#
#
# Mechanical properties :
#
#
# Convention : Reuss Voigt Hill
#
# Bulk Modulus (GPa) = 28.13976 48.98784 38.56380
# Shear Modulus (GPa) = 18.45347 24.09528 21.27437
#
# Velocity S-wave (km/s) = 2.94723 3.36776 3.16448
# Velocity P-wave (km/s) = 4.98268 6.17909 5.61285
#
# Compressibility (1/GPa) = 0.03553691
#
# Stress axis : x y z
#
# Youngs Moduli (GPa) = 49.20747 132.77144 34.31677
#
# Poissons Ratio (x) = 0.43587 0.09467
# Poissons Ratio (y) = 0.16154 0.16085
# Poissons Ratio (z) = 0.13574 0.62233
#
# Static dielectric constant tensor:
#      x y z
#    x 1.789410 0.000000 -0.012380 
#    y 0.000000 1.751970 0.000000 
#    z -0.012380 0.000000 1.856160 
# 
# From -- ./inp_files/106017.got.cif
#   From: 2010.05.17/outbox.cif.g08.bks.cpg/sg12_54_cif.got.tgz:106017.got - 2010.06.03 13:09:07.
