data_PCOD9194330
_publ_section_title
;
Structure prediction by ZEFSAII (Michael W. Deem and Ramdas Pophale) SiO2 
 PCOD9194330
Probable space group: C 2/M
;
_chemical_formula_sum "Si O2"
_cell_formula_units_Z 40
_cell_length_a 28.981320
_cell_length_b 11.611907
_cell_length_c 5.215309
_cell_angle_alpha 90.000000
_cell_angle_beta 74.963038
_cell_angle_gamma 90.000000
_cell_volume 1695.002592
_symmetry_space_group_name_H-M "C 2/M"
_symmetry_group_IT_number 12
_symmetry_cell_setting 'monoclinic'
loop_
_space_group_symop_operation_xyz
x,y,z
-x,y,-z
-x,-y,-z
x,-y,z
1/2+x,1/2+y,z
1/2-x,1/2+y,-z
1/2-x,1/2-y,-z
1/2+x,1/2-y,z
loop_
_atom_site_type_symbol
_atom_site_label
_atom_site_fract_x
_atom_site_fract_y
_atom_site_fract_z
Si Si1 0.850167 0.375857 0.743130
Si Si2 0.763186 0.622108 0.558670
Si Si3 0.445932 0.233394 0.626691
Si Si4 0.674479 0.375044 0.000780
Si Si5 0.917246 0.870008 0.171593
O O1 0.838524 0.500000 0.887863
O O2 0.819432 0.379822 0.528216
O O3 0.906833 0.365473 0.644233
O O4 0.834782 0.250592 0.870534
O O5 0.750484 0.500000 0.441454
O O6 0.750000 0.750000 0.500000
O O7 0.730353 0.616618 0.861039
O O8 0.500000 0.198185 0.500000
O O9 0.431243 0.326368 0.430841
O O10 0.439048 0.289250 0.917530
O O11 0.660444 0.500000 0.144968
O O12 0.640039 0.370902 0.798464
O O13 0.934443 0.000000 0.109253
#
# Coordination Sequence:
#
# PCOD9194330 Si02
#       5
#     8   8   8   8   8
#     4  10  22  39  59  86 120 161 209 257 309 373
#     4  10  20  34  55  85 121 161 205 253 310 375
#     4  11  23  39  60  88 123 165 212 262 313 366
#     4   9  19  36  59  88 121 158 201 254 315 375
#     4  10  21  38  62  93 127 162 205 258 316 377
#
# _framework density 23.598783999999998
#
# number of rings (size 3 to 8) (size 9 to 14) (size 15 to 20)
#    0.000    2.000    0.000    3.000    0.000    5.200 
#    0.000    6.000    0.000    6.000    0.000    0.000 
#    0.000    0.000    0.000    0.000    0.000    0.000 
#
# Total GULP energy -111377.214216 kJ/mol
# GULP energy per Si atom -5568.860711 kJ/mol
# Density = 2.354507 g / cm^3
# Si number density = 23.598784 Si / 1000 Ang^3
#
#
#
# Elastic Constant Matrix: (Units=GPa)
#
#
# Indices 1 2 3 4 5 6 
#
# 1 86.7605 39.3714 5.2629 0.0000 -2.5762 0.0000
# 2 39.3714 254.1917 26.5036 0.0000 -0.7368 0.0000
# 3 5.2629 26.5036 41.5454 0.0000 -1.5547 0.0000
# 4 0.0000 0.0000 0.0000 21.4950 0.0000 2.6896
# 5 -2.5762 -0.7368 -1.5547 0.0000 26.2794 0.0000
# 6 0.0000 0.0000 0.0000 2.6896 0.0000 10.0068
#
#
#
# Elastic Compliance Matrix: (Units=1/GPa)
#
#
# Indices 1 2 3 4 5 6 
#
# 1 0.012437 -0.001889 -0.000328 0.000000 0.001147 0.000000
# 2 -0.001889 0.004501 -0.002640 0.000000 -0.000215 0.000000
# 3 -0.000328 -0.002640 0.025849 0.000000 0.001423 0.000000
# 4 0.000000 0.000000 0.000000 0.048141 0.000000 -0.012939
# 5 0.001147 -0.000215 0.001423 0.000000 0.038243 0.000000
# 6 0.000000 0.000000 0.000000 -0.012939 0.000000 0.103409
#
#
# Mechanical properties :
#
#
# Convention : Reuss Voigt Hill
#
# Bulk Modulus (GPa) = 30.23527 58.30813 44.27170
# Shear Modulus (GPa) = 19.73790 32.31357 26.02573
#
# Velocity S-wave (km/s) = 2.89519 3.70441 3.32451
# Velocity P-wave (km/s) = 4.90063 6.56190 5.79115
#
# Compressibility (1/GPa) = 0.03307396
#
# Stress axis : x y z
#
# Youngs Moduli (GPa) = 80.40480 222.15914 38.68592
#
# Poissons Ratio (x) = 0.41963 0.01267
# Poissons Ratio (y) = 0.15187 0.10214
# Poissons Ratio (z) = 0.02634 0.58657
#
# Static dielectric constant tensor:
#      x y z
#    x 1.920730 0.000000 -0.010170 
#    y 0.000000 1.913650 0.000000 
#    z -0.010170 0.000000 1.946570 
# 
# From -- ./inp_files/30602.got.cif
#   From: 2010.05.17/outbox.cif.g08.bks.cpg/sg12_16_cif.got.tgz:30602.got - 2010.06.03 13:09:07.
