data_PCOD9194957
_publ_section_title
;
Structure prediction by ZEFSAII (Michael W. Deem and Ramdas Pophale) SiO2 
 PCOD9194957
Probable space group: C 2/M
;
_chemical_formula_sum "Si O2"
_cell_formula_units_Z 28
_cell_length_a 10.357916
_cell_length_b 26.472884
_cell_length_c 8.964751
_cell_angle_alpha 90.000000
_cell_angle_beta 29.561988
_cell_angle_gamma 90.000000
_cell_volume 1212.774693
_symmetry_space_group_name_H-M "C 2/M"
_symmetry_group_IT_number 12
_symmetry_cell_setting 'monoclinic'
loop_
_space_group_symop_operation_xyz
x,y,z
-x,y,-z
-x,-y,-z
x,-y,z
1/2+x,1/2+y,z
1/2-x,1/2+y,-z
1/2-x,1/2-y,-z
1/2+x,1/2-y,z
loop_
_atom_site_type_symbol
_atom_site_label
_atom_site_fract_x
_atom_site_fract_y
_atom_site_fract_z
Si Si1 0.081380 0.604022 0.246579
Si Si2 0.251456 0.711796 0.138122
Si Si3 0.259552 0.558316 0.637824
Si Si4 0.743411 0.500000 0.863284
O O1 0.230543 0.656364 0.082013
O O2 0.242962 0.552181 0.060048
O O3 0.000000 0.603791 0.500000
O O4 0.820420 0.596530 0.412033
O O5 0.000000 0.718742 0.500000
O O6 0.500000 0.715105 0.000000
O O7 0.250000 0.750000 0.000000
O O8 0.500000 0.573156 0.500000
O O9 0.296211 0.500000 0.547822
O O10 0.000000 0.557946 0.000000
O O11 0.000000 0.500000 0.500000
O O12 0.500000 0.500000 0.000000
#
# Coordination Sequence:
#
# PCOD9194957 Si02
#       4
#     8   8   8   4
#     4  10  22  42  67 100 131 176 229 281 336 414
#     4  11  25  47  73 104 138 181 240 298 355 417
#     4  10  22  39  59  92 137 179 214 260 329 411
#     4  10  20  34  58  94 130 164 205 270 338 392
#
# _framework density 23.087553
#
# number of rings (size 3 to 8) (size 9 to 14) (size 15 to 20)
#    0.000    1.714    1.429    1.714    0.000   10.286 
#    0.000    2.857    0.000    0.000    0.000    0.000 
#    0.000    0.000    0.000    0.000    0.000    0.000 
#
# Total GULP energy -78328.260912 kJ/mol
# GULP energy per Si atom -5594.875779 kJ/mol
# Density = 2.303500 g / cm^3
# Si number density = 23.087553 Si / 1000 Ang^3
#
#
#
# Elastic Constant Matrix: (Units=GPa)
#
#
# Indices 1 2 3 4 5 6 
#
# 1 262.3562 102.7990 71.5213 0.0000 -41.6758 0.0000
# 2 102.7990 210.6655 43.8009 0.0000 -9.2316 0.0000
# 3 71.5213 43.8009 115.0702 0.0000 -27.8046 0.0000
# 4 0.0000 0.0000 0.0000 14.9152 0.0000 -32.9547
# 5 -41.6758 -9.2316 -27.8046 0.0000 53.8930 0.0000
# 6 0.0000 0.0000 0.0000 -32.9547 0.0000 -70.2026
#
#
#
# Elastic Compliance Matrix: (Units=1/GPa)
#
#
# Indices 1 2 3 4 5 6 
#
# 1 0.005705 -0.002243 -0.001963 0.000000 0.003014 0.000000
# 2 -0.002243 0.006038 -0.001226 0.000000 -0.001333 0.000000
# 3 -0.001963 -0.001226 0.011378 0.000000 0.004142 0.000000
# 4 0.000000 0.000000 0.000000 0.032911 0.000000 -0.015449
# 5 0.003014 -0.001333 0.004142 0.000000 0.022795 0.000000
# 6 0.000000 0.000000 0.000000 -0.015449 0.000000 -0.006992
#
#
# Mechanical properties :
#
#
# Convention : Reuss Voigt Hill
#
# Bulk Modulus (GPa) = 81.59881 113.81494 97.70687
# Shear Modulus (GPa) = 57.61316 24.38583 40.99949
#
# Velocity S-wave (km/s) = 5.00084 3.25350 4.21863
# Velocity P-wave (km/s) = 8.29243 7.96981 8.13272
#
# Compressibility (1/GPa) = 0.01225508
#
# Stress axis : x y z
#
# Youngs Moduli (GPa) = 175.29296 165.61492 87.88692
#
# Poissons Ratio (x) = 0.37155 0.17256
# Poissons Ratio (y) = 0.39326 0.10776
# Poissons Ratio (z) = 0.34418 0.20306
#
# Static dielectric constant tensor:
#      x y z
#    x 1.851380 0.000000 0.010500 
#    y 0.000000 1.926120 0.000000 
#    z 0.010500 0.000000 1.852860 
# 
# From -- ./inp_files/40012.got.cif
#   From: 2010.05.17/outbox.cif.g08.bks.cpg/sg12_21_cif.got.tgz:40012.got - 2010.06.03 13:09:07.
