data_PCOD9194968
_publ_section_title
;
Structure prediction by ZEFSAII (Michael W. Deem and Ramdas Pophale) SiO2 
 PCOD9194968
Probable space group: C 2/M
;
_chemical_formula_sum "Si O2"
_cell_formula_units_Z 40
_cell_length_a 11.688624
_cell_length_b 15.860170
_cell_length_c 14.438756
_cell_angle_alpha 90.000000
_cell_angle_beta 132.729886
_cell_angle_gamma 90.000000
_cell_volume 1966.204697
_symmetry_space_group_name_H-M "C 2/M"
_symmetry_group_IT_number 12
_symmetry_cell_setting 'monoclinic'
loop_
_space_group_symop_operation_xyz
x,y,z
-x,y,-z
-x,-y,-z
x,-y,z
1/2+x,1/2+y,z
1/2-x,1/2+y,-z
1/2-x,1/2-y,-z
1/2+x,1/2-y,z
loop_
_atom_site_type_symbol
_atom_site_label
_atom_site_fract_x
_atom_site_fract_y
_atom_site_fract_z
Si Si1 0.636284 0.675355 0.401248
Si Si2 0.944706 0.403929 0.566741
Si Si3 0.333302 0.400251 0.298891
Si Si4 0.966108 0.314047 0.769281
Si Si5 0.150161 0.593443 0.015249
O O1 0.750000 0.750000 0.500000
O O2 0.757193 0.599643 0.458970
O O3 0.497262 0.647770 0.391972
O O4 0.568695 0.716474 0.270324
O O5 0.999152 0.500000 0.602376
O O6 0.000989 0.354821 0.688236
O O7 0.000000 0.365333 0.500000
O O8 0.343595 0.500000 0.327719
O O9 0.192284 0.358075 0.278797
O O10 0.286364 0.394084 0.163974
O O11 0.105348 0.337271 0.915078
O O12 0.164324 0.500000 0.979390
O O13 0.000000 0.590396 0.000000
#
# Coordination Sequence:
#
# PCOD9194968 Si02
#       5
#     8   8   8   8   8
#     4  10  23  34  52  79 115 144 181 229 275 322
#     4  10  21  36  54  74 106 150 188 221 269 333
#     4  10  20  37  61  85 110 143 187 232 274 328
#     4  10  20  34  59  84 112 141 180 231 282 326
#     4   8  15  31  56  85 110 136 179 229 276 326
#
# _framework density 20.343762000000002
#
# number of rings (size 3 to 8) (size 9 to 14) (size 15 to 20)
#    0.000    2.400    0.000    3.600    5.600    3.200 
#    0.000    5.000    0.000    0.000    0.000    5.600 
#    0.000    0.000    0.000    0.000    0.000    0.000 
#
# Total GULP energy -111438.355922 kJ/mol
# GULP energy per Si atom -5571.917796 kJ/mol
# Density = 2.029746 g / cm^3
# Si number density = 20.343762 Si / 1000 Ang^3
#
#
#
# Elastic Constant Matrix: (Units=GPa)
#
#
# Indices 1 2 3 4 5 6 
#
# 1 81.0334 12.2202 17.0616 0.0000 0.2235 0.0000
# 2 12.2202 47.6786 9.6787 0.0000 2.0333 0.0000
# 3 17.0616 9.6787 56.9793 0.0000 -15.7918 0.0000
# 4 0.0000 0.0000 0.0000 27.8615 0.0000 -2.9402
# 5 0.2235 2.0333 -15.7918 0.0000 30.8978 0.0000
# 6 0.0000 0.0000 0.0000 -2.9402 0.0000 21.6091
#
#
#
# Elastic Compliance Matrix: (Units=1/GPa)
#
#
# Indices 1 2 3 4 5 6 
#
# 1 0.013620 -0.002544 -0.004226 0.000000 -0.002091 0.000000
# 2 -0.002544 0.022601 -0.004060 0.000000 -0.003544 0.000000
# 3 -0.004226 -0.004060 0.022820 0.000000 0.011961 0.000000
# 4 0.000000 0.000000 0.000000 0.036415 0.000000 0.004955
# 5 -0.002091 -0.003544 0.011961 0.000000 0.038726 0.000000
# 6 0.000000 0.000000 0.000000 0.004955 0.000000 0.046951
#
#
# Mechanical properties :
#
#
# Convention : Reuss Voigt Hill
#
# Bulk Modulus (GPa) = 26.75017 29.29024 28.02020
# Shear Modulus (GPa) = 23.22864 25.85573 24.54218
#
# Velocity S-wave (km/s) = 3.38273 3.56889 3.47706
# Velocity P-wave (km/s) = 5.33243 5.60460 5.47021
#
# Compressibility (1/GPa) = 0.03738294
#
# Stress axis : x y z
#
# Youngs Moduli (GPa) = 73.42319 44.24590 43.82100
#
# Poissons Ratio (x) = 0.11255 0.18517
# Poissons Ratio (y) = 0.18677 0.17789
# Poissons Ratio (z) = 0.31026 0.17962
#
# Static dielectric constant tensor:
#      x y z
#    x 1.732050 0.000000 0.019230 
#    y 0.000000 1.770180 0.000000 
#    z 0.019230 0.000000 1.821190 
# 
# From -- ./inp_files/130334.got.cif
#   From: 2010.05.17/outbox.cif.g08.bks.cpg/sg12_66_cif.got.tgz:130334.got - 2010.06.03 13:09:07.
