data_PCOD9194855
_publ_section_title
;
Structure prediction by ZEFSAII (Michael W. Deem and Ramdas Pophale) SiO2 
 PCOD9194855
Probable space group: C 2/M
;
_chemical_formula_sum "Si O2"
_cell_formula_units_Z 60
_cell_length_a 14.036958
_cell_length_b 14.320212
_cell_length_c 21.548119
_cell_angle_alpha 90.000000
_cell_angle_beta 39.505047
_cell_angle_gamma 90.000000
_cell_volume 2755.425937
_symmetry_space_group_name_H-M "C 2/M"
_symmetry_group_IT_number 12
_symmetry_cell_setting 'monoclinic'
loop_
_space_group_symop_operation_xyz
x,y,z
-x,y,-z
-x,-y,-z
x,-y,z
1/2+x,1/2+y,z
1/2-x,1/2+y,-z
1/2-x,1/2-y,-z
1/2+x,1/2-y,z
loop_
_atom_site_type_symbol
_atom_site_label
_atom_site_fract_x
_atom_site_fract_y
_atom_site_fract_z
Si Si1 0.563062 0.650048 0.678124
Si Si2 0.861385 0.893727 0.221656
Si Si3 0.619986 0.500000 0.541726
Si Si4 0.158530 0.354874 0.606454
Si Si5 0.469741 0.217687 0.911150
Si Si6 0.231708 0.723509 0.870785
Si Si7 0.536711 0.888091 0.412605
Si Si8 0.118095 0.395473 0.167271
O O1 0.617354 0.604159 0.714531
O O2 0.569556 0.581284 0.617248
O O3 0.658258 0.744724 0.618935
O O4 0.393168 0.681807 0.776445
O O5 0.984618 0.823059 0.132213
O O6 0.691183 0.853208 0.304065
O O7 0.869834 0.000000 0.193191
O O8 0.694439 0.416776 0.460114
O O9 0.098471 0.372607 0.566734
O O10 0.027167 0.394491 0.716006
O O11 0.615733 0.189163 0.877577
O O12 0.432607 0.158572 0.869200
O O13 0.335108 0.205109 0.027408
O O14 0.254809 0.835525 0.861968
O O15 0.500000 0.852164 0.500000
O O16 0.557340 0.000000 0.407690
O O17 0.166388 0.500000 0.129687
#
# Coordination Sequence:
#
# PCOD9194855 Si02
#       8
#     8   8   4   8   8   8   8   8
#     4  11  23  40  61  94 132 173 215 275 332 401
#     4  11  21  35  63  99 131 168 218 275 334 398
#     4  12  22  38  63  94 126 173 224 270 331 404
#     4  11  21  39  64  90 131 177 217 265 338 398
#     4  11  23  45  71  98 135 179 230 282 344 419
#     4  10  24  45  69  97 136 179 224 286 348 401
#     4  10  20  34  57  92 132 166 214 272 333 400
#     4  11  22  42  69 101 135 180 226 282 340 412
#
# _framework density 21.775217999999999
#
# number of rings (size 3 to 8) (size 9 to 14) (size 15 to 20)
#    0.000    1.200    4.667    3.200    1.867    2.133 
#    2.400    2.000    0.000    0.800    0.000    0.000 
#    0.000    0.000    0.000    0.000    0.000    0.000 
#
# Total GULP energy -167085.505373 kJ/mol
# GULP energy per Si atom -5569.516846 kJ/mol
# Density = 2.172566 g / cm^3
# Si number density = 21.775218 Si / 1000 Ang^3
#
#
#
# Elastic Constant Matrix: (Units=GPa)
#
#
# Indices 1 2 3 4 5 6 
#
# 1 58.2420 4.1715 16.9680 -0.0001 7.1302 0.0000
# 2 4.1715 103.9720 20.2141 -0.0001 -10.2892 0.0000
# 3 16.9680 20.2141 94.8662 -0.0004 3.7886 0.0002
# 4 -0.0001 -0.0001 -0.0004 6.3338 0.0001 -11.3538
# 5 7.1302 -10.2892 3.7886 0.0001 33.7431 0.0000
# 6 0.0000 0.0000 0.0002 -11.3538 0.0000 -5.3145
#
#
#
# Elastic Compliance Matrix: (Units=1/GPa)
#
#
# Indices 1 2 3 4 5 6 
#
# 1 0.018555 -0.000519 -0.003059 0.000000 -0.003736 0.000000
# 2 -0.000519 0.010431 -0.002271 0.000000 0.003546 0.000000
# 3 -0.003059 -0.002271 0.011626 0.000000 -0.001352 0.000000
# 4 0.000000 0.000000 0.000000 0.032691 0.000000 -0.069840
# 5 -0.003736 0.003546 -0.001352 0.000000 0.031658 0.000000
# 6 0.000000 0.000000 0.000000 -0.069840 0.000000 -0.038961
#
#
# Mechanical properties :
#
#
# Convention : Reuss Voigt Hill
#
# Bulk Modulus (GPa) = 34.58606 37.75416 36.17011
# Shear Modulus (GPa) = 57.24851 21.33425 39.29138
#
# Velocity S-wave (km/s) = 5.13301 3.13349 4.25244
# Velocity P-wave (km/s) = 7.14479 5.51973 6.38418
#
# Compressibility (1/GPa) = 0.02891338
#
# Stress axis : x y z
#
# Youngs Moduli (GPa) = 53.89239 95.86537 86.01213
#
# Poissons Ratio (x) = 0.04980 0.26311
# Poissons Ratio (y) = 0.02799 0.19537
# Poissons Ratio (z) = 0.16486 0.21775
#
# Static dielectric constant tensor:
#      x y z
#    x 1.821240 0.000000 -0.006660 
#    y 0.000000 1.759290 0.000000 
#    z -0.006660 0.000000 1.822750 
# 
# From -- ./inp_files/311006.got.cif
#   From: 2010.05.17/outbox.cif.g08.bks.cpg/sg12_156_cif.got.tgz:311006.got - 2010.06.03 13:09:07.
