data_PCOD9194783
_publ_section_title
;
Structure prediction by ZEFSAII (Michael W. Deem and Ramdas Pophale) SiO2 
 PCOD9194783
Probable space group: C 2/M
;
_chemical_formula_sum "Si O2"
_cell_formula_units_Z 64
_cell_length_a 9.398161
_cell_length_b 25.689952
_cell_length_c 14.946897
_cell_angle_alpha 90.000000
_cell_angle_beta 95.851341
_cell_angle_gamma 90.000000
_cell_volume 3589.950990
_symmetry_space_group_name_H-M "C 2/M"
_symmetry_group_IT_number 12
_symmetry_cell_setting 'monoclinic'
loop_
_space_group_symop_operation_xyz
x,y,z
-x,y,-z
-x,-y,-z
x,-y,z
1/2+x,1/2+y,z
1/2-x,1/2+y,-z
1/2-x,1/2-y,-z
1/2+x,1/2-y,z
loop_
_atom_site_type_symbol
_atom_site_label
_atom_site_fract_x
_atom_site_fract_y
_atom_site_fract_z
Si Si1 0.510952 0.328817 0.193149
Si Si2 0.901909 0.562580 0.411911
Si Si3 0.253041 0.694771 0.049430
Si Si4 0.064026 0.709718 0.214436
Si Si5 0.167677 0.060488 0.525351
Si Si6 0.262723 0.626652 0.295731
Si Si7 0.011598 0.438127 0.224197
Si Si8 0.809279 0.359677 0.134583
O O1 0.406933 0.318384 0.101438
O O2 0.551463 0.270961 0.230070
O O3 0.412053 0.358578 0.258485
O O4 0.654251 0.357941 0.171303
O O5 0.914744 0.500000 0.409048
O O6 0.744202 0.574702 0.436898
O O7 0.952751 0.579682 0.318486
O O8 0.000000 0.581281 0.500000
O O9 0.144912 0.699755 0.125334
O O10 0.250000 0.750000 0.000000
O O11 0.208766 0.654602 0.970252
O O12 0.162612 0.678241 0.290940
O O13 0.908832 0.683825 0.190071
O O14 0.213732 0.097904 0.608780
O O15 0.000000 0.062047 0.500000
O O16 0.209631 0.000000 0.549932
O O17 0.168147 0.587423 0.228395
O O18 0.017489 0.500000 0.219307
O O19 0.898444 0.412511 0.150505
#
# Coordination Sequence:
#
# PCOD9194783 Si02
#       8
#     8   8   8   8   8   8   8   8
#     4  11  21  34  53  85 115 145 181 239 285 328
#     4   9  16  31  57  82 104 137 182 230 278 318
#     4  11  19  33  57  83 116 141 177 236 286 323
#     4  10  20  35  55  82 114 146 182 230 282 336
#     4  10  20  34  57  88 116 140 181 238 283 327
#     4  10  21  35  55  82 115 150 185 226 288 342
#     4  10  21  38  56  81 116 151 190 231 275 343
#     4  11  21  31  55  86 112 146 185 228 286 333
#
# _framework density 17.827542000000001
#
# number of rings (size 3 to 8) (size 9 to 14) (size 15 to 20)
#    0.000    1.750    3.750    1.875    1.750    0.000 
#    0.000    0.625    0.000   18.750    0.000    0.000 
#    0.000    0.000    0.000    0.000    0.000    0.000 
#
# Total GULP energy -178477.424541 kJ/mol
# GULP energy per Si atom -5577.419517 kJ/mol
# Density = 1.778697 g / cm^3
# Si number density = 17.827542 Si / 1000 Ang^3
#
#
#
# Elastic Constant Matrix: (Units=GPa)
#
#
# Indices 1 2 3 4 5 6 
#
# 1 116.4158 31.1016 14.6672 0.0000 -7.1954 0.0000
# 2 31.1016 92.6925 32.6687 0.0000 -1.7611 0.0000
# 3 14.6672 32.6687 59.2343 0.0000 1.5430 0.0000
# 4 0.0000 0.0000 0.0000 34.5996 0.0000 3.6356
# 5 -7.1954 -1.7611 1.5430 0.0000 24.0892 0.0000
# 6 0.0000 0.0000 0.0000 3.6356 0.0000 21.1524
#
#
#
# Elastic Compliance Matrix: (Units=1/GPa)
#
#
# Indices 1 2 3 4 5 6 
#
# 1 0.009636 -0.002874 -0.000872 0.000000 0.002724 0.000000
# 2 -0.002874 0.014300 -0.007192 0.000000 0.000648 0.000000
# 3 -0.000872 -0.007192 0.021120 0.000000 -0.002139 0.000000
# 4 0.000000 0.000000 0.000000 0.029434 0.000000 -0.005059
# 5 0.002724 0.000648 -0.002139 0.000000 0.042510 0.000000
# 6 0.000000 0.000000 0.000000 -0.005059 0.000000 0.048145
#
#
# Mechanical properties :
#
#
# Convention : Reuss Voigt Hill
#
# Bulk Modulus (GPa) = 43.14002 47.24641 45.19321
# Shear Modulus (GPa) = 25.67430 28.62859 27.15144
#
# Velocity S-wave (km/s) = 3.79904 4.01167 3.90680
# Velocity P-wave (km/s) = 6.59505 6.92946 6.76432
#
# Compressibility (1/GPa) = 0.02318033
#
# Stress axis : x y z
#
# Youngs Moduli (GPa) = 103.77789 69.93144 47.34838
#
# Poissons Ratio (x) = 0.20100 0.04128
# Poissons Ratio (y) = 0.29828 0.34052
# Poissons Ratio (z) = 0.09047 0.50293
#
# Static dielectric constant tensor:
#      x y z
#    x 1.654770 0.000000 0.000320 
#    y 0.000000 1.626630 0.000000 
#    z 0.000320 0.000000 1.611130 
# 
# From -- ./inp_files/199868.got.cif
#   From: 2010.05.17/outbox.cif.g08.bks.cpg/sg12_100_cif.got.tgz:199868.got - 2010.06.03 13:09:07.
