data_PCOD9194346
_publ_section_title
;
Structure prediction by ZEFSAII (Michael W. Deem and Ramdas Pophale) SiO2 
 PCOD9194346
Probable space group: C 2/M
;
_chemical_formula_sum "Si O2"
_cell_formula_units_Z 40
_cell_length_a 10.959275
_cell_length_b 23.400914
_cell_length_c 10.303783
_cell_angle_alpha 90.000000
_cell_angle_beta 140.640920
_cell_angle_gamma 90.000000
_cell_volume 1675.802545
_symmetry_space_group_name_H-M "C 2/M"
_symmetry_group_IT_number 12
_symmetry_cell_setting 'monoclinic'
loop_
_space_group_symop_operation_xyz
x,y,z
-x,y,-z
-x,-y,-z
x,-y,z
1/2+x,1/2+y,z
1/2-x,1/2+y,-z
1/2-x,1/2-y,-z
1/2+x,1/2-y,z
loop_
_atom_site_type_symbol
_atom_site_label
_atom_site_fract_x
_atom_site_fract_y
_atom_site_fract_z
Si Si1 0.778288 0.643457 0.304663
Si Si2 0.263767 0.890229 0.803171
Si Si3 0.229480 0.561946 0.920686
Si Si4 0.260094 0.065094 0.520796
Si Si5 0.780845 0.737140 0.869967
O O1 0.699407 0.612111 0.112798
O O2 0.696684 0.614090 0.366947
O O3 0.783600 0.710018 0.272925
O O4 0.000000 0.626659 0.500000
O O5 0.200796 0.916337 0.615650
O O6 0.195591 0.825148 0.769505
O O7 0.500000 0.889310 0.000000
O O8 0.209319 0.928077 0.881784
O O9 0.288251 0.500000 0.919693
O O10 0.995352 0.563931 0.723898
O O11 0.204215 0.000000 0.439974
O O12 0.750000 0.750000 0.000000
O O13 0.000000 0.732372 0.000000
#
# Coordination Sequence:
#
# PCOD9194346 Si02
#       5
#     8   8   8   8   8
#     4  10  20  34  55  86 119 149 194 245 296 344
#     4   9  17  30  51  78 114 148 192 239 287 340
#     4   9  15  27  50  78 111 151 190 238 291 343
#     4   9  17  29  49  83 117 147 189 248 297 339
#     4  11  23  41  62  86 120 159 200 243 290 353
#
# _framework density 23.869159
#
# number of rings (size 3 to 8) (size 9 to 14) (size 15 to 20)
#    0.000    2.400    2.000    1.200    2.800    5.600 
#    0.000    0.000    0.000    2.400    0.000    1.400 
#    0.000    0.000    0.000    0.000    0.000    0.000 
#
# Total GULP energy -111655.024932 kJ/mol
# GULP energy per Si atom -5582.751247 kJ/mol
# Density = 2.381483 g / cm^3
# Si number density = 23.869159 Si / 1000 Ang^3
#
#
#
# Elastic Constant Matrix: (Units=GPa)
#
#
# Indices 1 2 3 4 5 6 
#
# 1 92.1486 9.1280 25.1949 0.0000 -0.4744 0.0000
# 2 9.1280 117.0259 27.0744 0.0000 -15.0479 0.0000
# 3 25.1949 27.0744 102.0082 0.0000 -22.7353 0.0000
# 4 0.0000 0.0000 0.0000 13.0196 0.0000 19.0752
# 5 -0.4744 -15.0479 -22.7353 0.0000 27.1649 0.0000
# 6 0.0000 0.0000 0.0000 19.0752 0.0000 -14.5449
#
#
#
# Elastic Compliance Matrix: (Units=1/GPa)
#
#
# Indices 1 2 3 4 5 6 
#
# 1 0.011829 -0.000506 -0.003447 0.000000 -0.002958 0.000000
# 2 -0.000506 0.009441 -0.001496 0.000000 0.003969 0.000000
# 3 -0.003447 -0.001496 0.013342 0.000000 0.010278 0.000000
# 4 0.000000 0.000000 0.000000 0.026291 0.000000 0.034480
# 5 -0.002958 0.003969 0.010278 0.000000 0.047561 0.000000
# 6 0.000000 0.000000 0.000000 0.034480 0.000000 -0.023534
#
#
# Mechanical properties :
#
#
# Convention : Reuss Voigt Hill
#
# Bulk Modulus (GPa) = 42.16763 48.21972 45.19367
# Shear Modulus (GPa) = 48.20060 21.78026 34.99043
#
# Velocity S-wave (km/s) = 4.49861 3.02401 3.83290
# Velocity P-wave (km/s) = 6.68490 5.69547 6.20992
#
# Compressibility (1/GPa) = 0.02371487
#
# Stress axis : x y z
#
# Youngs Moduli (GPa) = 84.53576 105.92037 74.94990
#
# Poissons Ratio (x) = 0.05356 0.25834
# Poissons Ratio (y) = 0.04274 0.11215
# Poissons Ratio (z) = 0.29138 0.15850
#
# Static dielectric constant tensor:
#      x y z
#    x 2.065950 0.000000 0.134340 
#    y 0.000000 1.891920 0.000000 
#    z 0.134340 0.000000 1.959830 
# 
# From -- ./inp_files/49903.got.cif
#   From: 2010.05.17/outbox.cif.g08.bks.cpg/sg12_25_cif.got.tgz:49903.got - 2010.06.03 13:09:07.
