data_PCOD9194083
_publ_section_title
;
Structure prediction by ZEFSAII (Michael W. Deem and Ramdas Pophale) SiO2 
 PCOD9194083
Probable space group: C 2/M
;
_chemical_formula_sum "Si O2"
_cell_formula_units_Z 48
_cell_length_a 14.500888
_cell_length_b 9.328114
_cell_length_c 16.561522
_cell_angle_alpha 90.000000
_cell_angle_beta 76.434727
_cell_angle_gamma 90.000000
_cell_volume 2177.715414
_symmetry_space_group_name_H-M "C 2/M"
_symmetry_group_IT_number 12
_symmetry_cell_setting 'monoclinic'
loop_
_space_group_symop_operation_xyz
x,y,z
-x,y,-z
-x,-y,-z
x,-y,z
1/2+x,1/2+y,z
1/2-x,1/2+y,-z
1/2-x,1/2-y,-z
1/2+x,1/2-y,z
loop_
_atom_site_type_symbol
_atom_site_label
_atom_site_fract_x
_atom_site_fract_y
_atom_site_fract_z
Si Si1 0.664669 0.666211 0.559603
Si Si2 0.514006 0.832305 0.366415
Si Si3 0.906172 0.166968 0.062562
Si Si4 0.484460 0.335359 0.798606
Si Si5 0.272817 0.836080 0.699552
Si Si6 0.771540 0.832712 0.864508
O O1 0.663102 0.500000 0.535495
O O2 0.750000 0.750000 0.500000
O O3 0.563445 0.741132 0.570019
O O4 0.691765 0.672488 0.649355
O O5 0.508496 0.777015 0.274907
O O6 0.624903 0.813545 0.364531
O O7 0.490837 0.000000 0.377801
O O8 0.807801 0.246746 0.070790
O O9 0.933969 0.173506 0.151714
O O10 0.896405 0.000000 0.041445
O O11 0.000000 0.226335 0.000000
O O12 0.482892 0.500000 0.766580
O O13 0.382335 0.313223 0.863057
O O14 0.265833 0.724901 0.773493
O O15 0.274440 0.000000 0.732072
O O16 0.749836 0.000000 0.872757
#
# Coordination Sequence:
#
# PCOD9194083 Si02
#       6
#     8   8   8   8   8   8
#     4  11  23  38  55  78 109 143 175 212 260 311
#     4  10  20  36  58  82 105 135 177 219 259 308
#     4  10  21  36  53  74 105 145 180 210 256 319
#     4   9  19  36  55  77 106 138 173 216 265 311
#     4   9  20  38  58  78 105 141 176 211 258 316
#     4  10  20  34  55  81 106 133 172 223 267 303
#
# _framework density 22.041446000000001
#
# number of rings (size 3 to 8) (size 9 to 14) (size 15 to 20)
#    0.000    2.167    0.000    2.500    0.000    9.000 
#    0.000    3.333    0.000    0.000    0.000    0.000 
#    0.000    0.000    0.000    0.000    0.000    0.000 
#
# Total GULP energy -134185.947925 kJ/mol
# GULP energy per Si atom -5591.081164 kJ/mol
# Density = 2.199128 g / cm^3
# Si number density = 22.041446 Si / 1000 Ang^3
#
#
#
# Elastic Constant Matrix: (Units=GPa)
#
#
# Indices 1 2 3 4 5 6 
#
# 1 119.5047 61.1275 15.5231 0.0000 -28.0039 0.0000
# 2 61.1275 97.8703 21.4605 0.0000 -28.0606 0.0000
# 3 15.5231 21.4605 47.5239 0.0000 -19.2046 0.0000
# 4 0.0000 0.0000 0.0000 30.1618 0.0000 -16.0545
# 5 -28.0039 -28.0606 -19.2046 0.0000 45.0992 0.0000
# 6 0.0000 0.0000 0.0000 -16.0545 0.0000 29.2419
#
#
#
# Elastic Compliance Matrix: (Units=1/GPa)
#
#
# Indices 1 2 3 4 5 6 
#
# 1 0.012772 -0.007004 0.000525 0.000000 0.003796 0.000000
# 2 -0.007004 0.016643 -0.003383 0.000000 0.004566 0.000000
# 3 0.000525 -0.003383 0.026185 0.000000 0.009372 0.000000
# 4 0.000000 0.000000 0.000000 0.046844 0.000000 0.025719
# 5 0.003796 0.004566 0.009372 0.000000 0.031362 0.000000
# 6 0.000000 0.000000 0.000000 0.025719 0.000000 0.048318
#
#
# Mechanical properties :
#
#
# Convention : Reuss Voigt Hill
#
# Bulk Modulus (GPa) = 27.87282 51.23565 39.55424
# Shear Modulus (GPa) = 23.38581 32.01977 27.70279
#
# Velocity S-wave (km/s) = 3.26082 3.81557 3.54905
# Velocity P-wave (km/s) = 5.18173 6.53507 5.89735
#
# Compressibility (1/GPa) = 0.03587725
#
# Stress axis : x y z
#
# Youngs Moduli (GPa) = 78.29836 60.08659 38.18943
#
# Poissons Ratio (x) = 0.42082 -0.02005
# Poissons Ratio (y) = 0.54836 0.12918
# Poissons Ratio (z) = -0.04111 0.20326
#
# Static dielectric constant tensor:
#      x y z
#    x 1.805860 0.000000 -0.021560 
#    y 0.000000 1.741570 0.000000 
#    z -0.021560 0.000000 1.863300 
# 
# From -- ./inp_files/308269.got.cif
#   From: 2010.05.17/outbox.cif.g08.bks.cpg/sg12_155_cif.got.tgz:308269.got - 2010.06.03 13:09:07.
