data_PCOD9194653
_publ_section_title
;
Structure prediction by ZEFSAII (Michael W. Deem and Ramdas Pophale) SiO2 
 PCOD9194653
Probable space group: C 2/M
;
_chemical_formula_sum "Si O2"
_cell_formula_units_Z 42
_cell_length_a 12.793533
_cell_length_b 13.845876
_cell_length_c 9.525118
_cell_angle_alpha 90.000000
_cell_angle_beta 81.420503
_cell_angle_gamma 90.000000
_cell_volume 1668.376525
_symmetry_space_group_name_H-M "C 2/M"
_symmetry_group_IT_number 12
_symmetry_cell_setting 'monoclinic'
loop_
_space_group_symop_operation_xyz
x,y,z
-x,y,-z
-x,-y,-z
x,-y,z
1/2+x,1/2+y,z
1/2-x,1/2+y,-z
1/2-x,1/2-y,-z
1/2+x,1/2-y,z
loop_
_atom_site_type_symbol
_atom_site_label
_atom_site_fract_x
_atom_site_fract_y
_atom_site_fract_z
Si Si1 0.637115 0.316960 0.387785
Si Si2 0.791976 0.642143 0.978086
Si Si3 0.500000 0.500000 0.500000
Si Si4 0.139234 0.609334 0.740897
Si Si5 0.934593 0.106260 0.882713
Si Si6 0.906154 0.609292 0.662197
O O1 0.591916 0.410389 0.480580
O O2 0.761408 0.327768 0.329840
O O3 0.573574 0.329467 0.252467
O O4 0.619142 0.204074 0.425826
O O5 0.835556 0.617284 0.817464
O O6 0.750000 0.750000 0.000000
O O7 0.872447 0.624673 0.089034
O O8 0.682867 0.591356 0.038633
O O9 0.177413 0.500000 0.715089
O O10 0.026741 0.617368 0.690196
O O11 0.978695 0.000000 0.830788
O O12 0.000000 0.145654 0.000000
O O13 0.890267 0.500000 0.606670
#
# Coordination Sequence:
#
# PCOD9194653 Si02
#       6
#     8   8   2   8   8   8
#     4  11  22  41  68  95 125 170 222 271 323 385
#     4  11  19  31  54  90 135 182 207 241 308 398
#     4  12  24  48  76  92 114 174 232 280 332 378
#     4  10  20  38  61  89 134 172 218 262 313 385
#     4  10  20  34  56  92 137 158 200 265 321 370
#     4  11  23  37  61  95 136 171 212 263 327 397
#
# _framework density 25.174175999999999
#
# number of rings (size 3 to 8) (size 9 to 14) (size 15 to 20)
#    0.000    1.333    5.714    3.429    2.667    1.524 
#    0.000    1.429    2.095    0.000    0.000    0.000 
#    0.000    0.000    0.000    0.000    0.000    0.000 
#
# Total GULP energy -117086.882688 kJ/mol
# GULP energy per Si atom -5575.565842 kJ/mol
# Density = 2.511688 g / cm^3
# Si number density = 25.174176 Si / 1000 Ang^3
#
#
#
# Elastic Constant Matrix: (Units=GPa)
#
#
# Indices 1 2 3 4 5 6 
#
# 1 56.6736 42.9489 11.6577 0.0000 -0.2529 0.0000
# 2 42.9489 216.5610 33.9797 0.0000 -0.0144 0.0000
# 3 11.6577 33.9797 86.9386 0.0000 -4.4934 0.0000
# 4 0.0000 0.0000 0.0000 24.2224 0.0000 -11.0424
# 5 -0.2529 -0.0144 -4.4934 0.0000 48.4696 0.0000
# 6 0.0000 0.0000 0.0000 -11.0424 0.0000 31.8519
#
#
#
# Elastic Compliance Matrix: (Units=1/GPa)
#
#
# Indices 1 2 3 4 5 6 
#
# 1 0.020895 -0.003946 -0.001260 0.000000 -0.000009 0.000000
# 2 -0.003946 0.005666 -0.001695 0.000000 -0.000176 0.000000
# 3 -0.001260 -0.001695 0.012393 0.000000 0.001142 0.000000
# 4 0.000000 0.000000 0.000000 0.049033 0.000000 0.016999
# 5 -0.000009 -0.000176 0.001142 0.000000 0.020737 0.000000
# 6 0.000000 0.000000 0.000000 0.016999 0.000000 0.037288
#
#
# Mechanical properties :
#
#
# Convention : Reuss Voigt Hill
#
# Bulk Modulus (GPa) = 39.75813 59.70509 49.73161
# Shear Modulus (GPa) = 29.72695 39.01458 34.37076
#
# Velocity S-wave (km/s) = 3.44008 3.94100 3.69903
# Velocity P-wave (km/s) = 5.62195 6.66910 6.16779
#
# Compressibility (1/GPa) = 0.02515209
#
# Stress axis : x y z
#
# Youngs Moduli (GPa) = 47.85937 176.48749 80.69313
#
# Poissons Ratio (x) = 0.69645 0.10167
# Poissons Ratio (y) = 0.18886 0.13674
# Poissons Ratio (z) = 0.06030 0.29906
#
# Static dielectric constant tensor:
#      x y z
#    x 1.959470 0.000000 0.016720 
#    y 0.000000 1.632160 0.000000 
#    z 0.016720 0.000000 2.063100 
# 
# From -- ./inp_files/129687.got.cif
#   From: 2010.05.17/outbox.cif.g08.bks.cpg/sg12_65_cif.got.tgz:129687.got - 2010.06.03 13:09:07.
