data_PCOD9194169
_publ_section_title
;
Structure prediction by ZEFSAII (Michael W. Deem and Ramdas Pophale) SiO2 
 PCOD9194169
Probable space group: C 2/M
;
_chemical_formula_sum "Si O2"
_cell_formula_units_Z 64
_cell_length_a 18.120925
_cell_length_b 14.253915
_cell_length_c 14.845771
_cell_angle_alpha 90.000000
_cell_angle_beta 125.819498
_cell_angle_gamma 90.000000
_cell_volume 3109.321884
_symmetry_space_group_name_H-M "C 2/M"
_symmetry_group_IT_number 12
_symmetry_cell_setting 'monoclinic'
loop_
_space_group_symop_operation_xyz
x,y,z
-x,y,-z
-x,-y,-z
x,-y,z
1/2+x,1/2+y,z
1/2-x,1/2+y,-z
1/2-x,1/2-y,-z
1/2+x,1/2-y,z
loop_
_atom_site_type_symbol
_atom_site_label
_atom_site_fract_x
_atom_site_fract_y
_atom_site_fract_z
Si Si1 0.803853 0.101062 0.710641
Si Si2 0.791428 0.389223 0.901162
Si Si3 0.001551 0.614693 0.396477
Si Si4 0.844293 0.695250 0.751800
Si Si5 0.806060 0.391526 0.549285
Si Si6 0.466486 0.781974 0.079820
Si Si7 0.349430 0.387686 0.047932
Si Si8 0.314085 0.892825 0.199071
O O1 0.858257 0.193631 0.770965
O O2 0.765971 0.109018 0.582762
O O3 0.720721 0.102788 0.722418
O O4 0.849987 0.000000 0.755756
O O5 0.805534 0.500000 0.902611
O O6 0.796522 0.343902 0.806232
O O7 0.698692 0.374573 0.889896
O O8 0.875986 0.345204 0.015717
O O9 0.995907 0.500000 0.392521
O O10 0.914105 0.650768 0.277970
O O11 0.000000 0.643883 0.500000
O O12 0.097897 0.640554 0.423330
O O13 0.786872 0.669685 0.623095
O O14 0.948699 0.662799 0.815479
O O15 0.815460 0.500000 0.585436
O O16 0.433853 0.681559 0.094454
O O17 0.500000 0.771579 0.000000
O O18 0.367715 0.500000 0.047640
O O19 0.270453 0.356160 0.919840
O O20 0.324646 0.000000 0.172887
#
# Coordination Sequence:
#
# PCOD9194169 Si02
#       8
#     8   8   8   8   8   8   8   8
#     4  10  20  36  56  79 109 144 181 227 278 330
#     4  10  22  40  58  79 113 153 192 232 274 330
#     4   9  15  27  47  76 110 136 168 217 277 337
#     4  11  23  37  55  83 111 151 190 227 276 333
#     4  10  20  34  55  82 113 143 177 225 280 339
#     4  10  22  37  54  81 115 149 190 239 279 327
#     4  10  21  37  59  84 113 153 192 230 277 328
#     4   9  16  28  51  79 105 137 173 215 274 328
#
# _framework density 20.583266999999999
#
# number of rings (size 3 to 8) (size 9 to 14) (size 15 to 20)
#    0.000    2.125    1.250    2.625    1.750    3.500 
#    0.000    0.000    0.000    0.000    0.000    0.000 
#    0.000    6.500    0.000    0.000    0.000    0.000 
#
# Total GULP energy -178546.818250 kJ/mol
# GULP energy per Si atom -5579.588070 kJ/mol
# Density = 2.053642 g / cm^3
# Si number density = 20.583267 Si / 1000 Ang^3
#
#
#
# Elastic Constant Matrix: (Units=GPa)
#
#
# Indices 1 2 3 4 5 6 
#
# 1 52.6390 20.5281 7.7585 0.0000 -7.9511 0.0000
# 2 20.5281 75.9894 9.2679 0.0000 -12.4676 0.0000
# 3 7.7585 9.2679 49.9898 0.0000 -14.3228 0.0000
# 4 0.0000 0.0000 0.0000 20.0868 0.0000 -2.3921
# 5 -7.9511 -12.4676 -14.3228 0.0000 24.9423 0.0000
# 6 0.0000 0.0000 0.0000 -2.3921 0.0000 20.4273
#
#
#
# Elastic Compliance Matrix: (Units=1/GPa)
#
#
# Indices 1 2 3 4 5 6 
#
# 1 0.021738 -0.005116 -0.001403 0.000000 0.003566 0.000000
# 2 -0.005116 0.015561 -0.000395 0.000000 0.005921 0.000000
# 3 -0.001403 -0.000395 0.024071 0.000000 0.013178 0.000000
# 4 0.000000 0.000000 0.000000 0.050488 0.000000 0.005912
# 5 0.003566 0.005921 0.013178 0.000000 0.051756 0.000000
# 6 0.000000 0.000000 0.000000 0.005912 0.000000 0.049646
#
#
# Mechanical properties :
#
#
# Convention : Reuss Voigt Hill
#
# Bulk Modulus (GPa) = 21.03405 28.19190 24.61297
# Shear Modulus (GPa) = 20.58153 22.49553 21.53853
#
# Velocity S-wave (km/s) = 3.16558 3.30950 3.23834
# Velocity P-wave (km/s) = 4.85822 5.32259 5.09570
#
# Compressibility (1/GPa) = 0.04754196
#
# Stress axis : x y z
#
# Youngs Moduli (GPa) = 46.00232 64.26165 41.54433
#
# Poissons Ratio (x) = 0.32877 0.05831
# Poissons Ratio (y) = 0.23535 0.01639
# Poissons Ratio (z) = 0.06456 0.02535
#
# Static dielectric constant tensor:
#      x y z
#    x 1.731290 0.000000 0.008120 
#    y 0.000000 1.761960 0.000000 
#    z 0.008120 0.000000 1.779790 
# 
# From -- ./inp_files/225345.got.cif
#   From: 2010.05.17/outbox.cif.g08.bks.cpg/sg12_113_cif.got.tgz:225345.got - 2010.06.03 13:09:07.
