data_PCOD9194561
_publ_section_title
;
Structure prediction by ZEFSAII (Michael W. Deem and Ramdas Pophale) SiO2 
 PCOD9194561
Probable space group: C 2/M
;
_chemical_formula_sum "Si O2"
_cell_formula_units_Z 56
_cell_length_a 9.623701
_cell_length_b 17.407540
_cell_length_c 27.700528
_cell_angle_alpha 90.000000
_cell_angle_beta 141.639905
_cell_angle_gamma 90.000000
_cell_volume 2879.921213
_symmetry_space_group_name_H-M "C 2/M"
_symmetry_group_IT_number 12
_symmetry_cell_setting 'monoclinic'
loop_
_space_group_symop_operation_xyz
x,y,z
-x,y,-z
-x,-y,-z
x,-y,z
1/2+x,1/2+y,z
1/2-x,1/2+y,-z
1/2-x,1/2-y,-z
1/2+x,1/2-y,z
loop_
_atom_site_type_symbol
_atom_site_label
_atom_site_fract_x
_atom_site_fract_y
_atom_site_fract_z
Si Si1 0.023008 0.907837 0.737985
Si Si2 0.740001 0.406513 0.427515
Si Si3 0.015278 0.323214 0.139652
Si Si4 0.705701 0.406337 0.524297
Si Si5 0.249315 0.167235 0.168857
Si Si6 0.860569 0.085164 0.011840
Si Si7 0.638980 0.092976 0.704145
O O1 0.277473 0.881894 0.804460
O O2 0.893767 0.878188 0.655128
O O3 0.876083 0.883942 0.744420
O O4 0.014253 0.000000 0.735125
O O5 0.730417 0.500000 0.422731
O O6 0.656445 0.380531 0.456683
O O7 0.000000 0.385952 0.500000
O O8 0.895447 0.320699 0.159779
O O9 0.128088 0.244329 0.153655
O O10 0.832318 0.353251 0.051219
O O11 0.500000 0.380154 0.500000
O O12 0.708694 0.500000 0.523967
O O13 0.941742 0.385203 0.612930
O O14 0.387099 0.131919 0.250962
O O15 0.044699 0.109798 0.100755
O O16 0.769053 0.000000 0.996937
O O17 0.000000 0.081633 0.000000
O O18 0.633016 0.000000 0.707692
#
# Coordination Sequence:
#
# PCOD9194561 Si02
#       7
#     8   8   8   8   8   8   8
#     4  10  20  34  56  85 117 150 192 241 287 340
#     4   9  15  28  49  76 110 149 186 230 290 338
#     4  11  23  39  60  84 115 155 193 230 279 341
#     4   9  17  28  47  78 114 147 186 237 286 337
#     4  11  23  39  60  83 116 156 191 231 281 339
#     4   9  19  38  63  91 117 142 182 233 282 334
#     4  10  20  35  55  84 119 151 189 241 291 335
#
# _framework density 19.444976
#
# number of rings (size 3 to 8) (size 9 to 14) (size 15 to 20)
#    0.000    2.143    1.429    2.143    2.000    1.714 
#    0.000    2.143    0.000    6.857    0.000    0.000 
#    0.000    0.000    0.000    0.000    0.000    0.000 
#
# Total GULP energy -156117.020236 kJ/mol
# GULP energy per Si atom -5575.607866 kJ/mol
# Density = 1.940072 g / cm^3
# Si number density = 19.444976 Si / 1000 Ang^3
#
#
#
# Elastic Constant Matrix: (Units=GPa)
#
#
# Indices 1 2 3 4 5 6 
#
# 1 93.9936 9.5373 -1.4560 -0.0001 4.8704 0.0000
# 2 9.5373 31.9051 -5.2942 -0.0002 -0.7464 -0.0001
# 3 -1.4560 -5.2942 41.9797 -0.0010 2.8655 -0.0002
# 4 -0.0001 -0.0002 -0.0010 -8.4216 -0.0002 0.6759
# 5 4.8704 -0.7464 2.8655 -0.0002 29.8324 0.0000
# 6 0.0000 -0.0001 -0.0002 0.6759 0.0000 14.5875
#
#
#
# Elastic Compliance Matrix: (Units=1/GPa)
#
#
# Indices 1 2 3 4 5 6 
#
# 1 0.011078 -0.003341 0.000093 0.000000 -0.001901 0.000000
# 2 -0.003341 0.033025 0.003982 -0.000001 0.000989 0.000000
# 3 0.000093 0.003982 0.024481 -0.000003 -0.002267 0.000000
# 4 0.000000 -0.000001 -0.000003 -0.118302 -0.000001 0.005482
# 5 -0.001901 0.000989 -0.002267 -0.000001 0.034073 0.000000
# 6 0.000000 0.000000 0.000000 0.005482 0.000000 0.068298
#
#
# Mechanical properties :
#
#
# Convention : Reuss Voigt Hill
#
# Bulk Modulus (GPa) = 14.27515 19.27249 16.77382
# Shear Modulus (GPa) = 67.08095 18.20575 42.64335
#
# Velocity S-wave (km/s) = 5.87986 3.06317 4.68806
# Velocity P-wave (km/s) = 7.31124 4.73746 6.16026
#
# Compressibility (1/GPa) = 0.07005178
#
# Stress axis : x y z
#
# Youngs Moduli (GPa) = 90.26959 30.27978 40.84776
#
# Poissons Ratio (x) = 0.10115 -0.00379
# Poissons Ratio (y) = 0.30155 -0.16264
# Poissons Ratio (z) = -0.00837 -0.12056
#
# Static dielectric constant tensor:
#      x y z
#    x 1.782430 0.000000 -0.050040 
#    y 0.000000 1.699830 0.000000 
#    z -0.050040 0.000000 1.689690 
# 
# From -- ./inp_files/257219.got.cif
#   From: 2010.05.17/outbox.cif.g08.bks.cpg/sg12_129_cif.got.tgz:257219.got - 2010.06.03 13:09:07.
