data_PCOD9194508
_publ_section_title
;
Structure prediction by ZEFSAII (Michael W. Deem and Ramdas Pophale) SiO2 
 PCOD9194508
Probable space group: C 2/M
;
_chemical_formula_sum "Si O2"
_cell_formula_units_Z 48
_cell_length_a 21.694623
_cell_length_b 9.204552
_cell_length_c 20.709059
_cell_angle_alpha 90.000000
_cell_angle_beta 36.947765
_cell_angle_gamma 90.000000
_cell_volume 2485.720145
_symmetry_space_group_name_H-M "C 2/M"
_symmetry_group_IT_number 12
_symmetry_cell_setting 'monoclinic'
loop_
_space_group_symop_operation_xyz
x,y,z
-x,y,-z
-x,-y,-z
x,-y,z
1/2+x,1/2+y,z
1/2-x,1/2+y,-z
1/2-x,1/2-y,-z
1/2+x,1/2-y,z
loop_
_atom_site_type_symbol
_atom_site_label
_atom_site_fract_x
_atom_site_fract_y
_atom_site_fract_z
Si Si1 0.728721 0.173995 0.709277
Si Si2 0.355968 0.674321 0.934495
Si Si3 0.801969 0.838758 0.511177
Si Si4 0.457984 0.337677 0.712922
Si Si5 0.508086 0.825807 0.069678
Si Si6 0.092274 0.672992 0.372662
O O1 0.779096 0.223427 0.600144
O O2 0.607805 0.202867 0.808939
O O3 0.798157 0.256917 0.702233
O O4 0.742130 0.000000 0.707111
O O5 0.342307 0.500000 0.955223
O O6 0.428758 0.696655 0.810870
O O7 0.409437 0.744274 0.953534
O O8 0.250000 0.750000 0.000000
O O9 0.750000 0.750000 0.500000
O O10 0.920760 0.846406 0.396624
O O11 0.756875 0.000000 0.549860
O O12 0.414723 0.500000 0.734545
O O13 0.426886 0.224067 0.684365
O O14 0.528494 0.000000 0.056071
O O15 0.500000 0.787060 0.000000
O O16 0.096497 0.500000 0.373919
O O17 0.000000 0.722277 0.500000
#
# Coordination Sequence:
#
# PCOD9194508 Si02
#       6
#     8   8   8   8   8   8
#     4  10  21  38  61  86 120 165 203 246 307 371
#     4  11  25  44  67  94 126 166 211 262 318 375
#     4  10  20  34  56  84 113 151 197 243 299 365
#     4  10  22  40  61  85 120 163 204 249 307 372
#     4  10  23  43  66  94 127 164 210 261 315 378
#     4  11  23  37  58  93 128 161 202 253 308 362
#
# _framework density 19.310300000000002
#
# number of rings (size 3 to 8) (size 9 to 14) (size 15 to 20)
#    0.000    1.667    1.667    2.000    2.333    4.333 
#    0.000    0.000    0.000    0.000    0.000    0.000 
#    0.000    0.000    0.000    0.000    0.000    0.000 
#
# Total GULP energy -133826.705707 kJ/mol
# GULP energy per Si atom -5576.112738 kJ/mol
# Density = 1.926635 g / cm^3
# Si number density = 19.310300 Si / 1000 Ang^3
#
#
#
# Elastic Constant Matrix: (Units=GPa)
#
#
# Indices 1 2 3 4 5 6 
#
# 1 157.3292 74.1801 42.1389 0.0000 -3.0839 0.0000
# 2 74.1801 67.0916 25.7620 0.0001 -4.6447 -0.0001
# 3 42.1389 25.7620 89.7400 0.0000 6.9532 0.0000
# 4 0.0000 0.0001 0.0000 22.4172 0.0000 1.4931
# 5 -3.0839 -4.6447 6.9532 0.0000 28.6635 0.0000
# 6 0.0000 -0.0001 0.0000 1.4931 0.0000 43.5827
#
#
#
# Elastic Compliance Matrix: (Units=1/GPa)
#
#
# Indices 1 2 3 4 5 6 
#
# 1 0.013705 -0.014284 -0.002313 0.000000 -0.000279 0.000000
# 2 -0.014284 0.032091 -0.002842 0.000000 0.004353 0.000000
# 3 -0.002313 -0.002842 0.013351 0.000000 -0.003948 0.000000
# 4 0.000000 0.000000 0.000000 0.044711 0.000000 -0.001532
# 5 -0.000279 0.004353 -0.003948 0.000000 0.036521 0.000000
# 6 0.000000 0.000000 0.000000 -0.001532 0.000000 0.022997
#
#
# Mechanical properties :
#
#
# Convention : Reuss Voigt Hill
#
# Bulk Modulus (GPa) = 49.33883 66.48031 57.90957
# Shear Modulus (GPa) = 23.92204 30.40466 27.16335
#
# Velocity S-wave (km/s) = 3.52351 3.97234 3.75464
# Velocity P-wave (km/s) = 6.49303 7.45261 6.98931
#
# Compressibility (1/GPa) = 0.02026801
#
# Stress axis : x y z
#
# Youngs Moduli (GPa) = 72.96511 31.16121 74.89842
#
# Poissons Ratio (x) = 0.44511 0.17326
# Poissons Ratio (y) = 1.04225 0.21289
# Poissons Ratio (z) = 0.16879 0.08857
#
# Static dielectric constant tensor:
#      x y z
#    x 1.723030 0.000000 0.037410 
#    y 0.000000 1.683960 0.000000 
#    z 0.037410 0.000000 1.740760 
# 
# From -- ./inp_files/319564.got.cif
#   From: 2010.05.17/outbox.cif.g08.bks.cpg/sg12_160_cif.got.tgz:319564.got - 2010.06.03 13:09:07.
