data_PCOD9194025
_publ_section_title
;
Structure prediction by ZEFSAII (Michael W. Deem and Ramdas Pophale) SiO2 
 PCOD9194025
Probable space group: C 2/M
;
_chemical_formula_sum "Si O2"
_cell_formula_units_Z 48
_cell_length_a 8.379695
_cell_length_b 13.582617
_cell_length_c 22.564787
_cell_angle_alpha 90.000000
_cell_angle_beta 133.834355
_cell_angle_gamma 90.000000
_cell_volume 1852.618434
_symmetry_space_group_name_H-M "C 2/M"
_symmetry_group_IT_number 12
_symmetry_cell_setting 'monoclinic'
loop_
_space_group_symop_operation_xyz
x,y,z
-x,y,-z
-x,-y,-z
x,-y,z
1/2+x,1/2+y,z
1/2-x,1/2+y,-z
1/2-x,1/2-y,-z
1/2+x,1/2-y,z
loop_
_atom_site_type_symbol
_atom_site_label
_atom_site_fract_x
_atom_site_fract_y
_atom_site_fract_z
Si Si1 0.439279 0.861565 0.419623
Si Si2 0.364713 0.116537 0.189956
Si Si3 0.747458 0.115604 0.961342
Si Si4 0.553924 0.610980 0.731122
Si Si5 0.891298 0.880078 0.121321
Si Si6 0.138678 0.697176 0.360151
O O1 0.500000 0.900094 0.500000
O O2 0.213696 0.901684 0.332629
O O3 0.371901 0.748573 0.413730
O O4 0.619154 0.863877 0.415028
O O5 0.387667 0.158257 0.129125
O O6 0.139481 0.147113 0.165012
O O7 0.566944 0.137631 0.284453
O O8 0.340167 0.000000 0.176213
O O9 0.686248 0.000000 0.951836
O O10 0.000000 0.118107 0.000000
O O11 0.740755 0.154602 0.026994
O O12 0.637930 0.500000 0.736601
O O13 0.647674 0.641930 0.819685
O O14 0.537321 0.709115 0.686274
O O15 0.880717 0.000000 0.117533
#
# Coordination Sequence:
#
# PCOD9194025 Si02
#       6
#     8   8   8   8   8   8
#     4  10  21  36  57  74 101 133 171 214 266 308
#     4   9  14  25  45  74 104 134 171 209 249 296
#     4   7  11  18  37  67 101 132 163 208 252 283
#     4   9  19  32  53  76 102 134 171 210 253 304
#     4   8  12  24  44  70 100 133 171 210 249 289
#     4  10  20  34  55  78 104 134 170 213 261 305
#
# _framework density 25.909275000000001
#
# number of rings (size 3 to 8) (size 9 to 14) (size 15 to 20)
#    1.000    2.167    1.667    2.500    0.000    0.333 
#    0.000    1.667    0.000    1.000    0.000    0.000 
#    0.000   11.333    0.000    0.000    0.000    0.000 
#
# Total GULP energy -133762.275972 kJ/mol
# GULP energy per Si atom -5573.428165 kJ/mol
# Density = 2.585030 g / cm^3
# Si number density = 25.909275 Si / 1000 Ang^3
#
#
#
# Elastic Constant Matrix: (Units=GPa)
#
#
# Indices 1 2 3 4 5 6 
#
# 1 58.8018 2.1617 16.7827 0.0000 -17.4252 0.0000
# 2 2.1617 66.3838 14.9362 0.0000 -12.2190 0.0000
# 3 16.7827 14.9362 140.6242 0.0000 -47.7463 0.0000
# 4 0.0000 0.0000 0.0000 136.0510 0.0000 -5.0749
# 5 -17.4252 -12.2190 -47.7463 0.0000 30.8368 0.0000
# 6 0.0000 0.0000 0.0000 -5.0749 0.0000 8.9744
#
#
#
# Elastic Compliance Matrix: (Units=1/GPa)
#
#
# Indices 1 2 3 4 5 6 
#
# 1 0.021309 0.001860 0.003369 0.000000 0.017995 0.000000
# 2 0.001860 0.016475 0.001268 0.000000 0.009543 0.000000
# 3 0.003369 0.001268 0.015584 0.000000 0.026537 0.000000
# 4 0.000000 0.000000 0.000000 0.007509 0.000000 0.004246
# 5 0.017995 0.009543 0.026537 0.000000 0.087467 0.000000
# 6 0.000000 0.000000 0.000000 0.004246 0.000000 0.113829
#
#
# Mechanical properties :
#
#
# Convention : Reuss Voigt Hill
#
# Bulk Modulus (GPa) = 15.06851 37.06343 26.06597
# Shear Modulus (GPa) = 18.42998 50.63440 34.53219
#
# Velocity S-wave (km/s) = 2.66997 4.42554 3.65473
# Velocity P-wave (km/s) = 3.91580 6.36003 5.28126
#
# Compressibility (1/GPa) = 0.06636356
#
# Stress axis : x y z
#
# Youngs Moduli (GPa) = 46.92873 60.69973 64.16700
#
# Poissons Ratio (x) = -0.11292 -0.21619
# Poissons Ratio (y) = -0.08730 -0.08139
# Poissons Ratio (z) = -0.15811 -0.07699
#
# Static dielectric constant tensor:
#      x y z
#    x 1.965600 0.000000 -0.011210 
#    y 0.000000 2.103310 0.000000 
#    z -0.011210 0.000000 2.041390 
# 
# From -- ./inp_files/336189.got.cif
#   From: 2010.05.17/outbox.cif.g08.bks.cpg/sg12_169_cif.got.tgz:336189.got - 2010.06.03 13:09:07.
