data_PCOD9194620
_publ_section_title
;
Structure prediction by ZEFSAII (Michael W. Deem and Ramdas Pophale) SiO2 
 PCOD9194620
Probable space group: C 2/M
;
_chemical_formula_sum "Si O2"
_cell_formula_units_Z 64
_cell_length_a 16.626738
_cell_length_b 7.458365
_cell_length_c 30.638782
_cell_angle_alpha 90.000000
_cell_angle_beta 137.022456
_cell_angle_gamma 90.000000
_cell_volume 2590.138039
_symmetry_space_group_name_H-M "C 2/M"
_symmetry_group_IT_number 12
_symmetry_cell_setting 'monoclinic'
loop_
_space_group_symop_operation_xyz
x,y,z
-x,y,-z
-x,-y,-z
x,-y,z
1/2+x,1/2+y,z
1/2-x,1/2+y,-z
1/2-x,1/2-y,-z
1/2+x,1/2-y,z
loop_
_atom_site_type_symbol
_atom_site_label
_atom_site_fract_x
_atom_site_fract_y
_atom_site_fract_z
Si Si1 0.270640 0.258325 0.713232
Si Si2 0.063453 0.280096 0.688538
Si Si3 0.522871 0.207458 0.772003
Si Si4 0.112883 0.279274 0.153251
Si Si5 0.269289 0.794630 0.888202
Si Si6 0.870913 0.780396 0.427769
Si Si7 0.362793 0.214368 0.014966
Si Si8 0.192030 0.712427 0.431342
O O1 0.170505 0.187497 0.706800
O O2 0.384448 0.214873 0.728320
O O3 0.353188 0.313058 0.787844
O O4 0.175886 0.302395 0.636487
O O5 0.081619 0.500000 0.692087
O O6 0.044109 0.231479 0.731086
O O7 0.940943 0.223296 0.618792
O O8 0.628745 0.294251 0.841329
O O9 0.553576 0.000000 0.786873
O O10 0.114833 0.500000 0.161692
O O11 0.199145 0.224673 0.147535
O O12 0.983181 0.226999 0.085385
O O13 0.337304 0.712771 0.956251
O O14 0.309420 0.000000 0.900864
O O15 0.774969 0.721861 0.425564
O O16 0.000000 0.739174 0.500000
O O17 0.867301 0.000000 0.420127
O O18 0.373911 0.000000 0.015119
O O19 0.250000 0.250000 0.000000
O O20 0.182796 0.500000 0.419829
O O21 0.250000 0.750000 0.500000
#
# Coordination Sequence:
#
# PCOD9194620 Si02
#       8
#     8   8   8   8   8   8   8   8
#     4  12  21  36  63  89 117 161 212 254 299 371
#     4  10  22  40  60  86 128 169 202 255 322 370
#     4  11  22  40  64  92 125 166 210 258 310 370
#     4  10  20  35  58  89 119 156 204 254 305 367
#     4  10  21  39  61  89 125 162 203 259 315 371
#     4  10  20  34  56  87 120 154 200 256 304 354
#     4  10  21  38  59  85 121 161 204 255 315 370
#     4  10  20  39  62  88 124 163 204 255 315 376
#
# _framework density 24.709105999999998
#
# number of rings (size 3 to 8) (size 9 to 14) (size 15 to 20)
#    0.000    1.625    2.500    3.000    0.000    3.500 
#    0.000    3.750    0.000    3.750    0.000    0.000 
#    0.000    0.000    0.000    0.000    0.000    0.000 
#
# Total GULP energy -178139.564348 kJ/mol
# GULP energy per Si atom -5566.861386 kJ/mol
# Density = 2.465287 g / cm^3
# Si number density = 24.709106 Si / 1000 Ang^3
#
#
#
# Elastic Constant Matrix: (Units=GPa)
#
#
# Indices 1 2 3 4 5 6 
#
# 1 157.2663 16.4562 52.7602 0.0000 8.5258 0.0001
# 2 16.4562 82.9649 22.4196 0.0000 0.1020 0.0002
# 3 52.7602 22.4196 212.5795 0.0000 1.3850 0.0000
# 4 0.0000 0.0000 0.0000 -14.0185 0.0000 -1.1376
# 5 8.5258 0.1020 1.3850 0.0000 62.4782 0.0000
# 6 0.0001 0.0002 0.0000 -1.1376 0.0000 -12.8320
#
#
#
# Elastic Compliance Matrix: (Units=1/GPa)
#
#
# Indices 1 2 3 4 5 6 
#
# 1 0.007061 -0.000955 -0.001646 0.000000 -0.000925 0.000000
# 2 -0.000955 0.012536 -0.001086 0.000000 0.000134 0.000000
# 3 -0.001646 -0.001086 0.005226 0.000000 0.000110 0.000000
# 4 0.000000 0.000000 0.000000 -0.071851 0.000000 0.006370
# 5 -0.000925 0.000134 0.000110 0.000000 0.016129 0.000000
# 6 0.000000 0.000000 0.000000 0.006370 0.000000 -0.078495
#
#
# Mechanical properties :
#
#
# Convention : Reuss Voigt Hill
#
# Bulk Modulus (GPa) = 57.30546 70.67587 63.99066
# Shear Modulus (GPa) = -51.97301 31.20385 -10.38458
#
# Velocity S-wave (km/s) = -4.59125 3.55751 -2.05228
# Velocity P-wave (km/s) = 2.20539 6.74832 4.50977
#
# Compressibility (1/GPa) = 0.01745035
#
# Stress axis : x y z
#
# Youngs Moduli (GPa) = 141.62666 79.77054 191.33659
#
# Poissons Ratio (x) = 0.07615 0.31489
# Poissons Ratio (y) = 0.13520 0.20780
# Poissons Ratio (z) = 0.23308 0.08663
#
# Static dielectric constant tensor:
#      x y z
#    x 1.934350 0.000000 0.013800 
#    y 0.000000 2.056260 0.000000 
#    z 0.013800 0.000000 1.959070 
# 
# From -- ./inp_files/361067.got.cif
#   From: 2010.05.17/outbox.cif.g08.bks.cpg/sg12_181_cif.got.tgz:361067.got - 2010.06.03 13:09:07.
