data_PCOD9194038
_publ_section_title
;
Structure prediction by ZEFSAII (Michael W. Deem and Ramdas Pophale) SiO2 
 PCOD9194038
Probable space group: C 2/M
;
_chemical_formula_sum "Si O2"
_cell_formula_units_Z 64
_cell_length_a 16.823412
_cell_length_b 11.908095
_cell_length_c 27.522221
_cell_angle_alpha 90.000000
_cell_angle_beta 39.110661
_cell_angle_gamma 90.000000
_cell_volume 3478.127016
_symmetry_space_group_name_H-M "C 2/M"
_symmetry_group_IT_number 12
_symmetry_cell_setting 'monoclinic'
loop_
_space_group_symop_operation_xyz
x,y,z
-x,y,-z
-x,-y,-z
x,-y,z
1/2+x,1/2+y,z
1/2-x,1/2+y,-z
1/2-x,1/2-y,-z
1/2+x,1/2-y,z
loop_
_atom_site_type_symbol
_atom_site_label
_atom_site_fract_x
_atom_site_fract_y
_atom_site_fract_z
Si Si1 0.277401 0.233397 0.769156
Si Si2 0.594842 0.130849 0.382785
Si Si3 0.410721 0.128451 0.208044
Si Si4 0.863629 0.206264 0.479738
Si Si5 0.283918 0.227489 0.360873
Si Si6 0.862333 0.129677 0.073701
Si Si7 0.020983 0.874425 0.669008
Si Si8 0.292082 0.132739 0.952802
O O1 0.347766 0.148844 0.698581
O O2 0.168393 0.292210 0.789745
O O3 0.215989 0.181587 0.845626
O O4 0.383541 0.320956 0.735302
O O5 0.460415 0.193796 0.447279
O O6 0.689666 0.193635 0.374570
O O7 0.583140 0.000000 0.399658
O O8 0.363325 0.155102 0.285001
O O9 0.559583 0.143930 0.129639
O O10 0.379503 0.000000 0.211486
O O11 0.750000 0.250000 0.500000
O O12 0.801595 0.162593 0.558840
O O13 0.939102 0.127769 0.406869
O O14 0.381928 0.301148 0.345604
O O15 0.786020 0.133942 0.059996
O O16 0.882715 0.000000 0.077852
O O17 0.000000 0.182610 0.000000
O O18 0.022753 0.000000 0.686910
O O19 0.275227 0.000000 0.980543
O O20 0.250000 0.250000 0.000000
#
# Coordination Sequence:
#
# PCOD9194038 Si02
#       8
#     8   8   8   8   8   8   8   8
#     4  10  20  36  55  79 110 140 182 222 264 328
#     4  10  20  34  55  79 106 141 178 225 277 323
#     4  10  21  37  57  79 109 148 183 223 276 332
#     4   9  20  34  49  75 105 136 177 221 266 324
#     4  10  20  35  54  80 107 135 181 227 270 325
#     4  10  20  35  58  84 110 141 177 225 280 328
#     4  10  20  35  53  74 105 142 178 222 273 320
#     4  10  21  39  61  86 116 150 189 233 282 337
#
# _framework density 18.400707000000001
#
# number of rings (size 3 to 8) (size 9 to 14) (size 15 to 20)
#    0.000    2.125    0.000    3.000    0.000    3.500 
#    0.000   11.875    0.000    7.875    0.000    0.000 
#    0.000    0.000    0.000    0.000    0.000    0.000 
#
# Total GULP energy -178331.356117 kJ/mol
# GULP energy per Si atom -5572.854879 kJ/mol
# Density = 1.835883 g / cm^3
# Si number density = 18.400707 Si / 1000 Ang^3
#
#
#
# Elastic Constant Matrix: (Units=GPa)
#
#
# Indices 1 2 3 4 5 6 
#
# 1 54.7519 5.2349 21.9228 0.0000 -12.1437 0.0000
# 2 5.2349 64.1383 34.7080 0.0000 1.7253 0.0000
# 3 21.9228 34.7080 118.8722 0.0000 2.5538 0.0000
# 4 0.0000 0.0000 0.0000 -5.8780 0.0000 -0.3181
# 5 -12.1437 1.7253 2.5538 0.0000 37.3915 0.0000
# 6 0.0000 0.0000 0.0000 -0.3181 0.0000 16.0258
#
#
#
# Elastic Compliance Matrix: (Units=1/GPa)
#
#
# Indices 1 2 3 4 5 6 
#
# 1 0.021536 0.000333 -0.004225 0.000000 0.007267 0.000000
# 2 0.000333 0.018531 -0.005464 0.000000 -0.000374 0.000000
# 3 -0.004225 -0.005464 0.010827 0.000000 -0.001860 0.000000
# 4 0.000000 0.000000 0.000000 -0.169942 0.000000 -0.003373
# 5 0.007267 -0.000374 -0.001860 0.000000 0.029249 0.000000
# 6 0.000000 0.000000 0.000000 -0.003373 0.000000 0.062332
#
#
# Mechanical properties :
#
#
# Convention : Reuss Voigt Hill
#
# Bulk Modulus (GPa) = 31.07339 40.16597 35.61968
# Shear Modulus (GPa) = 2535.56348 21.23432 1278.39890
#
# Velocity S-wave (km/s) = 37.16130 3.40074 26.38681
# Velocity P-wave (km/s) = 43.10692 6.10704 30.78557
#
# Compressibility (1/GPa) = 0.03218187
#
# Stress axis : x y z
#
# Youngs Moduli (GPa) = 46.43389 53.96368 92.36224
#
# Poissons Ratio (x) = -0.01798 0.39024
# Poissons Ratio (y) = -0.01547 0.50467
# Poissons Ratio (z) = 0.19619 0.29486
#
# Static dielectric constant tensor:
#      x y z
#    x 1.609230 0.000000 0.006520 
#    y 0.000000 1.643800 0.000000 
#    z 0.006520 0.000000 1.650390 
# 
# From -- ./inp_files/315684.got.cif
#   From: 2010.05.17/outbox.cif.g08.bks.cpg/sg12_158_cif.got.tgz:315684.got - 2010.06.03 13:09:07.
