data_PCOD9194435
_publ_section_title
;
Structure prediction by ZEFSAII (Michael W. Deem and Ramdas Pophale) SiO2 
 PCOD9194435
Probable space group: C 2/M
;
_chemical_formula_sum "Si O2"
_cell_formula_units_Z 56
_cell_length_a 19.889058
_cell_length_b 14.770205
_cell_length_c 18.364047
_cell_angle_alpha 90.000000
_cell_angle_beta 147.571784
_cell_angle_gamma 90.000000
_cell_volume 2892.879793
_symmetry_space_group_name_H-M "C 2/M"
_symmetry_group_IT_number 12
_symmetry_cell_setting 'monoclinic'
loop_
_space_group_symop_operation_xyz
x,y,z
-x,y,-z
-x,-y,-z
x,-y,z
1/2+x,1/2+y,z
1/2-x,1/2+y,-z
1/2-x,1/2-y,-z
1/2+x,1/2-y,z
loop_
_atom_site_type_symbol
_atom_site_label
_atom_site_fract_x
_atom_site_fract_y
_atom_site_fract_z
Si Si1 0.558346 0.273865 0.837898
Si Si2 0.638899 0.608006 0.412191
Si Si3 0.239428 0.751171 0.867018
Si Si4 0.883688 0.109936 0.444532
Si Si5 0.431445 0.103684 0.667371
Si Si6 0.929157 0.394836 0.359219
Si Si7 0.647020 0.891566 0.134227
O O1 0.444067 0.341110 0.722228
O O2 0.645594 0.278690 0.845967
O O3 0.506456 0.171634 0.787488
O O4 0.641954 0.292943 0.984048
O O5 0.620282 0.500000 0.391278
O O6 0.600336 0.640493 0.457887
O O7 0.785338 0.626293 0.535932
O O8 0.175804 0.679921 0.754186
O O9 0.286079 0.840877 0.870479
O O10 0.742932 0.132365 0.288121
O O11 0.000000 0.141135 0.500000
O O12 0.889358 0.000000 0.449851
O O13 0.480825 0.110999 0.629578
O O14 0.447823 0.000000 0.706493
O O15 0.884012 0.500000 0.320538
O O16 0.000000 0.377253 0.500000
O O17 0.650366 0.000000 0.130092
O O18 0.500000 0.864730 0.000000
#
# Coordination Sequence:
#
# PCOD9194435 Si02
#       7
#     8   8   8   8   8   8   8
#     4  10  21  36  54  81 116 147 187 232 281 341
#     4  10  20  34  56  82 112 148 185 233 288 338
#     4  10  22  37  55  84 113 149 192 231 283 342
#     4   9  18  33  54  81 110 144 191 233 274 338
#     4   9  19  35  56  81 107 144 189 234 283 337
#     4   9  19  39  63  83 107 143 193 243 286 338
#     4  10  22  38  56  83 121 158 191 232 288 354
#
# _framework density 19.357873999999999
#
# number of rings (size 3 to 8) (size 9 to 14) (size 15 to 20)
#    0.000    2.429    0.000    1.286    2.000    5.714 
#    2.571    2.857    0.000    0.429    0.000    0.000 
#    0.000    0.000    0.000    0.000    0.000    0.000 
#
# Total GULP energy -156243.229807 kJ/mol
# GULP energy per Si atom -5580.115350 kJ/mol
# Density = 1.931381 g / cm^3
# Si number density = 19.357874 Si / 1000 Ang^3
#
#
#
# Elastic Constant Matrix: (Units=GPa)
#
#
# Indices 1 2 3 4 5 6 
#
# 1 18.0199 14.1676 18.3267 0.0000 11.9636 0.0000
# 2 14.1676 32.8576 37.0008 0.0000 5.7910 0.0000
# 3 18.3267 37.0008 123.3618 0.0000 0.7621 0.0000
# 4 0.0000 0.0000 0.0000 2.1725 0.0000 18.2460
# 5 11.9636 5.7910 0.7621 0.0000 26.6792 0.0000
# 6 0.0000 0.0000 0.0000 18.2460 0.0000 3.7929
#
#
#
# Elastic Compliance Matrix: (Units=1/GPa)
#
#
# Indices 1 2 3 4 5 6 
#
# 1 0.122446 -0.036851 -0.006849 0.000000 -0.046713 0.000000
# 2 -0.036851 0.059635 -0.012436 0.000000 0.003936 0.000000
# 3 -0.006849 -0.012436 0.012821 0.000000 0.005405 0.000000
# 4 0.000000 0.000000 0.000000 -0.011682 0.000000 0.056197
# 5 -0.046713 0.003936 0.005405 0.000000 0.057421 0.000000
# 6 0.000000 0.000000 0.000000 0.056197 0.000000 -0.006691
#
#
# Mechanical properties :
#
#
# Convention : Reuss Voigt Hill
#
# Bulk Modulus (GPa) = 12.10235 34.80326 23.45281
# Shear Modulus (GPa) = 13.37744 13.51188 13.44466
#
# Velocity S-wave (km/s) = 2.63165 2.64484 2.63826
# Velocity P-wave (km/s) = 3.93695 5.22923 4.62841
#
# Compressibility (1/GPa) = 0.08262857
#
# Stress axis : x y z
#
# Youngs Moduli (GPa) = 8.16688 16.76878 78.00001
#
# Poissons Ratio (x) = 0.61794 0.53424
# Poissons Ratio (y) = 0.30095 0.97004
# Poissons Ratio (z) = 0.05594 0.20854
#
# Static dielectric constant tensor:
#      x y z
#    x 1.675940 0.000000 -0.004750 
#    y 0.000000 1.674160 0.000000 
#    z -0.004750 0.000000 1.689660 
# 
# From -- ./inp_files/284590.got.cif
#   From: 2010.05.17/outbox.cif.g08.bks.cpg/sg12_143_cif.got.tgz:284590.got - 2010.06.03 13:09:07.
