data_PCOD9194993
_publ_section_title
;
Structure prediction by ZEFSAII (Michael W. Deem and Ramdas Pophale) SiO2 
 PCOD9194993
Probable space group: C 2/M
;
_chemical_formula_sum "Si O2"
_cell_formula_units_Z 42
_cell_length_a 16.789951
_cell_length_b 15.839472
_cell_length_c 7.059580
_cell_angle_alpha 90.000000
_cell_angle_beta 78.698901
_cell_angle_gamma 90.000000
_cell_volume 1841.050535
_symmetry_space_group_name_H-M "C 2/M"
_symmetry_group_IT_number 12
_symmetry_cell_setting 'monoclinic'
loop_
_space_group_symop_operation_xyz
x,y,z
-x,y,-z
-x,-y,-z
x,-y,z
1/2+x,1/2+y,z
1/2-x,1/2+y,-z
1/2-x,1/2-y,-z
1/2+x,1/2-y,z
loop_
_atom_site_type_symbol
_atom_site_label
_atom_site_fract_x
_atom_site_fract_y
_atom_site_fract_z
Si Si1 0.856729 0.407812 0.825869
Si Si2 0.973034 0.340264 0.292607
Si Si3 0.700428 0.092082 0.721569
Si Si4 0.000000 0.000000 0.000000
Si Si5 0.696278 0.734589 0.213002
Si Si6 0.517377 0.658946 0.270376
O O1 0.854711 0.500000 0.736222
O O2 0.823825 0.330381 0.716693
O O3 0.948982 0.384090 0.838276
O O4 0.807345 0.411995 0.044803
O O5 0.890485 0.389801 0.303588
O O6 0.000000 0.339089 0.500000
O O7 0.965514 0.242316 0.235122
O O8 0.758056 0.172423 0.665335
O O9 0.730306 0.000000 0.642993
O O10 0.999280 0.924641 0.838110
O O11 0.610808 0.689893 0.204745
O O12 0.750000 0.750000 0.000000
O O13 0.500000 0.644916 0.500000
#
# Coordination Sequence:
#
# PCOD9194993 Si02
#       6
#     8   8   8   2   8   8
#     4   9  18  34  56  86 119 161 211 265 317 404
#     4  10  21  37  60  87 123 159 209 274 335 401
#     4  10  20  34  59  89 120 168 211 268 346 399
#     4  12  26  40  80  94 126 192 248 274 338 416
#     4   9  20  38  65  92 136 174 217 282 351 406
#     4  10  24  45  67  99 135 177 235 295 333 401
#
# _framework density 22.813061999999999
#
# number of rings (size 3 to 8) (size 9 to 14) (size 15 to 20)
#    0.000    2.286    0.000    1.429    9.333    3.048 
#    0.000    8.571    0.000    0.000    0.000    0.000 
#    0.000    0.000    0.000    0.000    0.000    0.000 
#
# Total GULP energy -117027.975276 kJ/mol
# GULP energy per Si atom -5572.760727 kJ/mol
# Density = 2.276114 g / cm^3
# Si number density = 22.813062 Si / 1000 Ang^3
#
#
#
# Elastic Constant Matrix: (Units=GPa)
#
#
# Indices 1 2 3 4 5 6 
#
# 1 57.4384 51.9832 -0.4465 0.0000 1.3861 0.0000
# 2 51.9832 250.6720 18.8129 0.0000 13.7667 0.0000
# 3 -0.4465 18.8129 84.1334 0.0000 -1.0087 0.0000
# 4 0.0000 0.0000 0.0000 19.2003 0.0000 5.7247
# 5 1.3861 13.7667 -1.0087 0.0000 27.0317 0.0000
# 6 0.0000 0.0000 0.0000 5.7247 0.0000 14.7222
#
#
#
# Elastic Compliance Matrix: (Units=1/GPa)
#
#
# Indices 1 2 3 4 5 6 
#
# 1 0.021582 -0.004634 0.001166 0.000000 0.001297 0.000000
# 2 -0.004634 0.005175 -0.001211 0.000000 -0.002443 0.000000
# 3 0.001166 -0.001211 0.012175 0.000000 0.001011 0.000000
# 4 0.000000 0.000000 0.000000 0.058913 0.000000 -0.022908
# 5 0.001297 -0.002443 0.001011 0.000000 0.038209 0.000000
# 6 0.000000 0.000000 0.000000 -0.022908 0.000000 0.076833
#
#
# Mechanical properties :
#
#
# Convention : Reuss Voigt Hill
#
# Bulk Modulus (GPa) = 33.81338 59.21588 46.51463
# Shear Modulus (GPa) = 21.54214 33.65044 27.59629
#
# Velocity S-wave (km/s) = 3.07626 3.84481 3.48181
# Velocity P-wave (km/s) = 5.24137 6.76191 6.04960
#
# Compressibility (1/GPa) = 0.02957409
#
# Stress axis : x y z
#
# Youngs Moduli (GPa) = 46.33509 193.22172 82.13536
#
# Poissons Ratio (x) = 0.89545 -0.09580
# Poissons Ratio (y) = 0.21473 0.09948
# Poissons Ratio (z) = -0.05404 0.23402
#
# Static dielectric constant tensor:
#      x y z
#    x 1.808040 0.000000 -0.033640 
#    y 0.000000 1.892760 0.000000 
#    z -0.033640 0.000000 1.859520 
# 
# From -- ./inp_files/72983.got.cif
#   From: 2010.05.17/outbox.cif.g08.bks.cpg/sg12_37_cif.got.tgz:72983.got - 2010.06.03 13:09:07.
