data_PCOD9194531
_publ_section_title
;
Structure prediction by ZEFSAII (Michael W. Deem and Ramdas Pophale) SiO2 
 PCOD9194531
Probable space group: C 2/M
;
_chemical_formula_sum "Si O2"
_cell_formula_units_Z 56
_cell_length_a 14.881653
_cell_length_b 7.563227
_cell_length_c 23.283158
_cell_angle_alpha 90.000000
_cell_angle_beta 122.216327
_cell_angle_gamma 90.000000
_cell_volume 2217.133019
_symmetry_space_group_name_H-M "C 2/M"
_symmetry_group_IT_number 12
_symmetry_cell_setting 'monoclinic'
loop_
_space_group_symop_operation_xyz
x,y,z
-x,y,-z
-x,-y,-z
x,-y,z
1/2+x,1/2+y,z
1/2-x,1/2+y,-z
1/2-x,1/2-y,-z
1/2+x,1/2-y,z
loop_
_atom_site_type_symbol
_atom_site_label
_atom_site_fract_x
_atom_site_fract_y
_atom_site_fract_z
Si Si1 0.434236 0.288895 0.659997
Si Si2 0.889402 0.213202 0.855939
Si Si3 0.161671 0.712771 0.737221
Si Si4 0.630701 0.709087 0.481666
Si Si5 0.666416 0.788986 0.040197
Si Si6 0.791570 0.708448 0.371676
Si Si7 0.395861 0.700909 0.108389
O O1 0.419889 0.500000 0.651107
O O2 0.548879 0.259438 0.726760
O O3 0.436685 0.217836 0.594840
O O4 0.326585 0.220245 0.653155
O O5 0.772794 0.279236 0.800048
O O6 0.902824 0.257837 0.927275
O O7 0.986657 0.281849 0.850246
O O8 0.891165 0.000000 0.850624
O O9 0.165403 0.500000 0.739912
O O10 0.163904 0.781510 0.672299
O O11 0.613665 0.500000 0.479518
O O12 0.750000 0.750000 0.500000
O O13 0.631481 0.773138 0.547301
O O14 0.786539 0.720264 0.095002
O O15 0.672103 0.000000 0.031276
O O16 0.628409 0.700282 0.968696
O O17 0.777336 0.500000 0.357295
O O18 0.402243 0.500000 0.132372
#
# Coordination Sequence:
#
# PCOD9194531 Si02
#       7
#     8   8   8   8   8   8   8
#     4   9  19  35  54  76 104 135 169 215 268 314
#     4  10  21  37  54  74 105 144 179 210 252 308
#     4  10  22  37  53  75 103 139 182 217 250 304
#     4   9  17  31  53  79 104 133 170 214 265 316
#     4  10  20  34  56  85 109 132 169 216 260 302
#     4   9  19  36  55  76 104 138 174 215 262 312
#     4   9  19  36  57  79 106 140 172 206 256 312
#
# _framework density 25.257843999999999
#
# number of rings (size 3 to 8) (size 9 to 14) (size 15 to 20)
#    0.000    2.571    0.000    2.143    0.000    8.571 
#    0.000    5.714    0.000    0.000    0.000    0.000 
#    0.000    0.000    0.000    0.000    0.000    0.000 
#
# Total GULP energy -156356.255971 kJ/mol
# GULP energy per Si atom -5584.151999 kJ/mol
# Density = 2.520036 g / cm^3
# Si number density = 25.257844 Si / 1000 Ang^3
#
#
#
# Elastic Constant Matrix: (Units=GPa)
#
#
# Indices 1 2 3 4 5 6 
#
# 1 123.9996 -1.0223 31.7673 0.0000 22.8231 0.0000
# 2 -1.0223 68.4779 -9.9153 0.0000 -1.1869 0.0000
# 3 31.7673 -9.9153 47.5691 0.0000 19.8123 0.0000
# 4 0.0000 0.0000 0.0000 16.2946 0.0000 4.1992
# 5 22.8231 -1.1869 19.8123 0.0000 47.0898 0.0000
# 6 0.0000 0.0000 0.0000 4.1992 0.0000 10.4623
#
#
#
# Elastic Compliance Matrix: (Units=1/GPa)
#
#
# Indices 1 2 3 4 5 6 
#
# 1 0.009994 -0.000736 -0.005823 0.000000 -0.002413 0.000000
# 2 -0.000736 0.015163 0.004055 0.000000 -0.000967 0.000000
# 3 -0.005823 0.004055 0.029751 0.000000 -0.009593 0.000000
# 4 0.000000 0.000000 0.000000 0.068450 0.000000 -0.027474
# 5 -0.002413 -0.000967 -0.009593 0.000000 0.026417 0.000000
# 6 0.000000 0.000000 0.000000 -0.027474 0.000000 0.106608
#
#
# Mechanical properties :
#
#
# Convention : Reuss Voigt Hill
#
# Bulk Modulus (GPa) = 20.03997 31.30066 25.67031
# Shear Modulus (GPa) = 17.98400 29.38381 23.68391
#
# Velocity S-wave (km/s) = 2.67126 3.41450 3.06549
# Velocity P-wave (km/s) = 4.17918 5.28814 4.76602
#
# Compressibility (1/GPa) = 0.04990028
#
# Stress axis : x y z
#
# Youngs Moduli (GPa) = 100.05733 65.95177 33.61209
#
# Poissons Ratio (x) = 0.04852 0.19572
# Poissons Ratio (y) = 0.07362 -0.13629
# Poissons Ratio (z) = 0.58262 -0.26741
#
# Static dielectric constant tensor:
#      x y z
#    x 2.008800 0.000000 0.030530 
#    y 0.000000 2.004250 0.000000 
#    z 0.030530 0.000000 2.043440 
# 
# From -- ./inp_files/339011.got.cif
#   From: 2010.05.17/outbox.cif.g08.bks.cpg/sg12_170_cif.got.tgz:339011.got - 2010.06.03 13:09:07.
