data_PCOD9194539
_publ_section_title
;
Structure prediction by ZEFSAII (Michael W. Deem and Ramdas Pophale) SiO2 
 PCOD9194539
Probable space group: C 2/M
;
_chemical_formula_sum "Si O2"
_cell_formula_units_Z 58
_cell_length_a 18.878258
_cell_length_b 13.379884
_cell_length_c 9.291034
_cell_angle_alpha 90.000000
_cell_angle_beta 69.520389
_cell_angle_gamma 90.000000
_cell_volume 2198.485935
_symmetry_space_group_name_H-M "C 2/M"
_symmetry_group_IT_number 12
_symmetry_cell_setting 'monoclinic'
loop_
_space_group_symop_operation_xyz
x,y,z
-x,y,-z
-x,-y,-z
x,-y,z
1/2+x,1/2+y,z
1/2-x,1/2+y,-z
1/2-x,1/2-y,-z
1/2+x,1/2-y,z
loop_
_atom_site_type_symbol
_atom_site_label
_atom_site_fract_x
_atom_site_fract_y
_atom_site_fract_z
Si Si1 0.599937 0.884507 0.258939
Si Si2 0.500000 0.000000 0.000000
Si Si3 0.557706 0.832054 0.731300
Si Si4 0.773149 0.881502 0.660957
Si Si5 0.700799 0.114339 0.439265
Si Si6 0.952890 0.891658 0.182829
Si Si7 0.176411 0.283819 0.965421
Si Si8 0.892767 0.109785 0.816542
O O1 0.519711 0.829211 0.310020
O O2 0.666762 0.843828 0.314708
O O3 0.635010 0.875374 0.074609
O O4 0.584846 0.000000 0.305169
O O5 0.463808 0.088645 0.130734
O O6 0.626277 0.875024 0.590188
O O7 0.577056 0.721014 0.776628
O O8 0.769141 0.852239 0.495645
O O9 0.849858 0.869493 0.697653
O O10 0.755464 0.000000 0.677775
O O11 0.708820 0.821301 0.792483
O O12 0.718756 0.000000 0.390570
O O13 0.017740 0.895438 0.259342
O O14 0.910455 0.000000 0.221136
O O15 0.000000 0.896020 0.000000
O O16 0.125176 0.189152 0.044914
O O17 0.250000 0.250000 0.000000
O O18 0.864644 0.000000 0.884050
#
# Coordination Sequence:
#
# PCOD9194539 Si02
#       8
#     8   2   8   8   8   8   8   8
#     4  11  22  37  58  87 125 163 195 246 315 383
#     4  12  24  32  56 104 120 160 198 266 306 370
#     4  12  22  35  59  89 133 159 203 253 311 370
#     4   9  19  34  57  85 117 153 193 244 293 360
#     4  10  22  37  56  88 129 164 197 236 311 388
#     4  10  21  35  56  86 118 156 202 255 307 357
#     4  10  20  34  56  85 112 147 199 249 299 356
#     4   9  18  35  54  79 112 149 193 245 304 350
#
# _framework density 26.381792000000001
#
# number of rings (size 3 to 8) (size 9 to 14) (size 15 to 20)
#    0.000    1.793    3.448    0.828    3.862    1.655 
#    0.000    2.759    0.000    2.483    0.000    0.000 
#    0.000    0.000    0.000    0.000    0.000    0.000 
#
# Total GULP energy -161663.980086 kJ/mol
# GULP energy per Si atom -5574.620003 kJ/mol
# Density = 2.632175 g / cm^3
# Si number density = 26.381792 Si / 1000 Ang^3
#
#
#
# Elastic Constant Matrix: (Units=GPa)
#
#
# Indices 1 2 3 4 5 6 
#
# 1 92.0264 -3.9725 32.6337 0.0000 31.7089 0.0000
# 2 -3.9725 216.3022 21.4408 0.0000 0.9149 0.0000
# 3 32.6337 21.4408 83.4167 0.0000 31.1736 0.0000
# 4 0.0000 0.0000 0.0000 25.2247 0.0000 -5.1705
# 5 31.7089 0.9149 31.1736 0.0000 51.4536 0.0000
# 6 0.0000 0.0000 0.0000 -5.1705 0.0000 17.9132
#
#
#
# Elastic Compliance Matrix: (Units=1/GPa)
#
#
# Indices 1 2 3 4 5 6 
#
# 1 0.014426 0.000611 -0.003199 0.000000 -0.006963 0.000000
# 2 0.000611 0.004799 -0.001680 0.000000 0.000556 0.000000
# 3 -0.003199 -0.001680 0.016706 0.000000 -0.008120 0.000000
# 4 0.000000 0.000000 0.000000 0.042137 0.000000 0.012162
# 5 -0.006963 0.000556 -0.008120 0.000000 0.028636 0.000000
# 6 0.000000 0.000000 0.000000 0.012162 0.000000 0.059335
#
#
# Mechanical properties :
#
#
# Convention : Reuss Voigt Hill
#
# Bulk Modulus (GPa) = 36.50192 54.66104 45.58148
# Shear Modulus (GPa) = 27.21735 41.69452 34.45593
#
# Velocity S-wave (km/s) = 3.21545 3.97977 3.61785
# Velocity P-wave (km/s) = 5.25847 6.47166 5.89635
#
# Compressibility (1/GPa) = 0.02739582
#
# Stress axis : x y z
#
# Youngs Moduli (GPa) = 69.31706 208.39395 59.85904
#
# Poissons Ratio (x) = -0.12743 0.19147
# Poissons Ratio (y) = -0.04239 0.10058
# Poissons Ratio (z) = 0.22172 0.35018
#
# Static dielectric constant tensor:
#      x y z
#    x 2.148690 0.000000 0.115460 
#    y 0.000000 2.000760 0.000000 
#    z 0.115460 0.000000 2.058640 
# 
# From -- ./inp_files/96406.got.cif
#   From: 2010.05.17/outbox.cif.g08.bks.cpg/sg12_49_cif.got.tgz:96406.got - 2010.06.03 13:09:07.
