data_PCOD9194812
_publ_section_title
;
Structure prediction by ZEFSAII (Michael W. Deem and Ramdas Pophale) SiO2 
 PCOD9194812
Probable space group: C 2/M
;
_chemical_formula_sum "Si O2"
_cell_formula_units_Z 34
_cell_length_a 15.114639
_cell_length_b 7.352713
_cell_length_c 15.739982
_cell_angle_alpha 90.000000
_cell_angle_beta 120.584783
_cell_angle_gamma 90.000000
_cell_volume 1505.881598
_symmetry_space_group_name_H-M "C 2/M"
_symmetry_group_IT_number 12
_symmetry_cell_setting 'monoclinic'
loop_
_space_group_symop_operation_xyz
x,y,z
-x,y,-z
-x,-y,-z
x,-y,z
1/2+x,1/2+y,z
1/2-x,1/2+y,-z
1/2-x,1/2-y,-z
1/2+x,1/2-y,z
loop_
_atom_site_type_symbol
_atom_site_label
_atom_site_fract_x
_atom_site_fract_y
_atom_site_fract_z
Si Si1 0.968701 0.279878 0.389904
Si Si2 0.344104 0.217326 0.979910
Si Si3 0.765428 0.709947 0.759233
Si Si4 0.335824 0.782225 0.613765
Si Si5 0.500000 0.500000 0.000000
O O1 0.967430 0.500000 0.389893
O O2 0.856915 0.217943 0.308511
O O3 0.000000 0.221222 0.500000
O O4 0.056163 0.216167 0.368735
O O5 0.303350 0.284363 0.867156
O O6 0.365276 0.000000 0.991792
O O7 0.250000 0.250000 0.000000
O O8 0.446326 0.339198 0.035697
O O9 0.797491 0.500000 0.776942
O O10 0.806916 0.792169 0.691823
O O11 0.250000 0.750000 0.500000
O O12 0.342000 0.000000 0.624414
#
# Coordination Sequence:
#
# PCOD9194812 Si02
#       5
#     8   8   8   8   2
#     4  10  20  34  57  88 124 175 221 264 329 405
#     4  11  25  49  76 110 148 189 246 311 373 448
#     4  10  23  40  62  94 133 170 223 284 344 419
#     4  10  20  36  55  85 128 172 216 271 328 395
#     4  12  26  48  84 112 142 194 238 304 398 438
#
# _framework density 22.578136000000001
#
# number of rings (size 3 to 8) (size 9 to 14) (size 15 to 20)
#    0.000    1.647    3.529    0.353    1.647    3.294 
#    0.000    2.353    0.000    0.000    0.000    0.000 
#    0.000    0.000    0.000    0.000    0.000    0.000 
#
# Total GULP energy -94716.547565 kJ/mol
# GULP energy per Si atom -5571.561621 kJ/mol
# Density = 2.252675 g / cm^3
# Si number density = 22.578136 Si / 1000 Ang^3
#
#
#
# Elastic Constant Matrix: (Units=GPa)
#
#
# Indices 1 2 3 4 5 6 
#
# 1 152.8858 20.5940 27.7429 0.0000 -48.6299 0.0000
# 2 20.5940 148.1794 -7.6981 0.0000 -13.1427 0.0000
# 3 27.7429 -7.6981 99.6204 0.0000 -31.4791 0.0000
# 4 0.0000 0.0000 0.0000 25.3774 0.0000 13.5315
# 5 -48.6299 -13.1427 -31.4791 0.0000 35.4234 0.0000
# 6 0.0000 0.0000 0.0000 13.5315 0.0000 42.1635
#
#
#
# Elastic Compliance Matrix: (Units=1/GPa)
#
#
# Indices 1 2 3 4 5 6 
#
# 1 0.012082 0.000143 0.002648 0.000000 0.018993 0.000000
# 2 0.000143 0.007245 0.001990 0.000000 0.004653 0.000000
# 3 0.002648 0.001990 0.015068 0.000000 0.017763 0.000000
# 4 0.000000 0.000000 0.000000 0.047540 0.000000 -0.015257
# 5 0.018993 0.004653 0.017763 0.000000 0.071816 0.000000
# 6 0.000000 0.000000 0.000000 -0.015257 0.000000 0.028614
#
#
# Mechanical properties :
#
#
# Convention : Reuss Voigt Hill
#
# Bulk Modulus (GPa) = 22.74957 53.55149 38.15053
# Shear Modulus (GPa) = 26.67314 44.59597 35.63455
#
# Velocity S-wave (km/s) = 3.44084 4.44913 3.97706
# Velocity P-wave (km/s) = 5.08759 7.08257 6.16629
#
# Compressibility (1/GPa) = 0.04395688
#
# Stress axis : x y z
#
# Youngs Moduli (GPa) = 82.76513 138.03021 66.36779
#
# Poissons Ratio (x) = -0.01973 -0.17573
# Poissons Ratio (y) = -0.01183 -0.13209
# Poissons Ratio (z) = -0.21915 -0.27472
#
# Static dielectric constant tensor:
#      x y z
#    x 1.840550 0.000000 0.005400 
#    y 0.000000 1.907400 0.000000 
#    z 0.005400 0.000000 1.870200 
# 
# From -- ./inp_files/210691.got.cif
#   From: 2010.05.17/outbox.cif.g08.bks.cpg/sg12_106_cif.got.tgz:210691.got - 2010.06.03 13:09:07.
