data_PCOD9194034
_publ_section_title
;
Structure prediction by ZEFSAII (Michael W. Deem and Ramdas Pophale) SiO2 
 PCOD9194034
Probable space group: C 2/M
;
_chemical_formula_sum "Si O2"
_cell_formula_units_Z 64
_cell_length_a 8.615109
_cell_length_b 12.819446
_cell_length_c 24.006397
_cell_angle_alpha 90.000000
_cell_angle_beta 94.002360
_cell_angle_gamma 90.000000
_cell_volume 2644.822655
_symmetry_space_group_name_H-M "C 2/M"
_symmetry_group_IT_number 12
_symmetry_cell_setting 'monoclinic'
loop_
_space_group_symop_operation_xyz
x,y,z
-x,y,-z
-x,-y,-z
x,-y,z
1/2+x,1/2+y,z
1/2-x,1/2+y,-z
1/2-x,1/2-y,-z
1/2+x,1/2-y,z
loop_
_atom_site_type_symbol
_atom_site_label
_atom_site_fract_x
_atom_site_fract_y
_atom_site_fract_z
Si Si1 0.770403 0.125821 0.627990
Si Si2 0.423536 0.117589 0.595472
Si Si3 0.926512 0.127087 0.440390
Si Si4 0.171011 0.876751 0.014059
Si Si5 0.902679 0.201643 0.210785
Si Si6 0.635531 0.306983 0.132769
Si Si7 0.412072 0.117821 0.938354
Si Si8 0.836958 0.308794 0.711475
O O1 0.604882 0.151740 0.592749
O O2 0.776567 0.200027 0.682169
O O3 0.936535 0.149731 0.601572
O O4 0.766661 0.000000 0.638003
O O5 0.255129 0.159802 0.570126
O O6 0.395560 0.123249 0.661443
O O7 0.426491 0.000000 0.573874
O O8 0.000000 0.164751 0.500000
O O9 0.920827 0.000000 0.440980
O O10 0.199101 0.867486 0.080506
O O11 0.179231 0.000000 0.002961
O O12 0.257028 0.833558 0.961885
O O13 0.000000 0.836507 0.000000
O O14 0.774664 0.267941 0.174530
O O15 0.804185 0.143689 0.256174
O O16 0.005696 0.138950 0.168296
O O17 0.022374 0.277897 0.244924
O O18 0.550534 0.202431 0.106625
O O19 0.403415 0.000000 0.915704
O O20 0.500000 0.109186 0.000000
#
# Coordination Sequence:
#
# PCOD9194034 Si02
#       8
#     8   8   8   8   8   8   8   8
#     4  10  21  38  65  91 116 163 213 248 301 368
#     4  10  21  38  65  91 116 163 213 248 301 368
#     4   9  19  36  59  93 131 159 196 254 308 359
#     4  10  20  34  55  79 105 142 183 224 277 349
#     4  10  23  35  57  80 109 149 189 236 309 348
#     4  11  20  37  52  78 110 141 180 233 288 353
#     4  10  20  34  55  79 104 140 181 221 275 346
#     4  11  20  42  59  81 117 152 197 261 294 342
#
# _framework density 24.198219999999999
#
# number of rings (size 3 to 8) (size 9 to 14) (size 15 to 20)
#    0.000    1.875    1.250    3.000    0.000    0.500 
#    0.000   10.625    0.000    0.000    0.000    0.000 
#    0.000    0.000    0.000    0.000    0.000    0.000 
#
# Total GULP energy -178328.541502 kJ/mol
# GULP energy per Si atom -5572.766922 kJ/mol
# Density = 2.414314 g / cm^3
# Si number density = 24.198220 Si / 1000 Ang^3
#
#
#
# Elastic Constant Matrix: (Units=GPa)
#
#
# Indices 1 2 3 4 5 6 
#
# 1 140.3950 17.1398 23.0507 0.0000 19.8364 0.0000
# 2 17.1398 69.7750 4.2315 0.0000 -1.4516 0.0000
# 3 23.0507 4.2315 75.7222 0.0000 12.6395 0.0000
# 4 0.0000 0.0000 0.0000 10.1450 0.0000 5.9399
# 5 19.8364 -1.4516 12.6395 0.0000 51.8600 0.0000
# 6 0.0000 0.0000 0.0000 5.9399 0.0000 18.4744
#
#
#
# Elastic Compliance Matrix: (Units=1/GPa)
#
#
# Indices 1 2 3 4 5 6 
#
# 1 0.008045 -0.001917 -0.001896 0.000000 -0.002669 0.000000
# 2 -0.001917 0.014857 -0.000457 0.000000 0.001260 0.000000
# 3 -0.001896 -0.000457 0.014271 0.000000 -0.002765 0.000000
# 4 0.000000 0.000000 0.000000 0.121430 0.000000 -0.039043
# 5 -0.002669 0.001260 -0.002765 0.000000 0.021013 0.000000
# 6 0.000000 0.000000 0.000000 -0.039043 0.000000 0.066682
#
#
# Mechanical properties :
#
#
# Convention : Reuss Voigt Hill
#
# Bulk Modulus (GPa) = 34.92632 41.63735 38.28184
# Shear Modulus (GPa) = 18.91201 32.19389 25.55295
#
# Velocity S-wave (km/s) = 2.79865 3.65145 3.25312
# Velocity P-wave (km/s) = 4.99079 5.91791 5.47401
#
# Compressibility (1/GPa) = 0.02863170
#
# Stress axis : x y z
#
# Youngs Moduli (GPa) = 124.29777 67.31026 70.07398
#
# Poissons Ratio (x) = 0.12902 0.13289
# Poissons Ratio (y) = 0.23825 0.03203
# Poissons Ratio (z) = 0.23573 0.03077
#
# Static dielectric constant tensor:
#      x y z
#    x 1.925930 0.000000 0.062310 
#    y 0.000000 1.937180 0.000000 
#    z 0.062310 0.000000 1.894320 
# 
# From -- ./inp_files/332960.got.cif
#   From: 2010.05.17/outbox.cif.g08.bks.cpg/sg12_167_cif.got.tgz:332960.got - 2010.06.03 13:09:07.
