data_PCOD9194575
_publ_section_title
;
Structure prediction by ZEFSAII (Michael W. Deem and Ramdas Pophale) SiO2 
 PCOD9194575
Probable space group: C 2/M
;
_chemical_formula_sum "Si O2"
_cell_formula_units_Z 64
_cell_length_a 30.031152
_cell_length_b 9.056272
_cell_length_c 15.608204
_cell_angle_alpha 90.000000
_cell_angle_beta 131.180008
_cell_angle_gamma 90.000000
_cell_volume 3194.952374
_symmetry_space_group_name_H-M "C 2/M"
_symmetry_group_IT_number 12
_symmetry_cell_setting 'monoclinic'
loop_
_space_group_symop_operation_xyz
x,y,z
-x,y,-z
-x,-y,-z
x,-y,z
1/2+x,1/2+y,z
1/2-x,1/2+y,-z
1/2-x,1/2-y,-z
1/2+x,1/2-y,z
loop_
_atom_site_type_symbol
_atom_site_label
_atom_site_fract_x
_atom_site_fract_y
_atom_site_fract_z
Si Si1 0.710456 0.673848 0.577869
Si Si2 0.125439 0.169823 0.635598
Si Si3 0.973591 0.826144 0.622083
Si Si4 0.598073 0.170914 0.765992
Si Si5 0.185517 0.319464 0.176539
Si Si6 0.709845 0.173355 0.019822
Si Si7 0.933787 0.320262 0.896337
Si Si8 0.112333 0.323260 0.349707
O O1 0.712762 0.500000 0.558900
O O2 0.670633 0.687716 0.614097
O O3 0.774638 0.724863 0.691550
O O4 0.675550 0.759570 0.460073
O O5 0.061100 0.193303 0.511523
O O6 0.132279 0.277098 0.723927
O O7 0.130207 0.000000 0.671316
O O8 0.936016 0.737114 0.644535
O O9 0.039974 0.769155 0.701663
O O10 0.970827 0.000000 0.638547
O O11 0.580810 0.000000 0.736233
O O12 0.642472 0.185976 0.901581
O O13 0.187444 0.500000 0.177510
O O14 0.212360 0.268962 0.120131
O O15 0.117528 0.274837 0.102644
O O16 0.725513 0.000000 0.041228
O O17 0.750000 0.250000 0.000000
O O18 0.935896 0.500000 0.900793
O O19 0.909871 0.278369 0.772354
O O20 0.000000 0.266997 0.000000
O O21 0.114962 0.500000 0.356240
#
# Coordination Sequence:
#
# PCOD9194575 Si02
#       8
#     8   8   8   8   8   8   8   8
#     4   9  18  34  57  81 109 148 190 230 276 341
#     4   9  18  33  51  73 105 149 191 224 271 336
#     4  10  21  36  54  76 107 150 191 226 274 343
#     4  11  22  32  50  81 110 140 183 240 291 330
#     4   9  18  35  58  82 110 152 198 231 274 339
#     4  10  22  38  57  81 112 147 188 235 281 335
#     4   9  19  34  57  86 115 149 189 235 280 335
#     4  10  20  34  56  86 114 142 182 237 288 327
#
# _framework density 20.031597999999999
#
# number of rings (size 3 to 8) (size 9 to 14) (size 15 to 20)
#    0.000    2.375    0.000    3.000    1.750    6.500 
#    0.000    0.625    0.000    3.750    0.000    0.000 
#    0.000    0.000    0.000    0.000    0.000    0.000 
#
# Total GULP energy -178640.966262 kJ/mol
# GULP energy per Si atom -5582.530196 kJ/mol
# Density = 1.998601 g / cm^3
# Si number density = 20.031598 Si / 1000 Ang^3
#
#
#
# Elastic Constant Matrix: (Units=GPa)
#
#
# Indices 1 2 3 4 5 6 
#
# 1 73.4730 11.2811 49.8773 0.0000 9.0837 0.0000
# 2 11.2811 33.2164 39.1276 0.0000 -2.1940 0.0000
# 3 49.8773 39.1276 120.2629 0.0000 2.3433 0.0000
# 4 0.0000 0.0000 0.0000 18.3816 0.0000 -0.8008
# 5 9.0837 -2.1940 2.3433 0.0000 33.0909 0.0000
# 6 0.0000 0.0000 0.0000 -0.8008 0.0000 12.0196
#
#
#
# Elastic Compliance Matrix: (Units=1/GPa)
#
#
# Indices 1 2 3 4 5 6 
#
# 1 0.020034 0.004182 -0.009581 0.000000 -0.004544 0.000000
# 2 0.004182 0.050325 -0.018175 0.000000 0.003476 0.000000
# 3 -0.009581 -0.018175 0.018199 0.000000 0.000136 0.000000
# 4 0.000000 0.000000 0.000000 0.054561 0.000000 0.003635
# 5 -0.004544 0.003476 0.000136 0.000000 0.031688 0.000000
# 6 0.000000 0.000000 0.000000 0.003635 0.000000 0.083439
#
#
# Mechanical properties :
#
#
# Convention : Reuss Voigt Hill
#
# Bulk Modulus (GPa) = 24.14917 47.50270 35.82593
# Shear Modulus (GPa) = 15.66428 21.14284 18.40356
#
# Velocity S-wave (km/s) = 2.79942 3.25233 3.03434
# Velocity P-wave (km/s) = 4.74665 6.15377 5.49544
#
# Compressibility (1/GPa) = 0.04140930
#
# Stress axis : x y z
#
# Youngs Moduli (GPa) = 49.91487 19.87102 54.94736
#
# Poissons Ratio (x) = -0.08309 0.52644
# Poissons Ratio (y) = -0.20872 0.99867
# Poissons Ratio (z) = 0.47822 0.36116
#
# Static dielectric constant tensor:
#      x y z
#    x 1.732840 0.000000 0.015410 
#    y 0.000000 1.678830 0.000000 
#    z 0.015410 0.000000 1.723640 
# 
# From -- ./inp_files/250084.got.cif
#   From: 2010.05.17/outbox.cif.g08.bks.cpg/sg12_126_cif.got.tgz:250084.got - 2010.06.03 13:09:07.
