data_PCOD9194861
_publ_section_title
;
Structure prediction by ZEFSAII (Michael W. Deem and Ramdas Pophale) SiO2 
 PCOD9194861
Probable space group: C 2/M
;
_chemical_formula_sum "Si O2"
_cell_formula_units_Z 58
_cell_length_a 5.150049
_cell_length_b 21.394145
_cell_length_c 25.497106
_cell_angle_alpha 90.000000
_cell_angle_beta 65.417630
_cell_angle_gamma 90.000000
_cell_volume 2554.671232
_symmetry_space_group_name_H-M "C 2/M"
_symmetry_group_IT_number 12
_symmetry_cell_setting 'monoclinic'
loop_
_space_group_symop_operation_xyz
x,y,z
-x,y,-z
-x,-y,-z
x,-y,z
1/2+x,1/2+y,z
1/2-x,1/2+y,-z
1/2-x,1/2-y,-z
1/2+x,1/2-y,z
loop_
_atom_site_type_symbol
_atom_site_label
_atom_site_fract_x
_atom_site_fract_y
_atom_site_fract_z
Si Si1 0.321953 0.928692 0.791964
Si Si2 0.682524 0.208794 0.937619
Si Si3 0.519956 0.292794 0.701193
Si Si4 0.755555 0.143405 0.821376
Si Si5 0.637229 0.430125 0.328053
Si Si6 0.390079 0.773962 0.434279
Si Si7 0.240849 0.416308 0.560541
Si Si8 0.000000 0.500000 0.500000
O O1 0.461104 0.885257 0.824747
O O2 0.553021 0.924488 0.725488
O O3 0.011786 0.907097 0.799671
O O4 0.312787 0.000000 0.810523
O O5 0.480345 0.266264 0.935716
O O6 0.728314 0.168497 0.882127
O O7 0.500000 0.178035 0.000000
O O8 0.820751 0.260488 0.690946
O O9 0.360277 0.305732 0.770418
O O10 0.516862 0.364249 0.675679
O O11 0.518699 0.500000 0.322200
O O12 0.693422 0.433674 0.385740
O O13 0.250000 0.750000 0.500000
O O14 0.726413 0.770098 0.408102
O O15 0.288675 0.842979 0.435454
O O16 0.500000 0.435169 0.500000
O O17 0.986135 0.446386 0.548484
#
# Coordination Sequence:
#
# PCOD9194861 Si02
#       8
#     8   8   8   8   8   8   8   2
#     4  10  22  41  64  94 124 173 231 278 334 400
#     4  10  20  34  57  95 135 177 223 272 336 409
#     4  11  23  43  66 101 132 168 219 275 335 388
#     4  11  20  38  67  93 133 177 219 279 336 397
#     4  10  24  47  66  95 133 169 219 276 339 411
#     4  10  20  40  65  91 117 152 192 239 300 382
#     4  12  25  46  67  93 126 163 212 264 330 403
#     4  12  26  44  64  98 116 168 210 262 316 410
#
# _framework density 22.703507999999999
#
# number of rings (size 3 to 8) (size 9 to 14) (size 15 to 20)
#    0.000    1.379    2.069    4.759    0.000    1.655 
#    7.448    0.690    0.000    2.483    0.000    0.000 
#    0.000    0.000    0.000    0.000    0.000    0.000 
#
# Total GULP energy -161833.202863 kJ/mol
# GULP energy per Si atom -5580.455271 kJ/mol
# Density = 2.265183 g / cm^3
# Si number density = 22.703508 Si / 1000 Ang^3
#
#
#
# Elastic Constant Matrix: (Units=GPa)
#
#
# Indices 1 2 3 4 5 6 
#
# 1 82.5732 19.4190 6.9845 0.0000 3.8299 0.0000
# 2 19.4190 132.4010 30.3351 0.0000 -1.7839 0.0000
# 3 6.9845 30.3351 118.2550 0.0000 26.3597 0.0000
# 4 0.0000 0.0000 0.0000 14.3336 0.0000 0.7452
# 5 3.8299 -1.7839 26.3597 0.0000 34.7790 0.0000
# 6 0.0000 0.0000 0.0000 0.7452 0.0000 55.0586
#
#
#
# Elastic Compliance Matrix: (Units=1/GPa)
#
#
# Indices 1 2 3 4 5 6 
#
# 1 0.012620 -0.001892 0.000086 0.000000 -0.001552 0.000000
# 2 -0.001892 0.008474 -0.002654 0.000000 0.002654 0.000000
# 3 0.000086 -0.002654 0.011027 0.000000 -0.008503 0.000000
# 4 0.000000 0.000000 0.000000 0.069816 0.000000 -0.000945
# 5 -0.001552 0.002654 -0.008503 0.000000 0.035505 0.000000
# 6 0.000000 0.000000 0.000000 -0.000945 0.000000 0.018175
#
#
# Mechanical properties :
#
#
# Convention : Reuss Voigt Hill
#
# Bulk Modulus (GPa) = 43.09876 49.63404 46.36640
# Shear Modulus (GPa) = 29.02414 39.26692 34.14553
#
# Velocity S-wave (km/s) = 3.57935 4.16330 3.88232
# Velocity P-wave (km/s) = 6.00890 6.70970 6.36894
#
# Compressibility (1/GPa) = 0.02320252
#
# Stress axis : x y z
#
# Youngs Moduli (GPa) = 79.23922 118.00802 90.68277
#
# Poissons Ratio (x) = 0.22321 -0.00777
# Poissons Ratio (y) = 0.14988 0.24064
# Poissons Ratio (z) = -0.00679 0.31316
#
# Static dielectric constant tensor:
#      x y z
#    x 1.987560 0.000000 0.002890 
#    y 0.000000 1.816490 0.000000 
#    z 0.002890 0.000000 1.852620 
# 
# From -- ./inp_files/355109.got.cif
#   From: 2010.05.17/outbox.cif.g08.bks.cpg/sg12_178_cif.got.tgz:355109.got - 2010.06.03 13:09:07.
