data_PCOD9194389
_publ_section_title
;
Structure prediction by ZEFSAII (Michael W. Deem and Ramdas Pophale) SiO2 
 PCOD9194389
Probable space group: C 2/M
;
_chemical_formula_sum "Si O2"
_cell_formula_units_Z 44
_cell_length_a 13.368172
_cell_length_b 25.391116
_cell_length_c 11.101345
_cell_angle_alpha 90.000000
_cell_angle_beta 147.735769
_cell_angle_gamma 90.000000
_cell_volume 2011.536717
_symmetry_space_group_name_H-M "C 2/M"
_symmetry_group_IT_number 12
_symmetry_cell_setting 'monoclinic'
loop_
_space_group_symop_operation_xyz
x,y,z
-x,y,-z
-x,-y,-z
x,-y,z
1/2+x,1/2+y,z
1/2-x,1/2+y,-z
1/2-x,1/2-y,-z
1/2+x,1/2-y,z
loop_
_atom_site_type_symbol
_atom_site_label
_atom_site_fract_x
_atom_site_fract_y
_atom_site_fract_z
Si Si1 0.657082 0.692368 0.899327
Si Si2 0.762470 0.059702 0.861835
Si Si3 0.000000 0.214629 0.000000
Si Si4 0.149679 0.249708 0.525534
Si Si5 0.833256 0.938804 0.647842
Si Si6 0.014059 0.638505 0.313383
O O1 0.560505 0.684148 0.936454
O O2 0.497130 0.702477 0.636644
O O3 0.750000 0.750000 0.000000
O O4 0.836415 0.656431 0.050636
O O5 0.808076 0.063464 0.767153
O O6 0.591995 0.096917 0.713337
O O7 0.706163 0.000000 0.829090
O O8 0.943045 0.070651 0.130999
O O9 0.818436 0.250057 0.790011
O O10 0.250000 0.250000 0.500000
O O11 0.064502 0.308707 0.438494
O O12 0.698166 0.893333 0.456670
O O13 0.793822 0.000000 0.570859
#
# Coordination Sequence:
#
# PCOD9194389 Si02
#       6
#     8   8   4   8   8   8
#     4   9  21  35  47  77 104 131 184 230 262 312
#     4   9  19  31  43  68 102 133 176 221 251 304
#     4  10  20  34  56  68  99 146 169 228 278 312
#     4   9  21  36  48  73 104 130 184 232 265 311
#     4   9  19  31  43  68 104 134 173 222 253 304
#     4  11  20  28  51  66  97 140 173 222 260 307
#
# _framework density 21.873825
#
# number of rings (size 3 to 8) (size 9 to 14) (size 15 to 20)
#    0.000    2.545    0.000    2.182   10.182    3.636 
#    0.000    0.000    0.000    0.000    0.000    0.000 
#    0.000    0.000    0.000  386.182    0.000    0.000 
#
# Total GULP energy -122474.408633 kJ/mol
# GULP energy per Si atom -5567.018574 kJ/mol
# Density = 2.182404 g / cm^3
# Si number density = 21.873825 Si / 1000 Ang^3
#
#
#
# Elastic Constant Matrix: (Units=GPa)
#
#
# Indices 1 2 3 4 5 6 
#
# 1 55.0817 18.4626 6.5198 0.0000 7.2768 0.0000
# 2 18.4626 102.0665 61.4404 0.0000 15.7063 0.0000
# 3 6.5198 61.4404 173.0241 0.0000 18.2903 0.0000
# 4 0.0000 0.0000 0.0000 13.3192 0.0000 19.9129
# 5 7.2768 15.7063 18.2903 0.0000 25.7538 0.0000
# 6 0.0000 0.0000 0.0000 19.9129 0.0000 19.5253
#
#
#
# Elastic Compliance Matrix: (Units=1/GPa)
#
#
# Indices 1 2 3 4 5 6 
#
# 1 0.019762 -0.003505 0.000934 0.000000 -0.004110 0.000000
# 2 -0.003505 0.013662 -0.004263 0.000000 -0.004314 0.000000
# 3 0.000934 -0.004263 0.007580 0.000000 -0.003048 0.000000
# 4 0.000000 0.000000 0.000000 -0.143081 0.000000 0.145921
# 5 -0.004110 -0.004314 -0.003048 0.000000 0.044786 0.000000
# 6 0.000000 0.000000 0.000000 0.145921 0.000000 -0.097603
#
#
# Mechanical properties :
#
#
# Convention : Reuss Voigt Hill
#
# Bulk Modulus (GPa) = 36.58067 55.89088 46.23577
# Shear Modulus (GPa) = -37.84587 27.96961 -4.93813
#
# Velocity S-wave (km/s) = -4.16407 3.57974 -1.50414
# Velocity P-wave (km/s) = 2.52180 6.53399 4.26225
#
# Compressibility (1/GPa) = 0.02733684
#
# Stress axis : x y z
#
# Youngs Moduli (GPa) = 50.60230 73.19822 131.92064
#
# Poissons Ratio (x) = 0.25654 -0.12325
# Poissons Ratio (y) = 0.17734 0.56239
# Poissons Ratio (z) = -0.04728 0.31205
#
# Static dielectric constant tensor:
#      x y z
#    x 1.859840 0.000000 0.059010 
#    y 0.000000 1.860570 0.000000 
#    z 0.059010 0.000000 1.947060 
# 
# From -- ./inp_files/149543.got.cif
#   From: 2010.05.17/outbox.cif.g08.bks.cpg/sg12_75_cif.got.tgz:149543.got - 2010.06.03 13:09:07.
