data_PCOD9194172
_publ_section_title
;
Structure prediction by ZEFSAII (Michael W. Deem and Ramdas Pophale) SiO2 
 PCOD9194172
Probable space group: C 2/M
;
_chemical_formula_sum "Si O2"
_cell_formula_units_Z 56
_cell_length_a 18.393765
_cell_length_b 18.057716
_cell_length_c 14.325390
_cell_angle_alpha 90.000000
_cell_angle_beta 41.860282
_cell_angle_gamma 90.000000
_cell_volume 3175.204670
_symmetry_space_group_name_H-M "C 2/M"
_symmetry_group_IT_number 12
_symmetry_cell_setting 'monoclinic'
loop_
_space_group_symop_operation_xyz
x,y,z
-x,y,-z
-x,-y,-z
x,-y,z
1/2+x,1/2+y,z
1/2-x,1/2+y,-z
1/2-x,1/2-y,-z
1/2+x,1/2-y,z
loop_
_atom_site_type_symbol
_atom_site_label
_atom_site_fract_x
_atom_site_fract_y
_atom_site_fract_z
Si Si1 0.452429 0.140152 0.441740
Si Si2 0.543153 0.583687 0.757117
Si Si3 0.321378 0.342071 0.033680
Si Si4 0.767679 0.917337 0.273412
Si Si5 0.121754 0.765714 0.618824
Si Si6 0.879921 0.413499 0.871582
Si Si7 0.467585 0.798014 0.922531
O O1 0.500000 0.145082 0.500000
O O2 0.335401 0.101242 0.563961
O O3 0.431636 0.219492 0.414069
O O4 0.533729 0.096621 0.295656
O O5 0.543175 0.500000 0.719570
O O6 0.624094 0.585248 0.768298
O O7 0.589456 0.648043 0.646119
O O8 0.424225 0.607147 0.906512
O O9 0.278858 0.362347 0.177026
O O10 0.224101 0.363707 0.057543
O O11 0.369627 0.259633 0.994054
O O12 0.753984 0.000000 0.247439
O O13 0.250000 0.750000 0.500000
O O14 0.067543 0.733732 0.765387
O O15 0.852679 0.500000 0.908058
O O16 0.933586 0.376839 0.911880
O O17 0.500000 0.798755 0.000000
#
# Coordination Sequence:
#
# PCOD9194172 Si02
#       7
#     8   8   8   8   8   8   8
#     4  11  22  35  56  84 116 151 187 232 292 355
#     4  10  20  34  55  82 113 150 191 235 286 338
#     4  11  20  35  57  83 117 152 189 237 288 345
#     4  11  20  31  54  85 117 148 182 231 291 347
#     4  10  20  38  57  82 112 152 193 237 284 340
#     4  11  23  38  58  87 121 154 193 241 294 348
#     4  10  23  39  60  85 117 157 200 240 282 349
#
# _framework density 17.636658000000001
#
# number of rings (size 3 to 8) (size 9 to 14) (size 15 to 20)
#    0.000    1.429    2.857    4.286    0.000    2.000 
#    0.000    0.000    0.000    0.429    0.000    0.000 
#    0.000    0.000    0.000    0.000    0.000    0.000 
#
# Total GULP energy -156278.624928 kJ/mol
# GULP energy per Si atom -5581.379462 kJ/mol
# Density = 1.759652 g / cm^3
# Si number density = 17.636658 Si / 1000 Ang^3
#
#
#
# Elastic Constant Matrix: (Units=GPa)
#
#
# Indices 1 2 3 4 5 6 
#
# 1 72.0202 43.6459 36.7027 0.0000 -1.8625 0.0000
# 2 43.6459 87.5047 18.2604 0.0000 9.7819 0.0000
# 3 36.7027 18.2604 90.6400 0.0000 -14.4279 0.0000
# 4 0.0000 0.0000 0.0000 14.2562 0.0000 7.7555
# 5 -1.8625 9.7819 -14.4279 0.0000 26.0648 0.0000
# 6 0.0000 0.0000 0.0000 7.7555 0.0000 -17.4427
#
#
#
# Elastic Compliance Matrix: (Units=1/GPa)
#
#
# Indices 1 2 3 4 5 6 
#
# 1 0.024168 -0.010704 -0.007364 0.000000 0.001668 0.000000
# 2 -0.010704 0.017719 -0.000456 0.000000 -0.007667 0.000000
# 3 -0.007364 -0.000456 0.015408 0.000000 0.008173 0.000000
# 4 0.000000 0.000000 0.000000 0.056483 0.000000 0.025114
# 5 0.001668 -0.007667 0.008173 0.000000 0.045887 0.000000
# 6 0.000000 0.000000 0.000000 0.025114 0.000000 -0.046164
#
#
# Mechanical properties :
#
#
# Convention : Reuss Voigt Hill
#
# Bulk Modulus (GPa) = 49.39205 49.70923 49.55064
# Shear Modulus (GPa) = 31.78683 14.67939 23.23311
#
# Velocity S-wave (km/s) = 4.24998 2.88813 3.63343
# Velocity P-wave (km/s) = 7.22144 6.27440 6.76451
#
# Compressibility (1/GPa) = 0.02024617
#
# Stress axis : x y z
#
# Youngs Moduli (GPa) = 41.37654 56.43575 64.90310
#
# Poissons Ratio (x) = 0.60411 0.47798
# Poissons Ratio (y) = 0.44291 0.02957
# Poissons Ratio (z) = 0.30472 0.02572
#
# Static dielectric constant tensor:
#      x y z
#    x 1.592120 0.000000 -0.020480 
#    y 0.000000 1.621840 0.000000 
#    z -0.020480 0.000000 1.592080 
# 
# From -- ./inp_files/158203.got.cif
#   From: 2010.05.17/outbox.cif.g08.bks.cpg/sg12_80_cif.got.tgz:158203.got - 2010.06.03 13:09:07.
