data_PCOD9194379
_publ_section_title
;
Structure prediction by ZEFSAII (Michael W. Deem and Ramdas Pophale) SiO2 
 PCOD9194379
Probable space group: C 2/M
;
_chemical_formula_sum "Si O2"
_cell_formula_units_Z 42
_cell_length_a 24.718832
_cell_length_b 7.595546
_cell_length_c 10.574401
_cell_angle_alpha 90.000000
_cell_angle_beta 78.477974
_cell_angle_gamma 90.000000
_cell_volume 1945.366468
_symmetry_space_group_name_H-M "C 2/M"
_symmetry_group_IT_number 12
_symmetry_cell_setting 'monoclinic'
loop_
_space_group_symop_operation_xyz
x,y,z
-x,y,-z
-x,-y,-z
x,-y,z
1/2+x,1/2+y,z
1/2-x,1/2+y,-z
1/2-x,1/2-y,-z
1/2+x,1/2-y,z
loop_
_atom_site_type_symbol
_atom_site_label
_atom_site_fract_x
_atom_site_fract_y
_atom_site_fract_z
Si Si1 0.307878 0.706899 0.537819
Si Si2 0.051575 0.785890 0.893855
Si Si3 0.572633 0.711122 0.598344
Si Si4 0.289686 0.796551 0.825847
Si Si5 0.331368 0.702219 0.066435
Si Si6 0.000000 0.500000 0.500000
O O1 0.308618 0.500000 0.559867
O O2 0.250000 0.750000 0.500000
O O3 0.361580 0.747098 0.429394
O O4 0.311969 0.789902 0.674423
O O5 0.046900 0.747938 0.747649
O O6 0.052221 0.000000 0.905408
O O7 0.110812 0.719599 0.916142
O O8 0.000000 0.721420 0.000000
O O9 0.565302 0.500000 0.576042
O O10 0.545250 0.843233 0.513064
O O11 0.325914 0.706099 0.916947
O O12 0.286035 0.000000 0.868020
O O13 0.227001 0.721947 0.857775
O O14 0.331662 0.500000 0.112428
#
# Coordination Sequence:
#
# PCOD9194379 Si02
#       6
#     8   8   8   8   8   2
#     4  11  23  39  63  92 129 169 213 270 333 397
#     4   9  18  37  64  89 118 162 212 260 324 388
#     4  10  24  45  66  97 134 174 220 277 335 387
#     4  10  20  34  55  88 125 161 205 257 320 387
#     4   9  18  35  57  85 122 161 203 258 320 383
#     4  12  26  44  70  94 132 184 226 272 310 410
#
# _framework density 21.589763999999999
#
# number of rings (size 3 to 8) (size 9 to 14) (size 15 to 20)
#    0.000    2.095    0.000    2.571    2.667    5.333 
#    1.714    4.286    0.000    0.000    0.000    0.000 
#    0.000    0.000    0.000    0.000    0.000    0.000 
#
# Total GULP energy -116963.117882 kJ/mol
# GULP energy per Si atom -5569.672280 kJ/mol
# Density = 2.154062 g / cm^3
# Si number density = 21.589764 Si / 1000 Ang^3
#
#
#
# Elastic Constant Matrix: (Units=GPa)
#
#
# Indices 1 2 3 4 5 6 
#
# 1 72.7611 27.9196 -16.6088 0.0000 -10.2816 0.0000
# 2 27.9196 71.6383 5.5951 0.0000 -8.8916 0.0000
# 3 -16.6088 5.5951 65.6356 0.0000 -21.5362 0.0000
# 4 0.0000 0.0000 0.0000 11.8446 0.0000 4.6897
# 5 -10.2816 -8.8916 -21.5362 0.0000 19.4308 0.0000
# 6 0.0000 0.0000 0.0000 4.6897 0.0000 23.1760
#
#
#
# Elastic Compliance Matrix: (Units=1/GPa)
#
#
# Indices 1 2 3 4 5 6 
#
# 1 0.023602 -0.007157 0.015095 0.000000 0.025944 0.000000
# 2 -0.007157 0.017066 -0.003058 0.000000 0.000633 0.000000
# 3 0.015095 -0.003058 0.033753 0.000000 0.043998 0.000000
# 4 0.000000 0.000000 0.000000 0.091780 0.000000 -0.018572
# 5 0.025944 0.000633 0.043998 0.000000 0.114248 0.000000
# 6 0.000000 0.000000 0.000000 -0.018572 0.000000 0.046906
#
#
# Mechanical properties :
#
#
# Convention : Reuss Voigt Hill
#
# Bulk Modulus (GPa) = 11.87937 27.09408 19.48672
# Shear Modulus (GPa) = 14.46536 23.76556 19.11546
#
# Velocity S-wave (km/s) = 2.59126 3.32140 2.97879
# Velocity P-wave (km/s) = 3.80357 5.22357 4.56907
#
# Compressibility (1/GPa) = 0.08417958
#
# Stress axis : x y z
#
# Youngs Moduli (GPa) = 42.36984 58.59699 29.62737
#
# Poissons Ratio (x) = 0.41939 -0.44723
# Poissons Ratio (y) = 0.30325 0.09061
# Poissons Ratio (z) = -0.63958 0.17921
#
# Static dielectric constant tensor:
#      x y z
#    x 1.773970 0.000000 -0.026210 
#    y 0.000000 1.791810 0.000000 
#    z -0.026210 0.000000 1.756990 
# 
# From -- ./inp_files/163031.got.cif
#   From: 2010.05.17/outbox.cif.g08.bks.cpg/sg12_82_cif.got.tgz:163031.got - 2010.06.03 13:09:07.
