data_PCOD9194525
_publ_section_title
;
Structure prediction by ZEFSAII (Michael W. Deem and Ramdas Pophale) SiO2 
 PCOD9194525
Probable space group: C 2/M
;
_chemical_formula_sum "Si O2"
_cell_formula_units_Z 56
_cell_length_a 12.319196
_cell_length_b 26.356040
_cell_length_c 9.309643
_cell_angle_alpha 90.000000
_cell_angle_beta 116.565563
_cell_angle_gamma 90.000000
_cell_volume 2703.576133
_symmetry_space_group_name_H-M "C 2/M"
_symmetry_group_IT_number 12
_symmetry_cell_setting 'monoclinic'
loop_
_space_group_symop_operation_xyz
x,y,z
-x,y,-z
-x,-y,-z
x,-y,z
1/2+x,1/2+y,z
1/2-x,1/2+y,-z
1/2-x,1/2-y,-z
1/2+x,1/2-y,z
loop_
_atom_site_type_symbol
_atom_site_label
_atom_site_fract_x
_atom_site_fract_y
_atom_site_fract_z
Si Si1 0.278479 0.679048 0.189102
Si Si2 0.939916 0.648406 0.119389
Si Si3 0.476388 0.379636 0.649047
Si Si4 0.244071 0.311374 0.496513
Si Si5 0.095107 0.560817 0.688544
Si Si6 0.883931 0.940551 0.839769
Si Si7 0.096091 0.279489 0.660157
O O1 0.398023 0.646162 0.233998
O O2 0.223368 0.669666 0.318687
O O3 0.315059 0.738087 0.220780
O O4 0.194752 0.664745 0.007344
O O5 0.948709 0.594873 0.204013
O O6 0.973577 0.691171 0.255854
O O7 0.000000 0.648668 0.000000
O O8 0.500000 0.393857 0.500000
O O9 0.372312 0.337291 0.605784
O O10 0.429472 0.427498 0.708293
O O11 0.250000 0.250000 0.500000
O O12 0.159423 0.319020 0.587390
O O13 0.089564 0.500000 0.709897
O O14 0.240247 0.574511 0.760961
O O15 0.000000 0.570647 0.500000
O O16 0.880919 0.000000 0.870908
O O17 0.000000 0.918428 0.000000
O O18 0.000000 0.251108 0.500000
#
# Coordination Sequence:
#
# PCOD9194525 Si02
#       7
#     8   8   8   8   8   8   8
#     4  10  21  38  56  85 121 157 197 248 305 353
#     4  12  25  38  58  90 122 153 200 254 304 360
#     4  10  20  34  56  84 117 153 192 240 299 358
#     4   9  18  34  57  81 110 156 203 239 284 349
#     4  10  23  45  68  89 118 159 204 249 306 373
#     4  10  21  39  63  90 118 151 196 246 295 353
#     4  11  21  38  59  81 117 163 206 246 294 355
#
# _framework density 20.713305999999999
#
# number of rings (size 3 to 8) (size 9 to 14) (size 15 to 20)
#    0.000    1.714    0.000    5.571    0.000    4.000 
#    0.000    2.143    0.000    6.000    0.000    0.000 
#    0.000    0.000    0.000    0.000    0.000    0.000 
#
# Total GULP energy -155901.279580 kJ/mol
# GULP energy per Si atom -5567.902842 kJ/mol
# Density = 2.066616 g / cm^3
# Si number density = 20.713306 Si / 1000 Ang^3
#
#
#
# Elastic Constant Matrix: (Units=GPa)
#
#
# Indices 1 2 3 4 5 6 
#
# 1 88.6738 0.7304 25.3606 0.0000 -15.4890 0.0000
# 2 0.7304 30.7972 33.0702 0.0000 -6.8176 0.0000
# 3 25.3606 33.0702 108.9027 0.0000 11.7521 0.0000
# 4 0.0000 0.0000 0.0000 33.3661 0.0000 -7.1294
# 5 -15.4890 -6.8176 11.7521 0.0000 34.8755 0.0000
# 6 0.0000 0.0000 0.0000 -7.1294 0.0000 25.8159
#
#
#
# Elastic Compliance Matrix: (Units=1/GPa)
#
#
# Indices 1 2 3 4 5 6 
#
# 1 0.015667 0.011254 -0.008358 0.000000 0.011974 0.000000
# 2 0.011254 0.065081 -0.025213 0.000000 0.026217 0.000000
# 3 -0.008358 -0.025213 0.020462 0.000000 -0.015536 0.000000
# 4 0.000000 0.000000 0.000000 0.031850 0.000000 0.008796
# 5 0.011974 0.026217 -0.015536 0.000000 0.044352 0.000000
# 6 0.000000 0.000000 0.000000 0.008796 0.000000 0.041165
#
#
# Mechanical properties :
#
#
# Convention : Reuss Voigt Hill
#
# Bulk Modulus (GPa) = 17.67542 38.52177 28.09860
# Shear Modulus (GPa) = 17.72622 30.09234 23.90928
#
# Velocity S-wave (km/s) = 2.92856 3.81570 3.40118
# Velocity P-wave (km/s) = 4.47070 6.16853 5.38692
#
# Compressibility (1/GPa) = 0.05657573
#
# Stress axis : x y z
#
# Youngs Moduli (GPa) = 63.83009 15.36546 48.87166
#
# Poissons Ratio (x) = -0.17293 0.40847
# Poissons Ratio (y) = -0.71835 1.23220
# Poissons Ratio (z) = 0.53350 0.38741
#
# Static dielectric constant tensor:
#      x y z
#    x 1.846410 0.000000 0.040160 
#    y 0.000000 1.720700 0.000000 
#    z 0.040160 0.000000 1.802860 
# 
# From -- ./inp_files/54826.got.cif
#   From: 2010.05.17/outbox.cif.g08.bks.cpg/sg12_28_cif.got.tgz:54826.got - 2010.06.03 13:09:07.
