data_PCOD9194112
_publ_section_title
;
Structure prediction by ZEFSAII (Michael W. Deem and Ramdas Pophale) SiO2 
 PCOD9194112
Probable space group: C 2/M
;
_chemical_formula_sum "Si O2"
_cell_formula_units_Z 56
_cell_length_a 21.729161
_cell_length_b 8.069577
_cell_length_c 30.406733
_cell_angle_alpha 90.000000
_cell_angle_beta 30.789972
_cell_angle_gamma 90.000000
_cell_volume 2729.243422
_symmetry_space_group_name_H-M "C 2/M"
_symmetry_group_IT_number 12
_symmetry_cell_setting 'monoclinic'
loop_
_space_group_symop_operation_xyz
x,y,z
-x,y,-z
-x,-y,-z
x,-y,z
1/2+x,1/2+y,z
1/2-x,1/2+y,-z
1/2-x,1/2-y,-z
1/2+x,1/2-y,z
loop_
_atom_site_type_symbol
_atom_site_label
_atom_site_fract_x
_atom_site_fract_y
_atom_site_fract_z
Si Si1 0.497325 0.203123 0.451114
Si Si2 0.917195 0.801191 0.091185
Si Si3 0.515302 0.190982 0.700619
Si Si4 0.733013 0.807953 0.460459
Si Si5 0.649609 0.202561 0.276718
Si Si6 0.915642 0.301064 0.932622
Si Si7 0.146071 0.805291 0.124133
O O1 0.500000 0.259352 0.500000
O O2 0.376397 0.264205 0.500656
O O3 0.608775 0.250202 0.350929
O O4 0.496715 0.000000 0.452744
O O5 0.779954 0.739122 0.179861
O O6 0.984761 0.760692 0.094931
O O7 0.910124 0.000000 0.090206
O O8 0.000000 0.736619 0.000000
O O9 0.636285 0.281499 0.640716
O O10 0.454354 0.256490 0.693382
O O11 0.415935 0.206401 0.799057
O O12 0.547888 0.000000 0.673300
O O13 0.750000 0.750000 0.500000
O O14 0.705231 0.000000 0.480279
O O15 0.651555 0.000000 0.274020
O O16 0.919054 0.500000 0.927176
O O17 0.921277 0.226283 0.880528
O O18 0.784192 0.253385 0.032146
O O19 0.143458 0.000000 0.136286
#
# Coordination Sequence:
#
# PCOD9194112 Si02
#       7
#     8   8   8   8   8   8   8
#     4   9  18  34  56  82 112 149 195 241 288 344
#     4  10  20  34  55  81 111 151 197 237 280 345
#     4  11  21  36  59  86 116 147 189 241 293 348
#     4  11  21  36  59  86 115 150 193 242 296 350
#     4   9  18  33  53  79 111 150 193 238 285 343
#     4  10  21  37  56  80 115 152 188 238 295 343
#     4  10  21  37  57  82 111 149 194 236 284 348
#
# _framework density 20.518508000000001
#
# number of rings (size 3 to 8) (size 9 to 14) (size 15 to 20)
#    0.000    2.000    1.429    2.571    0.000    4.286 
#    0.000    4.286    0.000    1.714    0.000    0.000 
#    0.000    0.000    0.000    0.000    0.000    0.000 
#
# Total GULP energy -156311.007574 kJ/mol
# GULP energy per Si atom -5582.535985 kJ/mol
# Density = 2.047181 g / cm^3
# Si number density = 20.518508 Si / 1000 Ang^3
#
#
#
# Elastic Constant Matrix: (Units=GPa)
#
#
# Indices 1 2 3 4 5 6 
#
# 1 108.7360 1.5821 55.2859 0.0034 -5.8493 -0.0130
# 2 1.5821 11.9761 10.0934 0.0047 2.7589 -0.0101
# 3 55.2859 10.0934 106.0840 -0.0003 4.4584 -0.0002
# 4 0.0034 0.0047 -0.0003 15.4918 0.0003 2.6944
# 5 -5.8493 2.7589 4.4584 0.0003 30.2910 0.0019
# 6 -0.0130 -0.0101 -0.0002 2.6944 0.0019 21.0279
#
#
#
# Elastic Compliance Matrix: (Units=1/GPa)
#
#
# Indices 1 2 3 4 5 6 
#
# 1 0.013012 0.003656 -0.007266 -0.000006 0.003249 0.000010
# 2 0.003656 0.093324 -0.010522 -0.000038 -0.006245 0.000052
# 3 -0.007266 -0.010522 0.014322 0.000007 -0.002553 -0.000010
# 4 -0.000006 -0.000038 0.000007 0.066022 0.000001 -0.008460
# 5 0.003249 -0.006245 -0.002553 0.000001 0.034585 -0.000004
# 6 0.000010 0.000052 -0.000010 -0.008460 -0.000004 0.048640
#
#
# Mechanical properties :
#
#
# Convention : Reuss Voigt Hill
#
# Bulk Modulus (GPa) = 10.82324 40.07988 25.45156
# Shear Modulus (GPa) = 15.19912 24.01779 19.60846
#
# Velocity S-wave (km/s) = 2.72463 3.42503 3.09471
# Velocity P-wave (km/s) = 3.89672 5.93440 5.02004
#
# Compressibility (1/GPa) = 0.09239378
#
# Stress axis : x y z
#
# Youngs Moduli (GPa) = 76.84949 10.71538 69.82486
#
# Poissons Ratio (x) = -0.03918 0.50734
# Poissons Ratio (y) = -0.28097 0.73471
# Poissons Ratio (z) = 0.55838 0.11275
#
# Static dielectric constant tensor:
#      x y z
#    x 1.716160 0.000000 -0.006590 
#    y 0.000000 1.732410 0.000000 
#    z -0.006590 0.000000 1.758690 
# 
# From -- ./inp_files/380655.got.cif
#   From: 2010.05.17/outbox.cif.g08.bks.cpg/sg12_191_cif.got.tgz:380655.got - 2010.06.03 13:09:07.
