data_PCOD9194044
_publ_section_title
;
Structure prediction by ZEFSAII (Michael W. Deem and Ramdas Pophale) SiO2 
 PCOD9194044
Probable space group: C 2/M
;
_chemical_formula_sum "Si O2"
_cell_formula_units_Z 64
_cell_length_a 16.013449
_cell_length_b 9.684484
_cell_length_c 19.676489
_cell_angle_alpha 90.000000
_cell_angle_beta 106.133913
_cell_angle_gamma 90.000000
_cell_volume 2931.286500
_symmetry_space_group_name_H-M "C 2/M"
_symmetry_group_IT_number 12
_symmetry_cell_setting 'monoclinic'
loop_
_space_group_symop_operation_xyz
x,y,z
-x,y,-z
-x,-y,-z
x,-y,z
1/2+x,1/2+y,z
1/2-x,1/2+y,-z
1/2-x,1/2-y,-z
1/2+x,1/2-y,z
loop_
_atom_site_type_symbol
_atom_site_label
_atom_site_fract_x
_atom_site_fract_y
_atom_site_fract_z
Si Si1 0.776148 0.342433 0.222969
Si Si2 0.665792 0.158000 0.404126
Si Si3 0.592349 0.160422 0.637214
Si Si4 0.307992 0.663972 0.106491
Si Si5 0.931135 0.841451 0.851217
Si Si6 0.534844 0.839201 0.264730
Si Si7 0.862965 0.165627 0.975790
Si Si8 0.628318 0.659345 0.521717
O O1 0.800678 0.500000 0.209247
O O2 0.812676 0.322184 0.306733
O O3 0.821987 0.237569 0.181402
O O4 0.672503 0.332717 0.190865
O O5 0.628739 0.185627 0.321002
O O6 0.625106 0.261050 0.449784
O O7 0.769284 0.164402 0.434468
O O8 0.639307 0.000000 0.414991
O O9 0.529136 0.187650 0.686521
O O10 0.580493 0.260189 0.571185
O O11 0.582972 0.000000 0.614423
O O12 0.296649 0.500000 0.112454
O O13 0.219059 0.737971 0.061241
O O14 0.375399 0.685539 0.059359
O O15 0.976425 0.749076 0.805117
O O16 0.931784 0.805097 0.931508
O O17 0.959089 0.000000 0.850217
O O18 0.527494 0.000000 0.245223
O O19 0.842836 0.000000 0.963425
O O20 0.602940 0.500000 0.510096
#
# Coordination Sequence:
#
# PCOD9194044 Si02
#       8
#     8   8   8   8   8   8   8   8
#     4   9  18  32  49  70  97 129 163 198 242 294
#     4   9  19  36  55  75 101 129 157 195 241 286
#     4  10  21  36  52  70  98 134 164 196 242 290
#     4   9  15  24  43  70  97 124 158 202 245 286
#     4   9  17  30  49  71  96 126 158 197 244 289
#     4  10  21  35  51  72  97 128 166 202 237 283
#     4   8  15  27  42  66  99 129 158 195 245 297
#     4  10  20  34  55  80 101 124 159 200 238 284
#
# _framework density 21.833417000000001
#
# number of rings (size 3 to 8) (size 9 to 14) (size 15 to 20)
#    0.000    2.750    0.000    2.250    0.000    5.000 
#    0.000    2.500    0.000    0.750    0.000    5.250 
#    0.000    0.000    0.000    0.000    0.000    0.000 
#
# Total GULP energy -178643.545995 kJ/mol
# GULP energy per Si atom -5582.610812 kJ/mol
# Density = 2.178372 g / cm^3
# Si number density = 21.833417 Si / 1000 Ang^3
#
#
#
# Elastic Constant Matrix: (Units=GPa)
#
#
# Indices 1 2 3 4 5 6 
#
# 1 65.2562 32.0479 16.9842 0.0000 -8.8118 0.0000
# 2 32.0479 125.1353 99.1826 0.0000 -36.9289 0.0000
# 3 16.9842 99.1826 123.6677 0.0000 -24.5955 0.0000
# 4 0.0000 0.0000 0.0000 42.0957 0.0000 -15.4605
# 5 -8.8118 -36.9289 -24.5955 0.0000 42.5577 0.0000
# 6 0.0000 0.0000 0.0000 -15.4605 0.0000 15.1459
#
#
#
# Elastic Compliance Matrix: (Units=1/GPa)
#
#
# Indices 1 2 3 4 5 6 
#
# 1 0.018050 -0.007627 0.003463 0.000000 -0.000880 0.000000
# 2 -0.007627 0.029725 -0.020311 0.000000 0.012476 0.000000
# 3 0.003463 -0.020311 0.023205 0.000000 -0.003497 0.000000
# 4 0.000000 0.000000 0.000000 0.038002 0.000000 0.038792
# 5 -0.000880 0.012476 -0.003497 0.000000 0.032120 0.000000
# 6 0.000000 0.000000 0.000000 0.038792 0.000000 0.105622
#
#
# Mechanical properties :
#
#
# Convention : Reuss Voigt Hill
#
# Bulk Modulus (GPa) = 45.39338 67.83207 56.61272
# Shear Modulus (GPa) = 16.50070 31.01617 23.75844
#
# Velocity S-wave (km/s) = 2.75208 3.77315 3.30232
# Velocity P-wave (km/s) = 5.56188 7.07938 6.36601
#
# Compressibility (1/GPa) = 0.02202964
#
# Stress axis : x y z
#
# Youngs Moduli (GPa) = 55.40203 33.64162 43.09467
#
# Poissons Ratio (x) = 0.25659 -0.14925
# Poissons Ratio (y) = 0.42257 0.87530
# Poissons Ratio (z) = -0.19187 0.68330
#
# Static dielectric constant tensor:
#      x y z
#    x 1.893900 0.000000 0.029310 
#    y 0.000000 1.732020 0.000000 
#    z 0.029310 0.000000 1.779570 
# 
# From -- ./inp_files/314020.got.cif
#   From: 2010.05.17/outbox.cif.g08.bks.cpg/sg12_158_cif.got.tgz:314020.got - 2010.06.03 13:09:07.
