data_PCOD9194853
_publ_section_title
;
Structure prediction by ZEFSAII (Michael W. Deem and Ramdas Pophale) SiO2 
 PCOD9194853
Probable space group: C 2/M
;
_chemical_formula_sum "Si O2"
_cell_formula_units_Z 64
_cell_length_a 19.122527
_cell_length_b 13.939389
_cell_length_c 14.202903
_cell_angle_alpha 90.000000
_cell_angle_beta 127.188728
_cell_angle_gamma 90.000000
_cell_volume 3016.012061
_symmetry_space_group_name_H-M "C 2/M"
_symmetry_group_IT_number 12
_symmetry_cell_setting 'monoclinic'
loop_
_space_group_symop_operation_xyz
x,y,z
-x,y,-z
-x,-y,-z
x,-y,z
1/2+x,1/2+y,z
1/2-x,1/2+y,-z
1/2-x,1/2-y,-z
1/2+x,1/2-y,z
loop_
_atom_site_type_symbol
_atom_site_label
_atom_site_fract_x
_atom_site_fract_y
_atom_site_fract_z
Si Si1 0.498717 0.283770 0.609835
Si Si2 0.808790 0.742988 0.427180
Si Si3 0.529207 0.890288 0.767411
Si Si4 0.243249 0.263840 0.172856
Si Si5 0.912976 0.613766 0.981234
Si Si6 0.872466 0.890413 0.167794
Si Si7 0.089515 0.887890 0.015496
Si Si8 0.822132 0.392803 0.595920
O O1 0.500000 0.272308 0.500000
O O2 0.394795 0.291277 0.543434
O O3 0.535466 0.188935 0.691912
O O4 0.553911 0.372239 0.693400
O O5 0.805627 0.742507 0.311993
O O6 0.809721 0.638416 0.476265
O O7 0.727277 0.808227 0.390826
O O8 0.580750 0.859775 0.903335
O O9 0.425086 0.893051 0.705194
O O10 0.554728 0.000000 0.762462
O O11 0.298982 0.310194 0.132457
O O12 0.176902 0.174661 0.105960
O O13 0.173550 0.347759 0.137634
O O14 0.913990 0.500000 0.979092
O O15 0.000000 0.648968 0.000000
O O16 0.837395 0.000000 0.143183
O O17 0.918859 0.877965 0.104421
O O18 0.106103 0.000000 0.050064
O O19 0.000000 0.862347 0.000000
O O20 0.788136 0.500000 0.586035
#
# Coordination Sequence:
#
# PCOD9194853 Si02
#       8
#     8   8   8   8   8   8   8   8
#     4  11  22  42  59  83 120 163 211 258 307 375
#     4  10  22  36  58  91 120 159 215 252 311 385
#     4   9  19  36  60  87 118 154 198 251 311 374
#     4  12  22  39  63  93 130 167 207 268 321 375
#     4  10  20  34  57  92 126 162 204 251 315 381
#     4  11  25  44  66  94 128 170 218 269 324 384
#     4  10  24  45  69  98 131 171 217 260 318 392
#     4   9  19  37  59  86 123 157 198 260 312 365
#
# _framework density 21.220074
#
# number of rings (size 3 to 8) (size 9 to 14) (size 15 to 20)
#    0.000    1.750    1.250    2.625    0.000    6.500 
#    0.000    3.125    0.000    0.000    0.000    0.000 
#    0.000    0.000    0.000    0.000    0.000    0.000 
#
# Total GULP energy -178467.798531 kJ/mol
# GULP energy per Si atom -5577.118704 kJ/mol
# Density = 2.117178 g / cm^3
# Si number density = 21.220074 Si / 1000 Ang^3
#
#
#
# Elastic Constant Matrix: (Units=GPa)
#
#
# Indices 1 2 3 4 5 6 
#
# 1 91.0884 25.5082 19.2860 0.0000 3.0803 0.0000
# 2 25.5082 91.3175 20.9097 0.0000 2.4236 0.0000
# 3 19.2860 20.9097 101.4021 0.0000 -3.9818 0.0000
# 4 0.0000 0.0000 0.0000 -125.3446 0.0000 46.7123
# 5 3.0803 2.4236 -3.9818 0.0000 29.9370 0.0000
# 6 0.0000 0.0000 0.0000 46.7123 0.0000 20.3651
#
#
#
# Elastic Compliance Matrix: (Units=1/GPa)
#
#
# Indices 1 2 3 4 5 6 
#
# 1 0.012228 -0.002979 -0.001760 0.000000 -0.001251 0.000000
# 2 -0.002979 0.012266 -0.002000 0.000000 -0.000953 0.000000
# 3 -0.001760 -0.002000 0.010678 0.000000 0.001763 0.000000
# 4 0.000000 0.000000 0.000000 -0.004301 0.000000 0.009866
# 5 -0.001251 -0.000953 0.001763 0.000000 0.033844 0.000000
# 6 0.000000 0.000000 0.000000 0.009866 0.000000 0.026474
#
#
# Mechanical properties :
#
#
# Convention : Reuss Voigt Hill
#
# Bulk Modulus (GPa) = 46.09888 46.13508 46.11698
# Shear Modulus (GPa) = 44.68315 -0.46822 22.10747
#
# Velocity S-wave (km/s) = 4.59377 -0.47024 3.23122
# Velocity P-wave (km/s) = 7.06458 4.63612 5.97503
#
# Compressibility (1/GPa) = 0.02169250
#
# Stress axis : x y z
#
# Youngs Moduli (GPa) = 81.78141 81.52416 93.64854
#
# Poissons Ratio (x) = 0.24289 0.16486
# Poissons Ratio (y) = 0.24365 0.18731
# Poissons Ratio (z) = 0.14397 0.16306
#
# Static dielectric constant tensor:
#      x y z
#    x 1.847760 0.000000 -0.013570 
#    y 0.000000 1.769660 0.000000 
#    z -0.013570 0.000000 1.745120 
# 
# From -- ./inp_files/225739.got.cif
#   From: 2010.05.17/outbox.cif.g08.bks.cpg/sg12_113_cif.got.tgz:225739.got - 2010.06.03 13:09:07.
