data_PCOD9194532
_publ_section_title
;
Structure prediction by ZEFSAII (Michael W. Deem and Ramdas Pophale) SiO2 
 PCOD9194532
Probable space group: C 2/M
;
_chemical_formula_sum "Si O2"
_cell_formula_units_Z 40
_cell_length_a 16.297585
_cell_length_b 14.379157
_cell_length_c 9.281666
_cell_angle_alpha 90.000000
_cell_angle_beta 117.855219
_cell_angle_gamma 90.000000
_cell_volume 1923.088522
_symmetry_space_group_name_H-M "C 2/M"
_symmetry_group_IT_number 12
_symmetry_cell_setting 'monoclinic'
loop_
_space_group_symop_operation_xyz
x,y,z
-x,y,-z
-x,-y,-z
x,-y,z
1/2+x,1/2+y,z
1/2-x,1/2+y,-z
1/2-x,1/2-y,-z
1/2+x,1/2-y,z
loop_
_atom_site_type_symbol
_atom_site_label
_atom_site_fract_x
_atom_site_fract_y
_atom_site_fract_z
Si Si1 0.777573 0.605625 0.020348
Si Si2 0.911759 0.350810 0.512751
Si Si3 0.204589 0.900687 0.278197
Si Si4 0.958404 0.237262 0.807185
Si Si5 0.624763 0.717407 0.766231
O O1 0.811863 0.500000 0.022734
O O2 0.715408 0.601876 0.114179
O O3 0.848515 0.688211 0.120561
O O4 0.710467 0.647217 0.843526
O O5 0.810847 0.395898 0.419819
O O6 0.940081 0.329545 0.698517
O O7 0.895911 0.254705 0.409646
O O8 0.000000 0.394265 0.500000
O O9 0.138287 0.817331 0.266145
O O10 0.163800 0.000000 0.288163
O O11 0.034401 0.181482 0.774526
O O12 0.000000 0.251079 0.000000
#
# Coordination Sequence:
#
# PCOD9194532 Si02
#       5
#     8   8   8   8   8
#     4   9  17  32  56  82 107 142 187 226 267 324
#     4   9  20  37  57  79 105 146 187 222 269 332
#     4  10  20  34  56  85 110 140 183 233 276 323
#     4  11  20  34  56  83 109 145 182 224 275 336
#     4   9  18  34  54  80 109 145 182 224 273 324
#
# _framework density 20.799873999999999
#
# number of rings (size 3 to 8) (size 9 to 14) (size 15 to 20)
#    0.000    2.400    2.000    0.600    0.000    1.600 
#    0.000    4.000    0.000    4.800    0.000    0.000 
#    0.000    0.000    0.000    0.000    0.000    0.000 
#
# Total GULP energy -111386.480206 kJ/mol
# GULP energy per Si atom -5569.324010 kJ/mol
# Density = 2.075253 g / cm^3
# Si number density = 20.799874 Si / 1000 Ang^3
#
#
#
# Elastic Constant Matrix: (Units=GPa)
#
#
# Indices 1 2 3 4 5 6 
#
# 1 76.3432 32.5955 13.1127 0.0000 10.6259 0.0000
# 2 32.5955 74.3852 17.8685 0.0000 8.3131 0.0000
# 3 13.1127 17.8685 84.1843 0.0000 9.5909 0.0000
# 4 0.0000 0.0000 0.0000 -2.1828 0.0000 6.7349
# 5 10.6259 8.3131 9.5909 0.0000 29.7600 0.0000
# 6 0.0000 0.0000 0.0000 6.7349 0.0000 -4.0044
#
#
#
# Elastic Compliance Matrix: (Units=1/GPa)
#
#
# Indices 1 2 3 4 5 6 
#
# 1 0.016607 -0.006673 -0.000734 0.000000 -0.003829 0.000000
# 2 -0.006673 0.017128 -0.002411 0.000000 -0.001625 0.000000
# 3 -0.000734 -0.002411 0.012871 0.000000 -0.003212 0.000000
# 4 0.000000 0.000000 0.000000 0.109353 0.000000 0.183922
# 5 -0.003829 -0.001625 -0.003212 0.000000 0.036458 0.000000
# 6 0.000000 0.000000 0.000000 0.183922 0.000000 0.059610
#
#
# Mechanical properties :
#
#
# Convention : Reuss Voigt Hill
#
# Bulk Modulus (GPa) = 37.07842 40.22956 38.65399
# Shear Modulus (GPa) = 17.81552 16.13695 16.97623
#
# Velocity S-wave (km/s) = 2.92981 2.78838 2.85997
# Velocity P-wave (km/s) = 5.41387 5.45435 5.43415
#
# Compressibility (1/GPa) = 0.02696987
#
# Stress axis : x y z
#
# Youngs Moduli (GPa) = 60.21631 58.38273 77.69535
#
# Poissons Ratio (x) = 0.38958 0.05704
# Poissons Ratio (y) = 0.40181 0.18733
# Poissons Ratio (z) = 0.04421 0.14076
#
# Static dielectric constant tensor:
#      x y z
#    x 1.776700 0.000000 0.034010 
#    y 0.000000 1.752590 0.000000 
#    z 0.034010 0.000000 1.767580 
# 
# From -- ./inp_files/59219.got.cif
#   From: 2010.05.17/outbox.cif.g08.bks.cpg/sg12_30_cif.got.tgz:59219.got - 2010.06.03 13:09:07.
