data_PCOD9194440
_publ_section_title
;
Structure prediction by ZEFSAII (Michael W. Deem and Ramdas Pophale) SiO2 
 PCOD9194440
Probable space group: C 2/M
;
_chemical_formula_sum "Si O2"
_cell_formula_units_Z 64
_cell_length_a 25.074881
_cell_length_b 15.069020
_cell_length_c 9.330364
_cell_angle_alpha 90.000000
_cell_angle_beta 108.927271
_cell_angle_gamma 90.000000
_cell_volume 3334.893511
_symmetry_space_group_name_H-M "C 2/M"
_symmetry_group_IT_number 12
_symmetry_cell_setting 'monoclinic'
loop_
_space_group_symop_operation_xyz
x,y,z
-x,y,-z
-x,-y,-z
x,-y,z
1/2+x,1/2+y,z
1/2-x,1/2+y,-z
1/2-x,1/2-y,-z
1/2+x,1/2-y,z
loop_
_atom_site_type_symbol
_atom_site_label
_atom_site_fract_x
_atom_site_fract_y
_atom_site_fract_z
Si Si1 0.786957 0.832245 0.591803
Si Si2 0.247051 0.401993 0.088927
Si Si3 0.356153 0.600171 0.378574
Si Si4 0.845710 0.264715 0.896411
Si Si5 0.111856 0.259855 0.755905
Si Si6 0.439856 0.101609 0.867872
Si Si7 0.203726 0.401877 0.740217
Si Si8 0.486276 0.900372 0.321948
O O1 0.750000 0.750000 0.500000
O O2 0.823292 0.874498 0.495844
O O3 0.828657 0.801156 0.755104
O O4 0.740450 0.892922 0.629640
O O5 0.222725 0.500000 0.101409
O O6 0.307514 0.398849 0.214357
O O7 0.209052 0.324809 0.119859
O O8 0.244378 0.393947 0.914918
O O9 0.379033 0.500000 0.408626
O O10 0.397609 0.677499 0.359269
O O11 0.894434 0.330069 0.883505
O O12 0.865546 0.229296 0.068403
O O13 0.158615 0.323835 0.722372
O O14 0.059118 0.323778 0.740788
O O15 0.456870 0.115821 0.717728
O O16 0.420876 0.000000 0.871366
O O17 0.500000 0.111935 0.000000
O O18 0.176887 0.500000 0.722760
O O19 0.500000 0.902498 0.500000
O O20 0.465994 0.000000 0.260221
#
# Coordination Sequence:
#
# PCOD9194440 Si02
#       8
#     8   8   8   8   8   8   8   8
#     4  12  22  36  52  81 116 150 192 240 289 337
#     4   9  18  33  53  80 112 150 190 226 272 341
#     4  11  23  39  56  78 113 151 193 240 285 336
#     4  11  21  34  57  84 114 155 193 232 285 345
#     4  11  21  37  59  85 112 152 197 233 276 351
#     4  10  20  36  57  86 123 155 188 232 286 348
#     4  10  20  34  56  82 116 152 185 230 283 340
#     4  10  22  38  58  89 124 153 184 232 289 346
#
# _framework density 19.191016999999999
#
# number of rings (size 3 to 8) (size 9 to 14) (size 15 to 20)
#    0.000    1.500    3.750    1.875    1.750    3.000 
#    0.000    0.625    0.000    0.375    0.000    0.875 
#    0.000    0.000    0.000    0.000    0.000    0.000 
#
# Total GULP energy -178642.867842 kJ/mol
# GULP energy per Si atom -5582.589620 kJ/mol
# Density = 1.914734 g / cm^3
# Si number density = 19.191017 Si / 1000 Ang^3
#
#
#
# Elastic Constant Matrix: (Units=GPa)
#
#
# Indices 1 2 3 4 5 6 
#
# 1 41.7124 27.7423 7.6224 0.0000 -16.9599 0.0000
# 2 27.7423 101.5736 32.9906 0.0000 -15.4844 0.0000
# 3 7.6224 32.9906 67.7314 0.0000 -22.0780 0.0000
# 4 0.0000 0.0000 0.0000 23.0020 0.0000 -6.4209
# 5 -16.9599 -15.4844 -22.0780 0.0000 29.5276 0.0000
# 6 0.0000 0.0000 0.0000 -6.4209 0.0000 23.1406
#
#
#
# Elastic Compliance Matrix: (Units=1/GPa)
#
#
# Indices 1 2 3 4 5 6 
#
# 1 0.038065 -0.009443 0.007707 0.000000 0.022674 0.000000
# 2 -0.009443 0.014177 -0.006859 0.000000 -0.003118 0.000000
# 3 0.007707 -0.006859 0.023150 0.000000 0.018139 0.000000
# 4 0.000000 0.000000 0.000000 0.047124 0.000000 0.013076
# 5 0.022674 -0.003118 0.018139 0.000000 0.058818 0.000000
# 6 0.000000 0.000000 0.000000 0.013076 0.000000 0.046842
#
#
# Mechanical properties :
#
#
# Convention : Reuss Voigt Hill
#
# Bulk Modulus (GPa) = 17.18175 38.63643 27.90909
# Shear Modulus (GPa) = 18.88454 24.64485 21.76470
#
# Velocity S-wave (km/s) = 3.14033 3.58744 3.37131
# Velocity P-wave (km/s) = 4.70333 6.11031 5.45240
#
# Compressibility (1/GPa) = 0.05820130
#
# Stress axis : x y z
#
# Youngs Moduli (GPa) = 26.27107 70.53889 43.19577
#
# Poissons Ratio (x) = 0.66610 -0.33289
# Poissons Ratio (y) = 0.24808 0.29627
# Poissons Ratio (z) = -0.20246 0.48381
#
# Static dielectric constant tensor:
#      x y z
#    x 1.644800 0.000000 -0.006720 
#    y 0.000000 1.710970 0.000000 
#    z -0.006720 0.000000 1.708520 
# 
# From -- ./inp_files/104604.got.cif
#   From: 2010.05.17/outbox.cif.g08.bks.cpg/sg12_53_cif.got.tgz:104604.got - 2010.06.03 13:09:07.
