data_PCOD9194403
_publ_section_title
;
Structure prediction by ZEFSAII (Michael W. Deem and Ramdas Pophale) SiO2 
 PCOD9194403
Probable space group: C 2/M
;
_chemical_formula_sum "Si O2"
_cell_formula_units_Z 44
_cell_length_a 25.125967
_cell_length_b 11.348278
_cell_length_c 12.397489
_cell_angle_alpha 90.000000
_cell_angle_beta 140.550848
_cell_angle_gamma 90.000000
_cell_volume 2246.099711
_symmetry_space_group_name_H-M "C 2/M"
_symmetry_group_IT_number 12
_symmetry_cell_setting 'monoclinic'
loop_
_space_group_symop_operation_xyz
x,y,z
-x,y,-z
-x,-y,-z
x,-y,z
1/2+x,1/2+y,z
1/2-x,1/2+y,-z
1/2-x,1/2-y,-z
1/2+x,1/2-y,z
loop_
_atom_site_type_symbol
_atom_site_label
_atom_site_fract_x
_atom_site_fract_y
_atom_site_fract_z
Si Si1 0.317355 0.128700 0.716731
Si Si2 0.331944 0.133641 0.218530
Si Si3 0.000000 0.784333 0.500000
Si Si4 0.819147 0.293429 0.955859
Si Si5 0.022759 0.130549 0.772511
Si Si6 0.864477 0.867086 0.681382
O O1 0.310031 0.132494 0.833954
O O2 0.224714 0.133989 0.519622
O O3 0.363749 0.249611 0.753784
O O4 0.354097 0.000000 0.741805
O O5 0.417161 0.204210 0.372085
O O6 0.255374 0.198355 0.156516
O O7 0.340080 0.000000 0.267146
O O8 0.314367 0.139171 0.062307
O O9 0.997977 0.857341 0.386552
O O10 0.907881 0.227131 0.092638
O O11 0.939864 0.144447 0.714279
O O12 0.057579 0.000000 0.847249
O O13 0.872404 0.000000 0.744267
#
# Coordination Sequence:
#
# PCOD9194403 Si02
#       6
#     8   8   4   8   8   8
#     4  10  20  38  59  81 108 144 183 226 274 324
#     4  10  20  35  52  78 111 143 178 223 272 324
#     4  10  20  34  56  80 106 142 182 218 270 326
#     4  10  21  34  54  80 108 142 181 220 270 325
#     4  10  20  36  55  80 109 141 180 225 269 320
#     4   9  20  37  58  81 108 141 185 229 270 319
#
# _framework density 19.589514000000001
#
# number of rings (size 3 to 8) (size 9 to 14) (size 15 to 20)
#    0.000    2.182    0.000    2.727    0.000    2.182 
#    0.000   17.273    0.000    0.000    0.000    0.000 
#    0.000    0.000    0.000    0.000    0.000    0.000 
#
# Total GULP energy -122745.719627 kJ/mol
# GULP energy per Si atom -5579.350892 kJ/mol
# Density = 1.954493 g / cm^3
# Si number density = 19.589514 Si / 1000 Ang^3
#
#
#
# Elastic Constant Matrix: (Units=GPa)
#
#
# Indices 1 2 3 4 5 6 
#
# 1 70.2781 51.4341 13.4715 0.0000 5.8879 0.0000
# 2 51.4341 142.4445 17.3376 0.0000 1.5914 0.0000
# 3 13.4715 17.3376 30.8798 0.0000 -8.9381 0.0000
# 4 0.0000 0.0000 0.0000 10.0774 0.0000 2.6918
# 5 5.8879 1.5914 -8.9381 0.0000 28.1868 0.0000
# 6 0.0000 0.0000 0.0000 2.6918 0.0000 23.3897
#
#
#
# Elastic Compliance Matrix: (Units=1/GPa)
#
#
# Indices 1 2 3 4 5 6 
#
# 1 0.021003 -0.006628 -0.007270 0.000000 -0.006318 0.000000
# 2 -0.006628 0.009725 -0.002562 0.000000 0.000023 0.000000
# 3 -0.007270 -0.002562 0.041262 0.000000 0.014748 0.000000
# 4 0.000000 0.000000 0.000000 0.102379 0.000000 -0.011782
# 5 -0.006318 0.000023 0.014748 0.000000 0.041473 0.000000
# 6 0.000000 0.000000 0.000000 -0.011782 0.000000 0.044110
#
#
# Mechanical properties :
#
#
# Convention : Reuss Voigt Hill
#
# Bulk Modulus (GPa) = 25.59513 45.34322 35.46918
# Shear Modulus (GPa) = 16.34542 23.08807 19.71674
#
# Velocity S-wave (km/s) = 2.89173 3.43679 3.17597
# Velocity P-wave (km/s) = 4.92377 6.24064 5.62091
#
# Compressibility (1/GPa) = 0.03906993
#
# Stress axis : x y z
#
# Youngs Moduli (GPa) = 47.61163 102.82524 24.23520
#
# Poissons Ratio (x) = 0.68157 0.17619
# Poissons Ratio (y) = 0.31559 0.06209
# Poissons Ratio (z) = 0.34614 0.26342
#
# Static dielectric constant tensor:
#      x y z
#    x 1.647800 0.000000 -0.020250 
#    y 0.000000 1.706910 0.000000 
#    z -0.020250 0.000000 1.663860 
# 
# From -- ./inp_files/175402.got.cif
#   From: 2010.05.17/outbox.cif.g08.bks.cpg/sg12_88_cif.got.tgz:175402.got - 2010.06.03 13:09:07.
