data_PCOD9194520
_publ_section_title
;
Structure prediction by ZEFSAII (Michael W. Deem and Ramdas Pophale) SiO2 
 PCOD9194520
Probable space group: C 2/M
;
_chemical_formula_sum "Si O2"
_cell_formula_units_Z 48
_cell_length_a 14.288615
_cell_length_b 11.895171
_cell_length_c 20.755545
_cell_angle_alpha 90.000000
_cell_angle_beta 137.710911
_cell_angle_gamma 90.000000
_cell_volume 2373.707474
_symmetry_space_group_name_H-M "C 2/M"
_symmetry_group_IT_number 12
_symmetry_cell_setting 'monoclinic'
loop_
_space_group_symop_operation_xyz
x,y,z
-x,y,-z
-x,-y,-z
x,-y,z
1/2+x,1/2+y,z
1/2-x,1/2+y,-z
1/2-x,1/2-y,-z
1/2+x,1/2-y,z
loop_
_atom_site_type_symbol
_atom_site_label
_atom_site_fract_x
_atom_site_fract_y
_atom_site_fract_z
Si Si1 0.557150 0.878369 0.254928
Si Si2 0.422006 0.128097 0.394475
Si Si3 0.198620 0.625476 0.453775
Si Si4 0.685714 0.770442 0.203054
Si Si5 0.410598 0.373045 0.051344
Si Si6 0.692118 0.712424 0.868935
O O1 0.683561 0.872645 0.369246
O O2 0.611712 0.860302 0.211095
O O3 0.446727 0.783558 0.214985
O O4 0.489004 0.000000 0.227121
O O5 0.500000 0.165291 0.500000
O O6 0.543719 0.121130 0.403926
O O7 0.302745 0.207386 0.305463
O O8 0.368760 0.000000 0.379101
O O9 0.261593 0.500000 0.503843
O O10 0.250000 0.750000 0.500000
O O11 0.564263 0.680163 0.126140
O O12 0.748164 0.823014 0.169738
O O13 0.409737 0.500000 0.027622
O O14 0.353616 0.369092 0.096316
O O15 0.307310 0.294658 0.958407
#
# Coordination Sequence:
#
# PCOD9194520 Si02
#       6
#     8   8   8   8   8   8
#     4  10  21  37  58  83 116 158 197 239 295 359
#     4  10  20  34  56  84 115 152 195 243 294 350
#     4  10  20  37  59  84 117 157 200 248 301 357
#     4  11  21  36  59  86 115 149 195 245 289 349
#     4  10  22  37  58  86 116 149 192 242 293 347
#     4  10  21  38  57  84 118 153 191 240 293 353
#
# _framework density 20.221530000000001
#
# number of rings (size 3 to 8) (size 9 to 14) (size 15 to 20)
#    0.000    1.833    1.667    2.500    0.000    3.333 
#    0.000    4.167    0.000    9.000    0.000    0.000 
#    0.000    0.000    0.000    0.000    0.000    0.000 
#
# Total GULP energy -133754.697120 kJ/mol
# GULP energy per Si atom -5573.112380 kJ/mol
# Density = 2.017551 g / cm^3
# Si number density = 20.221530 Si / 1000 Ang^3
#
#
#
# Elastic Constant Matrix: (Units=GPa)
#
#
# Indices 1 2 3 4 5 6 
#
# 1 94.8683 -13.3718 -3.4126 0.0000 -19.1347 0.0000
# 2 -13.3718 75.1442 12.6488 0.0000 10.8604 0.0000
# 3 -3.4126 12.6488 56.4704 0.0000 -1.5647 0.0000
# 4 0.0000 0.0000 0.0000 13.3836 0.0000 0.6652
# 5 -19.1347 10.8604 -1.5647 0.0000 32.2768 0.0000
# 6 0.0000 0.0000 0.0000 0.6652 0.0000 18.0147
#
#
#
# Elastic Compliance Matrix: (Units=1/GPa)
#
#
# Indices 1 2 3 4 5 6 
#
# 1 0.012095 0.001047 0.000686 0.000000 0.006851 0.000000
# 2 0.001047 0.014708 -0.003356 0.000000 -0.004491 0.000000
# 3 0.000686 -0.003356 0.018569 0.000000 0.002436 0.000000
# 4 0.000000 0.000000 0.000000 0.074856 0.000000 -0.002764
# 5 0.006851 -0.004491 0.002436 0.000000 0.036673 0.000000
# 6 0.000000 0.000000 0.000000 -0.002764 0.000000 0.055612
#
#
# Mechanical properties :
#
#
# Convention : Reuss Voigt Hill
#
# Bulk Modulus (GPa) = 23.73801 24.24573 23.99187
# Shear Modulus (GPa) = 21.75801 28.10959 24.93380
#
# Velocity S-wave (km/s) = 3.28378 3.73243 3.51527
# Velocity P-wave (km/s) = 5.11293 5.53089 5.32601
#
# Compressibility (1/GPa) = 0.04212653
#
# Stress axis : x y z
#
# Youngs Moduli (GPa) = 82.67844 67.99063 53.85316
#
# Poissons Ratio (x) = -0.07115 -0.03696
# Poissons Ratio (y) = -0.08653 0.18071
# Poissons Ratio (z) = -0.05675 0.22815
#
# Static dielectric constant tensor:
#      x y z
#    x 1.741000 0.000000 -0.047170 
#    y 0.000000 1.718150 0.000000 
#    z -0.047170 0.000000 1.728460 
# 
# From -- ./inp_files/212645.got.cif
#   From: 2010.05.17/outbox.cif.g08.bks.cpg/sg12_107_cif.got.tgz:212645.got - 2010.06.03 13:09:07.
