data_PCOD9194409
_publ_section_title
;
Structure prediction by ZEFSAII (Michael W. Deem and Ramdas Pophale) SiO2 
 PCOD9194409
Probable space group: C 2/M
;
_chemical_formula_sum "Si O2"
_cell_formula_units_Z 40
_cell_length_a 23.403262
_cell_length_b 8.669598
_cell_length_c 13.862492
_cell_angle_alpha 90.000000
_cell_angle_beta 53.793779
_cell_angle_gamma 90.000000
_cell_volume 2269.521615
_symmetry_space_group_name_H-M "C 2/M"
_symmetry_group_IT_number 12
_symmetry_cell_setting 'monoclinic'
loop_
_space_group_symop_operation_xyz
x,y,z
-x,y,-z
-x,-y,-z
x,-y,z
1/2+x,1/2+y,z
1/2-x,1/2+y,-z
1/2-x,1/2-y,-z
1/2+x,1/2-y,z
loop_
_atom_site_type_symbol
_atom_site_label
_atom_site_fract_x
_atom_site_fract_y
_atom_site_fract_z
Si Si1 0.396964 0.684287 0.650729
Si Si2 0.461720 0.184460 0.398576
Si Si3 0.253073 0.185307 0.105052
Si Si4 0.105354 0.815726 0.942154
Si Si5 0.963257 0.685316 0.175870
O O1 0.405644 0.500000 0.647610
O O2 0.459301 0.761656 0.651128
O O3 0.410232 0.738700 0.528145
O O4 0.320046 0.725272 0.767847
O O5 0.446944 0.225982 0.302610
O O6 0.457810 0.000000 0.412336
O O7 0.320446 0.255431 0.092161
O O8 0.259278 0.000000 0.096211
O O9 0.250000 0.250000 0.000000
O O10 0.089519 0.758591 0.849463
O O11 0.101943 0.000000 0.949938
O O12 0.041231 0.745882 0.069630
O O13 0.962372 0.500000 0.166907
#
# Coordination Sequence:
#
# PCOD9194409 Si02
#       5
#     8   8   8   8   8
#     4  10  21  35  54  79 108 140 176 218 263 313
#     4  10  20  34  56  81 106 139 177 217 264 313
#     4  11  23  38  56  80 109 142 177 218 268 318
#     4  11  22  35  55  82 109 141 179 220 265 317
#     4  10  20  36  57  80 108 142 178 221 266 313
#
# _framework density 17.624860000000002
#
# number of rings (size 3 to 8) (size 9 to 14) (size 15 to 20)
#    0.000    1.600    0.000    7.800    0.000    9.600 
#    0.000    1.000    0.000    0.000    0.000    0.000 
#    0.000    0.000    0.000    0.000    0.000    0.000 
#
# Total GULP energy -111758.180830 kJ/mol
# GULP energy per Si atom -5587.909042 kJ/mol
# Density = 1.758475 g / cm^3
# Si number density = 17.624860 Si / 1000 Ang^3
#
#
#
# Elastic Constant Matrix: (Units=GPa)
#
#
# Indices 1 2 3 4 5 6 
#
# 1 114.6851 35.2558 90.9599 0.0000 1.4067 0.0000
# 2 35.2558 64.6077 39.9038 0.0000 -1.0529 0.0000
# 3 90.9599 39.9038 117.4561 0.0000 7.2594 0.0000
# 4 0.0000 0.0000 0.0000 24.3588 0.0000 -0.2986
# 5 1.4067 -1.0529 7.2594 0.0000 29.0156 0.0000
# 6 0.0000 0.0000 0.0000 -0.2986 0.0000 30.0182
#
#
#
# Elastic Compliance Matrix: (Units=1/GPa)
#
#
# Indices 1 2 3 4 5 6 
#
# 1 0.023078 -0.001748 -0.017475 0.000000 0.003190 0.000000
# 2 -0.001748 0.019888 -0.005538 0.000000 0.002192 0.000000
# 3 -0.017475 -0.005538 0.024264 0.000000 -0.005424 0.000000
# 4 0.000000 0.000000 0.000000 0.041058 0.000000 0.000408
# 5 0.003190 0.002192 -0.005424 0.000000 0.035746 0.000000
# 6 0.000000 0.000000 0.000000 0.000408 0.000000 0.033317
#
#
# Mechanical properties :
#
#
# Convention : Reuss Voigt Hill
#
# Bulk Modulus (GPa) = 56.47642 69.88757 63.18200
# Shear Modulus (GPa) = 21.47984 25.38714 23.43349
#
# Velocity S-wave (km/s) = 3.49481 3.79940 3.65028
# Velocity P-wave (km/s) = 6.95687 7.68025 7.32749
#
# Compressibility (1/GPa) = 0.01770651
#
# Stress axis : x y z
#
# Youngs Moduli (GPa) = 43.33193 50.28047 41.21411
#
# Poissons Ratio (x) = 0.08790 0.72021
# Poissons Ratio (y) = 0.07575 0.22826
# Poissons Ratio (z) = 0.75722 0.27848
#
# Static dielectric constant tensor:
#      x y z
#    x 1.575460 0.000000 0.013250 
#    y 0.000000 1.591340 0.000000 
#    z 0.013250 0.000000 1.588960 
# 
# From -- ./inp_files/229643.got.cif
#   From: 2010.05.17/outbox.cif.g08.bks.cpg/sg12_115_cif.got.tgz:229643.got - 2010.06.03 13:09:07.
