data_PCOD9194473
_publ_section_title
;
Structure prediction by ZEFSAII (Michael W. Deem and Ramdas Pophale) SiO2 
 PCOD9194473
Probable space group: C 2/M
;
_chemical_formula_sum "Si O2"
_cell_formula_units_Z 48
_cell_length_a 24.291277
_cell_length_b 15.239153
_cell_length_c 18.294144
_cell_angle_alpha 90.000000
_cell_angle_beta 161.344294
_cell_angle_gamma 90.000000
_cell_volume 2166.263143
_symmetry_space_group_name_H-M "C 2/M"
_symmetry_group_IT_number 12
_symmetry_cell_setting 'monoclinic'
loop_
_space_group_symop_operation_xyz
x,y,z
-x,y,-z
-x,-y,-z
x,-y,z
1/2+x,1/2+y,z
1/2-x,1/2+y,-z
1/2-x,1/2-y,-z
1/2+x,1/2-y,z
loop_
_atom_site_type_symbol
_atom_site_label
_atom_site_fract_x
_atom_site_fract_y
_atom_site_fract_z
Si Si1 0.341449 0.906436 0.244043
Si Si2 0.548640 0.399336 0.234447
Si Si3 0.316411 0.780243 0.808705
Si Si4 0.197019 0.100518 0.273665
Si Si5 0.031356 0.894994 0.377175
Si Si6 0.661681 0.716143 0.760269
O O1 0.500000 0.909230 0.500000
O O2 0.345864 0.811965 0.212380
O O3 0.343258 0.000000 0.204951
O O4 0.151723 0.904707 0.042211
O O5 0.605144 0.500000 0.314579
O O6 0.672993 0.366713 0.327329
O O7 0.542825 0.361202 0.308236
O O8 0.234188 0.685052 0.683388
O O9 0.197942 0.856862 0.627595
O O10 0.318485 0.788923 0.899656
O O11 0.500000 0.783623 0.000000
O O12 0.270644 0.000000 0.361071
O O13 0.000000 0.090556 0.000000
O O14 0.869512 0.856814 0.218532
O O15 0.025936 0.000000 0.371053
O O16 0.500000 0.711024 0.500000
#
# Coordination Sequence:
#
# PCOD9194473 Si02
#       6
#     8   8   8   8   8   8
#     4   9  16  28  49  77 107 134 166 213 261 315
#     4   9  18  33  54  79 108 146 181 209 266 338
#     4  10  20  34  56  84 107 137 187 230 265 317
#     4   9  17  31  54  82 112 142 170 210 268 335
#     4  10  22  39  55  74 106 146 188 231 269 312
#     4   9  19  34  53  79 106 141 183 215 265 331
#
# _framework density 22.157972000000001
#
# number of rings (size 3 to 8) (size 9 to 14) (size 15 to 20)
#    0.000    2.667    0.000    2.000    0.000    6.667 
#    0.000    2.500    0.000    2.000    0.000   30.333 
#    0.000    0.000    0.000    0.000    0.000    0.000 
#
# Total GULP energy -133606.142644 kJ/mol
# GULP energy per Si atom -5566.922610 kJ/mol
# Density = 2.210754 g / cm^3
# Si number density = 22.157972 Si / 1000 Ang^3
#
#
#
# Elastic Constant Matrix: (Units=GPa)
#
#
# Indices 1 2 3 4 5 6 
#
# 1 152.2217 54.0459 17.5003 -0.0001 11.9653 0.0001
# 2 54.0459 124.5278 9.2625 -0.0001 -2.4349 -0.0001
# 3 17.5003 9.2625 33.4435 -0.0016 11.3484 -0.0028
# 4 -0.0001 -0.0001 -0.0016 3.3671 -0.0005 -2.6252
# 5 11.9653 -2.4349 11.3484 -0.0005 33.8037 -0.0009
# 6 0.0001 -0.0001 -0.0028 -2.6252 -0.0009 19.6883
#
#
#
# Elastic Compliance Matrix: (Units=1/GPa)
#
#
# Indices 1 2 3 4 5 6 
#
# 1 0.008271 -0.003442 -0.002592 -0.000002 -0.002305 -0.000001
# 2 -0.003442 0.009702 -0.001734 0.000000 0.002499 0.000000
# 3 -0.002592 -0.001734 0.035515 0.000021 -0.011130 0.000007
# 4 -0.000002 0.000000 0.000021 0.331449 0.000000 0.044195
# 5 -0.002305 0.002499 -0.011130 0.000000 0.034315 0.000000
# 6 -0.000001 0.000000 0.000007 0.044195 0.000000 0.056684
#
#
# Mechanical properties :
#
#
# Convention : Reuss Voigt Hill
#
# Bulk Modulus (GPa) = 26.34992 52.42337 39.38665
# Shear Modulus (GPa) = 9.91823 26.66411 18.29117
#
# Velocity S-wave (km/s) = 2.11799 3.47272 2.87625
# Velocity P-wave (km/s) = 4.23070 6.30793 5.37070
#
# Compressibility (1/GPa) = 0.03795078
#
# Stress axis : x y z
#
# Youngs Moduli (GPa) = 120.91055 103.07237 28.15726
#
# Poissons Ratio (x) = 0.35475 0.07300
# Poissons Ratio (y) = 0.41614 0.04883
# Poissons Ratio (z) = 0.31345 0.17874
#
# Static dielectric constant tensor:
#      x y z
#    x 1.951770 0.000000 0.023230 
#    y 0.000000 1.847900 0.000000 
#    z 0.023230 0.000000 1.848960 
# 
# From -- ./inp_files/328247.got.cif
#   From: 2010.05.17/outbox.cif.g08.bks.cpg/sg12_165_cif.got.tgz:328247.got - 2010.06.03 13:09:07.
