data_PCOD9194915
_publ_section_title
;
Structure prediction by ZEFSAII (Michael W. Deem and Ramdas Pophale) SiO2 
 PCOD9194915
Probable space group: C 2/M
;
_chemical_formula_sum "Si O2"
_cell_formula_units_Z 56
_cell_length_a 24.904847
_cell_length_b 9.013114
_cell_length_c 17.048447
_cell_angle_alpha 90.000000
_cell_angle_beta 135.856223
_cell_angle_gamma 90.000000
_cell_volume 2665.265898
_symmetry_space_group_name_H-M "C 2/M"
_symmetry_group_IT_number 12
_symmetry_cell_setting 'monoclinic'
loop_
_space_group_symop_operation_xyz
x,y,z
-x,y,-z
-x,-y,-z
x,-y,z
1/2+x,1/2+y,z
1/2-x,1/2+y,-z
1/2-x,1/2-y,-z
1/2+x,1/2-y,z
loop_
_atom_site_type_symbol
_atom_site_label
_atom_site_fract_x
_atom_site_fract_y
_atom_site_fract_z
Si Si1 0.898027 0.169391 0.100634
Si Si2 0.108685 0.827178 0.643207
Si Si3 0.652369 0.175621 0.526452
Si Si4 0.779060 0.328122 0.869949
Si Si5 0.035096 0.828530 0.118239
Si Si6 0.692142 0.823830 0.283945
Si Si7 0.513727 0.175636 0.672221
O O1 0.926827 0.276705 0.198911
O O2 0.966707 0.172736 0.108852
O O3 0.889393 0.000000 0.120082
O O4 0.822309 0.225569 0.976822
O O5 0.127313 0.727589 0.587384
O O6 0.186873 0.818751 0.776836
O O7 0.039281 0.766566 0.622343
O O8 0.099101 0.000000 0.610443
O O9 0.733000 0.256153 0.595104
O O10 0.574709 0.212210 0.396737
O O11 0.664904 0.000000 0.536702
O O12 0.802038 0.500000 0.906328
O O13 0.800542 0.289078 0.802082
O O14 0.110422 0.740740 0.223784
O O15 0.058300 0.000000 0.128062
O O16 0.000000 0.767557 0.000000
O O17 0.694437 0.000000 0.294567
O O18 0.517059 0.000000 0.659742
#
# Coordination Sequence:
#
# PCOD9194915 Si02
#       7
#     8   8   8   8   8   8   8
#     4  11  23  37  57  83 113 151 189 230 282 337
#     4  10  21  37  60  88 114 146 189 235 281 331
#     4  10  21  38  60  84 113 149 190 234 281 331
#     4   9  19  35  54  82 116 146 181 227 279 335
#     4  10  20  36  58  86 116 146 185 231 283 339
#     4  10  20  34  58  89 115 145 186 234 283 329
#     4  11  24  40  57  80 113 154 192 232 282 334
#
# _framework density 21.011037000000002
#
# number of rings (size 3 to 8) (size 9 to 14) (size 15 to 20)
#    0.000    1.857    1.429    3.429    0.000    8.857 
#    0.000    0.714    0.000    0.000    0.000    0.000 
#    0.000    0.000    0.000    0.000    0.000    0.000 
#
# Total GULP energy -156453.747622 kJ/mol
# GULP energy per Si atom -5587.633844 kJ/mol
# Density = 2.096321 g / cm^3
# Si number density = 21.011037 Si / 1000 Ang^3
#
#
#
# Elastic Constant Matrix: (Units=GPa)
#
#
# Indices 1 2 3 4 5 6 
#
# 1 25.2234 -2.0999 0.9037 0.0000 12.8922 0.0000
# 2 -2.0999 44.4166 23.2563 0.0000 10.1963 0.0000
# 3 0.9037 23.2563 65.5007 0.0000 23.5384 0.0000
# 4 0.0000 0.0000 0.0000 27.5967 0.0000 8.1874
# 5 12.8922 10.1963 23.5384 0.0000 30.0475 0.0000
# 6 0.0000 0.0000 0.0000 8.1874 0.0000 23.8927
#
#
#
# Elastic Compliance Matrix: (Units=1/GPa)
#
#
# Indices 1 2 3 4 5 6 
#
# 1 0.056959 0.005523 0.009338 0.000000 -0.033628 0.000000
# 2 0.005523 0.028311 -0.008106 0.000000 -0.005627 0.000000
# 3 0.009338 -0.008106 0.025703 0.000000 -0.021391 0.000000
# 4 0.000000 0.000000 0.000000 0.040337 0.000000 -0.013822
# 5 -0.033628 -0.005627 -0.021391 0.000000 0.066376 0.000000
# 6 0.000000 0.000000 0.000000 -0.013822 0.000000 0.046590
#
#
# Mechanical properties :
#
#
# Convention : Reuss Voigt Hill
#
# Bulk Modulus (GPa) = 8.03318 19.91788 13.97553
# Shear Modulus (GPa) = 17.10795 23.84608 20.47701
#
# Velocity S-wave (km/s) = 2.85658 3.37253 3.12522
# Velocity P-wave (km/s) = 3.83558 4.96644 4.43719
#
# Compressibility (1/GPa) = 0.12448363
#
# Stress axis : x y z
#
# Youngs Moduli (GPa) = 17.55645 35.32157 38.90531
#
# Poissons Ratio (x) = -0.19510 -0.36328
# Poissons Ratio (y) = -0.09697 0.31537
# Poissons Ratio (z) = -0.16394 0.28632
#
# Static dielectric constant tensor:
#      x y z
#    x 1.752480 0.000000 -0.003780 
#    y 0.000000 1.705320 0.000000 
#    z -0.003780 0.000000 1.779620 
# 
# From -- ./inp_files/288190.got.cif
#   From: 2010.05.17/outbox.cif.g08.bks.cpg/sg12_145_cif.got.tgz:288190.got - 2010.06.03 13:09:07.
