data_PCOD9194207
_publ_section_title
;
Structure prediction by ZEFSAII (Michael W. Deem and Ramdas Pophale) SiO2 
 PCOD9194207
Probable space group: C 2/M
;
_chemical_formula_sum "Si O2"
_cell_formula_units_Z 42
_cell_length_a 8.210747
_cell_length_b 12.194115
_cell_length_c 22.376080
_cell_angle_alpha 90.000000
_cell_angle_beta 109.170290
_cell_angle_gamma 90.000000
_cell_volume 2116.120680
_symmetry_space_group_name_H-M "C 2/M"
_symmetry_group_IT_number 12
_symmetry_cell_setting 'monoclinic'
loop_
_space_group_symop_operation_xyz
x,y,z
-x,y,-z
-x,-y,-z
x,-y,z
1/2+x,1/2+y,z
1/2-x,1/2+y,-z
1/2-x,1/2-y,-z
1/2+x,1/2-y,z
loop_
_atom_site_type_symbol
_atom_site_label
_atom_site_fract_x
_atom_site_fract_y
_atom_site_fract_z
Si Si1 0.162578 0.377613 0.721808
Si Si2 0.000000 0.500000 0.000000
Si Si3 0.087776 0.877582 0.134624
Si Si4 0.602108 0.706151 0.352922
Si Si5 0.871103 0.875621 0.429616
Si Si6 0.151524 0.313257 0.935484
O O1 0.086604 0.500000 0.715000
O O2 0.291142 0.366104 0.793017
O O3 0.274081 0.362810 0.674922
O O4 0.017695 0.284642 0.702075
O O5 0.034361 0.403910 0.953068
O O6 0.209211 0.867970 0.091251
O O7 0.953594 0.778817 0.113478
O O8 0.006488 0.000000 0.125689
O O9 0.719571 0.787317 0.406885
O O10 0.480759 0.637150 0.381884
O O11 0.000000 0.854483 0.500000
O O12 0.805289 0.000000 0.427445
O O13 0.250000 0.250000 0.000000
#
# Coordination Sequence:
#
# PCOD9194207 Si02
#       6
#     8   2   8   8   8   8
#     4  10  21  38  57  82 109 147 185 227 273 324
#     4  12  24  40  60  84 116 144 182 226 284 336
#     4  11  24  39  61  84 113 145 188 231 277 335
#     4  10  20  36  57  79 114 146 184 226 274 322
#     4  10  20  34  55  83 112 146 185 226 272 323
#     4  12  24  40  60  85 113 146 183 229 283 334
#
# _framework density 19.847638
#
# number of rings (size 3 to 8) (size 9 to 14) (size 15 to 20)
#    0.000    1.333    2.857    2.857    1.333    0.762 
#    0.000    0.000    2.095    9.143    0.000    0.000 
#    0.000    0.000    0.000    0.000    0.000    0.000 
#
# Total GULP energy -117075.530608 kJ/mol
# GULP energy per Si atom -5575.025267 kJ/mol
# Density = 1.980246 g / cm^3
# Si number density = 19.847638 Si / 1000 Ang^3
#
#
#
# Elastic Constant Matrix: (Units=GPa)
#
#
# Indices 1 2 3 4 5 6 
#
# 1 14.4721 -1.5763 -21.7813 0.0000 0.6647 0.0000
# 2 -1.5763 113.2607 27.7131 0.0000 19.6717 0.0000
# 3 -21.7813 27.7131 65.0777 0.0000 11.6129 0.0000
# 4 0.0000 0.0000 0.0000 6.0495 0.0000 -0.3791
# 5 0.6647 19.6717 11.6129 0.0000 26.1992 0.0000
# 6 0.0000 0.0000 0.0000 -0.3791 0.0000 4.8528
#
#
#
# Elastic Compliance Matrix: (Units=1/GPa)
#
#
# Indices 1 2 3 4 5 6 
#
# 1 0.164977 -0.008780 0.063554 0.000000 -0.025764 0.000000
# 2 -0.008780 0.011281 -0.006809 0.000000 -0.005230 0.000000
# 3 0.063554 -0.006809 0.042255 0.000000 -0.015229 0.000000
# 4 0.000000 0.000000 0.000000 0.166116 0.000000 0.012978
# 5 -0.025764 -0.005230 -0.015229 0.000000 0.049500 0.000000
# 6 0.000000 0.000000 0.000000 0.012978 0.000000 0.207080
#
#
# Mechanical properties :
#
#
# Convention : Reuss Voigt Hill
#
# Bulk Modulus (GPa) = 3.18023 22.39126 12.78575
# Shear Modulus (GPa) = 7.69120 19.98397 13.83758
#
# Velocity S-wave (km/s) = 1.97067 3.17656 2.64330
# Velocity P-wave (km/s) = 2.60458 4.97596 3.97140
#
# Compressibility (1/GPa) = 0.31444262
#
# Stress axis : x y z
#
# Youngs Moduli (GPa) = 6.06145 88.64086 23.66592
#
# Poissons Ratio (x) = 0.77823 -1.50406
# Poissons Ratio (y) = 0.05322 0.16115
# Poissons Ratio (z) = -0.38523 0.60360
#
# Static dielectric constant tensor:
#      x y z
#    x 1.592350 0.000000 -0.028020 
#    y 0.000000 1.696520 0.000000 
#    z -0.028020 0.000000 1.651060 
# 
# From -- ./inp_files/299199.got.cif
#   From: 2010.05.17/outbox.cif.g08.bks.cpg/sg12_150_cif.got.tgz:299199.got - 2010.06.03 13:09:07.
