data_PCOD9194020
_publ_section_title
;
Structure prediction by ZEFSAII (Michael W. Deem and Ramdas Pophale) SiO2 
 PCOD9194020
Probable space group: C 2/M
;
_chemical_formula_sum "Si O2"
_cell_formula_units_Z 56
_cell_length_a 16.410913
_cell_length_b 26.092310
_cell_length_c 9.516342
_cell_angle_alpha 90.000000
_cell_angle_beta 54.947519
_cell_angle_gamma 90.000000
_cell_volume 3335.807802
_symmetry_space_group_name_H-M "C 2/M"
_symmetry_group_IT_number 12
_symmetry_cell_setting 'monoclinic'
loop_
_space_group_symop_operation_xyz
x,y,z
-x,y,-z
-x,-y,-z
x,-y,z
1/2+x,1/2+y,z
1/2-x,1/2+y,-z
1/2-x,1/2-y,-z
1/2+x,1/2-y,z
loop_
_atom_site_type_symbol
_atom_site_label
_atom_site_fract_x
_atom_site_fract_y
_atom_site_fract_z
Si Si1 0.808528 0.331183 0.908207
Si Si2 0.184493 0.674471 0.606868
Si Si3 0.607308 0.000000 0.816694
Si Si4 0.604916 0.000000 0.478532
Si Si5 0.117316 0.388022 0.422590
Si Si6 0.614823 0.719857 0.219386
Si Si7 0.382634 0.109168 0.085379
Si Si8 0.888027 0.217652 0.438829
O O1 0.819012 0.351074 0.739541
O O2 0.867880 0.277336 0.856895
O O3 0.698243 0.316851 0.070096
O O4 0.857825 0.376654 0.950417
O O5 0.132325 0.631875 0.564309
O O6 0.165527 0.656357 0.782942
O O7 0.135867 0.728272 0.611780
O O8 0.302700 0.679653 0.469137
O O9 0.595234 0.000000 0.658877
O O10 0.654781 0.946418 0.823505
O O11 0.500000 0.000000 0.000000
O O12 0.500000 0.000000 0.500000
O O13 0.652369 0.946667 0.384004
O O14 0.000000 0.384331 0.500000
O O15 0.502060 0.703173 0.300406
O O16 0.625648 0.723071 0.378474
O O17 0.500000 0.110547 0.000000
#
# Coordination Sequence:
#
# PCOD9194020 Si02
#       8
#     8   8   4   4   8   8   8   8
#     4  11  22  34  53  78 105 145 175 213 262 318
#     4  11  20  34  53  80 102 145 180 208 263 321
#     4  10  22  34  50  78 113 135 175 227 259 310
#     4  10  22  34  52  78 105 144 178 210 268 325
#     4  11  21  35  55  76 111 142 175 213 264 320
#     4  10  20  36  52  78 109 139 177 222 262 303
#     4  11  21  33  51  77 110 138 175 217 262 309
#     4  10  20  34  55  77 107 140 178 222 257 313
#
# _framework density 16.787538000000001
#
# number of rings (size 3 to 8) (size 9 to 14) (size 15 to 20)
#    0.000    1.429    4.286    2.571    6.000    0.000 
#    0.000    2.143    0.000    0.000    0.000    6.000 
#    0.000    0.000    0.000    0.000    0.000    0.000 
#
# Total GULP energy -156081.093386 kJ/mol
# GULP energy per Si atom -5574.324764 kJ/mol
# Density = 1.674933 g / cm^3
# Si number density = 16.787538 Si / 1000 Ang^3
#
#
#
# Elastic Constant Matrix: (Units=GPa)
#
#
# Indices 1 2 3 4 5 6 
#
# 1 67.2475 12.9555 8.5385 0.0000 -12.5424 0.0000
# 2 12.9555 64.6216 5.3264 0.0000 -13.5556 0.0000
# 3 8.5385 5.3264 56.0687 0.0000 -14.5607 0.0000
# 4 0.0000 0.0000 0.0000 19.3452 0.0000 3.1435
# 5 -12.5424 -13.5556 -14.5607 0.0000 27.8190 0.0000
# 6 0.0000 0.0000 0.0000 3.1435 0.0000 14.7345
#
#
#
# Elastic Compliance Matrix: (Units=1/GPa)
#
#
# Indices 1 2 3 4 5 6 
#
# 1 0.016478 -0.001966 -0.000743 0.000000 0.006082 0.000000
# 2 -0.001966 0.017490 0.000719 0.000000 0.008012 0.000000
# 3 -0.000743 0.000719 0.020697 0.000000 0.010848 0.000000
# 4 0.000000 0.000000 0.000000 0.053549 0.000000 -0.011424
# 5 0.006082 0.008012 0.010848 0.000000 0.048271 0.000000
# 6 0.000000 0.000000 0.000000 -0.011424 0.000000 0.070305
#
#
# Mechanical properties :
#
#
# Convention : Reuss Voigt Hill
#
# Bulk Modulus (GPa) = 19.73008 26.84205 23.28607
# Shear Modulus (GPa) = 20.18838 23.12091 21.65465
#
# Velocity S-wave (km/s) = 3.47159 3.71518 3.59545
# Velocity P-wave (km/s) = 5.27708 5.86749 5.58010
#
# Compressibility (1/GPa) = 0.05068403
#
# Stress axis : x y z
#
# Youngs Moduli (GPa) = 60.68697 57.17404 48.31528
#
# Poissons Ratio (x) = 0.11243 0.03590
# Poissons Ratio (y) = 0.11934 -0.03472
# Poissons Ratio (z) = 0.04510 -0.04109
#
# Static dielectric constant tensor:
#      x y z
#    x 1.562560 0.000000 -0.006620 
#    y 0.000000 1.583800 0.000000 
#    z -0.006620 0.000000 1.571580 
# 
# From -- ./inp_files/66022.got.cif
#   From: 2010.05.17/outbox.cif.g08.bks.cpg/sg12_34_cif.got.tgz:66022.got - 2010.06.03 13:09:07.
