data_PCOD9194844
_publ_section_title
;
Structure prediction by ZEFSAII (Michael W. Deem and Ramdas Pophale) SiO2 
 PCOD9194844
Probable space group: C 2/M
;
_chemical_formula_sum "Si O2"
_cell_formula_units_Z 48
_cell_length_a 31.671540
_cell_length_b 16.144089
_cell_length_c 9.573238
_cell_angle_alpha 90.000000
_cell_angle_beta 30.593307
_cell_angle_gamma 90.000000
_cell_volume 2491.201769
_symmetry_space_group_name_H-M "C 2/M"
_symmetry_group_IT_number 12
_symmetry_cell_setting 'monoclinic'
loop_
_space_group_symop_operation_xyz
x,y,z
-x,y,-z
-x,-y,-z
x,-y,z
1/2+x,1/2+y,z
1/2-x,1/2+y,-z
1/2-x,1/2-y,-z
1/2+x,1/2-y,z
loop_
_atom_site_type_symbol
_atom_site_label
_atom_site_fract_x
_atom_site_fract_y
_atom_site_fract_z
Si Si1 0.893603 0.590323 0.913363
Si Si2 0.004588 0.248031 0.636606
Si Si3 0.919327 0.173365 0.145762
Si Si4 0.790962 0.707774 0.654128
Si Si5 0.233139 0.094758 0.568204
Si Si6 0.325420 0.832174 0.845689
O O1 0.931004 0.500000 0.829997
O O2 0.816764 0.600802 0.237847
O O3 0.956872 0.664584 0.756534
O O4 0.859493 0.598618 0.852767
O O5 0.000000 0.204188 0.500000
O O6 0.099908 0.267323 0.392705
O O7 0.958851 0.201856 0.888300
O O8 0.874702 0.251071 0.352017
O O9 0.843749 0.114228 0.315610
O O10 0.000000 0.141357 0.000000
O O11 0.742540 0.662221 0.665872
O O12 0.800889 0.645442 0.757771
O O13 0.741711 0.782896 0.869772
O O14 0.226769 0.000000 0.638441
#
# Coordination Sequence:
#
# PCOD9194844 Si02
#       6
#     8   8   8   8   8   8
#     4  10  20  35  56  84 121 159 190 230 290 358
#     4  10  20  34  57  91 116 148 194 246 289 342
#     4  12  22  39  64  86 114 153 201 248 283 337
#     4  11  21  39  62  88 114 152 197 245 289 339
#     4  11  23  39  60  86 120 158 193 234 295 353
#     4  10  21  35  59  89 117 147 198 243 291 338
#
# _framework density 19.267809
#
# number of rings (size 3 to 8) (size 9 to 14) (size 15 to 20)
#    0.000    1.333    5.000    2.500    0.000    4.000 
#    0.000    0.000    0.000    7.500    0.000    0.000 
#    0.000    0.000    0.000    0.000    0.000    0.000 
#
# Total GULP energy -133764.924568 kJ/mol
# GULP energy per Si atom -5573.538524 kJ/mol
# Density = 1.922395 g / cm^3
# Si number density = 19.267809 Si / 1000 Ang^3
#
#
#
# Elastic Constant Matrix: (Units=GPa)
#
#
# Indices 1 2 3 4 5 6 
#
# 1 99.6966 9.4752 21.4234 0.0000 6.4452 0.0000
# 2 9.4752 13.0805 6.3094 0.0000 8.3583 0.0000
# 3 21.4234 6.3094 112.0573 0.0000 10.3745 0.0000
# 4 0.0000 0.0000 0.0000 14.2026 0.0000 1.6431
# 5 6.4452 8.3583 10.3745 0.0000 37.9667 0.0000
# 6 0.0000 0.0000 0.0000 1.6431 0.0000 13.7651
#
#
#
# Elastic Compliance Matrix: (Units=1/GPa)
#
#
# Indices 1 2 3 4 5 6 
#
# 1 0.011084 -0.007327 -0.001725 0.000000 0.000203 0.000000
# 2 -0.007327 0.094998 -0.002182 0.000000 -0.019074 0.000000
# 3 -0.001725 -0.002182 0.009547 0.000000 -0.001835 0.000000
# 4 0.000000 0.000000 0.000000 0.071396 0.000000 -0.008522
# 5 0.000203 -0.019074 -0.001835 0.000000 0.031005 0.000000
# 6 0.000000 0.000000 0.000000 -0.008522 0.000000 0.073665
#
#
# Mechanical properties :
#
#
# Convention : Reuss Voigt Hill
#
# Bulk Modulus (GPa) = 10.73421 33.25004 21.99212
# Shear Modulus (GPa) = 14.48368 25.69530 20.08949
#
# Velocity S-wave (km/s) = 2.74470 3.65579 3.23250
# Velocity P-wave (km/s) = 3.95318 5.92571 5.03695
#
# Compressibility (1/GPa) = 0.09316013
#
# Stress axis : x y z
#
# Youngs Moduli (GPa) = 90.21676 10.52658 104.74866
#
# Poissons Ratio (x) = 0.07712 0.18073
# Poissons Ratio (y) = 0.66098 0.22859
# Poissons Ratio (z) = 0.15566 0.02297
#
# Static dielectric constant tensor:
#      x y z
#    x 1.759000 0.000000 -0.010990 
#    y 0.000000 1.673080 0.000000 
#    z -0.010990 0.000000 1.673410 
# 
# From -- ./inp_files/75066.got.cif
#   From: 2010.05.17/outbox.cif.g08.bks.cpg/sg12_38_cif.got.tgz:75066.got - 2010.06.03 13:09:07.
