data_PCOD9194664
_publ_section_title
;
Structure prediction by ZEFSAII (Michael W. Deem and Ramdas Pophale) SiO2 
 PCOD9194664
Probable space group: C 2/M
;
_chemical_formula_sum "Si O2"
_cell_formula_units_Z 64
_cell_length_a 10.955451
_cell_length_b 23.712957
_cell_length_c 12.853249
_cell_angle_alpha 90.000000
_cell_angle_beta 106.586703
_cell_angle_gamma 90.000000
_cell_volume 3200.152304
_symmetry_space_group_name_H-M "C 2/M"
_symmetry_group_IT_number 12
_symmetry_cell_setting 'monoclinic'
loop_
_space_group_symop_operation_xyz
x,y,z
-x,y,-z
-x,-y,-z
x,-y,z
1/2+x,1/2+y,z
1/2-x,1/2+y,-z
1/2-x,1/2-y,-z
1/2+x,1/2-y,z
loop_
_atom_site_type_symbol
_atom_site_label
_atom_site_fract_x
_atom_site_fract_y
_atom_site_fract_z
Si Si1 0.500200 0.064044 0.840974
Si Si2 0.532049 0.909498 0.619856
Si Si3 0.788120 0.068699 0.939054
Si Si4 0.428029 0.783326 0.618961
Si Si5 0.766593 0.933156 0.157767
Si Si6 0.955901 0.099597 0.382089
Si Si7 0.844971 0.222740 0.383177
Si Si8 0.829839 0.068938 0.720871
O O1 0.481542 0.062014 0.712257
O O2 0.640382 0.088374 0.893886
O O3 0.375362 0.091248 0.860484
O O4 0.509651 0.000000 0.881909
O O5 0.500000 0.934474 0.500000
O O6 0.468068 0.847674 0.609307
O O7 0.684790 0.912431 0.665129
O O8 0.856729 0.084339 0.848247
O O9 0.790594 0.000000 0.935547
O O10 0.829222 0.086692 0.064575
O O11 0.307367 0.777242 0.666047
O O12 0.376976 0.755684 0.498507
O O13 0.560569 0.751887 0.676903
O O14 0.849927 0.926030 0.280635
O O15 0.750738 0.000000 0.141437
O O16 0.894578 0.158959 0.401456
O O17 0.000000 0.070530 0.500000
O O18 0.079298 0.100248 0.337958
O O19 0.841195 0.000000 0.711836
#
# Coordination Sequence:
#
# PCOD9194664 Si02
#       8
#     8   8   8   8   8   8   8   8
#     4   9  18  32  52  84 116 144 190 243 299 352
#     4  11  21  32  55  81 116 157 196 236 291 359
#     4   8  16  36  58  80 107 144 201 254 287 331
#     4  10  20  35  58  81 110 149 200 252 301 345
#     4  10  20  34  57  80 110 155 198 243 291 348
#     4  12  25  37  53  79 123 161 194 234 301 359
#     4  10  21  36  57  80 115 146 195 255 296 351
#     4  10  24  39  55  82 122 165 201 241 288 350
#
# _framework density 19.999047999999998
#
# number of rings (size 3 to 8) (size 9 to 14) (size 15 to 20)
#    0.000    2.000    2.500    2.625    5.250    4.000 
#    0.000    1.875    0.000    0.000    0.000    3.500 
#    7.500    0.000    0.000    0.000    0.000    0.000 
#
# Total GULP energy -178138.734613 kJ/mol
# GULP energy per Si atom -5566.835457 kJ/mol
# Density = 1.995353 g / cm^3
# Si number density = 19.999048 Si / 1000 Ang^3
#
#
#
# Elastic Constant Matrix: (Units=GPa)
#
#
# Indices 1 2 3 4 5 6 
#
# 1 139.5919 11.6169 23.9247 0.0000 -18.6431 0.0000
# 2 11.6169 47.9277 5.2563 0.0000 -1.0168 0.0000
# 3 23.9247 5.2563 116.3221 0.0000 -14.4871 0.0000
# 4 0.0000 0.0000 0.0000 -28.4827 0.0000 -4.0967
# 5 -18.6431 -1.0168 -14.4871 0.0000 20.4838 0.0000
# 6 0.0000 0.0000 0.0000 -4.0967 0.0000 19.6714
#
#
#
# Elastic Compliance Matrix: (Units=1/GPa)
#
#
# Indices 1 2 3 4 5 6 
#
# 1 0.008379 -0.001798 -0.000771 0.000000 0.006992 0.000000
# 2 -0.001798 0.021358 -0.000731 0.000000 -0.001094 0.000000
# 3 -0.000771 -0.000731 0.009537 0.000000 0.006006 0.000000
# 4 0.000000 0.000000 0.000000 -0.034088 0.000000 -0.007099
# 5 0.006992 -0.001094 0.006006 0.000000 0.059376 0.000000
# 6 0.000000 0.000000 0.000000 -0.007099 0.000000 0.049357
#
#
# Mechanical properties :
#
#
# Convention : Reuss Voigt Hill
#
# Bulk Modulus (GPa) = 30.60770 42.82640 36.71705
# Shear Modulus (GPa) = 38.04859 19.87076 28.95967
#
# Velocity S-wave (km/s) = 4.36652 3.15554 3.80946
# Velocity P-wave (km/s) = 6.38434 5.89383 6.14398
#
# Compressibility (1/GPa) = 0.03267151
#
# Stress axis : x y z
#
# Youngs Moduli (GPa) = 119.34117 46.82176 104.85942
#
# Poissons Ratio (x) = 0.08419 0.08089
# Poissons Ratio (y) = 0.21459 0.07670
# Poissons Ratio (z) = 0.09206 0.03425
#
# Static dielectric constant tensor:
#      x y z
#    x 1.791380 0.000000 -0.003720 
#    y 0.000000 1.726640 0.000000 
#    z -0.003720 0.000000 1.752940 
# 
# From -- ./inp_files/135408.got.cif
#   From: 2010.05.17/outbox.cif.g08.bks.cpg/sg12_68_cif.got.tgz:135408.got - 2010.06.03 13:09:07.
