data_PCOD9194306
_publ_section_title
;
Structure prediction by ZEFSAII (Michael W. Deem and Ramdas Pophale) SiO2 
 PCOD9194306
Probable space group: C 2/M
;
_chemical_formula_sum "Si O2"
_cell_formula_units_Z 56
_cell_length_a 12.369769
_cell_length_b 23.277912
_cell_length_c 11.118250
_cell_angle_alpha 90.000000
_cell_angle_beta 64.902973
_cell_angle_gamma 90.000000
_cell_volume 2899.172475
_symmetry_space_group_name_H-M "C 2/M"
_symmetry_group_IT_number 12
_symmetry_cell_setting 'monoclinic'
loop_
_space_group_symop_operation_xyz
x,y,z
-x,y,-z
-x,-y,-z
x,-y,z
1/2+x,1/2+y,z
1/2-x,1/2+y,-z
1/2-x,1/2-y,-z
1/2+x,1/2-y,z
loop_
_atom_site_type_symbol
_atom_site_label
_atom_site_fract_x
_atom_site_fract_y
_atom_site_fract_z
Si Si1 0.789509 0.835099 0.309145
Si Si2 0.363881 0.659231 0.550081
Si Si3 0.249830 0.327543 0.925526
Si Si4 0.924280 0.934319 0.151455
Si Si5 0.375924 0.214924 0.227204
Si Si6 0.132526 0.933228 0.245242
Si Si7 0.874794 0.285913 0.785496
O O1 0.826231 0.845720 0.429180
O O2 0.814533 0.893488 0.228196
O O3 0.875423 0.783737 0.223962
O O4 0.662826 0.808385 0.328297
O O5 0.500000 0.684145 0.500000
O O6 0.248702 0.694032 0.654220
O O7 0.371294 0.600581 0.625852
O O8 0.134846 0.309814 0.900998
O O9 0.284979 0.391990 0.875682
O O10 0.349621 0.281581 0.830012
O O11 0.216744 0.315969 0.077766
O O12 0.008379 0.932486 0.230134
O O13 0.889949 0.000000 0.144363
O O14 0.000000 0.914423 0.000000
O O15 0.491492 0.197373 0.245746
O O16 0.168254 0.000000 0.240411
#
# Coordination Sequence:
#
# PCOD9194306 Si02
#       7
#     8   8   8   8   8   8   8
#     4  11  22  35  56  82 116 154 186 240 283 344
#     4  11  23  39  56  80 118 148 193 248 281 333
#     4   9  19  36  58  89 119 149 190 243 282 355
#     4  10  20  34  55  85 115 144 185 238 290 342
#     4  10  22  36  58  84 118 153 189 235 286 349
#     4  10  20  36  60  84 112 150 195 244 288 335
#     4  10  20  35  59  88 119 156 187 225 303 353
#
# _framework density 19.315856
#
# number of rings (size 3 to 8) (size 9 to 14) (size 15 to 20)
#    0.000    1.857    1.429    2.571    4.000    3.714 
#    0.000    0.000    0.000   10.286    0.000    5.000 
#    0.000    0.000    0.000    0.000    0.000    0.000 
#
# Total GULP energy -155963.527208 kJ/mol
# GULP energy per Si atom -5570.125972 kJ/mol
# Density = 1.927189 g / cm^3
# Si number density = 19.315856 Si / 1000 Ang^3
#
#
#
# Elastic Constant Matrix: (Units=GPa)
#
#
# Indices 1 2 3 4 5 6 
#
# 1 122.5384 24.9210 34.9004 0.0000 14.4158 0.0000
# 2 24.9210 96.1369 25.1536 0.0000 -1.0645 0.0000
# 3 34.9004 25.1536 57.0617 0.0000 10.5969 0.0000
# 4 0.0000 0.0000 0.0000 12.4723 0.0000 10.4804
# 5 14.4158 -1.0645 10.5969 0.0000 31.6444 0.0000
# 6 0.0000 0.0000 0.0000 10.4804 0.0000 20.8053
#
#
#
# Elastic Compliance Matrix: (Units=1/GPa)
#
#
# Indices 1 2 3 4 5 6 
#
# 1 0.010245 -0.001351 -0.005113 0.000000 -0.003000 0.000000
# 2 -0.001351 0.012091 -0.005005 0.000000 0.002698 0.000000
# 3 -0.005113 -0.005005 0.023946 0.000000 -0.005858 0.000000
# 4 0.000000 0.000000 0.000000 0.139026 0.000000 -0.070033
# 5 -0.003000 0.002698 -0.005858 0.000000 0.035020 0.000000
# 6 0.000000 0.000000 0.000000 -0.070033 0.000000 0.083343
#
#
# Mechanical properties :
#
#
# Convention : Reuss Voigt Hill
#
# Bulk Modulus (GPa) = 42.83693 49.52076 46.17884
# Shear Modulus (GPa) = 14.95253 25.70187 20.32720
#
# Velocity S-wave (km/s) = 2.78530 3.65171 3.24753
# Velocity P-wave (km/s) = 5.70693 6.59341 6.16612
#
# Compressibility (1/GPa) = 0.02334435
#
# Stress axis : x y z
#
# Youngs Moduli (GPa) = 97.61112 82.70337 41.76008
#
# Poissons Ratio (x) = 0.11174 0.21353
# Poissons Ratio (y) = 0.13188 0.20900
# Poissons Ratio (z) = 0.49911 0.41391
#
# Static dielectric constant tensor:
#      x y z
#    x 1.722740 0.000000 0.022340 
#    y 0.000000 1.675180 0.000000 
#    z 0.022340 0.000000 1.754890 
# 
# From -- ./inp_files/133843.got.cif
#   From: 2010.05.17/outbox.cif.g08.bks.cpg/sg12_67_cif.got.tgz:133843.got - 2010.06.03 13:09:07.
