data_PCOD9194751
_publ_section_title
;
Structure prediction by ZEFSAII (Michael W. Deem and Ramdas Pophale) SiO2 
 PCOD9194751
Probable space group: C 2/M
;
_chemical_formula_sum "Si O2"
_cell_formula_units_Z 50
_cell_length_a 8.822164
_cell_length_b 12.627500
_cell_length_c 23.531382
_cell_angle_alpha 90.000000
_cell_angle_beta 113.822240
_cell_angle_gamma 90.000000
_cell_volume 2398.101156
_symmetry_space_group_name_H-M "C 2/M"
_symmetry_group_IT_number 12
_symmetry_cell_setting 'monoclinic'
loop_
_space_group_symop_operation_xyz
x,y,z
-x,y,-z
-x,-y,-z
x,-y,z
1/2+x,1/2+y,z
1/2-x,1/2+y,-z
1/2-x,1/2-y,-z
1/2+x,1/2-y,z
loop_
_atom_site_type_symbol
_atom_site_label
_atom_site_fract_x
_atom_site_fract_y
_atom_site_fract_z
Si Si1 0.892610 0.199203 0.061275
Si Si2 0.945673 0.376473 0.314921
Si Si3 0.669305 0.125700 0.128974
Si Si4 0.486260 0.614161 0.392592
Si Si5 0.227218 0.726267 0.430274
Si Si6 0.000000 0.000000 0.000000
Si Si7 0.278683 0.181028 0.732552
O O1 0.816096 0.160313 0.109190
O O2 0.019899 0.295366 0.090140
O O3 0.750000 0.250000 0.000000
O O4 0.967069 0.095368 0.042423
O O5 0.907380 0.500000 0.309209
O O6 0.786366 0.300499 0.288367
O O7 0.075736 0.349684 0.386154
O O8 0.052668 0.344717 0.275213
O O9 0.710528 0.150107 0.200601
O O10 0.631416 0.000000 0.116184
O O11 0.509397 0.500000 0.421639
O O12 0.390925 0.685088 0.424725
O O13 0.658801 0.661575 0.398196
O O14 0.362527 0.614476 0.321082
O O15 0.250000 0.750000 0.500000
#
# Coordination Sequence:
#
# PCOD9194751 Si02
#       7
#     8   8   8   8   8   2   8
#     4  12  26  44  67  94 128 171 208 252 313 364
#     4  10  21  41  62  83 124 166 197 254 315 367
#     4  12  25  41  68  98 126 162 210 260 307 371
#     4  10  21  39  61  81 120 161 191 247 311 358
#     4  10  20  34  57  87 114 151 206 247 291 364
#     4  12  24  48  64  88 140 164 210 254 304 366
#     4  10  21  41  63  93 121 156 206 249 307 367
#
# _framework density 20.849830999999998
#
# number of rings (size 3 to 8) (size 9 to 14) (size 15 to 20)
#    0.000    1.280    2.400    4.320    1.120    2.560 
#    1.440   15.200    0.000   16.320    0.000    0.000 
#    0.000    0.000    0.000    0.000    0.000    0.000 
#
# Total GULP energy -139269.293159 kJ/mol
# GULP energy per Si atom -5570.771726 kJ/mol
# Density = 2.080238 g / cm^3
# Si number density = 20.849831 Si / 1000 Ang^3
#
#
#
# Elastic Constant Matrix: (Units=GPa)
#
#
# Indices 1 2 3 4 5 6 
#
# 1 57.2941 80.5171 36.1068 0.0000 -15.0146 0.0000
# 2 80.5171 204.6502 29.8422 0.0000 -9.2596 0.0000
# 3 36.1068 29.8422 74.2660 0.0000 -29.6204 0.0000
# 4 0.0000 0.0000 0.0000 1.0693 0.0000 -13.5815
# 5 -15.0146 -9.2596 -29.6204 0.0000 32.6423 0.0000
# 6 0.0000 0.0000 0.0000 -13.5815 0.0000 10.6871
#
#
#
# Elastic Compliance Matrix: (Units=1/GPa)
#
#
# Indices 1 2 3 4 5 6 
#
# 1 0.058779 -0.020198 -0.018748 0.000000 0.004295 0.000000
# 2 -0.020198 0.012140 0.004090 0.000000 -0.002135 0.000000
# 3 -0.018748 0.004090 0.028147 0.000000 0.018078 0.000000
# 4 0.000000 0.000000 0.000000 -0.061765 0.000000 -0.078492
# 5 0.004295 -0.002135 0.018078 0.000000 0.048409 0.000000
# 6 0.000000 0.000000 0.000000 -0.078492 0.000000 -0.006180
#
#
# Mechanical properties :
#
#
# Convention : Reuss Voigt Hill
#
# Bulk Modulus (GPa) = 34.06765 69.90471 51.98618
# Shear Modulus (GPa) = 31.44132 21.52935 26.48534
#
# Velocity S-wave (km/s) = 3.88750 3.21688 3.56798
# Velocity P-wave (km/s) = 6.04361 6.88464 6.47779
#
# Compressibility (1/GPa) = 0.02935336
#
# Stress axis : x y z
#
# Youngs Moduli (GPa) = 17.01296 82.37328 35.52795
#
# Poissons Ratio (x) = 1.66374 0.66609
# Poissons Ratio (y) = 0.34362 -0.14530
# Poissons Ratio (z) = 0.31896 -0.33689
#
# Static dielectric constant tensor:
#      x y z
#    x 1.764360 0.000000 0.004320 
#    y 0.000000 1.781820 0.000000 
#    z 0.004320 0.000000 1.782130 
# 
# From -- ./inp_files/355908.got.cif
#   From: 2010.05.17/outbox.cif.g08.bks.cpg/sg12_178_cif.got.tgz:355908.got - 2010.06.03 13:09:07.
