data_PCOD9194156
_publ_section_title
;
Structure prediction by ZEFSAII (Michael W. Deem and Ramdas Pophale) SiO2 
 PCOD9194156
Probable space group: C 2/M
;
_chemical_formula_sum "Si O2"
_cell_formula_units_Z 56
_cell_length_a 16.369912
_cell_length_b 14.384301
_cell_length_c 30.492144
_cell_angle_alpha 90.000000
_cell_angle_beta 24.462249
_cell_angle_gamma 90.000000
_cell_volume 2973.182621
_symmetry_space_group_name_H-M "C 2/M"
_symmetry_group_IT_number 12
_symmetry_cell_setting 'monoclinic'
loop_
_space_group_symop_operation_xyz
x,y,z
-x,y,-z
-x,-y,-z
x,-y,z
1/2+x,1/2+y,z
1/2-x,1/2+y,-z
1/2-x,1/2-y,-z
1/2+x,1/2-y,z
loop_
_atom_site_type_symbol
_atom_site_label
_atom_site_fract_x
_atom_site_fract_y
_atom_site_fract_z
Si Si1 0.551533 0.804809 0.607581
Si Si2 0.548678 0.603785 0.926921
Si Si3 0.498526 0.263367 0.794339
Si Si4 0.114382 0.271298 0.834578
Si Si5 0.120979 0.390073 0.396842
Si Si6 0.011040 0.602194 0.715734
Si Si7 0.118540 0.605298 0.987289
O O1 0.750000 0.750000 0.500000
O O2 0.352502 0.745094 0.717236
O O3 0.487306 0.860295 0.595253
O O4 0.604658 0.866417 0.624121
O O5 0.459963 0.500000 0.963788
O O6 0.515404 0.679451 0.905678
O O7 0.782559 0.593463 0.814304
O O8 0.500000 0.636977 0.000000
O O9 0.536654 0.220646 0.823481
O O10 0.674043 0.336135 0.701092
O O11 0.515608 0.182460 0.749898
O O12 0.296579 0.321685 0.894301
O O13 0.034852 0.356469 0.901787
O O14 0.153178 0.500000 0.380065
O O15 0.000000 0.366979 0.500000
O O16 0.080791 0.500000 0.696498
O O17 0.187796 0.500000 0.963715
O O18 0.000000 0.602753 0.000000
#
# Coordination Sequence:
#
# PCOD9194156 Si02
#       7
#     8   8   8   8   8   8   8
#     4  10  20  37  61  84 112 149 187 235 293 352
#     4   9  17  31  54  81 107 137 178 230 285 341
#     4  11  22  37  58  82 113 152 190 236 289 340
#     4  10  21  36  56  81 111 145 187 235 287 341
#     4  10  21  37  59  87 115 145 189 241 289 341
#     4  10  20  34  55  82 111 144 184 229 281 341
#     4  11  23  38  55  78 112 153 194 233 280 344
#
# _framework density 18.835035000000001
#
# number of rings (size 3 to 8) (size 9 to 14) (size 15 to 20)
#    0.000    1.857    0.000    5.143    0.000    4.571 
#    0.000    4.286    0.000    9.000    0.000    0.000 
#    0.000    0.000    0.000    0.000    0.000    0.000 
#
# Total GULP energy -156167.883150 kJ/mol
# GULP energy per Si atom -5577.424398 kJ/mol
# Density = 1.879217 g / cm^3
# Si number density = 18.835035 Si / 1000 Ang^3
#
#
#
# Elastic Constant Matrix: (Units=GPa)
#
#
# Indices 1 2 3 4 5 6 
#
# 1 86.0909 52.7757 38.7733 0.0029 20.0168 0.0012
# 2 52.7757 92.5545 67.3234 0.0040 10.9739 0.0001
# 3 38.7733 67.3234 103.9978 0.0104 20.0393 0.0028
# 4 0.0029 0.0040 0.0104 15.2161 0.0054 4.3897
# 5 20.0168 10.9739 20.0393 0.0054 33.3469 -0.0003
# 6 0.0012 0.0001 0.0028 4.3897 -0.0003 27.1892
#
#
#
# Elastic Compliance Matrix: (Units=1/GPa)
#
#
# Indices 1 2 3 4 5 6 
#
# 1 0.020147 -0.011768 0.001912 0.000002 -0.009370 -0.000001
# 2 -0.011768 0.027350 -0.014640 0.000002 0.006861 0.000002
# 3 0.001912 -0.014640 0.019987 -0.000007 -0.008341 -0.000001
# 4 0.000002 0.000002 -0.000007 0.068931 -0.000009 -0.011129
# 5 -0.009370 0.006861 -0.008341 -0.000009 0.038367 0.000003
# 6 -0.000001 0.000002 -0.000001 -0.011129 0.000003 0.038576
#
#
# Mechanical properties :
#
#
# Convention : Reuss Voigt Hill
#
# Bulk Modulus (GPa) = 54.07482 66.70978 60.39230
# Shear Modulus (GPa) = 18.62106 23.40182 21.01144
#
# Velocity S-wave (km/s) = 3.14767 3.52868 3.34361
# Velocity P-wave (km/s) = 6.47939 7.21782 6.85855
#
# Compressibility (1/GPa) = 0.01849290
#
# Stress axis : x y z
#
# Youngs Moduli (GPa) = 49.63499 36.56291 50.03247
#
# Poissons Ratio (x) = 0.43027 -0.09567
# Poissons Ratio (y) = 0.58411 0.73246
# Poissons Ratio (z) = -0.09491 0.53527
#
# Static dielectric constant tensor:
#      x y z
#    x 1.689830 -0.000010 0.084420 
#    y -0.000010 1.694790 0.000000 
#    z 0.084420 0.000000 1.763910 
# 
# From -- ./inp_files/224878.got.cif
#   From: 2010.05.17/outbox.cif.g08.bks.cpg/sg12_113_cif.got.tgz:224878.got - 2010.06.03 13:09:07.
