data_PCOD9194049
_publ_section_title
;
Structure prediction by ZEFSAII (Michael W. Deem and Ramdas Pophale) SiO2 
 PCOD9194049
Probable space group: C 2/M
;
_chemical_formula_sum "Si O2"
_cell_formula_units_Z 56
_cell_length_a 16.716113
_cell_length_b 7.529618
_cell_length_c 24.388011
_cell_angle_alpha 90.000000
_cell_angle_beta 135.554778
_cell_angle_gamma 90.000000
_cell_volume 2149.430957
_symmetry_space_group_name_H-M "C 2/M"
_symmetry_group_IT_number 12
_symmetry_cell_setting 'monoclinic'
loop_
_space_group_symop_operation_xyz
x,y,z
-x,y,-z
-x,-y,-z
x,-y,z
1/2+x,1/2+y,z
1/2-x,1/2+y,-z
1/2-x,1/2-y,-z
1/2+x,1/2-y,z
loop_
_atom_site_type_symbol
_atom_site_label
_atom_site_fract_x
_atom_site_fract_y
_atom_site_fract_z
Si Si1 0.345798 0.284112 0.741516
Si Si2 0.969416 0.293441 0.308366
Si Si3 0.222844 0.214001 0.171119
Si Si4 0.591377 0.704481 0.878220
Si Si5 0.464077 0.715558 0.543163
Si Si6 0.842841 0.709171 0.975872
Si Si7 0.217127 0.706385 0.405159
O O1 0.344255 0.500000 0.739958
O O2 0.312105 0.224545 0.785686
O O3 0.476459 0.220043 0.796487
O O4 0.270159 0.217336 0.654510
O O5 0.974422 0.500000 0.294977
O O6 0.853198 0.219116 0.225870
O O7 0.959589 0.282974 0.369605
O O8 0.093243 0.210106 0.356468
O O9 0.141488 0.265356 0.081044
O O10 0.225799 0.000000 0.173891
O O11 0.597353 0.500000 0.864437
O O12 0.714406 0.784766 0.924401
O O13 0.579666 0.708595 0.938852
O O14 0.500000 0.772111 0.500000
O O15 0.465860 0.500000 0.545228
O O16 0.333014 0.779113 0.487843
O O17 0.844829 0.500000 0.988072
O O18 0.211854 0.500000 0.418270
#
# Coordination Sequence:
#
# PCOD9194049 Si02
#       7
#     8   8   8   8   8   8   8
#     4  10  21  36  55  78 103 137 177 212 255 310
#     4  10  21  36  55  79 105 137 176 214 257 308
#     4  10  21  36  53  76 107 138 170 213 262 308
#     4   9  19  36  55  76 104 136 172 214 257 304
#     4  10  21  36  54  78 108 140 173 212 260 308
#     4  10  20  34  55  80 103 134 175 213 255 308
#     4  10  21  36  54  78 107 137 172 216 262 305
#
# _framework density 26.053408000000001
#
# number of rings (size 3 to 8) (size 9 to 14) (size 15 to 20)
#    0.000    2.143    0.000    2.571    0.000    4.286 
#    0.000    2.857    0.000    0.000    0.000    0.000 
#    0.000    0.000    0.000    0.000    0.000    0.000 
#
# Total GULP energy -156670.233032 kJ/mol
# GULP energy per Si atom -5595.365465 kJ/mol
# Density = 2.599411 g / cm^3
# Si number density = 26.053408 Si / 1000 Ang^3
#
#
#
# Elastic Constant Matrix: (Units=GPa)
#
#
# Indices 1 2 3 4 5 6 
#
# 1 69.6525 6.6541 0.5907 0.0000 -16.6805 0.0000
# 2 6.6541 90.0497 -4.8644 0.0000 3.0882 0.0000
# 3 0.5907 -4.8644 131.1357 0.0000 -16.4753 0.0000
# 4 0.0000 0.0000 0.0000 14.8757 0.0000 -16.0837
# 5 -16.6805 3.0882 -16.4753 0.0000 51.1295 0.0000
# 6 0.0000 0.0000 0.0000 -16.0837 0.0000 16.8034
#
#
#
# Elastic Compliance Matrix: (Units=1/GPa)
#
#
# Indices 1 2 3 4 5 6 
#
# 1 0.015773 -0.001321 0.000559 0.000000 0.005406 0.000000
# 2 -0.001321 0.011253 0.000296 0.000000 -0.001015 0.000000
# 3 0.000559 0.000296 0.007978 0.000000 0.002735 0.000000
# 4 0.000000 0.000000 0.000000 -1.926547 0.000000 -1.844028
# 5 0.005406 -0.001015 0.002735 0.000000 0.022264 0.000000
# 6 0.000000 0.000000 0.000000 -1.844028 0.000000 -1.705532
#
#
# Mechanical properties :
#
#
# Convention : Reuss Voigt Hill
#
# Bulk Modulus (GPa) = 29.34910 32.84431 31.09670
# Shear Modulus (GPa) = -1.40350 35.79223 17.19437
#
# Velocity S-wave (km/s) = -0.73476 3.71051 2.57177
# Velocity P-wave (km/s) = 3.25109 5.56696 4.55854
#
# Compressibility (1/GPa) = 0.03407260
#
# Stress axis : x y z
#
# Youngs Moduli (GPa) = 63.39954 88.86225 125.34817
#
# Poissons Ratio (x) = 0.11736 -0.07008
# Poissons Ratio (y) = 0.08373 -0.03708
# Poissons Ratio (z) = -0.03545 -0.02629
#
# Static dielectric constant tensor:
#      x y z
#    x 2.166400 0.000000 0.010330 
#    y 0.000000 1.946320 0.000000 
#    z 0.010330 0.000000 1.984300 
# 
# From -- ./inp_files/342554.got.cif
#   From: 2010.05.17/outbox.cif.g08.bks.cpg/sg12_172_cif.got.tgz:342554.got - 2010.06.03 13:09:07.
