data_PCOD9194061
_publ_section_title
;
Structure prediction by ZEFSAII (Michael W. Deem and Ramdas Pophale) SiO2 
 PCOD9194061
Probable space group: C 2/M
;
_chemical_formula_sum "Si O2"
_cell_formula_units_Z 44
_cell_length_a 8.467013
_cell_length_b 11.339899
_cell_length_c 22.604758
_cell_angle_alpha 90.000000
_cell_angle_beta 79.651706
_cell_angle_gamma 90.000000
_cell_volume 2135.093739
_symmetry_space_group_name_H-M "C 2/M"
_symmetry_group_IT_number 12
_symmetry_cell_setting 'monoclinic'
loop_
_space_group_symop_operation_xyz
x,y,z
-x,y,-z
-x,-y,-z
x,-y,z
1/2+x,1/2+y,z
1/2-x,1/2+y,-z
1/2-x,1/2-y,-z
1/2+x,1/2-y,z
loop_
_atom_site_type_symbol
_atom_site_label
_atom_site_fract_x
_atom_site_fract_y
_atom_site_fract_z
Si Si1 0.969829 0.631732 0.664801
Si Si2 0.500000 0.680680 0.500000
Si Si3 0.218747 0.135759 0.043980
Si Si4 0.458178 0.222897 0.124739
Si Si5 0.215089 0.812364 0.587839
Si Si6 0.806798 0.635478 0.796789
O O1 0.037195 0.500000 0.666131
O O2 0.811787 0.626240 0.633946
O O3 0.910408 0.672838 0.733003
O O4 0.102161 0.714513 0.626110
O O5 0.361407 0.757229 0.540378
O O6 0.402192 0.624412 0.451677
O O7 0.356045 0.148500 0.084748
O O8 0.049148 0.169841 0.085440
O O9 0.218926 0.000000 0.020868
O O10 0.250000 0.250000 0.000000
O O11 0.341049 0.279307 0.181094
O O12 0.588339 0.146555 0.150699
O O13 0.758019 0.500000 0.790462
#
# Coordination Sequence:
#
# PCOD9194061 Si02
#       6
#     8   4   8   8   8   8
#     4  10  20  34  55  80 106 140 180 224 275 328
#     4   8  16  32  52  72 106 146 174 226 276 320
#     4  11  24  40  60  87 118 152 192 236 284 339
#     4  10  22  38  59  83 112 148 186 228 280 334
#     4   9  17  34  53  75 108 139 179 226 272 324
#     4  10  20  36  57  81 109 142 181 226 277 331
#
# _framework density 20.607994000000001
#
# number of rings (size 3 to 8) (size 9 to 14) (size 15 to 20)
#    0.000    2.182    0.000    2.727    0.000    5.818 
#    0.000   20.909    0.000   15.273    0.000    0.000 
#    0.000    0.000    0.000    0.000    0.000    0.000 
#
# Total GULP energy -122555.180386 kJ/mol
# GULP energy per Si atom -5570.690018 kJ/mol
# Density = 2.056109 g / cm^3
# Si number density = 20.607994 Si / 1000 Ang^3
#
#
#
# Elastic Constant Matrix: (Units=GPa)
#
#
# Indices 1 2 3 4 5 6 
#
# 1 76.6209 29.8662 13.6024 0.0000 -3.1403 0.0000
# 2 29.8662 108.6545 45.7766 0.0000 -17.0156 0.0000
# 3 13.6024 45.7766 90.3795 0.0000 -12.2158 0.0000
# 4 0.0000 0.0000 0.0000 138.0388 0.0000 -17.7893
# 5 -3.1403 -17.0156 -12.2158 0.0000 34.0537 0.0000
# 6 0.0000 0.0000 0.0000 -17.7893 0.0000 4.7815
#
#
#
# Elastic Compliance Matrix: (Units=1/GPa)
#
#
# Indices 1 2 3 4 5 6 
#
# 1 0.014638 -0.004031 -0.000264 0.000000 -0.000759 0.000000
# 2 -0.004031 0.013328 -0.005564 0.000000 0.004292 0.000000
# 3 -0.000264 -0.005564 0.014233 0.000000 0.002301 0.000000
# 4 0.000000 0.000000 0.000000 0.013917 0.000000 0.051778
# 5 -0.000759 0.004292 0.002301 0.000000 0.032265 0.000000
# 6 0.000000 0.000000 0.000000 0.051778 0.000000 0.401776
#
#
# Mechanical properties :
#
#
# Convention : Reuss Voigt Hill
#
# Bulk Modulus (GPa) = 44.48082 50.46059 47.47071
# Shear Modulus (GPa) = 9.66427 47.80211 28.73319
#
# Velocity S-wave (km/s) = 2.16789 4.82144 3.73805
# Velocity P-wave (km/s) = 5.28180 7.45212 6.45878
#
# Compressibility (1/GPa) = 0.02248160
#
# Stress axis : x y z
#
# Youngs Moduli (GPa) = 68.31340 75.03174 70.25864
#
# Poissons Ratio (x) = 0.30249 0.01854
# Poissons Ratio (y) = 0.27540 0.39089
# Poissons Ratio (z) = 0.01802 0.41744
#
# Static dielectric constant tensor:
#      x y z
#    x 1.730370 0.000000 0.024980 
#    y 0.000000 1.898210 0.000000 
#    z 0.024980 0.000000 1.765070 
# 
# From -- ./inp_files/299304.got.cif
#   From: 2010.05.17/outbox.cif.g08.bks.cpg/sg12_150_cif.got.tgz:299304.got - 2010.06.03 13:09:07.
