data_PCOD9194877
_publ_section_title
;
Structure prediction by ZEFSAII (Michael W. Deem and Ramdas Pophale) SiO2 
 PCOD9194877
Probable space group: C 2/M
;
_chemical_formula_sum "Si O2"
_cell_formula_units_Z 32
_cell_length_a 12.731749
_cell_length_b 13.734436
_cell_length_c 18.990238
_cell_angle_alpha 90.000000
_cell_angle_beta 22.608379
_cell_angle_gamma 90.000000
_cell_volume 1276.576808
_symmetry_space_group_name_H-M "C 2/M"
_symmetry_group_IT_number 12
_symmetry_cell_setting 'monoclinic'
loop_
_space_group_symop_operation_xyz
x,y,z
-x,y,-z
-x,-y,-z
x,-y,z
1/2+x,1/2+y,z
1/2-x,1/2+y,-z
1/2-x,1/2-y,-z
1/2+x,1/2-y,z
loop_
_atom_site_type_symbol
_atom_site_label
_atom_site_fract_x
_atom_site_fract_y
_atom_site_fract_z
Si Si1 0.853697 0.614338 0.411703
Si Si2 0.177476 0.720421 0.709870
Si Si3 0.591093 0.610059 0.861782
Si Si4 0.251171 0.886628 0.197075
O O1 0.826472 0.500000 0.407380
O O2 0.932006 0.676397 0.294737
O O3 0.557973 0.649327 0.621817
O O4 0.081334 0.617146 0.330382
O O5 0.500000 0.743611 0.500000
O O6 0.028299 0.810642 0.840804
O O7 0.180244 0.633165 0.764646
O O8 0.511395 0.500000 0.890416
O O9 0.500000 0.622458 0.000000
O O10 0.240401 0.000000 0.186216
O O11 0.500000 0.840879 0.000000
#
# Coordination Sequence:
#
# PCOD9194877 Si02
#       4
#     8   8   8   8
#     4   9  19  37  60  84 113 149 186 229 282 334
#     4  10  20  34  58  85 112 144 188 235 280 330
#     4  10  22  40  58  79 113 154 191 229 278 336
#     4   9  17  31  54  85 116 144 181 231 282 332
#
# _framework density 25.067039000000001
#
# number of rings (size 3 to 8) (size 9 to 14) (size 15 to 20)
#    0.000    2.500    0.000    1.500    0.000    8.500 
#    0.000    2.500    0.000   16.500    0.000    0.000 
#    0.000    0.000    0.000    0.000    0.000    0.000 
#
# Total GULP energy -89460.800907 kJ/mol
# GULP energy per Si atom -5591.300057 kJ/mol
# Density = 2.500999 g / cm^3
# Si number density = 25.067039 Si / 1000 Ang^3
#
#
#
# Elastic Constant Matrix: (Units=GPa)
#
#
# Indices 1 2 3 4 5 6 
#
# 1 53.6881 34.4320 27.0363 -0.0140 3.9473 0.0065
# 2 34.4320 71.9546 11.1831 -0.0325 4.8328 0.0088
# 3 27.0363 11.1831 115.4348 -0.0723 13.5043 0.0379
# 4 -0.0140 -0.0325 -0.0723 24.6376 0.0273 10.5107
# 5 3.9473 4.8328 13.5043 0.0273 30.8720 -0.0146
# 6 0.0065 0.0088 0.0379 10.5107 -0.0146 33.9856
#
#
#
# Elastic Compliance Matrix: (Units=1/GPa)
#
#
# Indices 1 2 3 4 5 6 
#
# 1 0.030254 -0.013622 -0.005863 -0.000024 0.000829 0.000012
# 2 -0.013622 0.020328 0.001464 0.000032 -0.002081 -0.000015
# 3 -0.005863 0.001464 0.010364 0.000045 -0.004013 -0.000026
# 4 -0.000024 0.000032 0.000045 0.046758 -0.000070 -0.014461
# 5 0.000829 -0.002081 -0.004013 -0.000070 0.034367 0.000041
# 6 0.000012 -0.000015 -0.000026 -0.014461 0.000041 0.033897
#
#
# Mechanical properties :
#
#
# Convention : Reuss Voigt Hill
#
# Bulk Modulus (GPa) = 40.15241 42.93114 41.54178
# Shear Modulus (GPa) = 22.69539 29.12744 25.91142
#
# Velocity S-wave (km/s) = 3.01223 3.41248 3.21858
# Velocity P-wave (km/s) = 5.30574 5.71755 5.51549
#
# Compressibility (1/GPa) = 0.02490510
#
# Stress axis : x y z
#
# Youngs Moduli (GPa) = 33.05387 49.19314 96.49015
#
# Poissons Ratio (x) = 0.67008 0.56573
# Poissons Ratio (y) = 0.45024 -0.14131
# Poissons Ratio (z) = 0.19380 -0.07204
#
# Static dielectric constant tensor:
#      x y z
#    x 1.887850 0.000000 -0.025840 
#    y 0.000000 1.997450 0.000040 
#    z -0.025840 0.000040 2.089990 
# 
# From -- ./inp_files/58239.got.cif
#   From: 2010.05.17/outbox.cif.g08.bks.cpg/sg12_30_cif.got.tgz:58239.got - 2010.06.03 13:09:07.
