data_PCOD9194637
_publ_section_title
;
Structure prediction by ZEFSAII (Michael W. Deem and Ramdas Pophale) SiO2 
 PCOD9194637
Probable space group: C 2/M
;
_chemical_formula_sum "Si O2"
_cell_formula_units_Z 48
_cell_length_a 27.308796
_cell_length_b 9.791989
_cell_length_c 20.569605
_cell_angle_alpha 90.000000
_cell_angle_beta 28.496735
_cell_angle_gamma 90.000000
_cell_volume 2624.319696
_symmetry_space_group_name_H-M "C 2/M"
_symmetry_group_IT_number 12
_symmetry_cell_setting 'monoclinic'
loop_
_space_group_symop_operation_xyz
x,y,z
-x,y,-z
-x,-y,-z
x,-y,z
1/2+x,1/2+y,z
1/2-x,1/2+y,-z
1/2-x,1/2-y,-z
1/2+x,1/2-y,z
loop_
_atom_site_type_symbol
_atom_site_label
_atom_site_fract_x
_atom_site_fract_y
_atom_site_fract_z
Si Si1 0.227499 0.156414 0.856456
Si Si2 0.041933 0.846482 0.624427
Si Si3 0.201555 0.843807 0.111242
Si Si4 0.851108 0.163978 0.364615
Si Si5 0.502526 0.335751 0.922933
Si Si6 0.416516 0.842905 0.543177
O O1 0.270720 0.268189 0.854761
O O2 0.303908 0.158444 0.706066
O O3 0.232280 0.000000 0.877735
O O4 0.110152 0.186165 0.975660
O O5 0.073570 0.816682 0.661467
O O6 0.083016 0.742935 0.522849
O O7 0.919828 0.845294 0.758945
O O8 0.079495 0.000000 0.565912
O O9 0.238680 0.000000 0.066462
O O10 0.250000 0.750000 0.000000
O O11 0.750000 0.250000 0.500000
O O12 0.909089 0.209799 0.230694
O O13 0.829751 0.000000 0.384536
O O14 0.516180 0.500000 0.911281
O O15 0.500000 0.282183 0.000000
O O16 0.500000 0.793766 0.500000
O O17 0.445643 0.000000 0.494965
#
# Coordination Sequence:
#
# PCOD9194637 Si02
#       6
#     8   8   8   8   8   8
#     4  10  20  36  58  85 118 150 190 240 288 341
#     4  10  22  38  56  81 117 156 190 231 290 356
#     4  11  22  36  57  83 112 150 190 233 290 350
#     4  10  22  40  61  86 115 150 196 245 294 348
#     4   9  19  37  62  87 113 153 201 242 286 347
#     4  10  20  34  56  89 119 147 190 242 287 334
#
# _framework density 18.290454
#
# number of rings (size 3 to 8) (size 9 to 14) (size 15 to 20)
#    0.000    2.000    1.667    1.500    2.333    5.000 
#    0.000    2.500    0.000    1.000    0.000    0.000 
#    0.000    0.000    0.000    0.000    0.000    0.000 
#
# Total GULP energy -133857.783481 kJ/mol
# GULP energy per Si atom -5577.407645 kJ/mol
# Density = 1.824882 g / cm^3
# Si number density = 18.290454 Si / 1000 Ang^3
#
#
#
# Elastic Constant Matrix: (Units=GPa)
#
#
# Indices 1 2 3 4 5 6 
#
# 1 98.1301 54.2747 47.1521 -0.0002 17.3466 0.0000
# 2 54.2747 83.6280 43.3503 -0.0001 12.0174 0.0000
# 3 47.1521 43.3503 117.1124 -0.0002 11.5833 0.0000
# 4 -0.0002 -0.0001 -0.0002 27.7095 -0.0003 8.9510
# 5 17.3466 12.0174 11.5833 -0.0003 27.7898 0.0001
# 6 0.0000 0.0000 0.0000 8.9510 0.0001 20.4017
#
#
#
# Elastic Compliance Matrix: (Units=1/GPa)
#
#
# Indices 1 2 3 4 5 6 
#
# 1 0.017763 -0.009010 -0.003239 0.000000 -0.005841 0.000000
# 2 -0.009010 0.019875 -0.003583 0.000000 -0.001477 0.000000
# 3 -0.003239 -0.003583 0.011281 0.000000 -0.001131 0.000000
# 4 0.000000 0.000000 0.000000 0.042048 0.000001 -0.018448
# 5 -0.005841 -0.001477 -0.001131 0.000001 0.040741 0.000000
# 6 0.000000 0.000000 0.000000 -0.018448 0.000000 0.057109
#
#
# Mechanical properties :
#
#
# Convention : Reuss Voigt Hill
#
# Bulk Modulus (GPa) = 57.95446 65.38052 61.66749
# Shear Modulus (GPa) = 22.10129 25.45311 23.77720
#
# Velocity S-wave (km/s) = 3.47991 3.73447 3.60943
# Velocity P-wave (km/s) = 6.92104 7.37688 7.15259
#
# Compressibility (1/GPa) = 0.01725493
#
# Stress axis : x y z
#
# Youngs Moduli (GPa) = 56.29827 50.31533 88.64416
#
# Poissons Ratio (x) = 0.45332 0.28711
# Poissons Ratio (y) = 0.50722 0.31763
# Poissons Ratio (z) = 0.18234 0.18029
#
# Static dielectric constant tensor:
#      x y z
#    x 1.612090 0.000000 0.022390 
#    y 0.000000 1.619190 0.000000 
#    z 0.022390 0.000000 1.625610 
# 
# From -- ./inp_files/172938.got.cif
#   From: 2010.05.17/outbox.cif.g08.bks.cpg/sg12_87_cif.got.tgz:172938.got - 2010.06.03 13:09:07.
