data_PCOD9194284
_publ_section_title
;
Structure prediction by ZEFSAII (Michael W. Deem and Ramdas Pophale) SiO2 
 PCOD9194284
Probable space group: C 2/M
;
_chemical_formula_sum "Si O2"
_cell_formula_units_Z 56
_cell_length_a 9.209178
_cell_length_b 12.972391
_cell_length_c 27.776654
_cell_angle_alpha 90.000000
_cell_angle_beta 118.299802
_cell_angle_gamma 90.000000
_cell_volume 2921.728284
_symmetry_space_group_name_H-M "C 2/M"
_symmetry_group_IT_number 12
_symmetry_cell_setting 'monoclinic'
loop_
_space_group_symop_operation_xyz
x,y,z
-x,y,-z
-x,-y,-z
x,-y,z
1/2+x,1/2+y,z
1/2-x,1/2+y,-z
1/2-x,1/2-y,-z
1/2+x,1/2-y,z
loop_
_atom_site_type_symbol
_atom_site_label
_atom_site_fract_x
_atom_site_fract_y
_atom_site_fract_z
Si Si1 0.593739 0.311422 0.911506
Si Si2 0.330915 0.622580 0.349659
Si Si3 0.857868 0.744531 0.596334
Si Si4 0.739218 0.753451 0.837727
Si Si5 0.367665 0.884240 0.020158
Si Si6 0.905385 0.620316 0.779663
Si Si7 0.841160 0.610084 0.507543
O O1 0.681927 0.317077 0.873769
O O2 0.397859 0.322841 0.877084
O O3 0.690697 0.377299 0.966217
O O4 0.621573 0.194298 0.934524
O O5 0.360380 0.500000 0.365634
O O6 0.258067 0.690703 0.382328
O O7 0.495724 0.684913 0.360162
O O8 0.198941 0.625162 0.285889
O O9 0.906105 0.650740 0.568828
O O10 0.771890 0.817188 0.542840
O O11 0.804421 0.682313 0.804658
O O12 0.581347 0.823459 0.800955
O O13 0.406014 0.000000 0.040850
O O14 0.500000 0.851965 0.000000
O O15 0.926267 0.500000 0.795957
O O16 0.756324 0.500000 0.501439
O O17 0.000000 0.600082 0.500000
#
# Coordination Sequence:
#
# PCOD9194284 Si02
#       7
#     8   8   8   8   8   8   8
#     4  10  20  36  57  86 117 148 190 236 280 343
#     4  11  23  40  62  88 116 153 198 246 297 352
#     4  11  21  38  59  88 119 159 196 240 295 349
#     4  10  21  39  62  84 116 154 191 246 295 343
#     4  10  20  34  55  84 117 155 190 228 282 346
#     4  10  23  42  63  87 116 150 197 249 300 350
#     4  10  20  35  55  86 121 156 198 238 283 352
#
# _framework density 19.166737999999999
#
# number of rings (size 3 to 8) (size 9 to 14) (size 15 to 20)
#    0.000    1.714    2.857    1.714    0.000    3.429 
#    0.000    5.000    0.000    8.571    0.000    0.000 
#    0.000    0.000    0.000    0.000    0.000    0.000 
#
# Total GULP energy -156055.604971 kJ/mol
# GULP energy per Si atom -5573.414463 kJ/mol
# Density = 1.912311 g / cm^3
# Si number density = 19.166738 Si / 1000 Ang^3
#
#
#
# Elastic Constant Matrix: (Units=GPa)
#
#
# Indices 1 2 3 4 5 6 
#
# 1 69.7572 28.2934 9.7544 0.0000 6.8653 0.0000
# 2 28.2934 99.3897 25.1174 0.0000 -2.3835 0.0000
# 3 9.7544 25.1174 61.2610 0.0000 13.0491 0.0000
# 4 0.0000 0.0000 0.0000 -27.3346 0.0000 -11.6711
# 5 6.8653 -2.3835 13.0491 0.0000 30.0051 0.0000
# 6 0.0000 0.0000 0.0000 -11.6711 0.0000 3.3922
#
#
#
# Elastic Compliance Matrix: (Units=1/GPa)
#
#
# Indices 1 2 3 4 5 6 
#
# 1 0.016726 -0.004938 0.000287 0.000000 -0.004344 0.000000
# 2 -0.004938 0.012966 -0.005499 0.000000 0.004551 0.000000
# 3 0.000287 -0.005499 0.020543 0.000000 -0.009436 0.000000
# 4 0.000000 0.000000 0.000000 -0.014817 0.000000 -0.050979
# 5 -0.004344 0.004551 -0.009436 0.000000 0.038787 0.000000
# 6 0.000000 0.000000 0.000000 -0.050979 0.000000 0.119397
#
#
# Mechanical properties :
#
#
# Convention : Reuss Voigt Hill
#
# Bulk Modulus (GPa) = 33.40776 39.63759 36.52267
# Shear Modulus (GPa) = 22.33330 12.36204 17.34767
#
# Velocity S-wave (km/s) = 3.41722 2.54239 3.01174
# Velocity P-wave (km/s) = 5.74785 5.41698 5.58486
#
# Compressibility (1/GPa) = 0.02993317
#
# Stress axis : x y z
#
# Youngs Moduli (GPa) = 59.78832 77.12465 48.67891
#
# Poissons Ratio (x) = 0.38084 -0.01396
# Poissons Ratio (y) = 0.29523 0.26770
# Poissons Ratio (z) = -0.01714 0.42414
#
# Static dielectric constant tensor:
#      x y z
#    x 1.675080 0.000000 0.016650 
#    y 0.000000 1.734070 0.000000 
#    z 0.016650 0.000000 1.674890 
# 
# From -- ./inp_files/356198.got.cif
#   From: 2010.05.17/outbox.cif.g08.bks.cpg/sg12_179_cif.got.tgz:356198.got - 2010.06.03 13:09:07.
