data_PCOD9194951
_publ_section_title
;
Structure prediction by ZEFSAII (Michael W. Deem and Ramdas Pophale) SiO2 
 PCOD9194951
Probable space group: C 2/M
;
_chemical_formula_sum "Si O2"
_cell_formula_units_Z 34
_cell_length_a 17.603117
_cell_length_b 10.648092
_cell_length_c 17.029731
_cell_angle_alpha 90.000000
_cell_angle_beta 23.729139
_cell_angle_gamma 90.000000
_cell_volume 1284.522149
_symmetry_space_group_name_H-M "C 2/M"
_symmetry_group_IT_number 12
_symmetry_cell_setting 'monoclinic'
loop_
_space_group_symop_operation_xyz
x,y,z
-x,y,-z
-x,-y,-z
x,-y,z
1/2+x,1/2+y,z
1/2-x,1/2+y,-z
1/2-x,1/2-y,-z
1/2+x,1/2-y,z
loop_
_atom_site_type_symbol
_atom_site_label
_atom_site_fract_x
_atom_site_fract_y
_atom_site_fract_z
Si Si1 0.542077 0.219558 0.579350
Si Si2 0.080470 0.500000 0.013791
Si Si3 0.964917 0.723252 0.824583
Si Si4 0.021306 0.000000 0.572049
Si Si5 0.122048 0.143359 0.958630
Si Si6 0.500000 0.000000 0.500000
O O1 0.568138 0.187540 0.646642
O O2 0.609167 0.363772 0.508319
O O3 0.313964 0.221571 0.781165
O O4 0.595074 0.112429 0.467282
O O5 0.307502 0.500000 0.805129
O O6 0.019851 0.617925 0.123569
O O7 0.000000 0.500000 0.000000
O O8 0.750000 0.750000 0.000000
O O9 0.997530 0.845575 0.848030
O O10 0.000000 0.000000 0.500000
O O11 0.192601 0.000000 0.879438
O O12 0.000000 0.180152 0.000000
#
# Coordination Sequence:
#
# PCOD9194951 Si02
#       6
#     8   4   8   4   8   2
#     4  11  23  37  64  87 119 161 213 250 312 374
#     4  12  23  39  66  97 129 165 212 274 320 372
#     4  10  21  34  61  92 119 155 209 263 306 363
#     4  12  24  39  60  95 125 169 206 262 316 394
#     4  10  20  34  58  93 119 150 195 259 316 358
#     4  12  22  42  58  82 118 162 202 250 296 394
#
# _framework density 26.468986999999998
#
# number of rings (size 3 to 8) (size 9 to 14) (size 15 to 20)
#    0.000    1.176    7.059    1.412    6.588    0.000 
#    0.000    0.000    0.000    8.471    0.000    0.000 
#    0.000    0.000    0.000    0.000    0.000    0.000 
#
# Total GULP energy -94728.882001 kJ/mol
# GULP energy per Si atom -5572.287177 kJ/mol
# Density = 2.640874 g / cm^3
# Si number density = 26.468987 Si / 1000 Ang^3
#
#
#
# Elastic Constant Matrix: (Units=GPa)
#
#
# Indices 1 2 3 4 5 6 
#
# 1 176.8447 49.7624 53.0252 -0.0013 29.2623 0.0010
# 2 49.7624 210.4762 42.2206 -0.0016 30.4780 0.0015
# 3 53.0252 42.2206 83.8376 -0.0018 16.4022 0.0017
# 4 -0.0013 -0.0016 -0.0018 25.9228 0.0011 22.1326
# 5 29.2623 30.4780 16.4022 0.0011 68.5983 -0.0009
# 6 0.0010 0.0015 0.0017 22.1326 -0.0009 26.8407
#
#
#
# Elastic Compliance Matrix: (Units=1/GPa)
#
#
# Indices 1 2 3 4 5 6 
#
# 1 0.007335 -0.000672 -0.003931 0.000001 -0.001891 -0.000001
# 2 -0.000672 0.005566 -0.002046 0.000001 -0.001697 -0.000001
# 3 -0.003931 -0.002046 0.015672 0.000005 -0.001161 -0.000005
# 4 0.000001 0.000001 0.000005 0.130338 -0.000006 -0.107475
# 5 -0.001891 -0.001697 -0.001161 -0.000006 0.016416 0.000005
# 6 -0.000001 -0.000001 -0.000005 -0.107475 0.000005 0.125880
#
#
# Mechanical properties :
#
#
# Convention : Reuss Voigt Hill
#
# Bulk Modulus (GPa) = 65.46692 84.57500 75.02096
# Shear Modulus (GPa) = 15.64470 46.01570 30.83020
#
# Velocity S-wave (km/s) = 2.43381 4.17403 3.41657
# Velocity P-wave (km/s) = 5.71708 7.43316 6.63087
#
# Compressibility (1/GPa) = 0.01527489
#
# Stress axis : x y z
#
# Youngs Moduli (GPa) = 136.32709 179.65596 63.80904
#
# Poissons Ratio (x) = 0.12072 0.25084
# Poissons Ratio (y) = 0.09160 0.13056
# Poissons Ratio (z) = 0.53592 0.36760
#
# Static dielectric constant tensor:
#      x y z
#    x 2.015660 0.000000 -0.019600 
#    y 0.000000 2.488940 0.000000 
#    z -0.019600 0.000000 2.679250 
# 
# From -- ./inp_files/70862.got.cif
#   From: 2010.05.17/outbox.cif.g08.bks.cpg/sg12_36_cif.got.tgz:70862.got - 2010.06.03 13:09:07.
