data_PCOD9194901
_publ_section_title
;
Structure prediction by ZEFSAII (Michael W. Deem and Ramdas Pophale) SiO2 
 PCOD9194901
Probable space group: C 2/M
;
_chemical_formula_sum "Si O2"
_cell_formula_units_Z 64
_cell_length_a 20.056451
_cell_length_b 8.824211
_cell_length_c 21.953223
_cell_angle_alpha 90.000000
_cell_angle_beta 117.102503
_cell_angle_gamma 90.000000
_cell_volume 3458.695968
_symmetry_space_group_name_H-M "C 2/M"
_symmetry_group_IT_number 12
_symmetry_cell_setting 'monoclinic'
loop_
_space_group_symop_operation_xyz
x,y,z
-x,y,-z
-x,-y,-z
x,-y,z
1/2+x,1/2+y,z
1/2-x,1/2+y,-z
1/2-x,1/2-y,-z
1/2+x,1/2-y,z
loop_
_atom_site_type_symbol
_atom_site_label
_atom_site_fract_x
_atom_site_fract_y
_atom_site_fract_z
Si Si1 0.946788 0.681054 0.293594
Si Si2 0.908574 0.816985 0.711693
Si Si3 0.325590 0.317923 0.558140
Si Si4 0.696093 0.819580 0.845136
Si Si5 0.941324 0.178847 0.858101
Si Si6 0.147779 0.678600 0.072688
Si Si7 0.119207 0.177975 0.929606
Si Si8 0.517235 0.317332 0.438132
O O1 0.953906 0.500000 0.296536
O O2 0.867479 0.720237 0.230589
O O3 0.013595 0.750548 0.280888
O O4 0.960026 0.744892 0.366450
O O5 0.845516 0.772614 0.636175
O O6 0.899563 0.773743 0.778398
O O7 0.914663 0.000000 0.712691
O O8 0.319969 0.500000 0.554346
O O9 0.250000 0.250000 0.500000
O O10 0.398983 0.274633 0.549070
O O11 0.772881 0.731418 0.867168
O O12 0.663285 0.771616 0.897114
O O13 0.709164 0.000000 0.848942
O O14 0.915154 0.271555 0.905478
O O15 0.029945 0.195766 0.883778
O O16 0.926797 0.000000 0.863311
O O17 0.145960 0.500000 0.061410
O O18 0.138074 0.764788 0.004817
O O19 0.137735 0.000000 0.931135
O O20 0.500000 0.272749 0.500000
O O21 0.512106 0.500000 0.431410
#
# Coordination Sequence:
#
# PCOD9194901 Si02
#       8
#     8   8   8   8   8   8   8   8
#     4  10  20  34  58  88 114 144 186 238 282 326
#     4   9  18  36  60  83 110 150 192 228 274 337
#     4   9  18  33  55  82 112 145 182 224 273 324
#     4  11  23  40  60  84 117 151 190 237 286 339
#     4  10  21  39  62  85 113 149 190 235 286 342
#     4  12  26  40  56  83 119 153 188 237 289 337
#     4  11  22  39  65  88 110 147 192 234 284 346
#     4   9  19  37  59  81 111 150 190 229 273 332
#
# _framework density 18.504083000000001
#
# number of rings (size 3 to 8) (size 9 to 14) (size 15 to 20)
#    0.000    1.875    1.250    3.750    0.000    6.750 
#    2.250    0.000    0.000    0.000    0.000    0.000 
#    0.000    0.000    0.000    0.000    0.000    0.000 
#
# Total GULP energy -178721.458572 kJ/mol
# GULP energy per Si atom -5585.045580 kJ/mol
# Density = 1.846197 g / cm^3
# Si number density = 18.504083 Si / 1000 Ang^3
#
#
#
# Elastic Constant Matrix: (Units=GPa)
#
#
# Indices 1 2 3 4 5 6 
#
# 1 17.8196 4.0011 2.0348 0.0000 -1.0700 0.0000
# 2 4.0011 15.0160 13.6004 0.0000 4.5772 0.0000
# 3 2.0348 13.6004 96.6410 0.0000 3.0654 0.0000
# 4 0.0000 0.0000 0.0000 24.8317 0.0000 6.6357
# 5 -1.0700 4.5772 3.0654 0.0000 28.4585 0.0000
# 6 0.0000 0.0000 0.0000 6.6357 0.0000 22.8355
#
#
#
# Elastic Compliance Matrix: (Units=1/GPa)
#
#
# Indices 1 2 3 4 5 6 
#
# 1 0.060510 -0.018791 0.001207 0.000000 0.005167 0.000000
# 2 -0.018791 0.085861 -0.011266 0.000000 -0.013303 0.000000
# 3 0.001207 -0.011266 0.011889 0.000000 0.000577 0.000000
# 4 0.000000 0.000000 0.000000 0.043662 0.000000 -0.012688
# 5 0.005167 -0.013303 0.000577 0.000000 0.037411 0.000000
# 6 0.000000 0.000000 0.000000 -0.012688 0.000000 0.047478
#
#
# Mechanical properties :
#
#
# Convention : Reuss Voigt Hill
#
# Bulk Modulus (GPa) = 9.94436 18.74991 14.34714
# Shear Modulus (GPa) = 13.22642 22.54782 17.88712
#
# Velocity S-wave (km/s) = 2.67645 3.49454 3.11249
# Velocity P-wave (km/s) = 3.86484 5.14171 4.54831
#
# Compressibility (1/GPa) = 0.10055953
#
# Stress axis : x y z
#
# Youngs Moduli (GPa) = 16.52622 11.64674 84.10909
#
# Poissons Ratio (x) = 0.21886 -0.10148
# Poissons Ratio (y) = 0.31055 0.94755
# Poissons Ratio (z) = -0.01994 0.13121
#
# Static dielectric constant tensor:
#      x y z
#    x 1.618460 0.000000 0.004770 
#    y 0.000000 1.618020 0.000000 
#    z 0.004770 0.000000 1.648130 
# 
# From -- ./inp_files/320074.got.cif
#   From: 2010.05.17/outbox.cif.g08.bks.cpg/sg12_161_cif.got.tgz:320074.got - 2010.06.03 13:09:07.
