data_PCOD9194848
_publ_section_title
;
Structure prediction by ZEFSAII (Michael W. Deem and Ramdas Pophale) SiO2 
 PCOD9194848
Probable space group: C 2/M
;
_chemical_formula_sum "Si O2"
_cell_formula_units_Z 48
_cell_length_a 10.959173
_cell_length_b 17.277470
_cell_length_c 11.940130
_cell_angle_alpha 90.000000
_cell_angle_beta 106.553018
_cell_angle_gamma 90.000000
_cell_volume 2167.128723
_symmetry_space_group_name_H-M "C 2/M"
_symmetry_group_IT_number 12
_symmetry_cell_setting 'monoclinic'
loop_
_space_group_symop_operation_xyz
x,y,z
-x,y,-z
-x,-y,-z
x,-y,z
1/2+x,1/2+y,z
1/2-x,1/2+y,-z
1/2-x,1/2-y,-z
1/2+x,1/2-y,z
loop_
_atom_site_type_symbol
_atom_site_label
_atom_site_fract_x
_atom_site_fract_y
_atom_site_fract_z
Si Si1 0.506560 0.168757 0.841363
Si Si2 0.063416 0.842461 0.805923
Si Si3 0.809280 0.590257 0.954717
Si Si4 0.857790 0.193962 0.420484
Si Si5 0.035605 0.414724 0.637197
Si Si6 0.291311 0.355469 0.635454
O O1 0.549030 0.257296 0.856239
O O2 0.388504 0.143716 0.887493
O O3 0.479570 0.148038 0.705987
O O4 0.624624 0.115605 0.912286
O O5 0.160209 0.891599 0.905915
O O6 0.126334 0.840034 0.698627
O O7 0.920101 0.865868 0.738341
O O8 0.833571 0.500000 0.938820
O O9 0.765697 0.267770 0.380052
O O10 0.813026 0.135350 0.507020
O O11 0.000000 0.218747 0.500000
O O12 0.994374 0.500000 0.662637
O O13 0.186741 0.407168 0.667631
O O14 0.000000 0.401976 0.500000
#
# Coordination Sequence:
#
# PCOD9194848 Si02
#       6
#     8   8   8   8   8   8
#     4  11  23  43  68  92 123 165 223 265 305 375
#     4  11  22  37  65  98 122 162 215 265 311 374
#     4  11  25  45  67  90 127 174 214 263 322 379
#     4   9  18  33  57  90 124 164 203 254 304 373
#     4  11  24  39  62  94 128 166 209 261 316 379
#     4  10  20  34  57  91 131 159 196 252 325 371
#
# _framework density 22.149121999999998
#
# number of rings (size 3 to 8) (size 9 to 14) (size 15 to 20)
#    0.000    1.500    1.667    4.000    7.000    0.667 
#    0.000    0.000    0.000    5.000    0.000    0.000 
#    0.000    0.000    0.000    0.000    0.000    0.000 
#
# Total GULP energy -134046.686675 kJ/mol
# GULP energy per Si atom -5585.278611 kJ/mol
# Density = 2.209871 g / cm^3
# Si number density = 22.149122 Si / 1000 Ang^3
#
#
#
# Elastic Constant Matrix: (Units=GPa)
#
#
# Indices 1 2 3 4 5 6 
#
# 1 61.8400 -6.3255 27.1932 0.0000 14.5658 0.0000
# 2 -6.3255 44.6293 9.1801 0.0000 -8.9354 0.0000
# 3 27.1932 9.1801 56.6108 0.0000 20.5543 0.0000
# 4 0.0000 0.0000 0.0000 -6.5220 0.0000 3.2916
# 5 14.5658 -8.9354 20.5543 0.0000 42.6137 0.0000
# 6 0.0000 0.0000 0.0000 3.2916 0.0000 10.2695
#
#
#
# Elastic Compliance Matrix: (Units=1/GPa)
#
#
# Indices 1 2 3 4 5 6 
#
# 1 0.021729 0.005087 -0.010854 0.000000 -0.001125 0.000000
# 2 0.005087 0.026925 -0.009975 0.000000 0.008719 0.000000
# 3 -0.010854 -0.009975 0.028984 0.000000 -0.012362 0.000000
# 4 0.000000 0.000000 0.000000 -0.131979 0.000000 0.042302
# 5 -0.001125 0.008719 -0.012362 0.000000 0.031642 0.000000
# 6 0.000000 0.000000 0.000000 0.042302 0.000000 0.083817
#
#
# Mechanical properties :
#
#
# Convention : Reuss Voigt Hill
#
# Bulk Modulus (GPa) = 21.66658 24.79727 23.23192
# Shear Modulus (GPa) = 46.30127 18.14108 32.22117
#
# Velocity S-wave (km/s) = 4.57709 2.86500 3.81824
# Velocity P-wave (km/s) = 6.14299 4.70788 5.47268
#
# Compressibility (1/GPa) = 0.04615404
#
# Stress axis : x y z
#
# Youngs Moduli (GPa) = 46.02142 37.13977 34.50151
#
# Poissons Ratio (x) = -0.18893 0.37448
# Poissons Ratio (y) = -0.23412 0.34417
# Poissons Ratio (z) = 0.49952 0.37048
#
# Static dielectric constant tensor:
#      x y z
#    x 1.865780 0.000000 0.020370 
#    y 0.000000 1.790970 0.000000 
#    z 0.020370 0.000000 1.872280 
# 
# From -- ./inp_files/131776.got.cif
#   From: 2010.05.17/outbox.cif.g08.bks.cpg/sg12_66_cif.got.tgz:131776.got - 2010.06.03 13:09:07.
