data_PCOD9194550
_publ_section_title
;
Structure prediction by ZEFSAII (Michael W. Deem and Ramdas Pophale) SiO2 
 PCOD9194550
Probable space group: C 2/M
;
_chemical_formula_sum "Si O2"
_cell_formula_units_Z 40
_cell_length_a 16.959663
_cell_length_b 18.247844
_cell_length_c 12.208214
_cell_angle_alpha 90.000000
_cell_angle_beta 33.485208
_cell_angle_gamma 90.000000
_cell_volume 2084.495510
_symmetry_space_group_name_H-M "C 2/M"
_symmetry_group_IT_number 12
_symmetry_cell_setting 'monoclinic'
loop_
_space_group_symop_operation_xyz
x,y,z
-x,y,-z
-x,-y,-z
x,-y,z
1/2+x,1/2+y,z
1/2-x,1/2+y,-z
1/2-x,1/2-y,-z
1/2+x,1/2-y,z
loop_
_atom_site_type_symbol
_atom_site_label
_atom_site_fract_x
_atom_site_fract_y
_atom_site_fract_z
Si Si1 0.541482 0.196216 0.269172
Si Si2 0.182683 0.788667 0.922543
Si Si3 0.165086 0.584935 0.608848
Si Si4 0.734964 0.279876 0.393409
Si Si5 0.017297 0.078056 0.850245
O O1 0.658609 0.186042 0.227460
O O2 0.449492 0.126308 0.335923
O O3 0.431514 0.260682 0.433396
O O4 0.630987 0.222137 0.058860
O O5 0.181882 0.764440 0.796870
O O6 0.075592 0.853575 0.076705
O O7 0.128324 0.500000 0.675566
O O8 0.201770 0.638119 0.669824
O O9 0.317037 0.585045 0.370434
O O10 0.750000 0.250000 0.500000
O O11 0.966487 0.000000 0.862165
O O12 0.000000 0.075366 0.000000
#
# Coordination Sequence:
#
# PCOD9194550 Si02
#       5
#     8   8   8   8   8
#     4  10  22  38  56  88 112 154 195 235 290 336
#     4  11  22  36  60  85 117 151 194 239 284 342
#     4  10  21  38  59  85 119 154 192 240 294 346
#     4  10  20  36  59  85 115 151 191 237 284 340
#     4  10  20  34  56  85 114 148 190 238 289 339
#
# _framework density 19.189295999999999
#
# number of rings (size 3 to 8) (size 9 to 14) (size 15 to 20)
#    0.000    1.800    2.000    3.000    2.800    0.800 
#    0.000    2.000    0.000   13.200    0.000    0.000 
#    0.000    0.000    0.000    0.000    0.000    0.000 
#
# Total GULP energy -111446.995025 kJ/mol
# GULP energy per Si atom -5572.349751 kJ/mol
# Density = 1.914562 g / cm^3
# Si number density = 19.189296 Si / 1000 Ang^3
#
#
#
# Elastic Constant Matrix: (Units=GPa)
#
#
# Indices 1 2 3 4 5 6 
#
# 1 72.3285 52.8188 26.1025 -0.0002 -14.3432 -0.0006
# 2 52.8188 150.9431 28.3327 0.0000 -13.4093 0.0000
# 3 26.1025 28.3327 63.0197 0.0004 -5.8036 0.0009
# 4 -0.0002 0.0000 0.0004 84.0348 0.0001 134.0202
# 5 -14.3432 -13.4093 -5.8036 0.0001 36.5958 0.0004
# 6 -0.0006 0.0000 0.0009 134.0202 0.0004 376.2594
#
#
#
# Elastic Compliance Matrix: (Units=1/GPa)
#
#
# Indices 1 2 3 4 5 6 
#
# 1 0.021213 -0.005895 -0.005652 0.000000 0.005258 0.000000
# 2 -0.005895 0.009047 -0.001556 0.000000 0.000758 0.000000
# 3 -0.005652 -0.001556 0.018929 0.000000 0.000216 0.000000
# 4 0.000000 0.000000 0.000000 0.027550 0.000000 -0.009813
# 5 0.005258 0.000758 0.000216 0.000000 0.029698 0.000000
# 6 0.000000 0.000000 0.000000 -0.009813 0.000000 0.006153
#
#
# Mechanical properties :
#
#
# Convention : Reuss Voigt Hill
#
# Bulk Modulus (GPa) = 43.51033 55.64436 49.57735
# Shear Modulus (GPa) = 34.13978 111.31381 72.72679
#
# Velocity S-wave (km/s) = 4.22252 7.62458 6.16295
# Velocity P-wave (km/s) = 6.81883 10.32341 8.74841
#
# Compressibility (1/GPa) = 0.02298305
#
# Stress axis : x y z
#
# Youngs Moduli (GPa) = 47.14069 110.53120 52.83031
#
# Poissons Ratio (x) = 0.65158 0.29859
# Poissons Ratio (y) = 0.27790 0.08220
# Poissons Ratio (z) = 0.26643 0.17199
#
# Static dielectric constant tensor:
#      x y z
#    x 1.696480 0.000000 -0.014690 
#    y 0.000000 1.758830 0.000000 
#    z -0.014690 0.000000 1.691910 
# 
# From -- ./inp_files/145257.got.cif
#   From: 2010.05.17/outbox.cif.g08.bks.cpg/sg12_73_cif.got.tgz:145257.got - 2010.06.03 13:09:07.
