data_PCOD9194582
_publ_section_title
;
Structure prediction by ZEFSAII (Michael W. Deem and Ramdas Pophale) SiO2 
 PCOD9194582
Probable space group: C 2/M
;
_chemical_formula_sum "Si O2"
_cell_formula_units_Z 48
_cell_length_a 16.263687
_cell_length_b 10.830064
_cell_length_c 22.815720
_cell_angle_alpha 90.000000
_cell_angle_beta 35.355359
_cell_angle_gamma 90.000000
_cell_volume 2325.396917
_symmetry_space_group_name_H-M "C 2/M"
_symmetry_group_IT_number 12
_symmetry_cell_setting 'monoclinic'
loop_
_space_group_symop_operation_xyz
x,y,z
-x,y,-z
-x,-y,-z
x,-y,z
1/2+x,1/2+y,z
1/2-x,1/2+y,-z
1/2-x,1/2-y,-z
1/2+x,1/2-y,z
loop_
_atom_site_type_symbol
_atom_site_label
_atom_site_fract_x
_atom_site_fract_y
_atom_site_fract_z
Si Si1 0.274968 0.859425 0.667257
Si Si2 0.447063 0.357564 0.873563
Si Si3 0.049447 0.863587 0.377181
Si Si4 0.243086 0.289530 0.571225
Si Si5 0.862915 0.146939 0.046071
Si Si6 0.435771 0.234307 0.754292
O O1 0.370784 0.751908 0.639331
O O2 0.254592 0.823470 0.610622
O O3 0.117175 0.854143 0.786467
O O4 0.329544 0.000000 0.641958
O O5 0.405066 0.500000 0.890858
O O6 0.425357 0.294474 0.824148
O O7 0.369178 0.304188 0.975767
O O8 0.048020 0.831005 0.308542
O O9 0.887851 0.864712 0.495170
O O10 0.112695 0.000000 0.350027
O O11 0.250000 0.250000 0.500000
O O12 0.083610 0.342395 0.670617
O O13 0.714750 0.167629 0.165054
O O14 0.882580 0.000000 0.029249
O O15 0.000000 0.198149 0.000000
#
# Coordination Sequence:
#
# PCOD9194582 Si02
#       6
#     8   8   8   8   8   8
#     4  10  21  39  63  89 118 156 199 239 285 349
#     4   9  18  35  59  85 113 147 191 240 288 344
#     4  11  23  38  57  84 120 158 195 242 296 344
#     4   9  21  37  56  86 116 149 194 242 289 341
#     4  10  20  34  56  86 115 146 188 240 296 350
#     4  10  20  37  58  81 112 153 195 239 289 351
#
# _framework density 20.641636999999999
#
# number of rings (size 3 to 8) (size 9 to 14) (size 15 to 20)
#    0.000    2.167    0.000    2.500    0.000    9.333 
#    0.000    7.500    0.000   13.000    0.000    0.000 
#    0.000    0.000    0.000    0.000    0.000    0.000 
#
# Total GULP energy -133731.354094 kJ/mol
# GULP energy per Si atom -5572.139754 kJ/mol
# Density = 2.059466 g / cm^3
# Si number density = 20.641637 Si / 1000 Ang^3
#
#
#
# Elastic Constant Matrix: (Units=GPa)
#
#
# Indices 1 2 3 4 5 6 
#
# 1 91.6395 39.5186 37.8360 0.0000 -5.1755 0.0000
# 2 39.5186 88.4823 22.6920 0.0000 -0.8118 0.0000
# 3 37.8360 22.6920 125.6031 0.0000 3.3702 0.0000
# 4 0.0000 0.0000 0.0000 18.6876 0.0000 0.0391
# 5 -5.1755 -0.8118 3.3702 0.0000 31.5181 0.0000
# 6 0.0000 0.0000 0.0000 0.0391 0.0000 0.6729
#
#
#
# Elastic Compliance Matrix: (Units=1/GPa)
#
#
# Indices 1 2 3 4 5 6 
#
# 1 0.015022 -0.005773 -0.003555 0.000000 0.002698 0.000000
# 2 -0.005773 0.014078 -0.000791 0.000000 -0.000501 0.000000
# 3 -0.003555 -0.000791 0.009218 0.000000 -0.001590 0.000000
# 4 0.000000 0.000000 0.000000 0.053518 0.000000 -0.003110
# 5 0.002698 -0.000501 -0.001590 0.000000 0.032328 0.000001
# 6 0.000000 0.000000 0.000000 -0.003110 0.000001 1.486380
#
#
# Mechanical properties :
#
#
# Convention : Reuss Voigt Hill
#
# Bulk Modulus (GPa) = 55.30605 56.20199 55.75402
# Shear Modulus (GPa) = 3.05473 23.88761 13.47117
#
# Velocity S-wave (km/s) = 1.21783 3.40553 2.55742
# Velocity P-wave (km/s) = 5.36927 6.53836 5.98244
#
# Compressibility (1/GPa) = 0.01808120
#
# Stress axis : x y z
#
# Youngs Moduli (GPa) = 66.57021 71.03162 108.48458
#
# Poissons Ratio (x) = 0.41005 0.38561
# Poissons Ratio (y) = 0.38429 0.08582
# Poissons Ratio (z) = 0.23663 0.05619
#
# Static dielectric constant tensor:
#      x y z
#    x 1.794220 0.000000 -0.021730 
#    y 0.000000 1.707520 0.000000 
#    z -0.021730 0.000000 1.762440 
# 
# From -- ./inp_files/310202.got.cif
#   From: 2010.05.17/outbox.cif.g08.bks.cpg/sg12_156_cif.got.tgz:310202.got - 2010.06.03 13:09:07.
