data_PCOD9194000
_publ_section_title
;
Structure prediction by ZEFSAII (Michael W. Deem and Ramdas Pophale) SiO2 
 PCOD9194000
Probable space group: C 2/M
;
_chemical_formula_sum "Si O2"
_cell_formula_units_Z 56
_cell_length_a 29.933752
_cell_length_b 11.391508
_cell_length_c 9.050135
_cell_angle_alpha 90.000000
_cell_angle_beta 63.844631
_cell_angle_gamma 90.000000
_cell_volume 2770.009450
_symmetry_space_group_name_H-M "C 2/M"
_symmetry_group_IT_number 12
_symmetry_cell_setting 'monoclinic'
loop_
_space_group_symop_operation_xyz
x,y,z
-x,y,-z
-x,-y,-z
x,-y,z
1/2+x,1/2+y,z
1/2-x,1/2+y,-z
1/2-x,1/2-y,-z
1/2+x,1/2-y,z
loop_
_atom_site_type_symbol
_atom_site_label
_atom_site_fract_x
_atom_site_fract_y
_atom_site_fract_z
Si Si1 0.281426 0.634550 0.806979
Si Si2 0.791325 0.628892 0.592213
Si Si3 0.175700 0.728675 0.998335
Si Si4 0.111065 0.721330 0.668592
Si Si5 0.019901 0.359517 0.635134
Si Si6 0.316230 0.372782 0.308829
Si Si7 0.924428 0.360686 0.963432
O O1 0.290113 0.500000 0.740676
O O2 0.289386 0.752581 0.693939
O O3 0.223532 0.644137 0.942486
O O4 0.315684 0.667275 0.897431
O O5 0.789344 0.500000 0.672826
O O6 0.842413 0.634577 0.427682
O O7 0.741817 0.629707 0.562045
O O8 0.179512 0.780840 0.828535
O O9 0.121658 0.670031 0.078119
O O10 0.141480 0.842557 0.635709
O O11 0.084444 0.695526 0.863066
O O12 0.070556 0.706434 0.601362
O O13 0.029175 0.500000 0.636868
O O14 0.000000 0.338320 0.500000
O O15 0.976259 0.326327 0.812826
O O16 0.326106 0.500000 0.231644
O O17 0.925081 0.500000 0.984156
#
# Coordination Sequence:
#
# PCOD9194000 Si02
#       7
#     8   8   8   8   8   8   8
#     4  10  20  34  54  85 125 164 202 243 295 356
#     4  10  21  35  56  87 123 161 200 245 295 354
#     4   9  19  33  55  83 116 158 197 243 293 355
#     4  11  21  36  59  86 118 154 196 244 299 355
#     4  10  22  38  58  85 115 149 191 246 306 359
#     4   9  19  36  56  83 116 153 196 240 291 351
#     4  10  20  35  58  85 114 149 194 245 300 358
#
# _framework density 20.216536999999999
#
# number of rings (size 3 to 8) (size 9 to 14) (size 15 to 20)
#    0.000    2.143    0.000    3.000    2.000    5.714 
#    0.000    4.286    0.000    8.143    0.000    0.000 
#    0.000    0.000    0.000    0.000    0.000    0.000 
#
# Total GULP energy -155999.756580 kJ/mol
# GULP energy per Si atom -5571.419878 kJ/mol
# Density = 2.017052 g / cm^3
# Si number density = 20.216537 Si / 1000 Ang^3
#
#
#
# Elastic Constant Matrix: (Units=GPa)
#
#
# Indices 1 2 3 4 5 6 
#
# 1 120.5297 4.2134 41.1724 0.0000 -0.6745 0.0000
# 2 4.2134 84.8219 26.1734 0.0000 3.8649 0.0000
# 3 41.1724 26.1734 58.0376 0.0000 -7.8344 0.0000
# 4 0.0000 0.0000 0.0000 -8.5424 0.0000 18.2978
# 5 -0.6745 3.8649 -7.8344 0.0000 27.5132 0.0000
# 6 0.0000 0.0000 0.0000 18.2978 0.0000 16.9743
#
#
#
# Elastic Compliance Matrix: (Units=1/GPa)
#
#
# Indices 1 2 3 4 5 6 
#
# 1 0.011503 0.002549 -0.009692 0.000000 -0.002836 0.000000
# 2 0.002549 0.014659 -0.009036 0.000000 -0.004570 0.000000
# 3 -0.009692 -0.009036 0.029452 0.000000 0.009418 0.000000
# 4 0.000000 0.000000 0.000000 -0.035377 0.000000 0.038135
# 5 -0.002836 -0.004570 0.009418 0.000000 0.039600 0.000000
# 6 0.000000 0.000000 0.000000 0.038135 0.000000 0.017804
#
#
# Mechanical properties :
#
#
# Convention : Reuss Voigt Hill
#
# Bulk Modulus (GPa) = 43.00109 45.16748 44.08429
# Shear Modulus (GPa) = 42.46239 19.97769 31.22004
#
# Velocity S-wave (km/s) = 4.58796 3.14695 3.93400
# Velocity P-wave (km/s) = 7.02725 5.96613 6.51832
#
# Compressibility (1/GPa) = 0.02325523
#
# Stress axis : x y z
#
# Youngs Moduli (GPa) = 86.93732 68.21670 33.95343
#
# Poissons Ratio (x) = -0.17385 0.32908
# Poissons Ratio (y) = -0.22156 0.30679
# Poissons Ratio (z) = 0.84261 0.61639
#
# Static dielectric constant tensor:
#      x y z
#    x 1.739800 0.000000 0.014590 
#    y 0.000000 1.745120 0.000000 
#    z 0.014590 0.000000 1.779940 
# 
# From -- ./inp_files/103135.got.cif
#   From: 2010.05.17/outbox.cif.g08.bks.cpg/sg12_52_cif.got.tgz:103135.got - 2010.06.03 13:09:07.
