data_PCOD9194253
_publ_section_title
;
Structure prediction by ZEFSAII (Michael W. Deem and Ramdas Pophale) SiO2 
 PCOD9194253
Probable space group: C 2/M
;
_chemical_formula_sum "Si O2"
_cell_formula_units_Z 64
_cell_length_a 23.816850
_cell_length_b 8.598070
_cell_length_c 17.498005
_cell_angle_alpha 90.000000
_cell_angle_beta 74.221220
_cell_angle_gamma 90.000000
_cell_volume 3448.202724
_symmetry_space_group_name_H-M "C 2/M"
_symmetry_group_IT_number 12
_symmetry_cell_setting 'monoclinic'
loop_
_space_group_symop_operation_xyz
x,y,z
-x,y,-z
-x,-y,-z
x,-y,z
1/2+x,1/2+y,z
1/2-x,1/2+y,-z
1/2-x,1/2-y,-z
1/2+x,1/2-y,z
loop_
_atom_site_type_symbol
_atom_site_label
_atom_site_fract_x
_atom_site_fract_y
_atom_site_fract_z
Si Si1 0.854384 0.813760 0.602490
Si Si2 0.034153 0.310916 0.731538
Si Si3 0.593731 0.813769 0.266146
Si Si4 0.630317 0.812096 0.571027
Si Si5 0.180973 0.185642 0.945306
Si Si6 0.809735 0.813874 0.883579
Si Si7 0.721179 0.811143 0.663667
Si Si8 0.624660 0.187908 0.822570
O O1 0.895695 0.743876 0.651895
O O2 0.871049 0.762489 0.511302
O O3 0.787688 0.758115 0.642389
O O4 0.855124 0.000000 0.607958
O O5 0.033588 0.500000 0.733356
O O6 0.075531 0.268413 0.644797
O O7 0.067487 0.261790 0.796410
O O8 0.968373 0.256927 0.743712
O O9 0.646428 0.753579 0.194539
O O10 0.593517 0.000000 0.265462
O O11 0.687828 0.765153 0.598198
O O12 0.630759 0.000000 0.563698
O O13 0.243778 0.254511 0.898313
O O14 0.133403 0.245564 0.903281
O O15 0.184259 0.000000 0.941298
O O16 0.171268 0.231774 0.037229
O O17 0.809389 0.000000 0.877846
O O18 0.680151 0.763529 0.749506
O O19 0.721678 0.000000 0.664323
O O20 0.624922 0.000000 0.826139
#
# Coordination Sequence:
#
# PCOD9194253 Si02
#       8
#     8   8   8   8   8   8   8   8
#     4  11  21  32  48  76 108 135 167 212 269 322
#     4   8  18  36  56  75  99 136 181 224 261 302
#     4  11  22  37  55  75 100 135 181 224 261 306
#     4   9  17  34  55  73  96 132 175 214 256 307
#     4  10  20  34  55  84 112 137 168 206 252 310
#     4  10  21  37  55  78 110 142 169 206 258 309
#     4   8  16  30  50  74 102 133 165 207 258 310
#     4   9  16  32  57  79 101 136 178 217 260 306
#
# _framework density 18.560393999999999
#
# number of rings (size 3 to 8) (size 9 to 14) (size 15 to 20)
#    0.000    2.500    0.000    4.125    0.000    3.000 
#    0.000    9.375    0.000    3.750    0.000    0.000 
#    0.000    0.000    0.000    0.000    0.000    0.000 
#
# Total GULP energy -178581.441792 kJ/mol
# GULP energy per Si atom -5580.670056 kJ/mol
# Density = 1.851815 g / cm^3
# Si number density = 18.560394 Si / 1000 Ang^3
#
#
#
# Elastic Constant Matrix: (Units=GPa)
#
#
# Indices 1 2 3 4 5 6 
#
# 1 60.3372 13.7263 26.8724 0.0000 24.0683 0.0000
# 2 13.7263 25.7241 14.2526 0.0000 7.7890 0.0000
# 3 26.8724 14.2526 63.6021 0.0000 33.3407 0.0000
# 4 0.0000 0.0000 0.0000 30.5114 0.0000 5.3159
# 5 24.0683 7.7890 33.3407 0.0000 26.1948 0.0000
# 6 0.0000 0.0000 0.0000 5.3159 0.0000 12.7949
#
#
#
# Elastic Compliance Matrix: (Units=1/GPa)
#
#
# Indices 1 2 3 4 5 6 
#
# 1 0.028440 -0.009271 0.006955 0.000000 -0.032227 0.000000
# 2 -0.009271 0.047430 -0.011370 0.000000 0.008887 0.000000
# 3 0.006955 -0.011370 0.050812 0.000000 -0.067683 0.000000
# 4 0.000000 0.000000 0.000000 0.035332 0.000000 -0.014679
# 5 -0.032227 0.008887 -0.067683 0.000000 0.151291 0.000000
# 6 0.000000 0.000000 0.000000 -0.014679 0.000000 0.084255
#
#
# Mechanical properties :
#
#
# Convention : Reuss Voigt Hill
#
# Bulk Modulus (GPa) = 10.06949 28.81842 19.44395
# Shear Modulus (GPa) = 10.91618 20.22104 15.56861
#
# Velocity S-wave (km/s) = 2.42780 3.30430 2.89936
# Velocity P-wave (km/s) = 3.64636 5.48802 4.65910
#
# Compressibility (1/GPa) = 0.09930993
#
# Stress axis : x y z
#
# Youngs Moduli (GPa) = 35.16131 21.08380 19.68033
#
# Poissons Ratio (x) = 0.19547 -0.13687
# Poissons Ratio (y) = 0.32598 0.22377
# Poissons Ratio (z) = -0.24454 0.23972
#
# Static dielectric constant tensor:
#      x y z
#    x 1.640150 0.000000 0.012850 
#    y 0.000000 1.629890 0.000000 
#    z 0.012850 0.000000 1.625800 
# 
# From -- ./inp_files/287611.got.cif
#   From: 2010.05.17/outbox.cif.g08.bks.cpg/sg12_144_cif.got.tgz:287611.got - 2010.06.03 13:09:07.
