data_PCOD9194377
_publ_section_title
;
Structure prediction by ZEFSAII (Michael W. Deem and Ramdas Pophale) SiO2 
 PCOD9194377
Probable space group: C 2/M
;
_chemical_formula_sum "Si O2"
_cell_formula_units_Z 64
_cell_length_a 17.076574
_cell_length_b 27.507865
_cell_length_c 8.941163
_cell_angle_alpha 90.000000
_cell_angle_beta 47.728327
_cell_angle_gamma 90.000000
_cell_volume 3107.864536
_symmetry_space_group_name_H-M "C 2/M"
_symmetry_group_IT_number 12
_symmetry_cell_setting 'monoclinic'
loop_
_space_group_symop_operation_xyz
x,y,z
-x,y,-z
-x,-y,-z
x,-y,z
1/2+x,1/2+y,z
1/2-x,1/2+y,-z
1/2-x,1/2-y,-z
1/2+x,1/2-y,z
loop_
_atom_site_type_symbol
_atom_site_label
_atom_site_fract_x
_atom_site_fract_y
_atom_site_fract_z
Si Si1 0.081446 0.271660 0.773006
Si Si2 0.069591 0.553989 0.209619
Si Si3 0.743531 0.384693 0.600546
Si Si4 0.623278 0.389376 0.311183
Si Si5 0.803882 0.555769 0.252571
Si Si6 0.950522 0.347258 0.416869
Si Si7 0.799256 0.055961 0.068255
Si Si8 0.184902 0.191778 0.447526
O O1 0.027706 0.317618 0.761234
O O2 0.111586 0.235264 0.599300
O O3 0.193485 0.289324 0.700230
O O4 0.000000 0.251752 0.000000
O O5 0.021317 0.500000 0.287266
O O6 0.176304 0.555157 0.172746
O O7 0.998848 0.599084 0.343262
O O8 0.108188 0.560301 0.988746
O O9 0.814882 0.411376 0.383424
O O10 0.824082 0.352043 0.592890
O O11 0.692508 0.424029 0.774350
O O12 0.671876 0.349094 0.594881
O O13 0.500000 0.394278 0.500000
O O14 0.695069 0.427093 0.313800
O O15 0.659624 0.336328 0.326079
O O16 0.645815 0.405433 0.112705
O O17 0.798133 0.500000 0.304487
O O18 0.000000 0.323598 0.500000
O O19 0.837162 0.000000 0.003674
#
# Coordination Sequence:
#
# PCOD9194377 Si02
#       8
#     8   8   8   8   8   8   8   8
#     4  10  23  40  67  86 114 157 195 261 310 369
#     4   9  19  33  51  81 123 161 196 235 279 346
#     4  10  20  35  57  81 120 159 190 248 292 352
#     4  10  21  37  62  83 112 158 196 252 298 362
#     4   9  19  35  54  80 116 158 200 240 286 344
#     4  11  22  34  55  87 121 154 204 236 295 358
#     4  10  20  34  55  88 124 160 197 236 294 350
#     4   9  22  43  59  90 117 147 207 252 313 362
#
# _framework density 20.592918000000001
#
# number of rings (size 3 to 8) (size 9 to 14) (size 15 to 20)
#    0.000    2.250    1.250    1.500    7.000    3.750 
#    0.000    3.125    0.000    9.000    0.000    0.000 
#    0.000    0.000    0.000    0.000    0.000    0.000 
#
# Total GULP energy -178511.507504 kJ/mol
# GULP energy per Si atom -5578.484610 kJ/mol
# Density = 2.054605 g / cm^3
# Si number density = 20.592918 Si / 1000 Ang^3
#
#
#
# Elastic Constant Matrix: (Units=GPa)
#
#
# Indices 1 2 3 4 5 6 
#
# 1 30.3212 1.1869 21.2054 0.0000 7.8281 0.0000
# 2 1.1869 82.6627 29.9991 0.0000 10.1525 0.0000
# 3 21.2054 29.9991 69.4662 0.0000 11.5215 0.0000
# 4 0.0000 0.0000 0.0000 31.2118 0.0000 10.2940
# 5 7.8281 10.1525 11.5215 0.0000 21.5818 0.0000
# 6 0.0000 0.0000 0.0000 10.2940 0.0000 7.9762
#
#
#
# Elastic Compliance Matrix: (Units=1/GPa)
#
#
# Indices 1 2 3 4 5 6 
#
# 1 0.046104 0.006142 -0.014782 0.000000 -0.011721 0.000000
# 2 0.006142 0.015450 -0.007649 0.000000 -0.005412 0.000000
# 3 -0.014782 -0.007649 0.022739 0.000000 -0.003179 0.000000
# 4 0.000000 0.000000 0.000000 0.055783 0.000000 -0.071994
# 5 -0.011721 -0.005412 -0.003179 0.000000 0.054829 0.000000
# 6 0.000000 0.000000 0.000000 -0.071994 0.000000 0.218287
#
#
# Mechanical properties :
#
#
# Convention : Reuss Voigt Hill
#
# Bulk Modulus (GPa) = 19.33742 31.91478 25.62610
# Shear Modulus (GPa) = 10.79891 20.82455 15.81173
#
# Velocity S-wave (km/s) = 2.29246 3.18346 2.77397
# Velocity P-wave (km/s) = 4.05190 5.38926 4.76771
#
# Compressibility (1/GPa) = 0.05171320
#
# Stress axis : x y z
#
# Youngs Moduli (GPa) = 21.69019 64.72529 43.97803
#
# Poissons Ratio (x) = -0.39755 0.65010
# Poissons Ratio (y) = -0.13322 0.33641
# Poissons Ratio (z) = 0.32063 0.49511
#
# Static dielectric constant tensor:
#      x y z
#    x 1.757710 0.000000 0.020370 
#    y 0.000000 1.757280 0.000000 
#    z 0.020370 0.000000 1.747950 
# 
# From -- ./inp_files/80699.got.cif
#   From: 2010.05.17/outbox.cif.g08.bks.cpg/sg12_41_cif.got.tgz:80699.got - 2010.06.03 13:09:07.
