data_PCOD9194732
_publ_section_title
;
Structure prediction by ZEFSAII (Michael W. Deem and Ramdas Pophale) SiO2 
 PCOD9194732
Probable space group: C 2/M
;
_chemical_formula_sum "Si O2"
_cell_formula_units_Z 40
_cell_length_a 16.532957
_cell_length_b 14.683903
_cell_length_c 10.800599
_cell_angle_alpha 90.000000
_cell_angle_beta 50.642569
_cell_angle_gamma 90.000000
_cell_volume 2027.376968
_symmetry_space_group_name_H-M "C 2/M"
_symmetry_group_IT_number 12
_symmetry_cell_setting 'monoclinic'
loop_
_space_group_symop_operation_xyz
x,y,z
-x,y,-z
-x,-y,-z
x,-y,z
1/2+x,1/2+y,z
1/2-x,1/2+y,-z
1/2-x,1/2-y,-z
1/2+x,1/2-y,z
loop_
_atom_site_type_symbol
_atom_site_label
_atom_site_fract_x
_atom_site_fract_y
_atom_site_fract_z
Si Si1 0.381753 0.603359 0.666616
Si Si2 0.471681 0.181201 0.162065
Si Si3 0.242133 0.772343 0.707167
Si Si4 0.340202 0.316306 0.964017
Si Si5 0.575388 0.104625 0.540043
O O1 0.500000 0.617506 0.500000
O O2 0.350830 0.500000 0.661456
O O3 0.307467 0.683071 0.687123
O O4 0.370579 0.613673 0.826712
O O5 0.361112 0.232423 0.255396
O O6 0.557742 0.257201 0.107315
O O7 0.475578 0.114825 0.275391
O O8 0.500000 0.139959 0.000000
O O9 0.322324 0.833322 0.554107
O O10 0.205670 0.837963 0.856329
O O11 0.250000 0.250000 0.000000
O O12 0.500000 0.136270 0.500000
O O13 0.600783 0.000000 0.490248
#
# Coordination Sequence:
#
# PCOD9194732 Si02
#       5
#     8   8   8   8   8
#     4  10  20  34  57  86 115 152 195 237 283 339
#     4  10  21  38  60  85 113 152 193 237 291 338
#     4  10  20  37  59  82 115 151 189 240 288 338
#     4   9  18  35  57  79 109 149 189 231 281 336
#     4  11  23  38  59  86 117 156 195 233 283 344
#
# _framework density 19.729928000000001
#
# number of rings (size 3 to 8) (size 9 to 14) (size 15 to 20)
#    0.000    2.000    0.000    4.800    0.000    2.000 
#    0.000   15.000    0.000    3.600    0.000    0.000 
#    0.000    0.000    0.000    0.000    0.000    0.000 
#
# Total GULP energy -111443.052329 kJ/mol
# GULP energy per Si atom -5572.152616 kJ/mol
# Density = 1.968502 g / cm^3
# Si number density = 19.729928 Si / 1000 Ang^3
#
#
#
# Elastic Constant Matrix: (Units=GPa)
#
#
# Indices 1 2 3 4 5 6 
#
# 1 89.9915 11.7181 43.4328 0.0000 -2.6571 0.0000
# 2 11.7181 59.4286 36.7772 0.0000 -2.4454 0.0000
# 3 43.4328 36.7772 115.4730 0.0000 8.2068 0.0000
# 4 0.0000 0.0000 0.0000 -165.9727 0.0000 -31.3633
# 5 -2.6571 -2.4454 8.2068 0.0000 36.9195 0.0000
# 6 0.0000 0.0000 0.0000 -31.3633 0.0000 -5.1340
#
#
#
# Elastic Compliance Matrix: (Units=1/GPa)
#
#
# Indices 1 2 3 4 5 6 
#
# 1 0.013780 0.000854 -0.005619 0.000000 0.002297 0.000000
# 2 0.000854 0.021325 -0.007334 0.000000 0.003104 0.000000
# 3 -0.005619 -0.007334 0.013384 0.000000 -0.003865 0.000000
# 4 0.000000 0.000000 0.000000 0.039027 0.000000 -0.238413
# 5 0.002297 0.003104 -0.003865 0.000000 0.028316 0.000000
# 6 0.000000 0.000000 0.000000 -0.238413 0.000000 1.261667
#
#
# Mechanical properties :
#
#
# Convention : Reuss Voigt Hill
#
# Bulk Modulus (GPa) = 41.16410 49.86102 45.51256
# Shear Modulus (GPa) = 3.54662 -15.30644 -5.87991
#
# Velocity S-wave (km/s) = 1.34219 -2.78834 -1.72820
# Velocity P-wave (km/s) = 4.82815 3.86784 4.37443
#
# Compressibility (1/GPa) = 0.02429301
#
# Stress axis : x y z
#
# Youngs Moduli (GPa) = 72.56640 46.89414 74.71715
#
# Poissons Ratio (x) = -0.04007 0.41981
# Poissons Ratio (y) = -0.06200 0.54795
# Poissons Ratio (z) = 0.40772 0.34391
#
# Static dielectric constant tensor:
#      x y z
#    x 1.719380 0.000000 0.088150 
#    y 0.000000 1.626150 0.000000 
#    z 0.088150 0.000000 1.872590 
# 
# From -- ./inp_files/142521.got.cif
#   From: 2010.05.17/outbox.cif.g08.bks.cpg/sg12_72_cif.got.tgz:142521.got - 2010.06.03 13:09:07.
