data_PCOD9194688
_publ_section_title
;
Structure prediction by ZEFSAII (Michael W. Deem and Ramdas Pophale) SiO2 
 PCOD9194688
Probable space group: C 2/M
;
_chemical_formula_sum "Si O2"
_cell_formula_units_Z 64
_cell_length_a 20.487358
_cell_length_b 7.512271
_cell_length_c 22.144382
_cell_angle_alpha 90.000000
_cell_angle_beta 63.424554
_cell_angle_gamma 90.000000
_cell_volume 3048.079965
_symmetry_space_group_name_H-M "C 2/M"
_symmetry_group_IT_number 12
_symmetry_cell_setting 'monoclinic'
loop_
_space_group_symop_operation_xyz
x,y,z
-x,y,-z
-x,-y,-z
x,-y,z
1/2+x,1/2+y,z
1/2-x,1/2+y,-z
1/2-x,1/2-y,-z
1/2+x,1/2-y,z
loop_
_atom_site_type_symbol
_atom_site_label
_atom_site_fract_x
_atom_site_fract_y
_atom_site_fract_z
Si Si1 0.421288 0.718118 0.057097
Si Si2 0.971292 0.217233 0.417819
Si Si3 0.094239 0.795893 0.800137
Si Si4 0.772584 0.212974 0.059004
Si Si5 0.254896 0.705622 0.700384
Si Si6 0.335005 0.213822 0.791054
Si Si7 0.494087 0.288440 0.275256
Si Si8 0.884561 0.217215 0.567940
O O1 0.419941 0.500000 0.057093
O O2 0.410153 0.780213 0.130660
O O3 0.352977 0.777922 0.044719
O O4 0.500000 0.773222 0.000000
O O5 0.908848 0.272286 0.490899
O O6 0.966250 0.281456 0.351428
O O7 0.049052 0.269845 0.414998
O O8 0.971411 0.000000 0.417155
O O9 0.177733 0.795811 0.743860
O O10 0.045000 0.713289 0.767882
O O11 0.068951 0.000000 0.817635
O O12 0.713299 0.277706 0.132350
O O13 0.774139 0.000000 0.064686
O O14 0.750000 0.250000 0.000000
O O15 0.238734 0.500000 0.693453
O O16 0.301383 0.714761 0.742858
O O17 0.307736 0.779168 0.626301
O O18 0.419182 0.264052 0.762994
O O19 0.330125 0.000000 0.789904
O O20 0.478684 0.500000 0.282413
O O21 0.882880 0.000000 0.569767
#
# Coordination Sequence:
#
# PCOD9194688 Si02
#       8
#     8   8   8   8   8   8   8   8
#     4   9  18  35  56  76 103 142 178 209 260 323
#     4   8  13  26  47  77 109 135 175 227 272 310
#     4  10  21  37  55  78 111 144 178 223 275 322
#     4  10  22  38  57  81 109 138 173 219 270 322
#     4  11  20  34  57  82 105 142 192 226 260 324
#     4  11  22  37  56  80 115 146 173 224 282 320
#     4  10  20  34  57  84 107 142 191 229 261 322
#     4   8  14  25  48  77 106 138 175 225 272 314
#
# _framework density 20.996825999999999
#
# number of rings (size 3 to 8) (size 9 to 14) (size 15 to 20)
#    0.000    2.375    2.500    1.500    1.750    1.500 
#    0.000    0.625    0.000    3.000    0.000    0.000 
#    0.000    0.000    0.000    0.000    0.000    0.000 
#
# Total GULP energy -178655.069327 kJ/mol
# GULP energy per Si atom -5582.970916 kJ/mol
# Density = 2.094904 g / cm^3
# Si number density = 20.996826 Si / 1000 Ang^3
#
#
#
# Elastic Constant Matrix: (Units=GPa)
#
#
# Indices 1 2 3 4 5 6 
#
# 1 132.1961 -8.3505 75.2277 -0.0004 11.8961 -0.0004
# 2 -8.3505 51.3524 0.4179 0.0005 10.4589 0.0010
# 3 75.2277 0.4179 158.0722 -0.0008 -7.4763 -0.0008
# 4 -0.0004 0.0005 -0.0008 20.4020 0.0000 4.4386
# 5 11.8961 10.4589 -7.4763 0.0000 23.9816 0.0002
# 6 -0.0004 0.0010 -0.0008 4.4386 0.0002 26.3608
#
#
#
# Elastic Compliance Matrix: (Units=1/GPa)
#
#
# Indices 1 2 3 4 5 6 
#
# 1 0.012314 0.004061 -0.006337 0.000000 -0.009855 0.000000
# 2 0.004061 0.022751 -0.002596 0.000000 -0.012746 -0.000001
# 3 -0.006337 -0.002596 0.009694 0.000000 0.007298 0.000000
# 4 0.000000 0.000000 0.000000 0.050879 0.000000 -0.008567
# 5 -0.009855 -0.012746 0.007298 0.000000 0.054421 0.000000
# 6 0.000000 -0.000001 0.000000 -0.008567 0.000000 0.039378
#
#
# Mechanical properties :
#
#
# Convention : Reuss Voigt Hill
#
# Bulk Modulus (GPa) = 28.55872 52.91232 40.73552
# Shear Modulus (GPa) = 23.71329 32.43725 28.07527
#
# Velocity S-wave (km/s) = 3.36426 3.93474 3.66063
# Velocity P-wave (km/s) = 5.35929 6.77479 6.10818
#
# Compressibility (1/GPa) = 0.03501558
#
# Stress axis : x y z
#
# Youngs Moduli (GPa) = 81.20688 43.95457 103.15429
#
# Poissons Ratio (x) = -0.17851 0.65372
# Poissons Ratio (y) = -0.32980 0.26776
# Poissons Ratio (z) = 0.51463 0.11410
#
# Static dielectric constant tensor:
#      x y z
#    x 1.717260 0.000000 0.006990 
#    y 0.000000 1.820770 0.000000 
#    z 0.006990 0.000000 1.755910 
# 
# From -- ./inp_files/319815.got.cif
#   From: 2010.05.17/outbox.cif.g08.bks.cpg/sg12_160_cif.got.tgz:319815.got - 2010.06.03 13:09:07.
