data_PCOD9194414
_publ_section_title
;
Structure prediction by ZEFSAII (Michael W. Deem and Ramdas Pophale) SiO2 
 PCOD9194414
Probable space group: C 2/M
;
_chemical_formula_sum "Si O2"
_cell_formula_units_Z 56
_cell_length_a 20.935154
_cell_length_b 7.657875
_cell_length_c 29.888284
_cell_angle_alpha 90.000000
_cell_angle_beta 147.864440
_cell_angle_gamma 90.000000
_cell_volume 2548.796671
_symmetry_space_group_name_H-M "C 2/M"
_symmetry_group_IT_number 12
_symmetry_cell_setting 'monoclinic'
loop_
_space_group_symop_operation_xyz
x,y,z
-x,y,-z
-x,-y,-z
x,-y,z
1/2+x,1/2+y,z
1/2-x,1/2+y,-z
1/2-x,1/2-y,-z
1/2+x,1/2-y,z
loop_
_atom_site_type_symbol
_atom_site_label
_atom_site_fract_x
_atom_site_fract_y
_atom_site_fract_z
Si Si1 0.404319 0.698673 0.407928
Si Si2 0.148481 0.714799 0.223316
Si Si3 0.016276 0.710279 0.794288
Si Si4 0.520347 0.797989 0.061459
Si Si5 0.724405 0.708555 0.036677
Si Si6 0.416509 0.201801 0.555564
Si Si7 0.349639 0.294450 0.613019
O O1 0.500000 0.778094 0.500000
O O2 0.382444 0.500000 0.410840
O O3 0.273524 0.775639 0.319676
O O4 0.475545 0.698737 0.403474
O O5 0.151970 0.500000 0.224275
O O6 0.040671 0.768398 0.192426
O O7 0.117295 0.775301 0.154534
O O8 0.019743 0.500000 0.797992
O O9 0.927532 0.764724 0.702636
O O10 0.152077 0.769557 0.866804
O O11 0.555742 0.000000 0.075132
O O12 0.500000 0.718860 0.000000
O O13 0.393960 0.792056 0.012849
O O14 0.711151 0.500000 0.033692
O O15 0.750000 0.750000 0.000000
O O16 0.409929 0.212731 0.605082
O O17 0.286721 0.271578 0.462431
O O18 0.428726 0.000000 0.549396
O O19 0.338494 0.500000 0.596991
#
# Coordination Sequence:
#
# PCOD9194414 Si02
#       7
#     8   8   8   8   8   8   8
#     4  10  20  34  56  81 109 151 196 234 278 341
#     4   9  18  35  56  81 113 149 191 236 285 345
#     4  10  20  36  59  84 114 148 187 238 292 342
#     4  10  21  39  61  85 119 160 198 243 301 357
#     4  11  22  38  62  88 118 153 194 243 295 353
#     4  10  21  37  55  78 114 151 185 234 291 339
#     4  10  21  36  56  82 110 145 191 236 282 344
#
# _framework density 21.971150999999999
#
# number of rings (size 3 to 8) (size 9 to 14) (size 15 to 20)
#    0.000    2.000    1.429    2.143    0.000    5.714 
#    0.000    2.857    0.000    0.000    0.000    0.000 
#    0.000    0.000    0.000    0.000    0.000    0.000 
#
# Total GULP energy -156338.270462 kJ/mol
# GULP energy per Si atom -5583.509659 kJ/mol
# Density = 2.192114 g / cm^3
# Si number density = 21.971151 Si / 1000 Ang^3
#
#
#
# Elastic Constant Matrix: (Units=GPa)
#
#
# Indices 1 2 3 4 5 6 
#
# 1 57.0261 -6.1650 36.9002 -0.0001 1.0892 0.0000
# 2 -6.1650 46.3376 -2.7723 -0.0004 -0.1041 0.0009
# 3 36.9002 -2.7723 135.8560 0.0000 -20.1208 0.0000
# 4 -0.0001 -0.0004 0.0000 13.2754 0.0000 -2.5712
# 5 1.0892 -0.1041 -20.1208 0.0000 35.5640 0.0001
# 6 0.0000 0.0009 0.0000 -2.5712 0.0001 15.6976
#
#
#
# Elastic Compliance Matrix: (Units=1/GPa)
#
#
# Indices 1 2 3 4 5 6 
#
# 1 0.022185 0.002545 -0.006629 0.000000 -0.004422 0.000000
# 2 0.002545 0.021903 -0.000269 0.000000 -0.000166 -0.000001
# 3 -0.006629 -0.000269 0.010026 0.000000 0.005874 0.000000
# 4 0.000000 0.000000 0.000000 0.077796 0.000000 0.012743
# 5 -0.004422 -0.000166 0.005874 0.000000 0.031577 0.000000
# 6 0.000000 -0.000001 0.000000 0.012743 0.000000 0.065791
#
#
# Mechanical properties :
#
#
# Convention : Reuss Voigt Hill
#
# Bulk Modulus (GPa) = 22.02242 32.79395 27.40818
# Shear Modulus (GPa) = 19.75365 26.99119 23.37242
#
# Velocity S-wave (km/s) = 3.00171 3.50878 3.26510
# Velocity P-wave (km/s) = 4.69667 5.60122 5.16877
#
# Compressibility (1/GPa) = 0.04540827
#
# Stress axis : x y z
#
# Youngs Moduli (GPa) = 45.07613 45.65607 99.74371
#
# Poissons Ratio (x) = -0.11620 0.66117
# Poissons Ratio (y) = -0.11472 0.02682
# Poissons Ratio (z) = 0.29879 0.01228
#
# Static dielectric constant tensor:
#      x y z
#    x 1.772370 0.000000 -0.005120 
#    y 0.000000 1.848690 0.000000 
#    z -0.005120 0.000000 1.833850 
# 
# From -- ./inp_files/380789.got.cif
#   From: 2010.05.17/outbox.cif.g08.bks.cpg/sg12_191_cif.got.tgz:380789.got - 2010.06.03 13:09:07.
