data_PCOD9194460
_publ_section_title
;
Structure prediction by ZEFSAII (Michael W. Deem and Ramdas Pophale) SiO2 
 PCOD9194460
Probable space group: C 2/M
;
_chemical_formula_sum "Si O2"
_cell_formula_units_Z 64
_cell_length_a 23.451405
_cell_length_b 8.157256
_cell_length_c 21.732824
_cell_angle_alpha 90.000000
_cell_angle_beta 127.546498
_cell_angle_gamma 90.000000
_cell_volume 3296.287668
_symmetry_space_group_name_H-M "C 2/M"
_symmetry_group_IT_number 12
_symmetry_cell_setting 'monoclinic'
loop_
_space_group_symop_operation_xyz
x,y,z
-x,y,-z
-x,-y,-z
x,-y,z
1/2+x,1/2+y,z
1/2-x,1/2+y,-z
1/2-x,1/2-y,-z
1/2+x,1/2-y,z
loop_
_atom_site_type_symbol
_atom_site_label
_atom_site_fract_x
_atom_site_fract_y
_atom_site_fract_z
Si Si1 0.416991 0.306184 0.943171
Si Si2 0.669055 0.811744 0.869174
Si Si3 0.358825 0.698560 0.540998
Si Si4 0.506583 0.299446 0.575619
Si Si5 0.214093 0.196059 0.380658
Si Si6 0.156225 0.808149 0.727300
Si Si7 0.173820 0.691595 0.004364
Si Si8 0.807419 0.304975 0.771915
O O1 0.412689 0.500000 0.952747
O O2 0.374731 0.270863 0.852275
O O3 0.500000 0.257389 0.000000
O O4 0.376785 0.213305 0.971242
O O5 0.651398 0.709524 0.797455
O O6 0.639129 0.759338 0.916119
O O7 0.649513 0.000000 0.844300
O O8 0.754716 0.794831 0.935780
O O9 0.357995 0.500000 0.539663
O O10 0.436803 0.754164 0.568576
O O11 0.295156 0.756881 0.453980
O O12 0.336312 0.751143 0.595231
O O13 0.500000 0.254288 0.500000
O O14 0.506891 0.500000 0.579007
O O15 0.583165 0.238156 0.650828
O O16 0.194282 0.269972 0.301756
O O17 0.209119 0.000000 0.372884
O O18 0.232199 0.740162 0.752317
O O19 0.157783 0.000000 0.711594
O O20 0.194621 0.500000 0.012125
O O21 0.810493 0.500000 0.784383
#
# Coordination Sequence:
#
# PCOD9194460 Si02
#       8
#     8   8   8   8   8   8   8   8
#     4  11  24  41  60  84 113 146 186 237 292 341
#     4  10  20  34  56  83 113 146 183 231 280 332
#     4   9  18  35  57  81 112 148 189 231 278 336
#     4   9  17  32  55  82 111 143 182 230 278 331
#     4  10  20  34  56  83 113 149 189 232 278 330
#     4  10  20  34  56  84 110 142 188 236 284 338
#     4  10  20  36  58  83 111 145 187 227 277 340
#     4  11  22  37  59  84 110 145 190 233 278 339
#
# _framework density 19.415782
#
# number of rings (size 3 to 8) (size 9 to 14) (size 15 to 20)
#    0.000    2.000    1.250    2.625    0.000    5.500 
#    2.250    0.625    0.000    1.500    0.000    0.000 
#    0.000    0.000    0.000    0.000    0.000    0.000 
#
# Total GULP energy -178575.070909 kJ/mol
# GULP energy per Si atom -5580.470966 kJ/mol
# Density = 1.937159 g / cm^3
# Si number density = 19.415782 Si / 1000 Ang^3
#
#
#
# Elastic Constant Matrix: (Units=GPa)
#
#
# Indices 1 2 3 4 5 6 
#
# 1 70.7745 6.9729 64.8129 0.0000 1.8226 0.0000
# 2 6.9729 15.7454 -0.5957 0.0000 4.7365 0.0000
# 3 64.8129 -0.5957 134.7455 0.0000 -0.2867 0.0000
# 4 0.0000 0.0000 0.0000 24.0228 0.0000 -5.7487
# 5 1.8226 4.7365 -0.2867 0.0000 28.9392 0.0000
# 6 0.0000 0.0000 0.0000 -5.7487 0.0000 16.8061
#
#
#
# Elastic Compliance Matrix: (Units=1/GPa)
#
#
# Indices 1 2 3 4 5 6 
#
# 1 0.027586 -0.012788 -0.013325 0.000000 0.000224 0.000000
# 2 -0.012788 0.072737 0.006449 0.000000 -0.011036 0.000000
# 3 -0.013325 0.006449 0.013859 0.000000 -0.000079 0.000000
# 4 0.000000 0.000000 0.000000 0.045338 0.000000 0.015509
# 5 0.000224 -0.011036 -0.000079 0.000000 0.036347 0.000000
# 6 0.000000 0.000000 0.000000 0.015509 0.000000 0.064807
#
#
# Mechanical properties :
#
#
# Convention : Reuss Voigt Hill
#
# Bulk Modulus (GPa) = 13.35918 40.40506 26.88212
# Shear Modulus (GPa) = 15.38678 23.95864 19.67271
#
# Velocity S-wave (km/s) = 2.81817 3.51661 3.18659
# Velocity P-wave (km/s) = 4.18150 6.11100 5.23590
#
# Compressibility (1/GPa) = 0.07485490
#
# Stress axis : x y z
#
# Youngs Moduli (GPa) = 36.25005 13.74807 72.15460
#
# Poissons Ratio (x) = 0.17581 0.96146
# Poissons Ratio (y) = 0.46357 -0.46534
# Poissons Ratio (z) = 0.48303 -0.08866
#
# Static dielectric constant tensor:
#      x y z
#    x 1.686720 0.000000 -0.009830 
#    y 0.000000 1.696200 0.000000 
#    z -0.009830 0.000000 1.670910 
# 
# From -- ./inp_files/324282.got.cif
#   From: 2010.05.17/outbox.cif.g08.bks.cpg/sg12_163_cif.got.tgz:324282.got - 2010.06.03 13:09:07.
