data_PCOD9194648
_publ_section_title
;
Structure prediction by ZEFSAII (Michael W. Deem and Ramdas Pophale) SiO2 
 PCOD9194648
Probable space group: C 2/M
;
_chemical_formula_sum "Si O2"
_cell_formula_units_Z 48
_cell_length_a 22.305193
_cell_length_b 7.814463
_cell_length_c 21.837207
_cell_angle_alpha 90.000000
_cell_angle_beta 146.902047
_cell_angle_gamma 90.000000
_cell_volume 2078.510148
_symmetry_space_group_name_H-M "C 2/M"
_symmetry_group_IT_number 12
_symmetry_cell_setting 'monoclinic'
loop_
_space_group_symop_operation_xyz
x,y,z
-x,y,-z
-x,-y,-z
x,-y,z
1/2+x,1/2+y,z
1/2-x,1/2+y,-z
1/2-x,1/2-y,-z
1/2+x,1/2-y,z
loop_
_atom_site_type_symbol
_atom_site_label
_atom_site_fract_x
_atom_site_fract_y
_atom_site_fract_z
Si Si1 0.097383 0.700172 0.125139
Si Si2 0.581743 0.699110 0.346697
Si Si3 0.560651 0.196731 0.466793
Si Si4 0.155033 0.296179 0.871698
Si Si5 0.205205 0.796620 0.336699
Si Si6 0.179394 0.292279 0.750892
O O1 0.075177 0.500000 0.114074
O O2 0.114118 0.773378 0.207066
O O3 0.213129 0.726223 0.190298
O O4 0.000000 0.774598 0.000000
O O5 0.605129 0.500000 0.380267
O O6 0.571747 0.797677 0.402066
O O7 0.461373 0.710749 0.213298
O O8 0.666940 0.770581 0.369874
O O9 0.677444 0.274990 0.585770
O O10 0.439574 0.269208 0.376198
O O11 0.558672 0.000000 0.486367
O O12 0.138734 0.500000 0.858288
O O13 0.184437 0.245926 0.827064
O O14 0.250000 0.250000 0.000000
O O15 0.220193 0.000000 0.357672
O O16 0.178975 0.500000 0.745927
#
# Coordination Sequence:
#
# PCOD9194648 Si02
#       6
#     8   8   8   8   8   8
#     4  11  26  43  58  82 114 152 198 247 297 343
#     4  10  20  34  56  90 123 154 192 234 288 348
#     4   9  19  38  62  90 120 152 192 238 292 347
#     4  10  21  36  57  85 116 154 195 239 291 344
#     4  10  22  39  61  87 118 158 198 236 286 353
#     4   9  20  39  61  83 112 151 191 236 289 346
#
# _framework density 23.093464999999998
#
# number of rings (size 3 to 8) (size 9 to 14) (size 15 to 20)
#    0.000    2.167    0.000    3.000    2.333    7.333 
#    0.000    3.333    0.000    0.000    0.000    0.000 
#    0.000    0.000    0.000    0.000    0.000    0.000 
#
# Total GULP energy -134110.662397 kJ/mol
# GULP energy per Si atom -5587.944267 kJ/mol
# Density = 2.304090 g / cm^3
# Si number density = 23.093465 Si / 1000 Ang^3
#
#
#
# Elastic Constant Matrix: (Units=GPa)
#
#
# Indices 1 2 3 4 5 6 
#
# 1 95.4550 2.5153 24.0966 0.0000 9.0206 0.0000
# 2 2.5153 41.3688 -3.3914 0.0000 -0.5283 0.0000
# 3 24.0966 -3.3914 134.1409 0.0000 1.2761 0.0000
# 4 0.0000 0.0000 0.0000 15.3251 0.0000 2.3803
# 5 9.0206 -0.5283 1.2761 0.0000 27.2828 0.0000
# 6 0.0000 0.0000 0.0000 2.3803 0.0000 18.1810
#
#
#
# Elastic Compliance Matrix: (Units=1/GPa)
#
#
# Indices 1 2 3 4 5 6 
#
# 1 0.011360 -0.000904 -0.002028 0.000000 -0.003679 0.000000
# 2 -0.000904 0.024300 0.000770 0.000000 0.000733 0.000000
# 3 -0.002028 0.000770 0.007836 0.000000 0.000319 0.000000
# 4 0.000000 0.000000 0.000000 0.066607 0.000000 -0.008720
# 5 -0.003679 0.000733 0.000319 0.000000 0.037869 0.000000
# 6 0.000000 0.000000 0.000000 -0.008720 0.000000 0.056144
#
#
# Mechanical properties :
#
#
# Convention : Reuss Voigt Hill
#
# Bulk Modulus (GPa) = 25.52960 35.26732 30.39846
# Shear Modulus (GPa) = 22.57365 28.67407 25.62386
#
# Velocity S-wave (km/s) = 3.12988 3.52753 3.33464
# Velocity P-wave (km/s) = 4.91329 5.64766 5.29322
#
# Compressibility (1/GPa) = 0.03917022
#
# Stress axis : x y z
#
# Youngs Moduli (GPa) = 88.03088 41.15189 127.62167
#
# Poissons Ratio (x) = 0.03720 0.25888
# Poissons Ratio (y) = 0.07958 -0.09824
# Poissons Ratio (z) = 0.17857 -0.03168
#
# Static dielectric constant tensor:
#      x y z
#    x 1.868840 0.000000 0.009120 
#    y 0.000000 1.850310 0.000000 
#    z 0.009120 0.000000 1.907450 
# 
# From -- ./inp_files/348889.got.cif
#   From: 2010.05.17/outbox.cif.g08.bks.cpg/sg12_175_cif.got.tgz:348889.got - 2010.06.03 13:09:07.
