data_PCOD9194294
_publ_section_title
;
Structure prediction by ZEFSAII (Michael W. Deem and Ramdas Pophale) SiO2 
 PCOD9194294
Probable space group: C 2/M
;
_chemical_formula_sum "Si O2"
_cell_formula_units_Z 56
_cell_length_a 13.492055
_cell_length_b 18.835763
_cell_length_c 12.390348
_cell_angle_alpha 90.000000
_cell_angle_beta 75.087261
_cell_angle_gamma 90.000000
_cell_volume 3042.743139
_symmetry_space_group_name_H-M "C 2/M"
_symmetry_group_IT_number 12
_symmetry_cell_setting 'monoclinic'
loop_
_space_group_symop_operation_xyz
x,y,z
-x,y,-z
-x,-y,-z
x,-y,z
1/2+x,1/2+y,z
1/2-x,1/2+y,-z
1/2-x,1/2-y,-z
1/2+x,1/2-y,z
loop_
_atom_site_type_symbol
_atom_site_label
_atom_site_fract_x
_atom_site_fract_y
_atom_site_fract_z
Si Si1 0.912852 0.414819 0.674467
Si Si2 0.696906 0.337385 0.425293
Si Si3 0.632577 0.082124 0.551188
Si Si4 0.899578 0.195570 0.775617
Si Si5 0.744667 0.173762 0.159345
Si Si6 0.893008 0.084163 0.964247
Si Si7 0.629629 0.280266 0.666132
O O1 0.902064 0.500000 0.685320
O O2 0.871148 0.387167 0.569319
O O3 0.847121 0.378478 0.783523
O O4 0.032025 0.393554 0.643224
O O5 0.758956 0.409778 0.422919
O O6 0.633480 0.326083 0.335764
O O7 0.634643 0.323924 0.552507
O O8 0.796518 0.285412 0.385951
O O9 0.611057 0.000000 0.538978
O O10 0.813189 0.250846 0.844338
O O11 0.011944 0.231023 0.733263
O O12 0.906887 0.125667 0.847596
O O13 0.811711 0.133354 0.051496
O O14 0.815518 0.184230 0.245860
O O15 0.864699 0.000000 0.962298
O O16 0.000000 0.086371 0.000000
#
# Coordination Sequence:
#
# PCOD9194294 Si02
#       7
#     8   8   8   8   8   8   8
#     4   9  17  30  53  84 115 150 197 239 283 342
#     4  10  20  34  55  84 120 159 180 233 294 352
#     4   9  17  30  50  80 117 155 191 230 280 348
#     4  11  23  38  59  88 117 151 198 246 292 351
#     4  11  20  37  63  85 113 153 195 249 290 345
#     4  11  24  43  64  82 113 155 201 251 296 350
#     4  10  20  35  54  86 121 148 191 228 291 356
#
# _framework density 18.404446
#
# number of rings (size 3 to 8) (size 9 to 14) (size 15 to 20)
#    0.000    1.857    2.857    3.000    0.000    0.571 
#    0.000    0.714    0.000    1.714    0.000    7.000 
#    0.000    0.000    0.000    0.000    0.000    0.000 
#
# Total GULP energy -155912.610074 kJ/mol
# GULP energy per Si atom -5568.307503 kJ/mol
# Density = 1.836256 g / cm^3
# Si number density = 18.404446 Si / 1000 Ang^3
#
#
#
# Elastic Constant Matrix: (Units=GPa)
#
#
# Indices 1 2 3 4 5 6 
#
# 1 81.2360 28.3724 33.3599 0.0000 -4.2771 0.0000
# 2 28.3724 74.1645 35.9078 0.0000 5.3444 0.0000
# 3 33.3599 35.9078 72.2634 0.0000 -10.7574 0.0000
# 4 0.0000 0.0000 0.0000 26.3415 0.0000 -3.7923
# 5 -4.2771 5.3444 -10.7574 0.0000 25.9451 0.0000
# 6 0.0000 0.0000 0.0000 -3.7923 0.0000 25.0109
#
#
#
# Elastic Compliance Matrix: (Units=1/GPa)
#
#
# Indices 1 2 3 4 5 6 
#
# 1 0.015808 -0.003519 -0.005386 0.000000 0.001098 0.000000
# 2 -0.003519 0.020153 -0.009692 0.000000 -0.008750 0.000000
# 3 -0.005386 -0.009692 0.022707 0.000000 0.010523 0.000000
# 4 0.000000 0.000000 0.000000 0.038810 0.000000 0.005885
# 5 0.001098 -0.008750 0.010523 0.000000 0.044889 0.000000
# 6 0.000000 0.000000 0.000000 0.005885 0.000000 0.040875
#
#
# Mechanical properties :
#
#
# Convention : Reuss Voigt Hill
#
# Bulk Modulus (GPa) = 46.56657 46.99378 46.78018
# Shear Modulus (GPa) = 21.96892 24.12776 23.04834
#
# Velocity S-wave (km/s) = 3.45871 3.62467 3.54266
# Velocity P-wave (km/s) = 6.42705 6.56559 6.49669
#
# Compressibility (1/GPa) = 0.02147463
#
# Stress axis : x y z
#
# Youngs Moduli (GPa) = 63.25755 49.62085 44.03938
#
# Poissons Ratio (x) = 0.17463 0.23718
# Poissons Ratio (y) = 0.22262 0.42682
# Poissons Ratio (z) = 0.34068 0.48092
#
# Static dielectric constant tensor:
#      x y z
#    x 1.651350 0.000000 -0.005110 
#    y 0.000000 1.704660 0.000000 
#    z -0.005110 0.000000 1.632080 
# 
# From -- ./inp_files/133310.got.cif
#   From: 2010.05.17/outbox.cif.g08.bks.cpg/sg12_67_cif.got.tgz:133310.got - 2010.06.03 13:09:07.
