data_PCOD9194064
_publ_section_title
;
Structure prediction by ZEFSAII (Michael W. Deem and Ramdas Pophale) SiO2 
 PCOD9194064
Probable space group: C 2/M
;
_chemical_formula_sum "Si O2"
_cell_formula_units_Z 56
_cell_length_a 19.469391
_cell_length_b 8.013621
_cell_length_c 26.468013
_cell_angle_alpha 90.000000
_cell_angle_beta 40.543183
_cell_angle_gamma 90.000000
_cell_volume 2684.292717
_symmetry_space_group_name_H-M "C 2/M"
_symmetry_group_IT_number 12
_symmetry_cell_setting 'monoclinic'
loop_
_space_group_symop_operation_xyz
x,y,z
-x,y,-z
-x,-y,-z
x,-y,z
1/2+x,1/2+y,z
1/2-x,1/2+y,-z
1/2-x,1/2-y,-z
1/2+x,1/2-y,z
loop_
_atom_site_type_symbol
_atom_site_label
_atom_site_fract_x
_atom_site_fract_y
_atom_site_fract_z
Si Si1 0.812713 0.699165 0.236508
Si Si2 0.165660 0.803011 0.174122
Si Si3 0.787948 0.808681 0.424284
Si Si4 0.425238 0.696383 0.496731
Si Si5 0.387242 0.795957 0.083298
Si Si6 0.451926 0.296750 0.254232
Si Si7 0.407468 0.804459 0.674774
O O1 0.796964 0.500000 0.244642
O O2 0.866058 0.749742 0.153418
O O3 0.887363 0.745444 0.241066
O O4 0.696380 0.779277 0.302068
O O5 0.285063 0.735260 0.108732
O O6 0.122179 0.778999 0.255458
O O7 0.072925 0.736185 0.190091
O O8 0.174654 0.000000 0.158991
O O9 0.750000 0.750000 0.500000
O O10 0.686135 0.786658 0.445409
O O11 0.887025 0.731139 0.339483
O O12 0.814844 0.000000 0.416169
O O13 0.500000 0.757992 0.500000
O O14 0.404811 0.500000 0.515794
O O15 0.492262 0.723163 0.408280
O O16 0.387171 0.000000 0.081549
O O17 0.500000 0.738155 0.000000
O O18 0.453031 0.500000 0.255136
O O19 0.426855 0.000000 0.671253
#
# Coordination Sequence:
#
# PCOD9194064 Si02
#       7
#     8   8   8   8   8   8   8
#     4  10  20  34  55  80 107 142 180 219 265 317
#     4   9  18  34  56  79 105 140 178 214 259 315
#     4  11  23  37  54  76 105 143 184 228 278 325
#     4  11  23  37  53  74 102 136 177 225 272 319
#     4   8  15  31  56  83 108 138 178 218 258 312
#     4  10  21  36  53  76 108 142 177 221 270 319
#     4  11  21  34  54  77 103 135 175 222 268 318
#
# _framework density 20.862105
#
# number of rings (size 3 to 8) (size 9 to 14) (size 15 to 20)
#    0.000    2.000    0.000    5.143    0.000    6.286 
#    0.000    0.714    0.000   10.714    0.000    0.000 
#    0.000    0.000    0.000    0.000    0.000    0.000 
#
# Total GULP energy -156382.503679 kJ/mol
# GULP energy per Si atom -5585.089417 kJ/mol
# Density = 2.081462 g / cm^3
# Si number density = 20.862105 Si / 1000 Ang^3
#
#
#
# Elastic Constant Matrix: (Units=GPa)
#
#
# Indices 1 2 3 4 5 6 
#
# 1 95.6373 -3.6643 22.4940 0.0001 -22.8709 -0.0001
# 2 -3.6643 22.7625 2.0453 0.0003 1.3331 -0.0014
# 3 22.4940 2.0453 86.1553 0.0000 -24.1835 0.0002
# 4 0.0001 0.0003 0.0000 9.7424 0.0000 0.2532
# 5 -22.8709 1.3331 -24.1835 0.0000 26.5620 0.0000
# 6 -0.0001 -0.0014 0.0002 0.2532 0.0000 25.2192
#
#
#
# Elastic Compliance Matrix: (Units=1/GPa)
#
#
# Indices 1 2 3 4 5 6 
#
# 1 0.013227 0.001527 -0.000422 0.000000 0.010928 0.000000
# 2 0.001527 0.044562 -0.002304 -0.000001 -0.003019 0.000003
# 3 -0.000422 -0.002304 0.015720 0.000000 0.014064 0.000000
# 4 0.000000 -0.000001 0.000000 0.102671 0.000000 -0.001031
# 5 0.010928 -0.003019 0.014064 0.000000 0.060014 0.000000
# 6 0.000000 0.000003 0.000000 -0.001031 0.000000 0.039663
#
#
# Mechanical properties :
#
#
# Convention : Reuss Voigt Hill
#
# Bulk Modulus (GPa) = 14.06260 27.36722 20.71491
# Shear Modulus (GPa) = 16.55863 24.55006 20.55435
#
# Velocity S-wave (km/s) = 2.82036 3.43414 3.14227
# Velocity P-wave (km/s) = 4.16668 5.37318 4.80793
#
# Compressibility (1/GPa) = 0.07111060
#
# Stress axis : x y z
#
# Youngs Moduli (GPa) = 75.60066 22.44080 63.61472
#
# Poissons Ratio (x) = -0.03427 0.02686
# Poissons Ratio (y) = -0.11546 0.14657
# Poissons Ratio (z) = 0.03192 0.05171
#
# Static dielectric constant tensor:
#      x y z
#    x 1.780940 0.000000 -0.013500 
#    y 0.000000 1.739630 0.000000 
#    z -0.013500 0.000000 1.755910 
# 
# From -- ./inp_files/280191.got.cif
#   From: 2010.05.17/outbox.cif.g08.bks.cpg/sg12_141_cif.got.tgz:280191.got - 2010.06.03 13:09:07.
