data_PCOD9194023
_publ_section_title
;
Structure prediction by ZEFSAII (Michael W. Deem and Ramdas Pophale) SiO2 
 PCOD9194023
Probable space group: C 2/M
;
_chemical_formula_sum "Si O2"
_cell_formula_units_Z 48
_cell_length_a 23.853568
_cell_length_b 7.739522
_cell_length_c 13.010853
_cell_angle_alpha 90.000000
_cell_angle_beta 87.998789
_cell_angle_gamma 90.000000
_cell_volume 2400.536408
_symmetry_space_group_name_H-M "C 2/M"
_symmetry_group_IT_number 12
_symmetry_cell_setting 'monoclinic'
loop_
_space_group_symop_operation_xyz
x,y,z
-x,y,-z
-x,-y,-z
x,-y,z
1/2+x,1/2+y,z
1/2-x,1/2+y,-z
1/2-x,1/2-y,-z
1/2+x,1/2-y,z
loop_
_atom_site_type_symbol
_atom_site_label
_atom_site_fract_x
_atom_site_fract_y
_atom_site_fract_z
Si Si1 0.073028 0.788574 0.093216
Si Si2 0.858795 0.202224 0.721823
Si Si3 0.246979 0.706899 0.620773
Si Si4 0.555132 0.289326 0.865521
Si Si5 0.439581 0.800636 0.537067
Si Si6 0.878049 0.203171 0.337726
O O1 0.118079 0.724458 0.172682
O O2 0.010175 0.738167 0.131889
O O3 0.073834 0.000000 0.094319
O O4 0.079826 0.734719 0.974356
O O5 0.802026 0.276027 0.675970
O O6 0.908064 0.214205 0.634060
O O7 0.847684 0.000000 0.740773
O O8 0.246550 0.500000 0.628660
O O9 0.250000 0.750000 0.500000
O O10 0.188408 0.774809 0.667945
O O11 0.556362 0.500000 0.864654
O O12 0.589162 0.229877 0.764201
O O13 0.500000 0.726500 0.500000
O O14 0.399720 0.790615 0.440311
O O15 0.448583 0.000000 0.565975
O O16 0.890616 0.000000 0.348794
#
# Coordination Sequence:
#
# PCOD9194023 Si02
#       6
#     8   8   8   8   8   8
#     4   8  14  29  52  79 106 132 168 218 266 312
#     4  10  20  34  55  78 101 135 180 221 261 312
#     4  11  22  36  53  75 104 143 182 223 267 310
#     4   8  15  28  51  80 107 133 167 215 268 313
#     4  11  23  35  50  76 109 139 168 214 272 321
#     4  11  21  34  54  79 105 139 180 219 262 316
#
# _framework density 19.995531
#
# number of rings (size 3 to 8) (size 9 to 14) (size 15 to 20)
#    0.000    2.167    1.667    3.500    0.000    3.333 
#    0.000    0.833    0.000    2.000    0.000    8.167 
#    0.000    0.000    0.000    0.000    0.000    0.000 
#
# Total GULP energy -133993.582325 kJ/mol
# GULP energy per Si atom -5583.065930 kJ/mol
# Density = 1.995002 g / cm^3
# Si number density = 19.995531 Si / 1000 Ang^3
#
#
#
# Elastic Constant Matrix: (Units=GPa)
#
#
# Indices 1 2 3 4 5 6 
#
# 1 53.9072 -5.0915 5.3488 0.0000 24.4461 0.0000
# 2 -5.0915 33.9168 -2.1248 0.0000 0.8318 0.0000
# 3 5.3488 -2.1248 83.2244 0.0000 22.5572 0.0000
# 4 0.0000 0.0000 0.0000 -7.2132 0.0000 3.6758
# 5 24.4461 0.8318 22.5572 0.0000 39.6871 0.0000
# 6 0.0000 0.0000 0.0000 3.6758 0.0000 17.0257
#
#
#
# Elastic Compliance Matrix: (Units=1/GPa)
#
#
# Indices 1 2 3 4 5 6 
#
# 1 0.027192 0.004762 0.003476 0.000000 -0.018825 0.000000
# 2 0.004762 0.030416 0.001700 0.000000 -0.004537 0.000000
# 3 0.003476 0.001700 0.014689 0.000000 -0.010526 0.000000
# 4 0.000000 0.000000 0.000000 -0.124894 0.000000 0.026964
# 5 -0.018825 -0.004537 -0.010526 0.000000 0.042871 0.000000
# 6 0.000000 0.000000 0.000000 0.026964 0.000000 0.052913
#
#
# Mechanical properties :
#
#
# Convention : Reuss Voigt Hill
#
# Bulk Modulus (GPa) = 10.84912 18.59037 14.71974
# Shear Modulus (GPa) = 92.53172 21.42764 56.97968
#
# Velocity S-wave (km/s) = 6.81004 3.27711 5.34398
# Velocity P-wave (km/s) = 8.20202 4.86176 6.74203
#
# Compressibility (1/GPa) = 0.09217341
#
# Stress axis : x y z
#
# Youngs Moduli (GPa) = 36.77526 32.87692 68.08020
#
# Poissons Ratio (x) = -0.15654 -0.23667
# Poissons Ratio (y) = -0.17511 -0.11575
# Poissons Ratio (z) = -0.12784 -0.05590
#
# Static dielectric constant tensor:
#      x y z
#    x 1.699360 0.000000 0.021430 
#    y 0.000000 1.754000 0.000000 
#    z 0.021430 0.000000 1.688390 
# 
# From -- ./inp_files/172247.got.cif
#   From: 2010.05.17/outbox.cif.g08.bks.cpg/sg12_87_cif.got.tgz:172247.got - 2010.06.03 13:09:07.
