data_PCOD9194837
_publ_section_title
;
Structure prediction by ZEFSAII (Michael W. Deem and Ramdas Pophale) SiO2 
 PCOD9194837
Probable space group: C 2/M
;
_chemical_formula_sum "Si O2"
_cell_formula_units_Z 40
_cell_length_a 15.625714
_cell_length_b 14.152845
_cell_length_c 19.936743
_cell_angle_alpha 90.000000
_cell_angle_beta 21.193878
_cell_angle_gamma 90.000000
_cell_volume 1593.955185
_symmetry_space_group_name_H-M "C 2/M"
_symmetry_group_IT_number 12
_symmetry_cell_setting 'monoclinic'
loop_
_space_group_symop_operation_xyz
x,y,z
-x,y,-z
-x,-y,-z
x,-y,z
1/2+x,1/2+y,z
1/2-x,1/2+y,-z
1/2-x,1/2-y,-z
1/2+x,1/2-y,z
loop_
_atom_site_type_symbol
_atom_site_label
_atom_site_fract_x
_atom_site_fract_y
_atom_site_fract_z
Si Si1 0.981767 0.612936 0.216497
Si Si2 0.213142 0.604683 0.790783
Si Si3 0.213129 0.389277 0.506403
Si Si4 0.517857 0.385369 0.817579
Si Si5 0.251798 0.187135 0.777377
O O1 0.998027 0.500000 0.214198
O O2 0.819359 0.649536 0.395228
O O3 0.885222 0.623329 0.212112
O O4 0.250855 0.647000 0.026489
O O5 0.332477 0.500000 0.703331
O O6 0.332452 0.703579 0.721860
O O7 0.000000 0.597331 0.000000
O O8 0.267011 0.500000 0.473191
O O9 0.956647 0.375578 0.659600
O O10 0.407113 0.354940 0.311781
O O11 0.528278 0.500000 0.814064
O O12 0.694656 0.343829 0.743386
O O13 0.000000 0.177370 0.000000
#
# Coordination Sequence:
#
# PCOD9194837 Si02
#       5
#     8   8   8   8   8
#     4   9  18  36  62  85 111 150 193 236 285 337
#     4   9  20  39  62  83 108 153 202 241 283 331
#     4  10  20  35  59  90 122 149 181 231 289 348
#     4  10  20  34  57  90 123 151 181 229 290 350
#     4  11  20  33  56  86 118 156 187 229 284 344
#
# _framework density 25.094809999999999
#
# number of rings (size 3 to 8) (size 9 to 14) (size 15 to 20)
#    0.000    2.200    2.000    1.200    0.000    3.200 
#    0.000    1.000    8.800    2.400    0.000    0.000 
#    0.000    0.000    0.000    0.000    0.000    0.000 
#
# Total GULP energy -111904.708623 kJ/mol
# GULP energy per Si atom -5595.235431 kJ/mol
# Density = 2.503769 g / cm^3
# Si number density = 25.094810 Si / 1000 Ang^3
#
#
#
# Elastic Constant Matrix: (Units=GPa)
#
#
# Indices 1 2 3 4 5 6 
#
# 1 117.4519 4.7178 77.0605 -0.0345 35.0479 0.0243
# 2 4.7178 107.3623 -4.8933 -0.0347 6.4042 0.0633
# 3 77.0605 -4.8933 143.7344 -0.0411 26.0997 0.0535
# 4 -0.0345 -0.0347 -0.0411 36.9684 0.0472 23.2693
# 5 35.0479 6.4042 26.0997 0.0472 53.2038 -0.0258
# 6 0.0243 0.0633 0.0535 23.2693 -0.0258 35.1779
#
#
#
# Elastic Compliance Matrix: (Units=1/GPa)
#
#
# Indices 1 2 3 4 5 6 
#
# 1 0.014964 -0.000589 -0.006878 0.000028 -0.006413 -0.000022
# 2 -0.000589 0.009448 0.000849 0.000039 -0.001166 -0.000044
# 3 -0.006878 0.000849 0.010835 0.000028 -0.000886 -0.000032
# 4 0.000028 0.000039 0.000028 0.046348 -0.000093 -0.030658
# 5 -0.006413 -0.001166 -0.000886 -0.000093 0.023595 0.000086
# 6 -0.000022 -0.000044 -0.000032 -0.030658 0.000086 0.048707
#
#
# Mechanical properties :
#
#
# Convention : Reuss Voigt Hill
#
# Bulk Modulus (GPa) = 45.43061 58.03540 51.73301
# Shear Modulus (GPa) = 28.65819 44.51426 36.58623
#
# Velocity S-wave (km/s) = 3.38301 4.21627 3.82241
# Velocity P-wave (km/s) = 5.77950 6.84684 6.33569
#
# Compressibility (1/GPa) = 0.02201159
#
# Stress axis : x y z
#
# Youngs Moduli (GPa) = 66.82588 105.83785 92.29470
#
# Poissons Ratio (x) = 0.06229 0.63484
# Poissons Ratio (y) = 0.03933 -0.07836
# Poissons Ratio (z) = 0.45966 -0.08985
#
# Static dielectric constant tensor:
#      x y z
#    x 1.945110 -0.000040 0.035390 
#    y -0.000040 1.993740 0.000070 
#    z 0.035390 0.000070 1.951890 
# 
# From -- ./inp_files/59114.got.cif
#   From: 2010.05.17/outbox.cif.g08.bks.cpg/sg12_30_cif.got.tgz:59114.got - 2010.06.03 13:09:07.
