data_PCOD9194382
_publ_section_title
;
Structure prediction by ZEFSAII (Michael W. Deem and Ramdas Pophale) SiO2 
 PCOD9194382
Probable space group: C 2/M
;
_chemical_formula_sum "Si O2"
_cell_formula_units_Z 48
_cell_length_a 24.720594
_cell_length_b 11.028864
_cell_length_c 21.312647
_cell_angle_alpha 90.000000
_cell_angle_beta 158.061457
_cell_angle_gamma 90.000000
_cell_volume 2170.939518
_symmetry_space_group_name_H-M "C 2/M"
_symmetry_group_IT_number 12
_symmetry_cell_setting 'monoclinic'
loop_
_space_group_symop_operation_xyz
x,y,z
-x,y,-z
-x,-y,-z
x,-y,z
1/2+x,1/2+y,z
1/2-x,1/2+y,-z
1/2-x,1/2-y,-z
1/2+x,1/2-y,z
loop_
_atom_site_type_symbol
_atom_site_label
_atom_site_fract_x
_atom_site_fract_y
_atom_site_fract_z
Si Si1 0.210523 0.500000 0.002832
Si Si2 0.095005 0.000000 0.901617
Si Si3 0.569627 0.259437 0.386512
Si Si4 0.919935 0.737967 0.088899
Si Si5 0.802164 0.000000 0.522861
Si Si6 0.078012 0.500000 0.378082
Si Si7 0.563535 0.354336 0.502119
Si Si8 0.603500 0.144937 0.171022
O O1 0.180970 0.619596 0.012002
O O2 0.093764 0.500000 0.818990
O O3 0.357731 0.500000 0.121438
O O4 0.143411 0.125871 0.985151
O O5 0.919304 0.000000 0.705862
O O6 0.489744 0.246562 0.234081
O O7 0.671858 0.375434 0.485468
O O8 0.630683 0.125321 0.463936
O O9 0.485331 0.294211 0.358485
O O10 0.033675 0.712748 0.155723
O O11 0.643136 0.000000 0.378481
O O12 0.500000 0.315030 0.500000
O O13 0.548406 0.500000 0.482016
O O14 0.733456 0.323260 0.675812
O O15 0.602058 0.000000 0.182793
O O16 0.500000 0.165691 0.000000
#
# Coordination Sequence:
#
# PCOD9194382 Si02
#       8
#     4   4   8   8   4   4   8   8
#     4  10  20  38  55  86 126 162 196 246 307 361
#     4  10  22  36  53  92 126 154 196 252 315 355
#     4  10  21  35  61  93 123 153 204 250 306 352
#     4  10  21  38  63  92 123 160 207 254 304 361
#     4  10  20  34  55  90 122 148 198 256 297 353
#     4  10  22  32  57  88 122 154 192 246 311 361
#     4  10  22  40  63  90 125 162 205 256 308 359
#     4  10  22  42  63  89 122 167 210 251 298 370
#
# _framework density 22.110242
#
# number of rings (size 3 to 8) (size 9 to 14) (size 15 to 20)
#    0.000    2.000    1.667    1.000    9.333    0.000 
#   12.000    0.833    0.000    0.000    0.000    0.000 
#    0.000    0.000    0.000    0.000    0.000    0.000 
#
# Total GULP energy -133939.774840 kJ/mol
# GULP energy per Si atom -5580.823952 kJ/mol
# Density = 2.205992 g / cm^3
# Si number density = 22.110242 Si / 1000 Ang^3
#
#
#
# Elastic Constant Matrix: (Units=GPa)
#
#
# Indices 1 2 3 4 5 6 
#
# 1 182.3960 59.3785 40.2737 -0.0001 10.8318 -0.0001
# 2 59.3785 191.8188 27.0181 -0.0001 15.3356 -0.0001
# 3 40.2737 27.0181 67.6824 -0.0001 7.1198 -0.0001
# 4 -0.0001 -0.0001 -0.0001 9.1309 -0.0001 1.0799
# 5 10.8318 15.3356 7.1198 -0.0001 27.3151 -0.0001
# 6 -0.0001 -0.0001 -0.0001 1.0799 -0.0001 36.3761
#
#
#
# Elastic Compliance Matrix: (Units=1/GPa)
#
#
# Indices 1 2 3 4 5 6 
#
# 1 0.006777 -0.001555 -0.003311 0.000000 -0.000951 0.000000
# 2 -0.001555 0.006066 -0.001237 0.000000 -0.002467 0.000000
# 3 -0.003311 -0.001237 0.017508 0.000000 -0.002556 0.000000
# 4 0.000000 0.000000 0.000000 0.109904 0.000000 -0.003263
# 5 -0.000951 -0.002467 -0.002556 0.000000 0.039038 0.000000
# 6 0.000000 0.000000 0.000000 -0.003263 0.000000 0.027587
#
#
# Mechanical properties :
#
#
# Convention : Reuss Voigt Hill
#
# Bulk Modulus (GPa) = 55.11504 77.24865 66.18185
# Shear Modulus (GPa) = 22.20892 35.57954 28.89423
#
# Velocity S-wave (km/s) = 3.17276 4.01582 3.61893
# Velocity P-wave (km/s) = 6.19705 7.51773 6.88911
#
# Compressibility (1/GPa) = 0.01814387
#
# Stress axis : x y z
#
# Youngs Moduli (GPa) = 147.56802 164.85122 57.11729
#
# Poissons Ratio (x) = 0.25639 0.18914
# Poissons Ratio (y) = 0.22951 0.07063
# Poissons Ratio (z) = 0.48866 0.20385
#
# Static dielectric constant tensor:
#      x y z
#    x 1.798440 0.000000 -0.014830 
#    y 0.000000 1.876530 0.000000 
#    z -0.014830 0.000000 1.878100 
# 
# From -- ./inp_files/321363.got.cif
#   From: 2010.05.17/outbox.cif.g08.bks.cpg/sg12_161_cif.got.tgz:321363.got - 2010.06.03 13:09:07.
