data_PCOD9194363
_publ_section_title
;
Structure prediction by ZEFSAII (Michael W. Deem and Ramdas Pophale) SiO2 
 PCOD9194363
Probable space group: C 2/M
;
_chemical_formula_sum "Si O2"
_cell_formula_units_Z 40
_cell_length_a 5.246192
_cell_length_b 21.028318
_cell_length_c 16.965374
_cell_angle_alpha 90.000000
_cell_angle_beta 74.392010
_cell_angle_gamma 90.000000
_cell_volume 1802.581196
_symmetry_space_group_name_H-M "C 2/M"
_symmetry_group_IT_number 12
_symmetry_cell_setting 'monoclinic'
loop_
_space_group_symop_operation_xyz
x,y,z
-x,y,-z
-x,-y,-z
x,-y,z
1/2+x,1/2+y,z
1/2-x,1/2+y,-z
1/2-x,1/2-y,-z
1/2+x,1/2-y,z
loop_
_atom_site_type_symbol
_atom_site_label
_atom_site_fract_x
_atom_site_fract_y
_atom_site_fract_z
Si Si1 0.788901 0.227881 0.907042
Si Si2 0.318525 0.571858 0.249334
Si Si3 0.258731 0.708545 0.624782
Si Si4 0.865970 0.357866 0.206311
Si Si5 0.386779 0.927915 0.421705
O O1 0.604209 0.276129 0.872229
O O2 0.657949 0.165472 0.881848
O O3 0.750000 0.250000 0.000000
O O4 0.362769 0.500000 0.222356
O O5 0.600308 0.602254 0.241739
O O6 0.131301 0.604613 0.200924
O O7 0.137554 0.574711 0.342350
O O8 0.532899 0.747437 0.603697
O O9 0.162404 0.696031 0.723339
O O10 0.271336 0.637158 0.586170
O O11 0.500000 0.924336 0.500000
O O12 0.265400 0.000000 0.420513
#
# Coordination Sequence:
#
# PCOD9194363 Si02
#       5
#     8   8   8   8   8
#     4  10  20  34  55  87 118 148 186 231 288 359
#     4  10  21  37  59  87 115 154 208 254 299 357
#     4  11  22  37  58  86 119 155 196 250 310 363
#     4  11  20  36  59  85 121 156 192 247 303 362
#     4   9  20  40  62  85 119 165 214 261 309 368
#
# _framework density 22.1904
#
# number of rings (size 3 to 8) (size 9 to 14) (size 15 to 20)
#    0.000    1.800    0.000    5.400    0.000    1.600 
#    0.000    9.000    0.000   27.600    0.000   56.000 
#    0.000    9.600    0.000    0.000    0.000    0.000 
#
# Total GULP energy -111499.723682 kJ/mol
# GULP energy per Si atom -5574.986184 kJ/mol
# Density = 2.213989 g / cm^3
# Si number density = 22.190400 Si / 1000 Ang^3
#
#
#
# Elastic Constant Matrix: (Units=GPa)
#
#
# Indices 1 2 3 4 5 6 
#
# 1 152.7297 81.0955 8.8884 0.0000 21.2693 0.0000
# 2 81.0955 160.8190 51.9710 0.0000 17.9566 0.0000
# 3 8.8884 51.9710 81.1016 0.0000 16.8265 0.0000
# 4 0.0000 0.0000 0.0000 17.2624 0.0000 -2.9533
# 5 21.2693 17.9566 16.8265 0.0000 24.6632 0.0000
# 6 0.0000 0.0000 0.0000 -2.9533 0.0000 10.2225
#
#
#
# Elastic Compliance Matrix: (Units=1/GPa)
#
#
# Indices 1 2 3 4 5 6 
#
# 1 0.010409 -0.005727 0.004108 0.000000 -0.007610 0.000000
# 2 -0.005727 0.011145 -0.006821 0.000000 0.001478 0.000000
# 3 0.004108 -0.006821 0.018587 0.000000 -0.011257 0.000000
# 4 0.000000 0.000000 0.000000 0.060941 0.000000 0.017606
# 5 -0.007610 0.001478 -0.011257 0.000000 0.053713 0.000000
# 6 0.000000 0.000000 0.000000 0.017606 0.000000 0.102910
#
#
# Mechanical properties :
#
#
# Convention : Reuss Voigt Hill
#
# Bulk Modulus (GPa) = 42.99057 75.39558 59.19307
# Shear Modulus (GPa) = 17.70924 27.27598 22.49261
#
# Velocity S-wave (km/s) = 2.82806 3.50977 3.18719
# Velocity P-wave (km/s) = 5.48447 7.10458 6.34644
#
# Compressibility (1/GPa) = 0.02326091
#
# Stress axis : x y z
#
# Youngs Moduli (GPa) = 96.07172 89.72445 53.80229
#
# Poissons Ratio (x) = 0.51382 -0.22101
# Poissons Ratio (y) = 0.55017 0.36699
# Poissons Ratio (z) = -0.39464 0.61201
#
# Static dielectric constant tensor:
#      x y z
#    x 1.980520 0.000000 -0.101690 
#    y 0.000000 1.907620 0.000000 
#    z -0.101690 0.000000 1.900460 
# 
# From -- ./inp_files/252547.got.cif
#   From: 2010.05.17/outbox.cif.g08.bks.cpg/sg12_127_cif.got.tgz:252547.got - 2010.06.03 13:09:07.
