data_PCOD9194962
_publ_section_title
;
Structure prediction by ZEFSAII (Michael W. Deem and Ramdas Pophale) SiO2 
 PCOD9194962
Probable space group: C 2/M
;
_chemical_formula_sum "Si O2"
_cell_formula_units_Z 28
_cell_length_a 5.998883
_cell_length_b 13.900140
_cell_length_c 14.766848
_cell_angle_alpha 90.000000
_cell_angle_beta 117.918657
_cell_angle_gamma 90.000000
_cell_volume 1088.026748
_symmetry_space_group_name_H-M "C 2/M"
_symmetry_group_IT_number 12
_symmetry_cell_setting 'monoclinic'
loop_
_space_group_symop_operation_xyz
x,y,z
-x,y,-z
-x,-y,-z
x,-y,z
1/2+x,1/2+y,z
1/2-x,1/2+y,-z
1/2-x,1/2-y,-z
1/2+x,1/2-y,z
loop_
_atom_site_type_symbol
_atom_site_label
_atom_site_fract_x
_atom_site_fract_y
_atom_site_fract_z
Si Si1 0.475416 0.500000 0.388521
Si Si2 0.494111 0.287670 0.663877
Si Si3 0.051654 0.500000 0.803366
Si Si4 0.067460 0.000000 0.909450
Si Si5 0.126327 0.673035 0.109306
O O1 0.500000 0.500000 0.500000
O O2 0.570894 0.399267 0.366483
O O3 0.181656 0.500000 0.306569
O O4 0.215098 0.239968 0.630055
O O5 0.667201 0.275748 0.787849
O O6 0.032081 0.598538 0.857955
O O7 0.314350 0.500000 0.803557
O O8 0.216215 0.093958 0.915010
O O9 0.000000 0.000000 0.000000
O O10 0.000000 0.728831 0.000000
#
# Coordination Sequence:
#
# PCOD9194962 Si02
#       5
#     4   8   4   4   8
#     4  10  25  51  82 109 142 197 252 309 387 449
#     4  11  28  49  75 112 155 192 247 314 371 441
#     4   9  18  35  59  99 139 181 238 304 361 422
#     4  11  17  29  64  98 140 193 245 298 355 434
#     4  10  20  34  58  98 142 195 240 288 357 437
#
# _framework density 25.734663999999999
#
# number of rings (size 3 to 8) (size 9 to 14) (size 15 to 20)
#    0.000    1.714    2.857    1.714    8.000    3.429 
#    0.000    1.429    0.000    0.000    0.000    0.000 
#    0.000    0.000    0.000    0.000    0.000    0.000 
#
# Total GULP energy -78109.212078 kJ/mol
# GULP energy per Si atom -5579.229434 kJ/mol
# Density = 2.567609 g / cm^3
# Si number density = 25.734664 Si / 1000 Ang^3
#
#
#
# Elastic Constant Matrix: (Units=GPa)
#
#
# Indices 1 2 3 4 5 6 
#
# 1 125.8933 76.3255 16.8745 0.0000 0.7255 0.0000
# 2 76.3255 131.0051 4.3761 0.0000 -5.4234 0.0000
# 3 16.8745 4.3761 70.4757 0.0000 -12.8921 0.0000
# 4 0.0000 0.0000 0.0000 11.2289 0.0000 -9.5562
# 5 0.7255 -5.4234 -12.8921 0.0000 13.4034 0.0000
# 6 0.0000 0.0000 0.0000 -9.5562 0.0000 25.2111
#
#
#
# Elastic Compliance Matrix: (Units=1/GPa)
#
#
# Indices 1 2 3 4 5 6 
#
# 1 0.013395 -0.007995 -0.004169 0.000000 -0.007970 0.000000
# 2 -0.007995 0.012536 0.002600 0.000000 0.008006 0.000000
# 3 -0.004169 0.002600 0.018518 0.000000 0.019089 0.000000
# 4 0.000000 0.000000 0.000000 0.131464 0.000000 0.049831
# 5 -0.007970 0.008006 0.019089 0.000000 0.096640 0.000000
# 6 0.000000 0.000000 0.000000 0.049831 0.000000 0.058553
#
#
# Mechanical properties :
#
#
# Convention : Reuss Voigt Hill
#
# Bulk Modulus (GPa) = 39.49037 58.05847 48.77442
# Shear Modulus (GPa) = 13.94030 25.28856 19.61443
#
# Velocity S-wave (km/s) = 2.32996 3.13815 2.76375
# Velocity P-wave (km/s) = 4.75571 5.97830 5.40170
#
# Compressibility (1/GPa) = 0.02532263
#
# Stress axis : x y z
#
# Youngs Moduli (GPa) = 74.65519 79.77195 54.00151
#
# Poissons Ratio (x) = 0.63776 0.22512
# Poissons Ratio (y) = 0.59685 -0.14043
# Poissons Ratio (z) = 0.31122 -0.20744
#
# Static dielectric constant tensor:
#      x y z
#    x 2.103110 0.000000 0.023890 
#    y 0.000000 2.002360 0.000000 
#    z 0.023890 0.000000 2.135330 
# 
# From -- ./inp_files/252325.got.cif
#   From: 2010.05.17/outbox.cif.g08.bks.cpg/sg12_127_cif.got.tgz:252325.got - 2010.06.03 13:09:07.
