data_PCOD9194919
_publ_section_title
;
Structure prediction by ZEFSAII (Michael W. Deem and Ramdas Pophale) SiO2 
 PCOD9194919
Probable space group: C 2/M
;
_chemical_formula_sum "Si O2"
_cell_formula_units_Z 44
_cell_length_a 22.055163
_cell_length_b 13.309986
_cell_length_c 9.376621
_cell_angle_alpha 90.000000
_cell_angle_beta 59.728404
_cell_angle_gamma 90.000000
_cell_volume 2377.222203
_symmetry_space_group_name_H-M "C 2/M"
_symmetry_group_IT_number 12
_symmetry_cell_setting 'monoclinic'
loop_
_space_group_symop_operation_xyz
x,y,z
-x,y,-z
-x,-y,-z
x,-y,z
1/2+x,1/2+y,z
1/2-x,1/2+y,-z
1/2-x,1/2-y,-z
1/2+x,1/2-y,z
loop_
_atom_site_type_symbol
_atom_site_label
_atom_site_fract_x
_atom_site_fract_y
_atom_site_fract_z
Si Si1 0.634474 0.383770 0.454378
Si Si2 0.000000 0.769983 0.500000
Si Si3 0.275497 0.218232 0.814401
Si Si4 0.182354 0.213816 0.669730
Si Si5 0.092271 0.385956 0.228437
Si Si6 0.916329 0.384106 0.095439
O O1 0.641066 0.500000 0.410013
O O2 0.559688 0.338472 0.498482
O O3 0.690724 0.316069 0.301787
O O4 0.646448 0.366360 0.608668
O O5 0.035390 0.695983 0.342771
O O6 0.213516 0.180228 0.784998
O O7 0.338049 0.138913 0.763969
O O8 0.250000 0.250000 0.000000
O O9 0.250000 0.250000 0.500000
O O10 0.128820 0.305600 0.760818
O O11 0.068259 0.500000 0.282412
O O12 0.106689 0.376457 0.042702
O O13 0.905649 0.500000 0.155197
O O14 0.000000 0.364258 0.000000
#
# Coordination Sequence:
#
# PCOD9194919 Si02
#       6
#     8   4   8   8   8   8
#     4  10  22  38  59  82 113 160 203 242 295 356
#     4  10  20  38  60  84 120 156 196 248 300 360
#     4  10  20  37  58  86 118 153 193 249 297 351
#     4  10  21  37  58  86 122 160 199 248 297 360
#     4  10  20  34  58  89 117 150 191 241 303 363
#     4  10  20  35  59  88 118 154 195 245 306 362
#
# _framework density 18.508997000000001
#
# number of rings (size 3 to 8) (size 9 to 14) (size 15 to 20)
#    0.000    2.000    1.818    1.636    0.000    4.364 
#    0.000    9.091    0.000    1.636    0.000    0.000 
#    0.000    0.000    0.000    0.000    0.000    0.000 
#
# Total GULP energy -122735.831534 kJ/mol
# GULP energy per Si atom -5578.901433 kJ/mol
# Density = 1.846687 g / cm^3
# Si number density = 18.508997 Si / 1000 Ang^3
#
#
#
# Elastic Constant Matrix: (Units=GPa)
#
#
# Indices 1 2 3 4 5 6 
#
# 1 96.9592 40.5437 29.8822 0.0000 12.7095 0.0000
# 2 40.5437 91.1526 24.7987 0.0000 2.5594 0.0000
# 3 29.8822 24.7987 71.5635 0.0000 8.4392 0.0000
# 4 0.0000 0.0000 0.0000 27.1237 0.0000 5.2507
# 5 12.7095 2.5594 8.4392 0.0000 30.9920 0.0000
# 6 0.0000 0.0000 0.0000 5.2507 0.0000 3.6169
#
#
#
# Elastic Compliance Matrix: (Units=1/GPa)
#
#
# Indices 1 2 3 4 5 6 
#
# 1 0.014175 -0.005203 -0.003597 0.000000 -0.004404 0.000000
# 2 -0.005203 0.014023 -0.002895 0.000000 0.001764 0.000000
# 3 -0.003597 -0.002895 0.016816 0.000000 -0.002865 0.000000
# 4 0.000000 0.000000 0.000000 0.051279 0.000000 -0.074443
# 5 -0.004404 0.001764 -0.002865 0.000000 0.034707 0.000000
# 6 0.000000 0.000000 0.000000 -0.074443 0.000000 0.384552
#
#
# Mechanical properties :
#
#
# Convention : Reuss Voigt Hill
#
# Bulk Modulus (GPa) = 46.24123 50.01381 48.12752
# Shear Modulus (GPa) = 9.15502 23.30990 16.23246
#
# Velocity S-wave (km/s) = 2.22643 3.55263 2.96464
# Velocity P-wave (km/s) = 5.62554 6.62633 6.14634
#
# Compressibility (1/GPa) = 0.02162572
#
# Stress axis : x y z
#
# Youngs Moduli (GPa) = 70.54737 71.31275 59.46559
#
# Poissons Ratio (x) = 0.37102 0.21388
# Poissons Ratio (y) = 0.36703 0.17214
# Poissons Ratio (z) = 0.25374 0.20644
#
# Static dielectric constant tensor:
#      x y z
#    x 1.674880 0.000000 0.010040 
#    y 0.000000 1.603440 0.000000 
#    z 0.010040 0.000000 1.640920 
# 
# From -- ./inp_files/94826.got.cif
#   From: 2010.05.17/outbox.cif.g08.bks.cpg/sg12_48_cif.got.tgz:94826.got - 2010.06.03 13:09:07.
