data_PCOD9194224
_publ_section_title
;
Structure prediction by ZEFSAII (Michael W. Deem and Ramdas Pophale) SiO2 
 PCOD9194224
Probable space group: C 2/M
;
_chemical_formula_sum "Si O2"
_cell_formula_units_Z 64
_cell_length_a 24.688640
_cell_length_b 9.394766
_cell_length_c 12.858990
_cell_angle_alpha 90.000000
_cell_angle_beta 91.575676
_cell_angle_gamma 90.000000
_cell_volume 2981.437749
_symmetry_space_group_name_H-M "C 2/M"
_symmetry_group_IT_number 12
_symmetry_cell_setting 'monoclinic'
loop_
_space_group_symop_operation_xyz
x,y,z
-x,y,-z
-x,-y,-z
x,-y,z
1/2+x,1/2+y,z
1/2-x,1/2+y,-z
1/2-x,1/2-y,-z
1/2+x,1/2-y,z
loop_
_atom_site_type_symbol
_atom_site_label
_atom_site_fract_x
_atom_site_fract_y
_atom_site_fract_z
Si Si1 0.390157 0.658411 0.854131
Si Si2 0.832955 0.335024 0.010851
Si Si3 0.403060 0.837479 0.662723
Si Si4 0.533528 0.162432 0.700730
Si Si5 0.269451 0.665330 0.399155
Si Si6 0.394053 0.334789 0.453175
Si Si7 0.514915 0.339654 0.889529
Si Si8 0.263856 0.666332 0.165110
O O1 0.365315 0.500000 0.847629
O O2 0.377936 0.732262 0.963441
O O3 0.375776 0.766813 0.761799
O O4 0.454317 0.641564 0.841752
O O5 0.849077 0.500000 0.023860
O O6 0.786136 0.329389 0.918710
O O7 0.808553 0.267027 0.113881
O O8 0.468583 0.840848 0.679038
O O9 0.390272 0.741431 0.563611
O O10 0.384882 0.000000 0.648733
O O11 0.562234 0.252847 0.613409
O O12 0.545102 0.239170 0.811100
O O13 0.552779 0.000000 0.700961
O O14 0.253906 0.500000 0.412453
O O15 0.250000 0.750000 0.500000
O O16 0.334785 0.673292 0.399169
O O17 0.250606 0.711394 0.282700
O O18 0.409093 0.500000 0.465725
O O19 0.538288 0.500000 0.903687
O O20 0.500000 0.275141 0.000000
O O21 0.281694 0.500000 0.170885
#
# Coordination Sequence:
#
# PCOD9194224 Si02
#       8
#     8   8   8   8   8   8   8   8
#     4  10  20  34  55  83 114 147 186 232 283 338
#     4  10  20  35  59  88 113 145 189 237 289 340
#     4  10  21  37  57  83 116 150 191 238 283 339
#     4  10  21  37  57  83 114 149 189 235 284 336
#     4  10  24  43  61  85 116 153 196 240 289 347
#     4  11  23  38  58  85 113 149 192 234 286 344
#     4   9  19  36  56  79 110 150 188 225 277 337
#     4   9  20  40  60  80 111 149 189 235 289 341
#
# _framework density 21.466152000000001
#
# number of rings (size 3 to 8) (size 9 to 14) (size 15 to 20)
#    0.000    2.125    0.000    2.250    1.750    6.750 
#    0.000    5.000    0.000    0.000    0.000    0.000 
#    0.000    0.000    0.000    0.000    0.000    0.000 
#
# Total GULP energy -178664.262065 kJ/mol
# GULP energy per Si atom -5583.258190 kJ/mol
# Density = 2.141729 g / cm^3
# Si number density = 21.466152 Si / 1000 Ang^3
#
#
#
# Elastic Constant Matrix: (Units=GPa)
#
#
# Indices 1 2 3 4 5 6 
#
# 1 38.2976 28.8287 6.3535 0.0000 -12.0949 0.0000
# 2 28.8287 130.8368 43.6070 0.0000 -19.7569 0.0000
# 3 6.3535 43.6070 122.4986 0.0000 -11.9710 0.0000
# 4 0.0000 0.0000 0.0000 29.9169 0.0000 -15.8856
# 5 -12.0949 -19.7569 -11.9710 0.0000 22.3897 0.0000
# 6 0.0000 0.0000 0.0000 -15.8856 0.0000 8.1818
#
#
#
# Elastic Compliance Matrix: (Units=1/GPa)
#
#
# Indices 1 2 3 4 5 6 
#
# 1 0.034986 -0.006119 0.001776 0.000000 0.014450 0.000000
# 2 -0.006119 0.010686 -0.003047 0.000000 0.004495 0.000000
# 3 0.001776 -0.003047 0.009482 0.000000 0.003340 0.000000
# 4 0.000000 0.000000 0.000000 -1.079296 0.000000 -2.095550
# 5 0.014450 0.004495 0.003340 0.000000 0.058221 0.000000
# 6 0.000000 0.000000 0.000000 -2.095550 0.000000 -3.946478
#
#
# Mechanical properties :
#
#
# Convention : Reuss Voigt Hill
#
# Bulk Modulus (GPa) = 24.76885 49.91241 37.34063
# Shear Modulus (GPa) = -1.02372 26.28724 12.63176
#
# Velocity S-wave (km/s) = -0.69133 3.50321 2.42843
# Velocity P-wave (km/s) = 3.30551 6.29805 5.02951
#
# Compressibility (1/GPa) = 0.04037328
#
# Stress axis : x y z
#
# Youngs Moduli (GPa) = 28.58290 93.58346 105.45795
#
# Poissons Ratio (x) = 0.57261 -0.18725
# Poissons Ratio (y) = 0.17489 0.32136
# Poissons Ratio (z) = -0.05075 0.28518
#
# Static dielectric constant tensor:
#      x y z
#    x 1.828460 0.000000 0.046040 
#    y 0.000000 1.768230 0.000000 
#    z 0.046040 0.000000 1.769170 
# 
# From -- ./inp_files/187572.got.cif
#   From: 2010.05.17/outbox.cif.g08.bks.cpg/sg12_94_cif.got.tgz:187572.got - 2010.06.03 13:09:07.
