data_PCOD9194593
_publ_section_title
;
Structure prediction by ZEFSAII (Michael W. Deem and Ramdas Pophale) SiO2 
 PCOD9194593
Probable space group: C 2/M
;
_chemical_formula_sum "Si O2"
_cell_formula_units_Z 64
_cell_length_a 32.830316
_cell_length_b 9.221991
_cell_length_c 18.559556
_cell_angle_alpha 90.000000
_cell_angle_beta 34.699837
_cell_angle_gamma 90.000000
_cell_volume 3198.829687
_symmetry_space_group_name_H-M "C 2/M"
_symmetry_group_IT_number 12
_symmetry_cell_setting 'monoclinic'
loop_
_space_group_symop_operation_xyz
x,y,z
-x,y,-z
-x,-y,-z
x,-y,z
1/2+x,1/2+y,z
1/2-x,1/2+y,-z
1/2-x,1/2-y,-z
1/2+x,1/2-y,z
loop_
_atom_site_type_symbol
_atom_site_label
_atom_site_fract_x
_atom_site_fract_y
_atom_site_fract_z
Si Si1 0.548103 0.327152 0.858480
Si Si2 0.792759 0.827849 0.802131
Si Si3 0.550742 0.164960 0.580610
Si Si4 0.796795 0.675401 0.368728
Si Si5 0.570386 0.667599 0.318729
Si Si6 0.339898 0.667913 0.959990
Si Si7 0.461954 0.833077 0.859057
Si Si8 0.801203 0.170811 0.625798
O O1 0.559692 0.500000 0.832471
O O2 0.624262 0.244948 0.749866
O O3 0.503503 0.260686 0.857295
O O4 0.500000 0.305438 0.000000
O O5 0.875005 0.786793 0.698111
O O6 0.773808 0.802841 0.746446
O O7 0.786699 0.000000 0.826809
O O8 0.738182 0.736794 0.928779
O O9 0.499703 0.241371 0.596485
O O10 0.507287 0.166776 0.719127
O O11 0.624854 0.244358 0.487808
O O12 0.564114 0.000000 0.539913
O O13 0.800886 0.500000 0.373111
O O14 0.750000 0.750000 0.500000
O O15 0.755119 0.705403 0.354567
O O16 0.549955 0.500000 0.358937
O O17 0.619766 0.675398 0.175099
O O18 0.336753 0.500000 0.985971
O O19 0.386929 0.760272 0.947564
O O20 0.453123 0.000000 0.895537
O O21 0.817488 0.000000 0.596494
#
# Coordination Sequence:
#
# PCOD9194593 Si02
#       8
#     8   8   8   8   8   8   8   8
#     4  11  25  42  62  93 129 162 199 253 315 374
#     4  10  21  37  56  82 115 155 197 238 288 351
#     4  10  21  37  59  86 114 148 195 244 292 344
#     4  11  24  43  67  93 122 164 211 258 310 373
#     4   9  19  36  58  82 114 154 195 238 289 349
#     4  10  20  34  56  86 117 153 193 240 294 346
#     4  10  21  38  61  86 114 153 196 241 291 354
#     4  10  23  40  59  84 115 152 194 239 293 352
#
# _framework density 20.007318999999999
#
# number of rings (size 3 to 8) (size 9 to 14) (size 15 to 20)
#    0.000    1.875    0.000    3.000    1.750    7.500 
#    0.000    2.500    0.000    0.000    0.000    0.000 
#    0.000    0.000    0.000    0.000    0.000    0.000 
#
# Total GULP energy -178836.146211 kJ/mol
# GULP energy per Si atom -5588.629569 kJ/mol
# Density = 1.996178 g / cm^3
# Si number density = 20.007319 Si / 1000 Ang^3
#
#
#
# Elastic Constant Matrix: (Units=GPa)
#
#
# Indices 1 2 3 4 5 6 
#
# 1 130.9473 59.4555 44.9764 -0.0004 -10.9277 0.0004
# 2 59.4555 76.6261 56.9463 -0.0017 -2.1839 0.0006
# 3 44.9764 56.9463 84.8405 -0.0114 -10.7387 0.0026
# 4 -0.0004 -0.0017 -0.0114 28.9263 0.0056 -12.7671
# 5 -10.9277 -2.1839 -10.7387 0.0056 17.6087 -0.0009
# 6 0.0004 0.0006 0.0026 -12.7671 -0.0009 24.3460
#
#
#
# Elastic Compliance Matrix: (Units=1/GPa)
#
#
# Indices 1 2 3 4 5 6 
#
# 1 0.012574 -0.010539 0.001333 -0.000002 0.007309 -0.000001
# 2 -0.010539 0.035970 -0.020395 -0.000004 -0.014517 -0.000001
# 3 0.001333 -0.020395 0.026608 0.000007 0.014525 0.000002
# 4 -0.000002 -0.000004 0.000007 0.044982 -0.000010 0.023588
# 5 0.007309 -0.014517 0.014525 -0.000010 0.068384 -0.000004
# 6 -0.000001 -0.000001 0.000002 0.023588 -0.000004 0.053444
#
#
# Mechanical properties :
#
#
# Convention : Reuss Voigt Hill
#
# Bulk Modulus (GPa) = 62.68883 68.35225 65.52054
# Shear Modulus (GPa) = 16.31434 22.91192 19.61313
#
# Velocity S-wave (km/s) = 2.85865 3.38772 3.13437
# Velocity P-wave (km/s) = 6.50360 7.03846 6.77631
#
# Compressibility (1/GPa) = 0.01595181
#
# Stress axis : x y z
#
# Youngs Moduli (GPa) = 79.53123 27.80064 37.58308
#
# Poissons Ratio (x) = 0.29298 -0.05010
# Poissons Ratio (y) = 0.83815 0.76649
# Poissons Ratio (z) = -0.10603 0.56698
#
# Static dielectric constant tensor:
#      x y z
#    x 1.698770 0.000000 0.029130 
#    y 0.000000 1.674380 0.000000 
#    z 0.029130 0.000000 1.707700 
# 
# From -- ./inp_files/295625.got.cif
#   From: 2010.05.17/outbox.cif.g08.bks.cpg/sg12_148_cif.got.tgz:295625.got - 2010.06.03 13:09:07.
