data_PCOD9194909
_publ_section_title
;
Structure prediction by ZEFSAII (Michael W. Deem and Ramdas Pophale) SiO2 
 PCOD9194909
Probable space group: C 2/M
;
_chemical_formula_sum "Si O2"
_cell_formula_units_Z 56
_cell_length_a 19.682461
_cell_length_b 13.537180
_cell_length_c 19.399921
_cell_angle_alpha 90.000000
_cell_angle_beta 151.260388
_cell_angle_gamma 90.000000
_cell_volume 2485.415177
_symmetry_space_group_name_H-M "C 2/M"
_symmetry_group_IT_number 12
_symmetry_cell_setting 'monoclinic'
loop_
_space_group_symop_operation_xyz
x,y,z
-x,y,-z
-x,-y,-z
x,-y,z
1/2+x,1/2+y,z
1/2-x,1/2+y,-z
1/2-x,1/2-y,-z
1/2+x,1/2-y,z
loop_
_atom_site_type_symbol
_atom_site_label
_atom_site_fract_x
_atom_site_fract_y
_atom_site_fract_z
Si Si1 0.169725 0.223283 0.769777
Si Si2 0.240919 0.118175 0.693667
Si Si3 0.212227 0.891775 0.932555
Si Si4 0.265601 0.382905 0.468252
Si Si5 0.050850 0.617034 0.756695
Si Si6 0.001378 0.252919 0.075870
Si Si7 0.580931 0.389010 0.260374
O O1 0.169106 0.181154 0.691683
O O2 0.131772 0.141393 0.792192
O O3 0.082416 0.319609 0.715777
O O4 0.335390 0.234357 0.940193
O O5 0.199102 0.149175 0.578315
O O6 0.408310 0.145974 0.847671
O O7 0.219383 0.000000 0.683260
O O8 0.085521 0.897715 0.874083
O O9 0.271573 0.000000 0.968450
O O10 0.339857 0.842155 0.088296
O O11 0.297876 0.500000 0.495634
O O12 0.347501 0.344346 0.607921
O O13 0.101454 0.373987 0.343438
O O14 0.076026 0.500000 0.765938
O O15 0.089073 0.184218 0.204495
O O16 0.000000 0.203649 0.000000
O O17 0.637647 0.500000 0.298171
#
# Coordination Sequence:
#
# PCOD9194909 Si02
#       7
#     8   8   8   8   8   8   8
#     4  11  21  35  59  90 125 161 204 253 305 367
#     4  10  22  40  59  88 127 166 205 251 306 362
#     4  10  20  34  58  88 121 159 202 256 308 356
#     4   9  20  39  64  90 121 161 208 253 298 363
#     4  10  20  36  61  94 123 158 205 257 309 360
#     4  10  22  36  59  92 123 158 203 253 308 364
#     4  10  21  39  61  90 123 159 202 252 307 364
#
# _framework density 22.531447
#
# number of rings (size 3 to 8) (size 9 to 14) (size 15 to 20)
#    0.000    2.000    1.429    1.714    2.000    5.143 
#    0.000    2.857    3.143    3.429    0.000   13.000 
#    0.000    0.000    0.000    0.000    0.000    0.000 
#
# Total GULP energy -156119.097682 kJ/mol
# GULP energy per Si atom -5575.682060 kJ/mol
# Density = 2.248016 g / cm^3
# Si number density = 22.531447 Si / 1000 Ang^3
#
#
#
# Elastic Constant Matrix: (Units=GPa)
#
#
# Indices 1 2 3 4 5 6 
#
# 1 99.2626 41.2430 37.9206 -0.0001 -40.1133 -0.0001
# 2 41.2430 100.5823 21.9524 0.0000 -35.0726 -0.0001
# 3 37.9206 21.9524 108.9753 0.0000 -40.9132 0.0000
# 4 -0.0001 0.0000 0.0000 23.0907 0.0000 -5.8806
# 5 -40.1133 -35.0726 -40.9132 0.0000 41.0962 0.0000
# 6 -0.0001 -0.0001 0.0000 -5.8806 0.0000 28.9836
#
#
#
# Elastic Compliance Matrix: (Units=1/GPa)
#
#
# Indices 1 2 3 4 5 6 
#
# 1 0.016834 -0.001636 0.000186 0.000000 0.015220 0.000000
# 2 -0.001636 0.014824 0.002768 0.000000 0.013810 0.000000
# 3 0.000186 0.002768 0.015185 0.000000 0.017661 0.000000
# 4 0.000000 0.000000 0.000000 0.045667 0.000000 0.009266
# 5 0.015220 0.013810 0.017661 0.000000 0.068557 0.000000
# 6 0.000000 0.000000 0.000000 0.009266 0.000000 0.036382
#
#
# Mechanical properties :
#
#
# Convention : Reuss Voigt Hill
#
# Bulk Modulus (GPa) = 20.21085 56.78359 38.49722
# Shear Modulus (GPa) = 23.66237 32.48105 28.07171
#
# Velocity S-wave (km/s) = 3.24418 3.80094 3.53355
# Velocity P-wave (km/s) = 4.79818 6.67230 5.81128
#
# Compressibility (1/GPa) = 0.04947837
#
# Stress axis : x y z
#
# Youngs Moduli (GPa) = 59.40527 67.45641 65.85648
#
# Poissons Ratio (x) = 0.11035 -0.01225
# Poissons Ratio (y) = 0.09718 -0.18228
# Poissons Ratio (z) = -0.01105 -0.18671
#
# Static dielectric constant tensor:
#      x y z
#    x 2.945380 0.000000 0.350770 
#    y 0.000000 1.929090 0.000000 
#    z 0.350770 0.000000 1.992990 
# 
# From -- ./inp_files/284560.got.cif
#   From: 2010.05.17/outbox.cif.g08.bks.cpg/sg12_143_cif.got.tgz:284560.got - 2010.06.03 13:09:07.
