data_PCOD9194489
_publ_section_title
;
Structure prediction by ZEFSAII (Michael W. Deem and Ramdas Pophale) SiO2 
 PCOD9194489
Probable space group: C 2/M
;
_chemical_formula_sum "Si O2"
_cell_formula_units_Z 40
_cell_length_a 25.205581
_cell_length_b 11.675698
_cell_length_c 12.269318
_cell_angle_alpha 90.000000
_cell_angle_beta 30.178763
_cell_angle_gamma 90.000000
_cell_volume 1815.133185
_symmetry_space_group_name_H-M "C 2/M"
_symmetry_group_IT_number 12
_symmetry_cell_setting 'monoclinic'
loop_
_space_group_symop_operation_xyz
x,y,z
-x,y,-z
-x,-y,-z
x,-y,z
1/2+x,1/2+y,z
1/2-x,1/2+y,-z
1/2-x,1/2-y,-z
1/2+x,1/2-y,z
loop_
_atom_site_type_symbol
_atom_site_label
_atom_site_fract_x
_atom_site_fract_y
_atom_site_fract_z
Si Si1 0.741136 0.701515 0.189568
Si Si2 0.721923 0.369396 0.680449
Si Si3 0.577484 0.763267 0.773132
Si Si4 0.981378 0.129621 0.333890
Si Si5 0.899444 0.316399 0.738562
O O1 0.785564 0.777410 0.209179
O O2 0.641403 0.630535 0.410207
O O3 0.685172 0.789147 0.204525
O O4 0.831902 0.636624 0.960514
O O5 0.704532 0.500000 0.744462
O O6 0.644195 0.331574 0.721722
O O7 0.840157 0.351910 0.423950
O O8 0.519814 0.698300 0.777315
O O9 0.500000 0.815952 0.000000
O O10 0.050123 0.200583 0.298614
O O11 0.018200 0.000000 0.258223
O O12 0.000000 0.373106 0.500000
#
# Coordination Sequence:
#
# PCOD9194489 Si02
#       5
#     8   8   8   8   8
#     4   9  19  34  52  77 110 141 177 226 270 315
#     4  10  21  37  57  81 110 147 184 219 271 330
#     4  10  21  36  56  84 115 142 178 229 272 318
#     4  10  20  34  56  84 111 143 183 225 273 324
#     4   9  18  33  53  75 106 141 178 223 270 315
#
# _framework density 22.036950000000001
#
# number of rings (size 3 to 8) (size 9 to 14) (size 15 to 20)
#    0.000    2.400    0.000    1.800    0.000    8.000 
#    0.000    5.000    0.000   40.800    0.000    0.000 
#    0.000    0.000    0.000    0.000    0.000    0.000 
#
# Total GULP energy -111607.573460 kJ/mol
# GULP energy per Si atom -5580.378673 kJ/mol
# Density = 2.198679 g / cm^3
# Si number density = 22.036950 Si / 1000 Ang^3
#
#
#
# Elastic Constant Matrix: (Units=GPa)
#
#
# Indices 1 2 3 4 5 6 
#
# 1 103.9127 17.2516 5.8168 0.0000 8.4046 0.0000
# 2 17.2516 62.1841 -0.1910 0.0000 -2.9255 0.0000
# 3 5.8168 -0.1910 180.1056 0.0000 10.7943 0.0000
# 4 0.0000 0.0000 0.0000 -18.0734 0.0000 -11.4120
# 5 8.4046 -2.9255 10.7943 0.0000 37.9741 0.0000
# 6 0.0000 0.0000 0.0000 -11.4120 0.0000 -6.1550
#
#
#
# Elastic Compliance Matrix: (Units=1/GPa)
#
#
# Indices 1 2 3 4 5 6 
#
# 1 0.010328 -0.002982 -0.000189 0.000000 -0.002462 0.000000
# 2 -0.002982 0.017001 -0.000004 0.000000 0.001971 0.000000
# 3 -0.000189 -0.000004 0.005652 0.000000 -0.001565 0.000000
# 4 0.000000 0.000000 0.000000 0.324094 0.000000 -0.600901
# 5 -0.002462 0.001971 -0.001565 0.000000 0.027475 0.000000
# 6 0.000000 0.000000 0.000000 -0.600901 0.000000 0.951659
#
#
# Mechanical properties :
#
#
# Convention : Reuss Voigt Hill
#
# Bulk Modulus (GPa) = 37.54853 43.55081 40.54967
# Shear Modulus (GPa) = 3.69977 24.30414 14.00195
#
# Velocity S-wave (km/s) = 1.29713 3.32457 2.52342
# Velocity P-wave (km/s) = 4.39537 5.87729 5.18950
#
# Compressibility (1/GPa) = 0.02663220
#
# Stress axis : x y z
#
# Youngs Moduli (GPa) = 96.82238 58.81940 176.92207
#
# Poissons Ratio (x) = 0.17538 0.03347
# Poissons Ratio (y) = 0.28870 0.00067
# Poissons Ratio (z) = 0.01832 0.00022
#
# Static dielectric constant tensor:
#      x y z
#    x 1.745500 0.000000 0.001720 
#    y 0.000000 1.711630 0.000000 
#    z 0.001720 0.000000 1.933380 
# 
# From -- ./inp_files/140475.got.cif
#   From: 2010.05.17/outbox.cif.g08.bks.cpg/sg12_71_cif.got.tgz:140475.got - 2010.06.03 13:09:07.
