data_PCOD9194729
_publ_section_title
;
Structure prediction by ZEFSAII (Michael W. Deem and Ramdas Pophale) SiO2 
 PCOD9194729
Probable space group: C 2/M
;
_chemical_formula_sum "Si O2"
_cell_formula_units_Z 40
_cell_length_a 26.471546
_cell_length_b 15.706590
_cell_length_c 17.892000
_cell_angle_alpha 90.000000
_cell_angle_beta 14.611637
_cell_angle_gamma 90.000000
_cell_volume 1876.629975
_symmetry_space_group_name_H-M "C 2/M"
_symmetry_group_IT_number 12
_symmetry_cell_setting 'monoclinic'
loop_
_space_group_symop_operation_xyz
x,y,z
-x,y,-z
-x,-y,-z
x,-y,z
1/2+x,1/2+y,z
1/2-x,1/2+y,-z
1/2-x,1/2-y,-z
1/2+x,1/2-y,z
loop_
_atom_site_type_symbol
_atom_site_label
_atom_site_fract_x
_atom_site_fract_y
_atom_site_fract_z
Si Si1 0.301227 0.678519 0.823863
Si Si2 0.721546 0.403801 0.742026
Si Si3 0.645655 0.129148 0.197706
Si Si4 0.001630 0.092175 0.789123
Si Si5 0.360336 0.230935 0.420151
O O1 0.500000 0.645471 0.500000
O O2 0.362889 0.771432 0.767445
O O3 0.248043 0.621548 0.970635
O O4 0.089440 0.694236 0.083831
O O5 0.705189 0.500000 0.734017
O O6 0.751953 0.331093 0.635281
O O7 0.923237 0.401324 0.502402
O O8 0.547607 0.390498 0.052755
O O9 0.788135 0.088010 0.053886
O O10 0.108802 0.171799 0.596186
O O11 0.102355 0.000000 0.639335
O O12 0.250000 0.250000 0.500000
#
# Coordination Sequence:
#
# PCOD9194729 Si02
#       5
#     8   8   8   8   8
#     4   9  17  31  53  80 109 147 191 231 279 340
#     4  10  20  35  58  87 115 147 189 235 284 340
#     4   9  16  28  52  83 113 142 181 234 286 330
#     4  10  20  34  57  86 113 145 188 235 285 341
#     4  10  22  37  54  80 116 152 187 233 284 332
#
# _framework density 21.314805
#
# number of rings (size 3 to 8) (size 9 to 14) (size 15 to 20)
#    0.000    2.400    0.000    4.800    0.000    3.200 
#    0.000    2.000    0.000   21.000    0.000    7.000 
#    0.000    0.000    0.000    0.000    0.000    0.000 
#
# Total GULP energy -111438.254739 kJ/mol
# GULP energy per Si atom -5571.912737 kJ/mol
# Density = 2.126629 g / cm^3
# Si number density = 21.314805 Si / 1000 Ang^3
#
#
#
# Elastic Constant Matrix: (Units=GPa)
#
#
# Indices 1 2 3 4 5 6 
#
# 1 126.1998 33.0743 29.6182 -0.0076 -17.2945 -0.0020
# 2 33.0743 132.0179 17.2682 -0.0159 14.2166 0.0033
# 3 29.6182 17.2682 61.2504 -0.0176 10.7637 0.0117
# 4 -0.0076 -0.0159 -0.0176 5.6795 0.0124 16.2652
# 5 -17.2945 14.2166 10.7637 0.0124 32.4317 -0.0007
# 6 -0.0020 0.0033 0.0117 16.2652 -0.0007 3.9421
#
#
#
# Elastic Compliance Matrix: (Units=1/GPa)
#
#
# Indices 1 2 3 4 5 6 
#
# 1 0.011564 -0.003098 -0.006415 0.000011 0.009654 -0.000016
# 2 -0.003098 0.008956 -0.000050 -0.000006 -0.005561 0.000013
# 3 -0.006415 -0.000050 0.021281 -0.000026 -0.010462 0.000037
# 4 0.000011 -0.000006 -0.000026 -0.016278 0.000024 0.067165
# 5 0.009654 -0.005561 -0.010462 0.000024 0.041892 -0.000053
# 6 -0.000016 0.000013 0.000037 0.067165 -0.000053 -0.023453
#
#
# Mechanical properties :
#
#
# Convention : Reuss Voigt Hill
#
# Bulk Modulus (GPa) = 44.09892 53.26550 48.68221
# Shear Modulus (GPa) = 70.77463 24.37783 47.57623
#
# Velocity S-wave (km/s) = 5.76858 3.38554 4.72961
# Velocity P-wave (km/s) = 8.06864 6.35033 7.26050
#
# Compressibility (1/GPa) = 0.02267629
#
# Stress axis : x y z
#
# Youngs Moduli (GPa) = 86.47271 111.65474 46.99008
#
# Poissons Ratio (x) = 0.34587 0.30145
# Poissons Ratio (y) = 0.26786 0.00234
# Poissons Ratio (z) = 0.55474 0.00556
#
# Static dielectric constant tensor:
#      x y z
#    x 1.811510 0.000000 -0.007660 
#    y 0.000000 1.830940 0.000010 
#    z -0.007660 0.000010 1.831190 
# 
# From -- ./inp_files/241229.got.cif
#   From: 2010.05.17/outbox.cif.g08.bks.cpg/sg12_121_cif.got.tgz:241229.got - 2010.06.03 13:09:07.
