data_PCOD9194190
_publ_section_title
;
Structure prediction by ZEFSAII (Michael W. Deem and Ramdas Pophale) SiO2 
 PCOD9194190
Probable space group: C 2/M
;
_chemical_formula_sum "Si O2"
_cell_formula_units_Z 56
_cell_length_a 14.741075
_cell_length_b 22.887300
_cell_length_c 14.232173
_cell_angle_alpha 90.000000
_cell_angle_beta 39.513979
_cell_angle_gamma 90.000000
_cell_volume 3055.160034
_symmetry_space_group_name_H-M "C 2/M"
_symmetry_group_IT_number 12
_symmetry_cell_setting 'monoclinic'
loop_
_space_group_symop_operation_xyz
x,y,z
-x,y,-z
-x,-y,-z
x,-y,z
1/2+x,1/2+y,z
1/2-x,1/2+y,-z
1/2-x,1/2-y,-z
1/2+x,1/2-y,z
loop_
_atom_site_type_symbol
_atom_site_label
_atom_site_fract_x
_atom_site_fract_y
_atom_site_fract_z
Si Si1 0.720714 0.659343 0.076308
Si Si2 0.502580 0.175113 0.641443
Si Si3 0.118246 0.566599 0.170291
Si Si4 0.787243 0.728504 0.676270
Si Si5 0.518216 0.757496 0.152174
Si Si6 0.646651 0.639019 0.347560
Si Si7 0.411170 0.065327 0.159071
O O1 0.608824 0.702771 0.117333
O O2 0.661846 0.637701 0.222875
O O3 0.758242 0.607103 0.974236
O O4 0.864921 0.697247 0.983207
O O5 0.462799 0.107399 0.689285
O O6 0.356250 0.203805 0.717177
O O7 0.631999 0.189994 0.467651
O O8 0.536592 0.206644 0.712726
O O9 0.156242 0.500000 0.168420
O O10 0.010643 0.561819 0.168979
O O11 0.616990 0.734974 0.799733
O O12 0.843342 0.794533 0.625664
O O13 0.500000 0.612881 0.500000
O O14 0.778550 0.605201 0.284700
O O15 0.363744 0.000000 0.169512
O O16 0.500000 0.089051 0.000000
#
# Coordination Sequence:
#
# PCOD9194190 Si02
#       7
#     8   8   8   8   8   8   8
#     4  10  20  35  52  85 115 150 199 234 291 359
#     4  10  20  38  56  90 117 149 201 231 298 364
#     4  10  21  39  61  80 112 155 205 253 283 337
#     4  11  21  35  57  85 124 156 186 243 299 355
#     4  10  20  34  55  82 120 153 191 241 293 349
#     4  12  21  34  54  86 126 153 184 239 300 357
#     4  10  21  37  58  84 112 154 202 238 289 356
#
# _framework density 18.329644999999999
#
# number of rings (size 3 to 8) (size 9 to 14) (size 15 to 20)
#    0.000    1.571    4.286    2.143    0.000    1.429 
#    0.000    1.429    0.000    2.571    0.000    0.000 
#    0.000    0.000    0.000    0.000    0.000    0.000 
#
# Total GULP energy -156172.529084 kJ/mol
# GULP energy per Si atom -5577.590324 kJ/mol
# Density = 1.828793 g / cm^3
# Si number density = 18.329645 Si / 1000 Ang^3
#
#
#
# Elastic Constant Matrix: (Units=GPa)
#
#
# Indices 1 2 3 4 5 6 
#
# 1 57.6415 1.7150 0.5240 -0.0004 -21.5048 0.0001
# 2 1.7150 94.9001 11.6769 -0.0001 -10.0838 -0.0006
# 3 0.5240 11.6769 62.4156 -0.0018 -7.2924 0.0001
# 4 -0.0004 -0.0001 -0.0018 31.8969 -0.0006 -5.0218
# 5 -21.5048 -10.0838 -7.2924 -0.0006 27.4615 -0.0014
# 6 0.0001 -0.0006 0.0001 -5.0218 -0.0014 26.9525
#
#
#
# Elastic Compliance Matrix: (Units=1/GPa)
#
#
# Indices 1 2 3 4 5 6 
#
# 1 0.024981 0.001504 0.001919 0.000001 0.020624 0.000001
# 2 0.001504 0.011219 -0.001540 0.000000 0.004888 0.000001
# 3 0.001919 -0.001540 0.016928 0.000001 0.005432 0.000000
# 4 0.000001 0.000000 0.000001 0.032298 0.000002 0.006018
# 5 0.020624 0.004888 0.005432 0.000002 0.055802 0.000003
# 6 0.000001 0.000001 0.000000 0.006018 0.000003 0.038223
#
#
# Mechanical properties :
#
#
# Convention : Reuss Voigt Hill
#
# Bulk Modulus (GPa) = 17.57706 26.97656 22.27681
# Shear Modulus (GPa) = 25.68678 30.66494 28.17586
#
# Velocity S-wave (km/s) = 3.74756 4.09463 3.92493
# Velocity P-wave (km/s) = 5.32314 6.09131 5.72014
#
# Compressibility (1/GPa) = 0.05689234
#
# Stress axis : x y z
#
# Youngs Moduli (GPa) = 40.03087 89.13322 59.07241
#
# Poissons Ratio (x) = -0.13405 -0.11333
# Poissons Ratio (y) = -0.06020 0.09100
# Poissons Ratio (z) = -0.07680 0.13730
#
# Static dielectric constant tensor:
#      x y z
#    x 1.643430 0.000000 0.008950 
#    y 0.000000 1.664640 0.000000 
#    z 0.008950 0.000000 1.661040 
# 
# From -- ./inp_files/218253.got.cif
#   From: 2010.05.17/outbox.cif.g08.bks.cpg/sg12_110_cif.got.tgz:218253.got - 2010.06.03 13:09:07.
