data_PCOD9194775
_publ_section_title
;
Structure prediction by ZEFSAII (Michael W. Deem and Ramdas Pophale) SiO2 
 PCOD9194775
Probable space group: C 2/M
;
_chemical_formula_sum "Si O2"
_cell_formula_units_Z 48
_cell_length_a 9.829524
_cell_length_b 28.153563
_cell_length_c 16.439546
_cell_angle_alpha 90.000000
_cell_angle_beta 31.694061
_cell_angle_gamma 90.000000
_cell_volume 2390.188026
_symmetry_space_group_name_H-M "C 2/M"
_symmetry_group_IT_number 12
_symmetry_cell_setting 'monoclinic'
loop_
_space_group_symop_operation_xyz
x,y,z
-x,y,-z
-x,-y,-z
x,-y,z
1/2+x,1/2+y,z
1/2-x,1/2+y,-z
1/2-x,1/2-y,-z
1/2+x,1/2-y,z
loop_
_atom_site_type_symbol
_atom_site_label
_atom_site_fract_x
_atom_site_fract_y
_atom_site_fract_z
Si Si1 0.104323 0.446916 0.855144
Si Si2 0.478811 0.841048 0.359506
Si Si3 0.218112 0.274252 0.674410
Si Si4 0.735447 0.892363 0.091598
Si Si5 0.411286 0.351955 0.705789
Si Si6 0.529764 0.319168 0.147327
O O1 0.196542 0.500000 0.788775
O O2 0.311340 0.404866 0.741831
O O3 0.869967 0.430779 0.916709
O O4 0.000000 0.446600 0.000000
O O5 0.426987 0.793582 0.332176
O O6 0.526169 0.880935 0.266994
O O7 0.220002 0.849414 0.540489
O O8 0.740030 0.839194 0.278247
O O9 0.500000 0.254530 0.500000
O O10 0.293573 0.316483 0.698043
O O11 0.034706 0.236439 0.812137
O O12 0.000000 0.907160 0.000000
O O13 0.801987 0.842996 0.009727
O O14 0.349706 0.335534 0.828578
#
# Coordination Sequence:
#
# PCOD9194775 Si02
#       6
#     8   8   8   8   8   8
#     4  11  23  43  67  90 115 152 202 250 303 357
#     4  10  21  37  56  85 127 155 197 247 291 346
#     4  10  20  34  57  87 124 162 204 242 290 347
#     4  10  22  40  59  88 121 155 194 245 302 351
#     4  11  21  38  63  87 119 160 201 247 296 343
#     4  11  21  35  58  87 122 168 200 232 292 356
#
# _framework density 20.082101999999999
#
# number of rings (size 3 to 8) (size 9 to 14) (size 15 to 20)
#    0.000    1.500    3.333    2.500    0.000    3.667 
#    0.000    4.167    0.000    3.000    0.000    0.000 
#    0.000    0.000    0.000    0.000    0.000    0.000 
#
# Total GULP energy -134076.674596 kJ/mol
# GULP energy per Si atom -5586.528108 kJ/mol
# Density = 2.003639 g / cm^3
# Si number density = 20.082102 Si / 1000 Ang^3
#
#
#
# Elastic Constant Matrix: (Units=GPa)
#
#
# Indices 1 2 3 4 5 6 
#
# 1 84.4949 13.1904 3.8293 0.0000 5.3034 0.0000
# 2 13.1904 110.3804 8.2110 0.0000 1.9088 0.0000
# 3 3.8293 8.2110 39.4896 0.0000 0.0444 -0.0001
# 4 0.0000 0.0000 0.0000 115.1011 0.0000 133.1224
# 5 5.3034 1.9088 0.0444 0.0000 25.0988 0.0000
# 6 0.0000 0.0000 -0.0001 133.1224 0.0000 179.7713
#
#
#
# Elastic Compliance Matrix: (Units=1/GPa)
#
#
# Indices 1 2 3 4 5 6 
#
# 1 0.012243 -0.001353 -0.000903 0.000000 -0.002482 0.000000
# 2 -0.001353 0.009364 -0.001815 0.000000 -0.000423 0.000000
# 3 -0.000903 -0.001815 0.025788 0.000000 0.000283 0.000000
# 4 0.000000 0.000000 0.000000 0.060523 0.000000 -0.044818
# 5 -0.002482 -0.000423 0.000283 0.000000 0.040399 0.000000
# 6 0.000000 0.000000 0.000000 -0.044818 0.000000 0.038751
#
#
# Mechanical properties :
#
#
# Convention : Reuss Voigt Hill
#
# Bulk Modulus (GPa) = 25.47657 31.64739 28.56198
# Shear Modulus (GPa) = 24.00459 77.93650 50.97055
#
# Velocity S-wave (km/s) = 3.46109 6.23644 5.04343
# Velocity P-wave (km/s) = 5.35593 8.22501 6.94035
#
# Compressibility (1/GPa) = 0.03925175
#
# Stress axis : x y z
#
# Youngs Moduli (GPa) = 81.67943 106.79646 38.77802
#
# Poissons Ratio (x) = 0.14449 0.03502
# Poissons Ratio (y) = 0.11051 0.07039
# Poissons Ratio (z) = 0.07377 0.19387
#
# Static dielectric constant tensor:
#      x y z
#    x 1.712520 0.000000 0.002640 
#    y 0.000000 1.717030 0.000000 
#    z 0.002640 0.000000 1.712110 
# 
# From -- ./inp_files/200143.got.cif
#   From: 2010.05.17/outbox.cif.g08.bks.cpg/sg12_101_cif.got.tgz:200143.got - 2010.06.03 13:09:07.
