data_PCOD9194092
_publ_section_title
;
Structure prediction by ZEFSAII (Michael W. Deem and Ramdas Pophale) SiO2 
 PCOD9194092
Probable space group: C 2/M
;
_chemical_formula_sum "Si O2"
_cell_formula_units_Z 48
_cell_length_a 12.654372
_cell_length_b 13.035224
_cell_length_c 15.814066
_cell_angle_alpha 90.000000
_cell_angle_beta 95.245504
_cell_angle_gamma 90.000000
_cell_volume 2597.646464
_symmetry_space_group_name_H-M "C 2/M"
_symmetry_group_IT_number 12
_symmetry_cell_setting 'monoclinic'
loop_
_space_group_symop_operation_xyz
x,y,z
-x,y,-z
-x,-y,-z
x,-y,z
1/2+x,1/2+y,z
1/2-x,1/2+y,-z
1/2-x,1/2-y,-z
1/2+x,1/2-y,z
loop_
_atom_site_type_symbol
_atom_site_label
_atom_site_fract_x
_atom_site_fract_y
_atom_site_fract_z
Si Si1 0.856871 0.881766 0.222927
Si Si2 0.743288 0.767645 0.360990
Si Si3 0.373378 0.122228 0.493005
Si Si4 0.086411 0.800523 0.203676
Si Si5 0.515197 0.116966 0.903279
Si Si6 0.236816 0.707944 0.904872
O O1 0.819150 0.841152 0.311371
O O2 0.797903 0.806776 0.152926
O O3 0.982376 0.865215 0.217800
O O4 0.828455 0.000000 0.209016
O O5 0.677792 0.832380 0.425168
O O6 0.814367 0.682916 0.413569
O O7 0.660925 0.715263 0.290101
O O8 0.500000 0.140929 0.500000
O O9 0.356179 0.000000 0.486102
O O10 0.044717 0.690816 0.165706
O O11 0.159268 0.838793 0.131403
O O12 0.639657 0.129403 0.894598
O O13 0.479419 0.000000 0.893267
O O14 0.500000 0.150294 0.000000
O O15 0.250000 0.750000 0.000000
#
# Coordination Sequence:
#
# PCOD9194092 Si02
#       6
#     8   8   8   8   8   8
#     4  10  22  37  56  81 111 151 192 232 282 342
#     4  10  21  39  59  87 119 152 187 234 288 342
#     4  10  21  38  63  90 117 148 188 235 287 345
#     4  10  21  37  57  79 117 152 187 238 280 338
#     4  10  20  34  55  81 107 144 191 235 282 331
#     4  10  20  36  54  78 113 147 187 240 287 329
#
# _framework density 18.478263999999999
#
# number of rings (size 3 to 8) (size 9 to 14) (size 15 to 20)
#    0.000    2.000    1.667    1.500    0.000    5.333 
#    0.000   10.833    0.000    5.500    0.000    0.000 
#    0.000    0.000    0.000    0.000    0.000    0.000 
#
# Total GULP energy -133951.304796 kJ/mol
# GULP energy per Si atom -5581.304367 kJ/mol
# Density = 1.843621 g / cm^3
# Si number density = 18.478264 Si / 1000 Ang^3
#
#
#
# Elastic Constant Matrix: (Units=GPa)
#
#
# Indices 1 2 3 4 5 6 
#
# 1 118.3241 18.7599 38.5833 0.0000 -17.6989 0.0000
# 2 18.7599 74.2248 36.3479 0.0000 -2.5143 0.0000
# 3 38.5833 36.3479 114.3046 0.0000 -5.2946 0.0000
# 4 0.0000 0.0000 0.0000 2.7883 0.0000 -2.2984
# 5 -17.6989 -2.5143 -5.2946 0.0000 32.4174 0.0000
# 6 0.0000 0.0000 0.0000 -2.2984 0.0000 9.5384
#
#
#
# Elastic Compliance Matrix: (Units=1/GPa)
#
#
# Indices 1 2 3 4 5 6 
#
# 1 0.010326 -0.001002 -0.002932 0.000000 0.005081 0.000000
# 2 -0.001002 0.016060 -0.004772 0.000000 -0.000081 0.000000
# 3 -0.002932 -0.004772 0.011250 0.000000 -0.000133 0.000000
# 4 0.000000 0.000000 0.000000 0.447537 0.000000 0.107838
# 5 0.005081 -0.000081 -0.000133 0.000000 0.033594 0.000000
# 6 0.000000 0.000000 0.000000 0.107838 0.000000 0.130824
#
#
# Mechanical properties :
#
#
# Convention : Reuss Voigt Hill
#
# Bulk Modulus (GPa) = 49.44731 54.91508 52.18120
# Shear Modulus (GPa) = 7.42121 23.15964 15.29042
#
# Velocity S-wave (km/s) = 2.00622 3.54410 2.87972
# Velocity P-wave (km/s) = 5.67313 6.82135 6.27356
#
# Compressibility (1/GPa) = 0.02022355
#
# Stress axis : x y z
#
# Youngs Moduli (GPa) = 96.84065 62.26563 88.89274
#
# Poissons Ratio (x) = 0.06240 0.26059
# Poissons Ratio (y) = 0.09705 0.42424
# Poissons Ratio (z) = 0.28389 0.29716
#
# Static dielectric constant tensor:
#      x y z
#    x 1.659170 0.000000 -0.014200 
#    y 0.000000 1.599480 0.000000 
#    z -0.014200 0.000000 1.624120 
# 
# From -- ./inp_files/204517.got.cif
#   From: 2010.05.17/outbox.cif.g08.bks.cpg/sg12_103_cif.got.tgz:204517.got - 2010.06.03 13:09:07.
