data_PCOD9194322
_publ_section_title
;
Structure prediction by ZEFSAII (Michael W. Deem and Ramdas Pophale) SiO2 
 PCOD9194322
Probable space group: C 2/M
;
_chemical_formula_sum "Si O2"
_cell_formula_units_Z 64
_cell_length_a 20.366573
_cell_length_b 23.244396
_cell_length_c 12.193335
_cell_angle_alpha 90.000000
_cell_angle_beta 36.681229
_cell_angle_gamma 90.000000
_cell_volume 3448.233306
_symmetry_space_group_name_H-M "C 2/M"
_symmetry_group_IT_number 12
_symmetry_cell_setting 'monoclinic'
loop_
_space_group_symop_operation_xyz
x,y,z
-x,y,-z
-x,-y,-z
x,-y,z
1/2+x,1/2+y,z
1/2-x,1/2+y,-z
1/2-x,1/2-y,-z
1/2+x,1/2-y,z
loop_
_atom_site_type_symbol
_atom_site_label
_atom_site_fract_x
_atom_site_fract_y
_atom_site_fract_z
Si Si1 0.095492 0.760127 0.612371
Si Si2 0.862929 0.816828 0.897489
Si Si3 0.068098 0.432427 0.163289
Si Si4 0.710184 0.735130 0.229517
Si Si5 0.675565 0.933234 0.429079
Si Si6 0.220429 0.654866 0.545565
Si Si7 0.390876 0.847447 0.090873
Si Si8 0.769374 0.066772 0.059607
O O1 0.128842 0.754049 0.439534
O O2 0.129358 0.700371 0.623549
O O3 0.174094 0.807688 0.563093
O O4 0.971758 0.782442 0.786672
O O5 0.842572 0.802072 0.797295
O O6 0.760294 0.791351 0.104150
O O7 0.862150 0.885080 0.917575
O O8 0.067752 0.500000 0.134607
O O9 0.172834 0.421990 0.100642
O O10 0.954353 0.420870 0.380041
O O11 0.077423 0.393313 0.043609
O O12 0.812347 0.700147 0.143654
O O13 0.738567 0.890999 0.426504
O O14 0.715672 0.926350 0.251441
O O15 0.692300 0.000000 0.436789
O O16 0.175609 0.626285 0.716991
O O17 0.500000 0.822131 0.000000
O O18 0.804708 0.000000 0.001006
#
# Coordination Sequence:
#
# PCOD9194322 Si02
#       8
#     8   8   8   8   8   8   8   8
#     4  10  22  39  59  83 116 159 192 240 298 354
#     4  11  21  38  61  86 116 152 199 244 293 345
#     4  10  20  34  55  85 118 156 195 237 297 351
#     4  10  22  36  57  89 115 149 195 242 290 344
#     4  10  20  35  58  85 116 156 197 240 293 350
#     4  10  21  37  56  84 120 152 193 240 294 353
#     4  11  19  33  54  83 120 153 184 235 290 351
#     4  10  21  38  58  84 119 154 197 250 292 342
#
# _framework density 18.560227999999999
#
# number of rings (size 3 to 8) (size 9 to 14) (size 15 to 20)
#    0.000    1.750    2.500    2.250    0.000    2.250 
#    0.000    7.500    0.000    3.750    0.000    0.000 
#    0.000    0.000    0.000    0.000    0.000    0.000 
#
# Total GULP energy -178622.112332 kJ/mol
# GULP energy per Si atom -5581.941010 kJ/mol
# Density = 1.851798 g / cm^3
# Si number density = 18.560228 Si / 1000 Ang^3
#
#
#
# Elastic Constant Matrix: (Units=GPa)
#
#
# Indices 1 2 3 4 5 6 
#
# 1 71.2957 31.5005 23.1317 0.0000 14.9441 0.0000
# 2 31.5005 60.2682 40.4846 0.0000 14.6187 0.0000
# 3 23.1317 40.4846 73.2236 -0.0002 12.0326 0.0000
# 4 0.0000 0.0000 -0.0002 26.0920 0.0000 4.7600
# 5 14.9441 14.6187 12.0326 0.0000 23.1091 0.0000
# 6 0.0000 0.0000 0.0000 4.7600 0.0000 23.3891
#
#
#
# Elastic Compliance Matrix: (Units=1/GPa)
#
#
# Indices 1 2 3 4 5 6 
#
# 1 0.019203 -0.007988 -0.000481 0.000000 -0.007114 0.000000
# 2 -0.007988 0.031991 -0.013875 0.000000 -0.007847 0.000000
# 3 -0.000481 -0.013875 0.021856 0.000000 -0.002293 0.000000
# 4 0.000000 0.000000 0.000000 0.039804 0.000000 -0.008101
# 5 -0.007114 -0.007847 -0.002293 0.000000 0.054032 0.000000
# 6 0.000000 0.000000 0.000000 -0.008101 0.000000 0.044403
#
#
# Mechanical properties :
#
#
# Convention : Reuss Voigt Hill
#
# Bulk Modulus (GPa) = 35.25633 43.89123 39.57378
# Shear Modulus (GPa) = 18.83733 21.82944 20.33338
#
# Velocity S-wave (km/s) = 3.18925 3.43321 3.31348
# Velocity P-wave (km/s) = 5.70952 6.27816 6.00058
#
# Compressibility (1/GPa) = 0.02836370
#
# Stress axis : x y z
#
# Youngs Moduli (GPa) = 52.07616 31.25849 45.75308
#
# Poissons Ratio (x) = 0.24970 0.02199
# Poissons Ratio (y) = 0.41600 0.63481
# Poissons Ratio (z) = 0.02502 0.43370
#
# Static dielectric constant tensor:
#      x y z
#    x 1.629240 0.000000 0.001980 
#    y 0.000000 1.632280 0.000000 
#    z 0.001980 0.000000 1.646820 
# 
# From -- ./inp_files/169647.got.cif
#   From: 2010.05.17/outbox.cif.g08.bks.cpg/sg12_85_cif.got.tgz:169647.got - 2010.06.03 13:09:07.
