data_PCOD9194831
_publ_section_title
;
Structure prediction by ZEFSAII (Michael W. Deem and Ramdas Pophale) SiO2 
 PCOD9194831
Probable space group: C 2/M
;
_chemical_formula_sum "Si O2"
_cell_formula_units_Z 64
_cell_length_a 11.634018
_cell_length_b 30.465742
_cell_length_c 9.123410
_cell_angle_alpha 90.000000
_cell_angle_beta 94.363431
_cell_angle_gamma 90.000000
_cell_volume 3224.319425
_symmetry_space_group_name_H-M "C 2/M"
_symmetry_group_IT_number 12
_symmetry_cell_setting 'monoclinic'
loop_
_space_group_symop_operation_xyz
x,y,z
-x,y,-z
-x,-y,-z
x,-y,z
1/2+x,1/2+y,z
1/2-x,1/2+y,-z
1/2-x,1/2-y,-z
1/2+x,1/2-y,z
loop_
_atom_site_type_symbol
_atom_site_label
_atom_site_fract_x
_atom_site_fract_y
_atom_site_fract_z
Si Si1 0.190727 0.385832 0.309854
Si Si2 0.003078 0.549883 0.824199
Si Si3 0.617888 0.637173 0.169010
Si Si4 0.609197 0.736885 0.617553
Si Si5 0.776506 0.322756 0.436216
Si Si6 0.271313 0.450997 0.792207
Si Si7 0.868030 0.832613 0.142692
Si Si8 0.630472 0.550179 0.527431
O O1 0.082799 0.413483 0.243899
O O2 0.162419 0.357783 0.452754
O O3 0.252370 0.354040 0.197735
O O4 0.290336 0.419916 0.365304
O O5 0.969450 0.500000 0.774492
O O6 0.134677 0.557075 0.787367
O O7 0.000000 0.551020 0.000000
O O8 0.691495 0.653096 0.315110
O O9 0.661282 0.588943 0.127247
O O10 0.481740 0.637908 0.186875
O O11 0.639392 0.669049 0.033109
O O12 0.500000 0.734278 0.500000
O O13 0.703006 0.707732 0.539611
O O14 0.642988 0.787669 0.636384
O O15 0.601715 0.712694 0.772426
O O16 0.292735 0.500000 0.855401
O O17 0.313672 0.450775 0.628553
O O18 0.500000 0.567116 0.500000
O O19 0.624288 0.500000 0.582099
#
# Coordination Sequence:
#
# PCOD9194831 Si02
#       8
#     8   8   8   8   8   8   8   8
#     4  11  21  37  59  90 117 163 210 256 303 371
#     4  10  22  40  60  84 126 177 216 257 307 365
#     4  11  20  40  60  95 119 164 206 249 316 383
#     4  10  20  40  59  86 115 151 192 253 314 375
#     4  10  22  35  63  87 116 150 199 253 312 375
#     4  10  21  37  59  88 129 165 204 257 304 357
#     4  10  23  36  64  87 122 158 203 258 317 376
#     4  10  20  34  57  89 122 158 204 258 311 358
#
# _framework density 19.849150000000002
#
# number of rings (size 3 to 8) (size 9 to 14) (size 15 to 20)
#    0.000    1.750    2.500    1.875    0.000    2.000 
#    0.000    4.375    0.000    0.000    0.000    0.000 
#    0.000    0.000    0.000    0.000    0.000    0.000 
#
# Total GULP energy -178611.015465 kJ/mol
# GULP energy per Si atom -5581.594233 kJ/mol
# Density = 1.980397 g / cm^3
# Si number density = 19.849150 Si / 1000 Ang^3
#
#
#
# Elastic Constant Matrix: (Units=GPa)
#
#
# Indices 1 2 3 4 5 6 
#
# 1 90.2662 45.7739 22.2131 0.0000 -9.4067 0.0000
# 2 45.7739 102.1328 23.3656 0.0000 12.8962 0.0000
# 3 22.2131 23.3656 68.6839 0.0000 -1.6550 0.0000
# 4 0.0000 0.0000 0.0000 27.9615 0.0000 -8.7701
# 5 -9.4067 12.8962 -1.6550 0.0000 22.2240 0.0000
# 6 0.0000 0.0000 0.0000 -8.7701 0.0000 27.4803
#
#
#
# Elastic Compliance Matrix: (Units=1/GPa)
#
#
# Indices 1 2 3 4 5 6 
#
# 1 0.017411 -0.008825 -0.002332 0.000000 0.012317 0.000000
# 2 -0.008825 0.016098 -0.002943 0.000000 -0.013296 0.000000
# 3 -0.002332 -0.002943 0.016361 0.000000 0.001939 0.000000
# 4 0.000000 0.000000 0.000000 0.039741 0.000000 0.012683
# 5 0.012317 -0.013296 0.001939 0.000000 0.058069 0.000000
# 6 0.000000 0.000000 0.000000 0.012683 0.000000 0.040437
#
#
# Mechanical properties :
#
#
# Convention : Reuss Voigt Hill
#
# Bulk Modulus (GPa) = 46.14376 49.30979 47.72678
# Shear Modulus (GPa) = 22.36717 26.84854 24.60786
#
# Velocity S-wave (km/s) = 3.36051 3.68180 3.52482
# Velocity P-wave (km/s) = 6.19315 6.55518 6.37673
#
# Compressibility (1/GPa) = 0.02167140
#
# Stress axis : x y z
#
# Youngs Moduli (GPa) = 57.43562 62.11779 61.11924
#
# Poissons Ratio (x) = 0.54818 0.14252
# Poissons Ratio (y) = 0.50686 0.17987
# Poissons Ratio (z) = 0.13393 0.18280
#
# Static dielectric constant tensor:
#      x y z
#    x 1.690690 0.000000 -0.026330 
#    y 0.000000 1.734650 0.000000 
#    z -0.026330 0.000000 1.687290 
# 
# From -- ./inp_files/54740.got.cif
#   From: 2010.05.17/outbox.cif.g08.bks.cpg/sg12_28_cif.got.tgz:54740.got - 2010.06.03 13:09:07.
