data_PCOD9194828
_publ_section_title
;
Structure prediction by ZEFSAII (Michael W. Deem and Ramdas Pophale) SiO2 
 PCOD9194828
Probable space group: C 2/M
;
_chemical_formula_sum "Si O2"
_cell_formula_units_Z 48
_cell_length_a 12.841729
_cell_length_b 26.002769
_cell_length_c 14.814962
_cell_angle_alpha 90.000000
_cell_angle_beta 151.556063
_cell_angle_gamma 90.000000
_cell_volume 2356.258677
_symmetry_space_group_name_H-M "C 2/M"
_symmetry_group_IT_number 12
_symmetry_cell_setting 'monoclinic'
loop_
_space_group_symop_operation_xyz
x,y,z
-x,y,-z
-x,-y,-z
x,-y,z
1/2+x,1/2+y,z
1/2-x,1/2+y,-z
1/2-x,1/2-y,-z
1/2+x,1/2-y,z
loop_
_atom_site_type_symbol
_atom_site_label
_atom_site_fract_x
_atom_site_fract_y
_atom_site_fract_z
Si Si1 0.840279 0.795701 0.010432
Si Si2 0.977097 0.909127 0.181506
Si Si3 0.972943 0.559822 0.080282
Si Si4 0.866738 0.439154 0.607481
Si Si5 0.301207 0.075334 0.287965
Si Si6 0.805941 0.301949 0.292237
O O1 0.884446 0.851853 0.088008
O O2 0.077478 0.780507 0.152631
O O3 0.750000 0.750000 0.000000
O O4 0.676834 0.797969 0.801275
O O5 0.186742 0.909735 0.409487
O O6 0.072787 0.937184 0.163502
O O7 0.778702 0.936908 0.080392
O O8 0.038295 0.500000 0.123410
O O9 0.108456 0.580213 0.270578
O O10 0.000000 0.582639 0.000000
O O11 0.809898 0.500000 0.564119
O O12 0.105116 0.434895 0.740140
O O13 0.500000 0.054511 0.500000
O O14 0.294173 0.136640 0.295623
O O15 0.000000 0.280838 0.500000
#
# Coordination Sequence:
#
# PCOD9194828 Si02
#       6
#     8   8   8   8   8   8
#     4  10  21  36  57  85 114 146 195 243 292 353
#     4  10  20  36  58  82 114 154 188 239 303 349
#     4  10  22  38  54  78 113 161 210 241 275 336
#     4  10  20  34  57  89 121 151 191 240 289 351
#     4   8  16  31  55  84 112 140 179 224 289 358
#     4   9  18  36  58  81 112 150 185 229 292 356
#
# _framework density 20.371278
#
# number of rings (size 3 to 8) (size 9 to 14) (size 15 to 20)
#    0.000    2.500    0.000    2.500    0.000    7.000 
#    3.000    4.167    0.000    0.000    0.000    0.000 
#    0.000    0.000    0.000    0.000    0.000    0.000 
#
# Total GULP energy -133602.887957 kJ/mol
# GULP energy per Si atom -5566.786998 kJ/mol
# Density = 2.032491 g / cm^3
# Si number density = 20.371278 Si / 1000 Ang^3
#
#
#
# Elastic Constant Matrix: (Units=GPa)
#
#
# Indices 1 2 3 4 5 6 
#
# 1 124.2543 35.4826 42.4339 0.0000 -30.9881 0.0001
# 2 35.4826 67.0966 24.8012 0.0001 -5.5466 0.0000
# 3 42.4339 24.8012 112.3697 -0.0001 -29.5633 -0.0001
# 4 0.0000 0.0001 -0.0001 11.5478 -0.0001 1.9271
# 5 -30.9881 -5.5466 -29.5633 -0.0001 32.3567 0.0000
# 6 0.0001 0.0000 -0.0001 1.9271 0.0000 30.0629
#
#
#
# Elastic Compliance Matrix: (Units=1/GPa)
#
#
# Indices 1 2 3 4 5 6 
#
# 1 0.012425 -0.005428 -0.000800 0.000000 0.010237 0.000000
# 2 -0.005428 0.018610 -0.003404 0.000000 -0.005119 0.000000
# 3 -0.000800 -0.003404 0.012635 0.000000 0.010194 0.000000
# 4 0.000000 0.000000 0.000000 0.087533 0.000000 -0.005611
# 5 0.010237 -0.005119 0.010194 0.000000 0.049146 0.000000
# 6 0.000000 0.000000 0.000000 -0.005611 0.000000 0.033623
#
#
# Mechanical properties :
#
#
# Convention : Reuss Voigt Hill
#
# Bulk Modulus (GPa) = 40.97871 56.57286 48.77578
# Shear Modulus (GPa) = 20.71499 28.19369 24.45434
#
# Velocity S-wave (km/s) = 3.19230 3.72424 3.46848
# Velocity P-wave (km/s) = 5.80924 6.80621 6.32739
#
# Compressibility (1/GPa) = 0.02440292
#
# Stress axis : x y z
#
# Youngs Moduli (GPa) = 80.48553 53.73545 79.14713
#
# Poissons Ratio (x) = 0.29169 0.06336
# Poissons Ratio (y) = 0.43690 0.26943
# Poissons Ratio (z) = 0.06443 0.18293
#
# Static dielectric constant tensor:
#      x y z
#    x 1.806100 0.000000 -0.035220 
#    y 0.000000 1.737420 0.000000 
#    z -0.035220 0.000000 1.790450 
# 
# From -- ./inp_files/209444.got.cif
#   From: 2010.05.17/outbox.cif.g08.bks.cpg/sg12_105_cif.got.tgz:209444.got - 2010.06.03 13:09:07.
