data_PCOD9194955
_publ_section_title
;
Structure prediction by ZEFSAII (Michael W. Deem and Ramdas Pophale) SiO2 
 PCOD9194955
Probable space group: C 2/M
;
_chemical_formula_sum "Si O2"
_cell_formula_units_Z 58
_cell_length_a 20.805256
_cell_length_b 9.686164
_cell_length_c 17.928023
_cell_angle_alpha 90.000000
_cell_angle_beta 129.386574
_cell_angle_gamma 90.000000
_cell_volume 2792.355042
_symmetry_space_group_name_H-M "C 2/M"
_symmetry_group_IT_number 12
_symmetry_cell_setting 'monoclinic'
loop_
_space_group_symop_operation_xyz
x,y,z
-x,y,-z
-x,-y,-z
x,-y,z
1/2+x,1/2+y,z
1/2-x,1/2+y,-z
1/2-x,1/2-y,-z
1/2+x,1/2-y,z
loop_
_atom_site_type_symbol
_atom_site_label
_atom_site_fract_x
_atom_site_fract_y
_atom_site_fract_z
Si Si1 0.000000 0.000000 0.500000
Si Si2 0.201882 0.344567 0.566228
Si Si3 0.138245 0.648461 0.690446
Si Si4 0.167340 0.666478 0.962463
Si Si5 0.009967 0.160080 0.792492
Si Si6 0.850842 0.335489 0.723016
Si Si7 0.279747 0.841770 0.836015
Si Si8 0.034719 0.770948 0.405167
O O1 0.959516 0.119045 0.524455
O O2 0.232275 0.500000 0.572057
O O3 0.164755 0.345875 0.623386
O O4 0.274581 0.231750 0.620516
O O5 0.122318 0.304362 0.458844
O O6 0.161782 0.500000 0.738267
O O7 0.194558 0.757589 0.774260
O O8 0.040802 0.671069 0.627735
O O9 0.169743 0.500000 0.947948
O O10 0.090223 0.746906 0.869805
O O11 0.250000 0.750000 0.000000
O O12 0.164484 0.681602 0.050452
O O13 0.931862 0.243837 0.768323
O O14 0.994296 0.159409 0.692456
O O15 0.016901 0.000000 0.823212
O O16 0.861284 0.500000 0.716329
O O17 0.825949 0.317721 0.791904
O O18 0.253414 0.000000 0.817483
#
# Coordination Sequence:
#
# PCOD9194955 Si02
#       8
#     2   8   8   8   8   8   8   8
#     4  12  24  40  62  96 120 166 220 260 310 388
#     4  10  21  38  61  90 126 161 207 262 316 373
#     4  10  20  34  58  94 128 159 202 259 319 370
#     4  11  24  44  68  99 133 166 207 256 316 380
#     4  12  27  44  63  92 129 166 208 262 321 372
#     4  10  23  43  67  92 123 169 219 261 307 374
#     4   9  21  40  66  92 124 169 215 259 305 371
#     4  12  24  38  64  89 127 166 212 262 317 380
#
# _framework density 20.770999
#
# number of rings (size 3 to 8) (size 9 to 14) (size 15 to 20)
#    0.000    1.379    2.069    2.483    1.931    8.276 
#    0.000    2.759    0.000    0.000    0.000    0.000 
#    0.000    0.000    0.000    0.000    0.000    0.000 
#
# Total GULP energy -161752.243948 kJ/mol
# GULP energy per Si atom -5577.663584 kJ/mol
# Density = 2.072372 g / cm^3
# Si number density = 20.770999 Si / 1000 Ang^3
#
#
#
# Elastic Constant Matrix: (Units=GPa)
#
#
# Indices 1 2 3 4 5 6 
#
# 1 64.2712 58.9196 26.0607 0.0000 25.0059 0.0000
# 2 58.9196 145.3560 56.3338 0.0000 18.9651 0.0000
# 3 26.0607 56.3338 86.9987 0.0000 25.6148 0.0000
# 4 0.0000 0.0000 0.0000 -5.2655 0.0000 11.5515
# 5 25.0059 18.9651 25.6148 0.0000 29.5115 0.0000
# 6 0.0000 0.0000 0.0000 11.5515 0.0000 9.8365
#
#
#
# Elastic Compliance Matrix: (Units=1/GPa)
#
#
# Indices 1 2 3 4 5 6 
#
# 1 0.035796 -0.013237 0.005742 0.000000 -0.026808 0.000000
# 2 -0.013237 0.014102 -0.007791 0.000000 0.008917 0.000000
# 3 0.005742 -0.007791 0.019851 0.000000 -0.017088 0.000000
# 4 0.000000 0.000000 0.000000 -0.053104 0.000000 0.062363
# 5 -0.026808 0.008917 -0.017088 0.000000 0.065701 0.000000
# 6 0.000000 0.000000 0.000000 0.062363 0.000000 0.028427
#
#
# Mechanical properties :
#
#
# Convention : Reuss Voigt Hill
#
# Bulk Modulus (GPa) = 25.52684 64.36158 44.94421
# Shear Modulus (GPa) = 32.38268 17.17063 24.77666
#
# Velocity S-wave (km/s) = 3.95274 2.87830 3.45751
# Velocity P-wave (km/s) = 5.75748 6.48842 6.13385
#
# Compressibility (1/GPa) = 0.03917445
#
# Stress axis : x y z
#
# Youngs Moduli (GPa) = 27.93605 70.91443 50.37651
#
# Poissons Ratio (x) = 0.93872 -0.28924
# Poissons Ratio (y) = 0.36980 0.39249
# Poissons Ratio (z) = -0.16040 0.55250
#
# Static dielectric constant tensor:
#      x y z
#    x 1.764010 0.000000 -0.035550 
#    y 0.000000 1.754170 0.000000 
#    z -0.035550 0.000000 1.749340 
# 
# From -- ./inp_files/324627.got.cif
#   From: 2010.05.17/outbox.cif.g08.bks.cpg/sg12_163_cif.got.tgz:324627.got - 2010.06.03 13:09:07.
