data_PCOD9194047
_publ_section_title
;
Structure prediction by ZEFSAII (Michael W. Deem and Ramdas Pophale) SiO2 
 PCOD9194047
Probable space group: C 2/M
;
_chemical_formula_sum "Si O2"
_cell_formula_units_Z 64
_cell_length_a 19.027871
_cell_length_b 8.962420
_cell_length_c 31.733079
_cell_angle_alpha 90.000000
_cell_angle_beta 41.675396
_cell_angle_gamma 90.000000
_cell_volume 3598.241875
_symmetry_space_group_name_H-M "C 2/M"
_symmetry_group_IT_number 12
_symmetry_cell_setting 'monoclinic'
loop_
_space_group_symop_operation_xyz
x,y,z
-x,y,-z
-x,-y,-z
x,-y,z
1/2+x,1/2+y,z
1/2-x,1/2+y,-z
1/2-x,1/2-y,-z
1/2+x,1/2-y,z
loop_
_atom_site_type_symbol
_atom_site_label
_atom_site_fract_x
_atom_site_fract_y
_atom_site_fract_z
Si Si1 0.049570 0.321224 0.692560
Si Si2 0.717739 0.322244 0.558426
Si Si3 0.081632 0.178109 0.067232
Si Si4 0.119244 0.678164 0.438883
Si Si5 0.746117 0.678945 0.067130
Si Si6 0.788034 0.679108 0.305804
Si Si7 0.645974 0.179964 0.817518
Si Si8 0.321720 0.320265 0.808161
O O1 0.048411 0.500000 0.689443
O O2 0.112717 0.250343 0.625193
O O3 0.117759 0.280985 0.703858
O O4 0.932580 0.257387 0.748963
O O5 0.704764 0.500000 0.560096
O O6 0.750000 0.250000 0.500000
O O7 0.809987 0.293505 0.551404
O O8 0.148975 0.215984 0.079274
O O9 0.966416 0.248764 0.121456
O O10 0.074711 0.000000 0.067457
O O11 0.150788 0.242007 0.997812
O O12 0.116294 0.500000 0.433323
O O13 0.181030 0.752338 0.372504
O O14 0.000000 0.731299 0.500000
O O15 0.761658 0.500000 0.058412
O O16 0.718384 0.720945 0.127186
O O17 0.778405 0.500000 0.310326
O O18 0.816301 0.727353 0.245977
O O19 0.733949 0.218601 0.812756
O O20 0.634594 0.000000 0.822337
O O21 0.336422 0.500000 0.800843
#
# Coordination Sequence:
#
# PCOD9194047 Si02
#       8
#     8   8   8   8   8   8   8   8
#     4  10  20  35  55  77 103 136 174 215 257 303
#     4  10  20  35  55  78 106 138 173 214 258 307
#     4  10  20  34  55  80 103 133 175 217 256 303
#     4   9  19  35  54  77 104 135 171 211 256 303
#     4   9  19  36  56  77 103 137 175 213 256 307
#     4   9  19  35  54  76 101 134 174 211 252 303
#     4  10  21  36  53  76 107 138 169 210 261 311
#     4  10  21  36  54  77 105 138 174 211 257 311
#
# _framework density 17.786465
#
# number of rings (size 3 to 8) (size 9 to 14) (size 15 to 20)
#    0.000    2.375    0.000    1.875    0.000    4.750 
#    0.000    5.000    0.000    0.000    0.000    0.000 
#    0.000    0.000    0.000    0.000    0.000    0.000 
#
# Total GULP energy -178639.563078 kJ/mol
# GULP energy per Si atom -5582.486346 kJ/mol
# Density = 1.774598 g / cm^3
# Si number density = 17.786465 Si / 1000 Ang^3
#
#
#
# Elastic Constant Matrix: (Units=GPa)
#
#
# Indices 1 2 3 4 5 6 
#
# 1 97.6222 50.5659 119.1070 0.0000 -2.3751 0.0000
# 2 50.5659 34.3919 69.1318 0.0004 -1.6410 0.0000
# 3 119.1070 69.1318 216.9015 -0.0001 -5.6152 -0.0001
# 4 0.0000 0.0004 -0.0001 34.7753 0.0000 -6.0073
# 5 -2.3751 -1.6410 -5.6152 0.0000 35.5081 0.0000
# 6 0.0000 0.0000 -0.0001 -6.0073 0.0000 19.9993
#
#
#
# Elastic Compliance Matrix: (Units=1/GPa)
#
#
# Indices 1 2 3 4 5 6 
#
# 1 0.051668 -0.052686 -0.011601 0.000000 -0.000813 0.000000
# 2 -0.052686 0.134647 -0.013971 -0.000002 0.000489 -0.000001
# 3 -0.011601 -0.013971 0.015461 0.000000 0.001023 0.000000
# 4 0.000000 -0.000002 0.000000 0.030330 0.000000 0.009110
# 5 -0.000813 0.000489 0.001023 0.000000 0.028293 0.000000
# 6 0.000000 -0.000001 0.000000 0.009110 0.000000 0.052738
#
#
# Mechanical properties :
#
#
# Convention : Reuss Voigt Hill
#
# Bulk Modulus (GPa) = 22.09512 91.83610 56.96561
# Shear Modulus (GPa) = 10.31482 25.39727 17.85604
#
# Velocity S-wave (km/s) = 2.41078 3.78285 3.17189
# Velocity P-wave (km/s) = 4.49428 8.41574 6.74623
#
# Compressibility (1/GPa) = 0.04525887
#
# Stress axis : x y z
#
# Youngs Moduli (GPa) = 19.35420 7.42684 64.68049
#
# Poissons Ratio (x) = 0.39129 0.75039
# Poissons Ratio (y) = 1.01969 0.90368
# Poissons Ratio (z) = 0.22454 0.10376
#
# Static dielectric constant tensor:
#      x y z
#    x 1.597390 0.000000 0.008890 
#    y 0.000000 1.591500 0.000000 
#    z 0.008890 0.000000 1.572510 
# 
# From -- ./inp_files/378000.got.cif
#   From: 2010.05.17/outbox.cif.g08.bks.cpg/sg12_189_cif.got.tgz:378000.got - 2010.06.03 13:09:07.
