data_PCOD9194682
_publ_section_title
;
Structure prediction by ZEFSAII (Michael W. Deem and Ramdas Pophale) SiO2 
 PCOD9194682
Probable space group: C 2/M
;
_chemical_formula_sum "Si O2"
_cell_formula_units_Z 42
_cell_length_a 22.195696
_cell_length_b 7.611676
_cell_length_c 12.803094
_cell_angle_alpha 90.000000
_cell_angle_beta 72.318874
_cell_angle_gamma 90.000000
_cell_volume 2060.858779
_symmetry_space_group_name_H-M "C 2/M"
_symmetry_group_IT_number 12
_symmetry_cell_setting 'monoclinic'
loop_
_space_group_symop_operation_xyz
x,y,z
-x,y,-z
-x,-y,-z
x,-y,z
1/2+x,1/2+y,z
1/2-x,1/2+y,-z
1/2-x,1/2-y,-z
1/2+x,1/2-y,z
loop_
_atom_site_type_symbol
_atom_site_label
_atom_site_fract_x
_atom_site_fract_y
_atom_site_fract_z
Si Si1 0.663010 0.703502 0.447773
Si Si2 0.450416 0.787506 0.879074
Si Si3 0.410027 0.211678 0.124151
Si Si4 0.303530 0.293112 0.344066
Si Si5 0.000000 0.500000 0.500000
Si Si6 0.445777 0.704912 0.648857
O O1 0.645203 0.500000 0.468479
O O2 0.667407 0.779919 0.562427
O O3 0.733981 0.714537 0.365792
O O4 0.611820 0.775265 0.393825
O O5 0.523297 0.732029 0.860010
O O6 0.428296 0.719950 0.779319
O O7 0.449063 0.000000 0.877202
O O8 0.411849 0.730608 0.002237
O O9 0.351192 0.269202 0.224128
O O10 0.410455 0.000000 0.123394
O O11 0.292942 0.500000 0.366276
O O12 0.999967 0.342606 0.409450
O O13 0.460753 0.500000 0.621165
#
# Coordination Sequence:
#
# PCOD9194682 Si02
#       6
#     8   8   8   8   2   8
#     4   9  21  39  55  81 116 149 189 242 287 344
#     4   9  19  38  58  84 117 155 193 241 292 343
#     4   9  19  35  59  83 115 154 194 237 291 348
#     4  10  20  34  57  83 111 148 194 237 290 345
#     4  12  26  40  60  88 124 160 190 234 292 354
#     4  11  24  40  61  88 120 155 195 237 293 348
#
# _framework density 20.379853000000001
#
# number of rings (size 3 to 8) (size 9 to 14) (size 15 to 20)
#    0.000    2.286    0.952    2.000    4.000    2.286 
#    0.000    2.857    0.000    0.000    0.000    0.000 
#    0.000    0.000    0.000    0.000    0.000    0.000 
#
# Total GULP energy -116932.629880 kJ/mol
# GULP energy per Si atom -5568.220470 kJ/mol
# Density = 2.033347 g / cm^3
# Si number density = 20.379853 Si / 1000 Ang^3
#
#
#
# Elastic Constant Matrix: (Units=GPa)
#
#
# Indices 1 2 3 4 5 6 
#
# 1 71.1597 0.3915 57.3987 0.0000 12.9490 0.0000
# 2 0.3915 88.2370 8.0061 0.0000 5.6150 0.0000
# 3 57.3987 8.0061 154.1994 0.0000 -1.6426 0.0000
# 4 0.0000 0.0000 0.0000 29.3159 0.0000 -0.2634
# 5 12.9490 5.6150 -1.6426 0.0000 29.0848 0.0000
# 6 0.0000 0.0000 0.0000 -0.2634 0.0000 61.9329
#
#
#
# Elastic Compliance Matrix: (Units=1/GPa)
#
#
# Indices 1 2 3 4 5 6 
#
# 1 0.023175 0.001403 -0.008818 0.000000 -0.011087 0.000000
# 2 0.001403 0.011618 -0.001157 0.000000 -0.002933 0.000000
# 3 -0.008818 -0.001157 0.009878 0.000000 0.004707 0.000000
# 4 0.000000 0.000000 0.000000 0.034112 0.000000 0.000145
# 5 -0.011087 -0.002933 0.004707 0.000000 0.040150 0.000000
# 6 0.000000 0.000000 0.000000 0.000145 0.000000 0.016147
#
#
# Mechanical properties :
#
#
# Convention : Reuss Voigt Hill
#
# Bulk Modulus (GPa) = 36.32646 49.46541 42.89593
# Shear Modulus (GPa) = 30.97898 40.58671 35.78285
#
# Velocity S-wave (km/s) = 3.90305 4.46748 4.19477
# Velocity P-wave (km/s) = 6.17860 7.13691 6.67498
#
# Compressibility (1/GPa) = 0.02752815
#
# Stress axis : x y z
#
# Youngs Moduli (GPa) = 43.14989 86.06985 101.24008
#
# Poissons Ratio (x) = -0.12073 0.89269
# Poissons Ratio (y) = -0.06053 0.11710
# Poissons Ratio (z) = 0.38048 0.09955
#
# Static dielectric constant tensor:
#      x y z
#    x 1.765570 0.000000 0.000030 
#    y 0.000000 1.772210 0.000000 
#    z 0.000030 0.000000 1.750660 
# 
# From -- ./inp_files/163038.got.cif
#   From: 2010.05.17/outbox.cif.g08.bks.cpg/sg12_82_cif.got.tgz:163038.got - 2010.06.03 13:09:07.
