data_PCOD9194806
_publ_section_title
;
Structure prediction by ZEFSAII (Michael W. Deem and Ramdas Pophale) SiO2 
 PCOD9194806
Probable space group: C 2/M
;
_chemical_formula_sum "Si O2"
_cell_formula_units_Z 64
_cell_length_a 26.458730
_cell_length_b 13.783316
_cell_length_c 9.239323
_cell_angle_alpha 90.000000
_cell_angle_beta 94.563403
_cell_angle_gamma 90.000000
_cell_volume 3358.798219
_symmetry_space_group_name_H-M "C 2/M"
_symmetry_group_IT_number 12
_symmetry_cell_setting 'monoclinic'
loop_
_space_group_symop_operation_xyz
x,y,z
-x,y,-z
-x,-y,-z
x,-y,z
1/2+x,1/2+y,z
1/2-x,1/2+y,-z
1/2-x,1/2-y,-z
1/2+x,1/2-y,z
loop_
_atom_site_type_symbol
_atom_site_label
_atom_site_fract_x
_atom_site_fract_y
_atom_site_fract_z
Si Si1 0.573770 0.233355 0.743729
Si Si2 0.603359 0.809923 0.067829
Si Si3 0.862195 0.113973 0.399778
Si Si4 0.768390 0.223006 0.229595
Si Si5 0.664965 0.725683 0.339594
Si Si6 0.296535 0.891221 0.017672
Si Si7 0.025527 0.389440 0.277945
Si Si8 0.118633 0.609109 0.518890
O O1 0.589916 0.329745 0.660349
O O2 0.517415 0.191218 0.713146
O O3 0.608433 0.151339 0.674426
O O4 0.585053 0.240306 0.916436
O O5 0.632166 0.738496 0.186105
O O6 0.646787 0.885527 0.032150
O O7 0.558305 0.862249 0.143775
O O8 0.812613 0.165822 0.320502
O O9 0.856187 0.138451 0.568308
O O10 0.863504 0.000000 0.372684
O O11 0.724164 0.271475 0.315759
O O12 0.740460 0.146132 0.118124
O O13 0.790919 0.309657 0.138563
O O14 0.654271 0.820844 0.435034
O O15 0.284143 0.000000 0.061654
O O16 0.005007 0.500000 0.262484
O O17 0.065059 0.388228 0.420184
O O18 0.137453 0.500000 0.526381
#
# Coordination Sequence:
#
# PCOD9194806 Si02
#       8
#     8   8   8   8   8   8   8   8
#     4  11  21  35  55  85 114 154 187 235 280 341
#     4  10  20  37  56  84 123 147 182 234 293 346
#     4  11  23  41  60  81 110 154 202 243 288 334
#     4  10  20  38  57  85 118 152 191 238 285 335
#     4   9  21  38  59  81 115 149 190 238 287 336
#     4  10  20  34  57  88 122 153 185 228 287 349
#     4  10  20  34  57  88 122 155 186 226 288 357
#     4   9  19  35  56  85 120 152 184 228 288 353
#
# _framework density 19.054434000000001
#
# number of rings (size 3 to 8) (size 9 to 14) (size 15 to 20)
#    0.000    2.000    1.250    2.250    0.000    7.500 
#    0.000    0.625    0.000   15.000    0.000    0.000 
#    0.000    0.000    0.000    0.000    0.000    0.000 
#
# Total GULP energy -178631.425252 kJ/mol
# GULP energy per Si atom -5582.232039 kJ/mol
# Density = 1.901107 g / cm^3
# Si number density = 19.054434 Si / 1000 Ang^3
#
#
#
# Elastic Constant Matrix: (Units=GPa)
#
#
# Indices 1 2 3 4 5 6 
#
# 1 86.2642 37.4446 23.5515 0.0000 -16.5256 0.0000
# 2 37.4446 105.0543 27.6728 0.0000 -7.6960 0.0000
# 3 23.5515 27.6728 92.4969 0.0000 -11.5073 0.0000
# 4 0.0000 0.0000 0.0000 9.2782 0.0000 0.7716
# 5 -16.5256 -7.6960 -11.5073 0.0000 21.1859 0.0000
# 6 0.0000 0.0000 0.0000 0.7716 0.0000 14.4356
#
#
#
# Elastic Compliance Matrix: (Units=1/GPa)
#
#
# Indices 1 2 3 4 5 6 
#
# 1 0.015863 -0.004546 -0.001443 0.000000 0.009939 0.000000
# 2 -0.004546 0.011735 -0.002428 0.000000 -0.000602 0.000000
# 3 -0.001443 -0.002428 0.012500 0.000000 0.004782 0.000000
# 4 0.000000 0.000000 0.000000 0.108261 0.000000 -0.005787
# 5 0.009939 -0.000602 0.004782 0.000000 0.057333 0.000000
# 6 0.000000 0.000000 0.000000 -0.005787 0.000000 0.069582
#
#
# Mechanical properties :
#
#
# Convention : Reuss Voigt Hill
#
# Bulk Modulus (GPa) = 42.98414 51.23927 47.11171
# Shear Modulus (GPa) = 16.67431 21.98972 19.33201
#
# Velocity S-wave (km/s) = 2.96140 3.40081 3.18868
# Velocity P-wave (km/s) = 5.85668 6.50923 6.19156
#
# Compressibility (1/GPa) = 0.02326440
#
# Stress axis : x y z
#
# Youngs Moduli (GPa) = 63.03785 85.21694 80.00098
#
# Poissons Ratio (x) = 0.38741 0.11541
# Poissons Ratio (y) = 0.28658 0.19425
# Poissons Ratio (z) = 0.09094 0.20692
#
# Static dielectric constant tensor:
#      x y z
#    x 1.682500 0.000000 0.013350 
#    y 0.000000 1.626940 0.000000 
#    z 0.013350 0.000000 1.706830 
# 
# From -- ./inp_files/96888.got.cif
#   From: 2010.05.17/outbox.cif.g08.bks.cpg/sg12_49_cif.got.tgz:96888.got - 2010.06.03 13:09:07.
