data_PCOD9194086
_publ_section_title
;
Structure prediction by ZEFSAII (Michael W. Deem and Ramdas Pophale) SiO2 
 PCOD9194086
Probable space group: C 2/M
;
_chemical_formula_sum "Si O2"
_cell_formula_units_Z 56
_cell_length_a 13.652860
_cell_length_b 27.215050
_cell_length_c 8.972025
_cell_angle_alpha 90.000000
_cell_angle_beta 62.454291
_cell_angle_gamma 90.000000
_cell_volume 2955.776805
_symmetry_space_group_name_H-M "C 2/M"
_symmetry_group_IT_number 12
_symmetry_cell_setting 'monoclinic'
loop_
_space_group_symop_operation_xyz
x,y,z
-x,y,-z
-x,-y,-z
x,-y,z
1/2+x,1/2+y,z
1/2-x,1/2+y,-z
1/2-x,1/2-y,-z
1/2+x,1/2-y,z
loop_
_atom_site_type_symbol
_atom_site_label
_atom_site_fract_x
_atom_site_fract_y
_atom_site_fract_z
Si Si1 0.264900 0.140877 0.810169
Si Si2 0.295394 0.555992 0.915730
Si Si3 0.857281 0.215739 0.929278
Si Si4 0.686418 0.132391 0.565369
Si Si5 0.384890 0.364778 0.659501
Si Si6 0.988039 0.294854 0.683976
Si Si7 0.909014 0.444626 0.168299
O O1 0.272294 0.129003 0.631625
O O2 0.382929 0.167420 0.764548
O O3 0.243276 0.092360 0.924628
O O4 0.166147 0.179981 0.914161
O O5 0.322720 0.500000 0.941591
O O6 0.387797 0.585518 0.757080
O O7 0.196783 0.553039 0.864444
O O8 0.855154 0.178483 0.793059
O O9 0.959876 0.251436 0.820296
O O10 0.750000 0.250000 0.000000
O O11 0.788942 0.134551 0.604529
O O12 0.601994 0.177808 0.640678
O O13 0.617103 0.085108 0.666106
O O14 0.500000 0.356331 0.500000
O O15 0.000000 0.278934 0.500000
O O16 0.945933 0.500000 0.178269
O O17 0.000000 0.419363 0.000000
#
# Coordination Sequence:
#
# PCOD9194086 Si02
#       7
#     8   8   8   8   8   8   8
#     4   9  18  33  53  80 111 136 168 217 266 315
#     4   9  18  33  54  78 107 144 178 213 262 314
#     4   9  18  36  54  72 103 138 170 213 264 313
#     4  10  20  34  55  81 106 139 179 217 263 314
#     4  10  21  38  56  74 104 142 182 224 262 307
#     4   9  17  32  53  77 106 137 173 216 263 317
#     4   9  17  30  50  79 112 143 176 211 252 312
#
# _framework density 18.945951000000001
#
# number of rings (size 3 to 8) (size 9 to 14) (size 15 to 20)
#    0.000    2.714    0.000    1.286    0.000    2.000 
#    0.000   15.714    0.000    7.714    0.000    0.000 
#    0.000    0.000    0.000    0.000    0.000    0.000 
#
# Total GULP energy -155955.397705 kJ/mol
# GULP energy per Si atom -5569.835632 kJ/mol
# Density = 1.890283 g / cm^3
# Si number density = 18.945951 Si / 1000 Ang^3
#
#
#
# Elastic Constant Matrix: (Units=GPa)
#
#
# Indices 1 2 3 4 5 6 
#
# 1 30.1512 17.6685 29.0204 0.0000 -8.7146 0.0000
# 2 17.6685 116.6232 79.1772 0.0000 3.9341 0.0000
# 3 29.0204 79.1772 167.8163 0.0000 -3.0903 0.0000
# 4 0.0000 0.0000 0.0000 134.9944 0.0000 -65.8683
# 5 -8.7146 3.9341 -3.0903 0.0000 17.9303 0.0000
# 6 0.0000 0.0000 0.0000 -65.8683 0.0000 51.2051
#
#
#
# Elastic Compliance Matrix: (Units=1/GPa)
#
#
# Indices 1 2 3 4 5 6 
#
# 1 0.047953 -0.003980 -0.005988 0.000000 0.023147 0.000000
# 2 -0.003980 0.013210 -0.005651 0.000000 -0.005807 0.000000
# 3 -0.005988 -0.005651 0.009661 0.000000 -0.000005 0.000000
# 4 0.000000 0.000000 0.000000 0.019895 0.000000 0.025592
# 5 0.023147 -0.005807 -0.000005 0.000000 0.068295 0.000000
# 6 0.000000 0.000000 0.000000 0.025592 0.000000 0.052450
#
#
# Mechanical properties :
#
#
# Convention : Reuss Voigt Hill
#
# Bulk Modulus (GPa) = 25.26279 62.92477 44.09378
# Shear Modulus (GPa) = 19.53902 53.40759 36.47330
#
# Velocity S-wave (km/s) = 3.21487 5.31513 4.39238
# Velocity P-wave (km/s) = 5.20996 8.42333 7.00343
#
# Compressibility (1/GPa) = 0.03958391
#
# Stress axis : x y z
#
# Youngs Moduli (GPa) = 20.85396 75.69842 103.51185
#
# Poissons Ratio (x) = 0.30129 0.61986
# Poissons Ratio (y) = 0.08300 0.58499
# Poissons Ratio (z) = 0.12488 0.42780
#
# Static dielectric constant tensor:
#      x y z
#    x 1.637040 0.000000 -0.015500 
#    y 0.000000 1.698560 0.000000 
#    z -0.015500 0.000000 1.652410 
# 
# From -- ./inp_files/66861.got.cif
#   From: 2010.05.17/outbox.cif.g08.bks.cpg/sg12_34_cif.got.tgz:66861.got - 2010.06.03 13:09:07.
