data_PCOD9194261
_publ_section_title
;
Structure prediction by ZEFSAII (Michael W. Deem and Ramdas Pophale) SiO2 
 PCOD9194261
Probable space group: C 2/M
;
_chemical_formula_sum "Si O2"
_cell_formula_units_Z 40
_cell_length_a 18.450179
_cell_length_b 8.983821
_cell_length_c 18.985411
_cell_angle_alpha 90.000000
_cell_angle_beta 135.880848
_cell_angle_gamma 90.000000
_cell_volume 2190.716873
_symmetry_space_group_name_H-M "C 2/M"
_symmetry_group_IT_number 12
_symmetry_cell_setting 'monoclinic'
loop_
_space_group_symop_operation_xyz
x,y,z
-x,y,-z
-x,-y,-z
x,-y,z
1/2+x,1/2+y,z
1/2-x,1/2+y,-z
1/2-x,1/2-y,-z
1/2+x,1/2-y,z
loop_
_atom_site_type_symbol
_atom_site_label
_atom_site_fract_x
_atom_site_fract_y
_atom_site_fract_z
Si Si1 0.362761 0.822438 0.088900
Si Si2 0.917816 0.828927 0.507859
Si Si3 0.583193 0.175787 0.711077
Si Si4 0.969726 0.822610 0.897538
Si Si5 0.745577 0.320655 0.717021
O O1 0.400613 0.796193 0.195262
O O2 0.443217 0.749579 0.091096
O O3 0.356924 0.000000 0.073670
O O4 0.250000 0.750000 0.000000
O O5 0.810857 0.779794 0.396322
O O6 0.000000 0.827947 0.500000
O O7 0.971298 0.730457 0.604737
O O8 0.908449 0.000000 0.525211
O O9 0.671193 0.261061 0.727479
O O10 0.594519 0.000000 0.705768
O O11 0.858539 0.749426 0.803770
O O12 0.964932 0.000000 0.883002
O O13 0.000000 0.796375 0.000000
O O14 0.749244 0.500000 0.722701
#
# Coordination Sequence:
#
# PCOD9194261 Si02
#       5
#     8   8   8   8   8
#     4  11  24  40  58  82 111 144 183 225 272 327
#     4   8  16  31  52  80 111 144 183 223 265 318
#     4  10  20  34  55  84 114 144 183 227 268 318
#     4  11  24  40  58  82 110 141 182 229 275 326
#     4  10  20  35  57  84 113 146 184 224 269 323
#
# _framework density 18.258863999999999
#
# number of rings (size 3 to 8) (size 9 to 14) (size 15 to 20)
#    0.000    2.000    0.000    4.800    0.000   14.000 
#    0.000    1.000    0.000    0.000    0.000    0.000 
#    0.000    0.000    0.000    0.000    0.000    0.000 
#
# Total GULP energy -111681.251990 kJ/mol
# GULP energy per Si atom -5584.062600 kJ/mol
# Density = 1.821731 g / cm^3
# Si number density = 18.258864 Si / 1000 Ang^3
#
#
#
# Elastic Constant Matrix: (Units=GPa)
#
#
# Indices 1 2 3 4 5 6 
#
# 1 107.1363 75.1114 87.5557 0.0000 6.0536 0.0000
# 2 75.1114 105.7889 108.3497 0.0000 -8.6364 0.0000
# 3 87.5557 108.3497 195.2226 0.0000 9.7781 0.0000
# 4 0.0000 0.0000 0.0000 37.4243 0.0000 -2.3029
# 5 6.0536 -8.6364 9.7781 0.0000 26.8576 0.0000
# 6 0.0000 0.0000 0.0000 -2.3029 0.0000 18.1460
#
#
#
# Elastic Compliance Matrix: (Units=1/GPa)
#
#
# Indices 1 2 3 4 5 6 
#
# 1 0.020801 -0.014942 -0.000571 0.000000 -0.009285 0.000000
# 2 -0.014942 0.036943 -0.014837 0.000000 0.020649 0.000000
# 3 -0.000571 -0.014837 0.014103 0.000000 -0.009777 0.000000
# 4 0.000000 0.000000 0.000000 0.026931 0.000000 0.003418
# 5 -0.009285 0.020649 -0.009777 0.000000 0.049526 0.000000
# 6 0.000000 0.000000 0.000000 0.003418 0.000000 0.055542
#
#
# Mechanical properties :
#
#
# Convention : Reuss Voigt Hill
#
# Bulk Modulus (GPa) = 89.70748 105.57571 97.64159
# Shear Modulus (GPa) = 18.63858 25.62765 22.13311
#
# Velocity S-wave (km/s) = 3.19846 3.75049 3.48542
# Velocity P-wave (km/s) = 7.92955 8.75797 8.35404
#
# Compressibility (1/GPa) = 0.01114734
#
# Stress axis : x y z
#
# Youngs Moduli (GPa) = 48.07506 27.06843 70.90923
#
# Poissons Ratio (x) = 0.40446 0.04049
# Poissons Ratio (y) = 0.71834 1.05206
# Poissons Ratio (z) = 0.02745 0.40160
#
# Static dielectric constant tensor:
#      x y z
#    x 1.594940 0.000000 -0.001520 
#    y 0.000000 1.611590 0.000000 
#    z -0.001520 0.000000 1.637280 
# 
# From -- ./inp_files/238095.got.cif
#   From: 2010.05.17/outbox.cif.g08.bks.cpg/sg12_120_cif.got.tgz:238095.got - 2010.06.03 13:09:07.
