data_PCOD9194056
_publ_section_title
;
Structure prediction by ZEFSAII (Michael W. Deem and Ramdas Pophale) SiO2 
 PCOD9194056
Probable space group: C 2/M
;
_chemical_formula_sum "Si O2"
_cell_formula_units_Z 64
_cell_length_a 28.783358
_cell_length_b 8.883085
_cell_length_c 16.375083
_cell_angle_alpha 90.000000
_cell_angle_beta 61.983392
_cell_angle_gamma 90.000000
_cell_volume 3696.211004
_symmetry_space_group_name_H-M "C 2/M"
_symmetry_group_IT_number 12
_symmetry_cell_setting 'monoclinic'
loop_
_space_group_symop_operation_xyz
x,y,z
-x,y,-z
-x,-y,-z
x,-y,z
1/2+x,1/2+y,z
1/2-x,1/2+y,-z
1/2-x,1/2-y,-z
1/2+x,1/2-y,z
loop_
_atom_site_type_symbol
_atom_site_label
_atom_site_fract_x
_atom_site_fract_y
_atom_site_fract_z
Si Si1 0.611341 0.819289 0.759657
Si Si2 0.739155 0.680744 0.249257
Si Si3 0.979413 0.680735 0.606247
Si Si4 0.639189 0.179343 0.243785
Si Si5 0.395600 0.680192 0.893222
Si Si6 0.274047 0.819837 0.399275
Si Si7 0.485811 0.320440 0.256148
Si Si8 0.150818 0.819225 0.891929
O O1 0.665085 0.777664 0.667125
O O2 0.560991 0.757921 0.753974
O O3 0.617634 0.748580 0.844286
O O4 0.609726 0.000000 0.767514
O O5 0.742393 0.500000 0.240903
O O6 0.686510 0.740660 0.251399
O O7 0.743132 0.722733 0.341913
O O8 0.790649 0.752212 0.164853
O O9 0.985708 0.500000 0.609994
O O10 0.917489 0.715025 0.668762
O O11 0.000000 0.724195 0.500000
O O12 0.009847 0.761137 0.654776
O O13 0.634675 0.236101 0.154461
O O14 0.646524 0.000000 0.239890
O O15 0.389497 0.500000 0.886879
O O16 0.457511 0.714860 0.831453
O O17 0.374295 0.719657 0.000024
O O18 0.250000 0.750000 0.500000
O O19 0.271982 0.000000 0.407946
O O20 0.478751 0.500000 0.261109
O O21 0.152600 0.000000 0.883179
#
# Coordination Sequence:
#
# PCOD9194056 Si02
#       8
#     8   8   8   8   8   8   8   8
#     4  10  21  37  54  77 109 140 171 212 262 309
#     4  10  21  37  54  76 108 140 171 213 263 309
#     4   9  19  36  55  77 107 139 173 217 264 307
#     4  10  20  34  55  80 104 137 178 214 255 310
#     4   9  20  37  55  77 107 138 170 216 265 305
#     4   9  20  36  54  76 103 136 172 212 257 305
#     4  10  20  35  55  79 106 138 176 215 257 308
#     4  10  20  36  57  79 103 135 176 217 259 308
#
# _framework density 17.315028000000002
#
# number of rings (size 3 to 8) (size 9 to 14) (size 15 to 20)
#    0.000    2.375    0.000    2.625    0.000    7.250 
#    0.000    6.250    0.000    0.000    0.000    0.000 
#    0.000    0.000    0.000    0.000    0.000    0.000 
#
# Total GULP energy -178601.327558 kJ/mol
# GULP energy per Si atom -5581.291486 kJ/mol
# Density = 1.727562 g / cm^3
# Si number density = 17.315028 Si / 1000 Ang^3
#
#
#
# Elastic Constant Matrix: (Units=GPa)
#
#
# Indices 1 2 3 4 5 6 
#
# 1 159.0413 65.9473 84.8960 0.0000 21.6915 0.0000
# 2 65.9473 58.3214 63.8340 0.0000 8.6099 0.0000
# 3 84.8960 63.8340 176.8658 0.0000 13.9201 0.0000
# 4 0.0000 0.0000 0.0000 29.7764 0.0000 4.9341
# 5 21.6915 8.6099 13.9201 0.0000 8.6552 0.0000
# 6 0.0000 0.0000 0.0000 4.9341 0.0000 35.3967
#
#
#
# Elastic Compliance Matrix: (Units=1/GPa)
#
#
# Indices 1 2 3 4 5 6 
#
# 1 0.015425 -0.012947 -0.000804 0.000000 -0.024485 0.000000
# 2 -0.012947 0.040645 -0.008961 0.000000 0.006427 0.000000
# 3 -0.000804 -0.008961 0.009633 0.000000 -0.004564 0.000000
# 4 0.000000 0.000000 0.000000 0.034378 0.000000 -0.004792
# 5 -0.024485 0.006427 -0.004564 0.000000 0.177849 0.000000
# 6 0.000000 0.000000 0.000000 -0.004792 0.000000 0.028919
#
#
# Mechanical properties :
#
#
# Convention : Reuss Voigt Hill
#
# Bulk Modulus (GPa) = 49.31049 91.50923 70.40986
# Shear Modulus (GPa) = 13.92626 26.73574 20.33100
#
# Velocity S-wave (km/s) = 2.83907 3.93374 3.43035
# Velocity P-wave (km/s) = 6.26796 8.57885 7.51279
#
# Compressibility (1/GPa) = 0.02027966
#
# Stress axis : x y z
#
# Youngs Moduli (GPa) = 64.82963 24.60297 103.80639
#
# Poissons Ratio (x) = 0.31854 0.08347
# Poissons Ratio (y) = 0.83936 0.93019
# Poissons Ratio (z) = 0.05213 0.22046
#
# Static dielectric constant tensor:
#      x y z
#    x 1.560340 0.000000 -0.007150 
#    y 0.000000 1.578730 0.000000 
#    z -0.007150 0.000000 1.568660 
# 
# From -- ./inp_files/243733.got.cif
#   From: 2010.05.17/outbox.cif.g08.bks.cpg/sg12_122_cif.got.tgz:243733.got - 2010.06.03 13:09:07.
