data_PCOD9194507
_publ_section_title
;
Structure prediction by ZEFSAII (Michael W. Deem and Ramdas Pophale) SiO2 
 PCOD9194507
Probable space group: C 2/M
;
_chemical_formula_sum "Si O2"
_cell_formula_units_Z 64
_cell_length_a 26.380474
_cell_length_b 8.783461
_cell_length_c 14.459361
_cell_angle_alpha 90.000000
_cell_angle_beta 85.679643
_cell_angle_gamma 90.000000
_cell_volume 3340.885089
_symmetry_space_group_name_H-M "C 2/M"
_symmetry_group_IT_number 12
_symmetry_cell_setting 'monoclinic'
loop_
_space_group_symop_operation_xyz
x,y,z
-x,y,-z
-x,-y,-z
x,-y,z
1/2+x,1/2+y,z
1/2-x,1/2+y,-z
1/2-x,1/2-y,-z
1/2+x,1/2-y,z
loop_
_atom_site_type_symbol
_atom_site_label
_atom_site_fract_x
_atom_site_fract_y
_atom_site_fract_z
Si Si1 0.269129 0.681950 0.901331
Si Si2 0.443495 0.682553 0.713246
Si Si3 0.253782 0.317716 0.287149
Si Si4 0.552148 0.816676 0.942677
Si Si5 0.146732 0.316468 0.394647
Si Si6 0.113558 0.182352 0.094230
Si Si7 0.949285 0.316182 0.271086
Si Si8 0.153919 0.316436 0.609188
O O1 0.263588 0.500000 0.902377
O O2 0.241304 0.750685 0.816275
O O3 0.328984 0.720381 0.886018
O O4 0.250000 0.750000 0.000000
O O5 0.444271 0.500000 0.711037
O O6 0.402206 0.743029 0.646454
O O7 0.423660 0.732454 0.817894
O O8 0.499730 0.747561 0.692433
O O9 0.255231 0.500000 0.283403
O O10 0.198697 0.270994 0.335475
O O11 0.298230 0.257362 0.346652
O O12 0.554076 0.766842 0.835970
O O13 0.553190 0.000000 0.943409
O O14 0.500000 0.766207 0.000000
O O15 0.597374 0.755756 0.000045
O O16 0.142160 0.500000 0.389232
O O17 0.151246 0.274686 0.501713
O O18 0.109954 0.000000 0.086324
O O19 0.953298 0.500000 0.272116
O O20 0.898353 0.272907 0.332421
O O21 0.158849 0.500000 0.614290
#
# Coordination Sequence:
#
# PCOD9194507 Si02
#       8
#     8   8   8   8   8   8   8   8
#     4  11  24  42  61  89 125 160 199 244 301 363
#     4  11  22  38  62  90 120 158 202 251 306 357
#     4  11  23  40  64  93 122 158 204 253 306 362
#     4  10  20  34  56  84 113 150 195 236 279 346
#     4  10  22  41  65  90 117 157 206 254 306 368
#     4  10  22  38  57  84 117 154 194 242 295 351
#     4  10  22  40  59  86 122 160 200 246 303 364
#     4  10  23  42  63  88 121 162 204 251 311 368
#
# _framework density 19.156599
#
# number of rings (size 3 to 8) (size 9 to 14) (size 15 to 20)
#    0.000    1.625    2.500    1.500    1.750    4.250 
#    0.000    2.500    0.000    0.000    0.000    0.000 
#    0.000    0.000    0.000    0.000    0.000    0.000 
#
# Total GULP energy -178849.286172 kJ/mol
# GULP energy per Si atom -5589.040193 kJ/mol
# Density = 1.911300 g / cm^3
# Si number density = 19.156599 Si / 1000 Ang^3
#
#
#
# Elastic Constant Matrix: (Units=GPa)
#
#
# Indices 1 2 3 4 5 6 
#
# 1 107.6321 35.1087 63.8166 0.0000 25.1947 0.0000
# 2 35.1087 19.2886 34.1035 0.0000 7.3702 0.0000
# 3 63.8166 34.1035 149.3877 0.0000 16.5096 0.0000
# 4 0.0000 0.0000 0.0000 26.2519 0.0000 10.5692
# 5 25.1947 7.3702 16.5096 0.0000 35.4167 0.0000
# 6 0.0000 0.0000 0.0000 10.5692 0.0000 32.7815
#
#
#
# Elastic Compliance Matrix: (Units=1/GPa)
#
#
# Indices 1 2 3 4 5 6 
#
# 1 0.025336 -0.042379 -0.000139 0.000000 -0.009140 0.000000
# 2 -0.042379 0.160837 -0.019237 0.000000 0.005645 0.000000
# 3 -0.000139 -0.019237 0.011272 0.000000 -0.001153 0.000000
# 4 0.000000 0.000000 0.000000 0.043775 0.000000 -0.014114
# 5 -0.009140 0.005645 -0.001153 0.000000 0.034100 0.000000
# 6 0.000000 0.000000 0.000000 -0.014114 0.000000 0.035055
#
#
# Mechanical properties :
#
#
# Convention : Reuss Voigt Hill
#
# Bulk Modulus (GPa) = 13.52526 60.26289 36.89407
# Shear Modulus (GPa) = 10.90439 28.44199 19.67319
#
# Velocity S-wave (km/s) = 2.38843 3.85737 3.20811
# Velocity P-wave (km/s) = 3.83169 7.16697 5.74662
#
# Compressibility (1/GPa) = 0.07393571
#
# Stress axis : x y z
#
# Youngs Moduli (GPa) = 39.46902 6.21747 88.71357
#
# Poissons Ratio (x) = 0.26349 0.01229
# Poissons Ratio (y) = 1.67266 1.70661
# Poissons Ratio (z) = 0.00547 0.11961
#
# Static dielectric constant tensor:
#      x y z
#    x 1.650170 0.000000 -0.015380 
#    y 0.000000 1.641740 0.000000 
#    z -0.015380 0.000000 1.649310 
# 
# From -- ./inp_files/238710.got.cif
#   From: 2010.05.17/outbox.cif.g08.bks.cpg/sg12_120_cif.got.tgz:238710.got - 2010.06.03 13:09:07.
