data_PCOD9194961
_publ_section_title
;
Structure prediction by ZEFSAII (Michael W. Deem and Ramdas Pophale) SiO2 
 PCOD9194961
Probable space group: C 2/M
;
_chemical_formula_sum "Si O2"
_cell_formula_units_Z 36
_cell_length_a 8.255621
_cell_length_b 14.355839
_cell_length_c 12.681136
_cell_angle_alpha 90.000000
_cell_angle_beta 113.282526
_cell_angle_gamma 90.000000
_cell_volume 1380.534652
_symmetry_space_group_name_H-M "C 2/M"
_symmetry_group_IT_number 12
_symmetry_cell_setting 'monoclinic'
loop_
_space_group_symop_operation_xyz
x,y,z
-x,y,-z
-x,-y,-z
x,-y,z
1/2+x,1/2+y,z
1/2-x,1/2+y,-z
1/2-x,1/2-y,-z
1/2+x,1/2-y,z
loop_
_atom_site_type_symbol
_atom_site_label
_atom_site_fract_x
_atom_site_fract_y
_atom_site_fract_z
Si Si1 0.982053 0.113506 0.265529
Si Si2 0.671193 0.887351 0.775211
Si Si3 0.639067 0.156564 0.442892
Si Si4 0.500000 0.626895 0.500000
Si Si5 0.304315 0.113508 0.980818
O O1 0.173844 0.134657 0.267207
O O2 0.947391 0.162267 0.368670
O O3 0.968164 0.000000 0.277967
O O4 0.839340 0.141667 0.141841
O O5 0.481374 0.848608 0.691765
O O6 0.729813 0.858917 0.907408
O O7 0.652738 0.000000 0.770109
O O8 0.500000 0.136801 0.500000
O O9 0.750000 0.250000 0.500000
O O10 0.806719 0.089414 0.479478
O O11 0.301914 0.000000 0.978885
O O12 0.500000 0.143844 0.000000
#
# Coordination Sequence:
#
# PCOD9194961 Si02
#       5
#     8   8   8   4   8
#     4  10  20  34  58  96 138 171 206 258 321 378
#     4  10  21  38  63  96 130 166 216 268 313 376
#     4  12  25  44  65  90 124 173 216 264 324 386
#     4  12  23  38  62  90 125 174 218 258 310 384
#     4   9  17  32  55  89 131 171 208 253 315 379
#
# _framework density 26.076853
#
# number of rings (size 3 to 8) (size 9 to 14) (size 15 to 20)
#    0.000    1.556    3.333    2.333    0.000    6.667 
#    0.000    0.000    0.000    1.333    5.778    0.000 
#    0.000    0.000    0.000    0.000    0.000    0.000 
#
# Total GULP energy -100534.989421 kJ/mol
# GULP energy per Si atom -5585.277190 kJ/mol
# Density = 2.601750 g / cm^3
# Si number density = 26.076853 Si / 1000 Ang^3
#
#
#
# Elastic Constant Matrix: (Units=GPa)
#
#
# Indices 1 2 3 4 5 6 
#
# 1 203.7307 25.3229 98.9075 0.0000 13.5990 0.0000
# 2 25.3229 106.6214 24.5521 0.0000 4.7560 0.0000
# 3 98.9075 24.5521 270.6465 0.0000 13.8323 0.0000
# 4 0.0000 0.0000 0.0000 19.8310 0.0000 12.6945
# 5 13.5990 4.7560 13.8323 0.0000 69.1556 0.0000
# 6 0.0000 0.0000 0.0000 12.6945 0.0000 2.0318
#
#
#
# Elastic Compliance Matrix: (Units=1/GPa)
#
#
# Indices 1 2 3 4 5 6 
#
# 1 0.006094 -0.000931 -0.002106 0.000000 -0.000713 0.000000
# 2 -0.000931 0.009738 -0.000524 0.000000 -0.000382 0.000000
# 3 -0.002106 -0.000524 0.004535 0.000000 -0.000457 0.000000
# 4 0.000000 0.000000 0.000000 -0.016812 0.000000 0.105038
# 5 -0.000713 -0.000382 -0.000457 0.000000 0.014718 0.000000
# 6 0.000000 0.000000 0.000000 0.105038 0.000000 -0.164087
#
#
# Mechanical properties :
#
#
# Convention : Reuss Voigt Hill
#
# Bulk Modulus (GPa) = 75.49376 97.61818 86.55597
# Shear Modulus (GPa) = -37.23633 47.01808 4.89087
#
# Velocity S-wave (km/s) = -3.78292 4.25085 1.37100
# Velocity P-wave (km/s) = 3.15162 7.84914 5.98088
#
# Compressibility (1/GPa) = 0.01324613
#
# Stress axis : x y z
#
# Youngs Moduli (GPa) = 164.08868 102.69425 220.48463
#
# Poissons Ratio (x) = 0.09556 0.46440
# Poissons Ratio (y) = 0.15270 0.11548
# Poissons Ratio (z) = 0.34562 0.05379
#
# Static dielectric constant tensor:
#      x y z
#    x 1.998140 0.000000 -0.039650 
#    y 0.000000 2.577300 0.000000 
#    z -0.039650 0.000000 1.995050 
# 
# From -- ./inp_files/120470.got.cif
#   From: 2010.05.17/outbox.cif.g08.bks.cpg/sg12_61_cif.got.tgz:120470.got - 2010.06.03 13:09:07.
