data_PCOD9194146
_publ_section_title
;
Structure prediction by ZEFSAII (Michael W. Deem and Ramdas Pophale) SiO2 
 PCOD9194146
Probable space group: C 2/M
;
_chemical_formula_sum "Si O2"
_cell_formula_units_Z 56
_cell_length_a 25.485809
_cell_length_b 8.952446
_cell_length_c 15.287912
_cell_angle_alpha 90.000000
_cell_angle_beta 105.614045
_cell_angle_gamma 90.000000
_cell_volume 3359.372523
_symmetry_space_group_name_H-M "C 2/M"
_symmetry_group_IT_number 12
_symmetry_cell_setting 'monoclinic'
loop_
_space_group_symop_operation_xyz
x,y,z
-x,y,-z
-x,-y,-z
x,-y,z
1/2+x,1/2+y,z
1/2-x,1/2+y,-z
1/2-x,1/2-y,-z
1/2+x,1/2-y,z
loop_
_atom_site_type_symbol
_atom_site_label
_atom_site_fract_x
_atom_site_fract_y
_atom_site_fract_z
Si Si1 0.179590 0.821125 0.617126
Si Si2 0.994641 0.821021 0.600334
Si Si3 0.826282 0.177654 0.102499
Si Si4 0.399394 0.822206 0.274017
Si Si5 0.629735 0.678882 0.407317
Si Si6 0.305066 0.177902 0.720259
Si Si7 0.787786 0.822314 0.892923
O O1 0.141289 0.737462 0.668684
O O2 0.162072 0.781923 0.510769
O O3 0.242741 0.788126 0.663381
O O4 0.171052 0.000000 0.624198
O O5 0.933752 0.786977 0.605051
O O6 0.000000 0.782298 0.500000
O O7 0.041029 0.737727 0.675093
O O8 0.003250 0.000000 0.611031
O O9 0.876279 0.254378 0.173721
O O10 0.770640 0.243856 0.118406
O O11 0.827316 0.000000 0.118112
O O12 0.822067 0.205219 0.996755
O O13 0.398243 0.000000 0.270795
O O14 0.634845 0.500000 0.397396
O O15 0.655019 0.761823 0.336196
O O16 0.313845 0.256409 0.817340
O O17 0.309821 0.000000 0.731482
O O18 0.779556 0.000000 0.881032
#
# Coordination Sequence:
#
# PCOD9194146 Si02
#       7
#     8   8   8   8   8   8   8
#     4  10  20  36  54  77 110 151 187 219 269 325
#     4  10  20  38  60  78 104 147 189 229 275 321
#     4  10  20  35  55  80 111 144 180 224 274 328
#     4  12  23  33  54  84 114 145 179 229 277 322
#     4  10  21  37  57  77 106 149 192 228 265 323
#     4  11  22  34  54  81 115 152 180 221 275 328
#     4  10  20  34  55  82 110 142 182 225 270 325
#
# _framework density 16.669779999999999
#
# number of rings (size 3 to 8) (size 9 to 14) (size 15 to 20)
#    0.000    1.571    2.857    3.000    0.000    3.714 
#    0.000    0.000    0.000    0.857    0.000    6.000 
#    0.000    0.000    0.000    0.000    0.000    0.000 
#
# Total GULP energy -156428.993485 kJ/mol
# GULP energy per Si atom -5586.749767 kJ/mol
# Density = 1.663184 g / cm^3
# Si number density = 16.669780 Si / 1000 Ang^3
#
#
#
# Elastic Constant Matrix: (Units=GPa)
#
#
# Indices 1 2 3 4 5 6 
#
# 1 82.3890 53.0552 65.1842 0.0000 -8.0005 0.0000
# 2 53.0552 69.7011 71.0778 0.0000 -1.0846 0.0000
# 3 65.1842 71.0778 142.3103 0.0000 0.1912 0.0000
# 4 0.0000 0.0000 0.0000 25.5795 0.0000 -1.8683
# 5 -8.0005 -1.0846 0.1912 0.0000 23.6971 0.0000
# 6 0.0000 0.0000 0.0000 -1.8683 0.0000 23.6711
#
#
#
# Elastic Compliance Matrix: (Units=1/GPa)
#
#
# Indices 1 2 3 4 5 6 
#
# 1 0.026355 -0.015513 -0.004335 0.000000 0.008223 0.000000
# 2 -0.015513 0.038420 -0.012079 0.000000 -0.003381 0.000000
# 3 -0.004335 -0.012079 0.015048 0.000000 -0.002138 0.000000
# 4 0.000000 0.000000 0.000000 0.039320 0.000000 0.003103
# 5 0.008223 -0.003381 -0.002138 0.000000 0.044838 0.000000
# 6 0.000000 0.000000 0.000000 0.003103 0.000000 0.042491
#
#
# Mechanical properties :
#
#
# Convention : Reuss Voigt Hill
#
# Bulk Modulus (GPa) = 62.61671 74.78163 68.69917
# Shear Modulus (GPa) = 18.13896 21.59507 19.86701
#
# Velocity S-wave (km/s) = 3.30227 3.60316 3.45599
# Velocity P-wave (km/s) = 7.22388 7.89103 7.56481
#
# Compressibility (1/GPa) = 0.01597018
#
# Stress axis : x y z
#
# Youngs Moduli (GPa) = 37.94300 26.02811 66.45220
#
# Poissons Ratio (x) = 0.40376 0.28807
# Poissons Ratio (y) = 0.58859 0.80269
# Poissons Ratio (z) = 0.16448 0.31440
#
# Static dielectric constant tensor:
#      x y z
#    x 1.528610 0.000000 0.005900 
#    y 0.000000 1.554820 0.000000 
#    z 0.005900 0.000000 1.563760 
# 
# From -- ./inp_files/237783.got.cif
#   From: 2010.05.17/outbox.cif.g08.bks.cpg/sg12_119_cif.got.tgz:237783.got - 2010.06.03 13:09:07.
