data_PCOD9194764
_publ_section_title
;
Structure prediction by ZEFSAII (Michael W. Deem and Ramdas Pophale) SiO2 
 PCOD9194764
Probable space group: C 2/M
;
_chemical_formula_sum "Si O2"
_cell_formula_units_Z 48
_cell_length_a 9.079560
_cell_length_b 15.947051
_cell_length_c 21.666635
_cell_angle_alpha 90.000000
_cell_angle_beta 134.386277
_cell_angle_gamma 90.000000
_cell_volume 2241.940683
_symmetry_space_group_name_H-M "C 2/M"
_symmetry_group_IT_number 12
_symmetry_cell_setting 'monoclinic'
loop_
_space_group_symop_operation_xyz
x,y,z
-x,y,-z
-x,-y,-z
x,-y,z
1/2+x,1/2+y,z
1/2-x,1/2+y,-z
1/2-x,1/2-y,-z
1/2+x,1/2-y,z
loop_
_atom_site_type_symbol
_atom_site_label
_atom_site_fract_x
_atom_site_fract_y
_atom_site_fract_z
Si Si1 0.644500 0.402085 0.239932
Si Si2 0.002881 0.399061 0.253222
Si Si3 0.443672 0.672075 0.415664
Si Si4 0.282517 0.595730 0.937624
Si Si5 0.719290 0.903989 0.063549
Si Si6 0.793270 0.354219 0.414433
O O1 0.631479 0.500000 0.218309
O O2 0.423127 0.365805 0.154295
O O3 0.682149 0.396109 0.323716
O O4 0.842066 0.369405 0.259329
O O5 0.017626 0.500000 0.260278
O O6 0.232644 0.366645 0.328964
O O7 0.900097 0.371330 0.158386
O O8 0.500000 0.635648 0.500000
O O9 0.631009 0.662111 0.422202
O O10 0.384573 0.768346 0.412181
O O11 0.312564 0.500000 0.921123
O O12 0.500000 0.642270 0.000000
O O13 0.246605 0.588381 0.998820
O O14 0.695020 0.000000 0.082899
O O15 0.500000 0.858529 0.000000
O O16 0.000000 0.399097 0.500000
#
# Coordination Sequence:
#
# PCOD9194764 Si02
#       6
#     8   8   8   8   8   8
#     4  10  20  35  56  86 119 150 184 230 280 322
#     4  10  20  34  57  87 118 148 186 232 276 324
#     4  11  23  41  63  83 107 144 187 229 279 339
#     4   9  15  28  49  76 110 151 187 219 267 322
#     4   9  17  28  47  76 114 151 185 224 267 323
#     4  11  23  41  63  82 108 145 186 229 278 341
#
# _framework density 21.410022000000001
#
# number of rings (size 3 to 8) (size 9 to 14) (size 15 to 20)
#    0.000    2.000    1.667    4.000    2.333    1.333 
#    0.000    0.000    0.000    2.000    0.000    0.000 
#    0.000    0.000    0.000    0.000    0.000    0.000 
#
# Total GULP energy -133711.224934 kJ/mol
# GULP energy per Si atom -5571.301039 kJ/mol
# Density = 2.136129 g / cm^3
# Si number density = 21.410022 Si / 1000 Ang^3
#
#
#
# Elastic Constant Matrix: (Units=GPa)
#
#
# Indices 1 2 3 4 5 6 
#
# 1 127.5997 5.5885 73.3366 0.0000 24.0713 0.0000
# 2 5.5885 21.3802 14.8119 0.0000 6.3974 0.0000
# 3 73.3366 14.8119 212.0360 0.0000 18.5713 0.0000
# 4 0.0000 0.0000 0.0000 66.8026 0.0000 -12.3311
# 5 24.0713 6.3974 18.5713 0.0000 43.6419 0.0000
# 6 0.0000 0.0000 0.0000 -12.3311 0.0000 17.4344
#
#
#
# Elastic Compliance Matrix: (Units=1/GPa)
#
#
# Indices 1 2 3 4 5 6 
#
# 1 0.010562 0.000898 -0.003318 0.000000 -0.004545 0.000000
# 2 0.000898 0.050770 -0.003284 0.000000 -0.006540 0.000000
# 3 -0.003318 -0.003284 0.006119 0.000000 -0.000292 0.000000
# 4 0.000000 0.000000 0.000000 0.017217 0.000000 0.012178
# 5 -0.004545 -0.006540 -0.000292 0.000000 0.026504 0.000000
# 6 0.000000 0.000000 0.000000 0.012178 0.000000 0.065971
#
#
# Mechanical properties :
#
#
# Convention : Reuss Voigt Hill
#
# Bulk Modulus (GPa) = 17.84373 60.94332 39.39352
# Shear Modulus (GPa) = 24.12762 43.39438 33.76100
#
# Velocity S-wave (km/s) = 3.36062 4.50691 3.97530
# Velocity P-wave (km/s) = 4.83847 7.45719 6.28571
#
# Compressibility (1/GPa) = 0.05604211
#
# Stress axis : x y z
#
# Youngs Moduli (GPa) = 94.67952 19.69676 163.43386
#
# Poissons Ratio (x) = -0.01768 0.54222
# Poissons Ratio (y) = -0.08500 0.53676
# Poissons Ratio (z) = 0.31411 0.06469
#
# Static dielectric constant tensor:
#      x y z
#    x 1.588480 0.000000 0.027840 
#    y 0.000000 1.831450 0.000000 
#    z 0.027840 0.000000 1.836090 
# 
# From -- ./inp_files/257912.got.cif
#   From: 2010.05.17/outbox.cif.g08.bks.cpg/sg12_129_cif.got.tgz:257912.got - 2010.06.03 13:09:07.
