data_PCOD9194763
_publ_section_title
;
Structure prediction by ZEFSAII (Michael W. Deem and Ramdas Pophale) SiO2 
 PCOD9194763
Probable space group: C 2/M
;
_chemical_formula_sum "Si O2"
_cell_formula_units_Z 48
_cell_length_a 24.939790
_cell_length_b 8.764397
_cell_length_c 11.374678
_cell_angle_alpha 90.000000
_cell_angle_beta 73.690460
_cell_angle_gamma 90.000000
_cell_volume 2386.249955
_symmetry_space_group_name_H-M "C 2/M"
_symmetry_group_IT_number 12
_symmetry_cell_setting 'monoclinic'
loop_
_space_group_symop_operation_xyz
x,y,z
-x,y,-z
-x,-y,-z
x,-y,z
1/2+x,1/2+y,z
1/2-x,1/2+y,-z
1/2-x,1/2-y,-z
1/2+x,1/2-y,z
loop_
_atom_site_type_symbol
_atom_site_label
_atom_site_fract_x
_atom_site_fract_y
_atom_site_fract_z
Si Si1 0.913268 0.316525 0.753235
Si Si2 0.693189 0.821872 0.581329
Si Si3 0.979338 0.818928 0.222266
Si Si4 0.370009 0.317097 0.158377
Si Si5 0.688183 0.182480 0.034605
Si Si6 0.580103 0.821216 0.516824
O O1 0.915169 0.500000 0.751578
O O2 0.927021 0.266604 0.611916
O O3 0.959968 0.256048 0.813876
O O4 0.851473 0.270077 0.832151
O O5 0.750000 0.750000 0.500000
O O6 0.668466 0.732031 0.707890
O O7 0.645268 0.814533 0.511298
O O8 0.700782 0.000000 0.607636
O O9 0.933391 0.769758 0.154046
O O10 0.952263 0.772482 0.364324
O O11 0.985273 0.000000 0.209956
O O12 0.369129 0.500000 0.145735
O O13 0.344807 0.238447 0.059916
O O14 0.692225 0.000000 0.031725
O O15 0.750000 0.250000 0.000000
O O16 0.562665 0.000000 0.536354
#
# Coordination Sequence:
#
# PCOD9194763 Si02
#       6
#     8   8   8   8   8   8
#     4  10  22  39  60  86 119 160 197 237 295 361
#     4  10  20  34  57  87 117 155 200 245 299 358
#     4  10  21  37  60  91 121 152 194 248 299 345
#     4  10  22  41  61  83 119 158 197 249 300 351
#     4  11  25  43  63  88 118 157 203 248 298 355
#     4   9  19  36  57  84 120 158 192 235 296 361
#
# _framework density 20.115245000000002
#
# number of rings (size 3 to 8) (size 9 to 14) (size 15 to 20)
#    0.000    2.000    0.000    2.500    2.333    7.333 
#    0.000    3.333    0.000    0.000    0.000    0.000 
#    0.000    0.000    0.000    0.000    0.000    0.000 
#
# Total GULP energy -134091.049003 kJ/mol
# GULP energy per Si atom -5587.127042 kJ/mol
# Density = 2.006946 g / cm^3
# Si number density = 20.115245 Si / 1000 Ang^3
#
#
#
# Elastic Constant Matrix: (Units=GPa)
#
#
# Indices 1 2 3 4 5 6 
#
# 1 111.6313 21.9382 30.0171 0.0000 -7.0277 0.0000
# 2 21.9382 27.7983 2.5150 0.0000 -0.5723 0.0000
# 3 30.0171 2.5150 36.6073 0.0000 13.7057 0.0000
# 4 0.0000 0.0000 0.0000 24.1923 0.0000 -3.5090
# 5 -7.0277 -0.5723 13.7057 0.0000 32.5257 0.0000
# 6 0.0000 0.0000 0.0000 -3.5090 0.0000 34.3823
#
#
#
# Elastic Compliance Matrix: (Units=1/GPa)
#
#
# Indices 1 2 3 4 5 6 
#
# 1 0.016151 -0.011064 -0.016287 0.000000 0.010158 0.000000
# 2 -0.011064 0.043887 0.007911 0.000000 -0.004952 0.000000
# 3 -0.016287 0.007911 0.049147 0.000000 -0.024089 0.000000
# 4 0.000000 0.000000 0.000000 0.041957 0.000000 0.004282
# 5 0.010158 -0.004952 -0.024089 0.000000 0.043003 0.000000
# 6 0.000000 0.000000 0.000000 0.004282 0.000000 0.029522
#
#
# Mechanical properties :
#
#
# Convention : Reuss Voigt Hill
#
# Bulk Modulus (GPa) = 14.22346 31.66418 22.94382
# Shear Modulus (GPa) = 17.48364 26.32451 21.90407
#
# Velocity S-wave (km/s) = 2.95137 3.62150 3.30347
# Velocity P-wave (km/s) = 4.32440 5.76737 5.09721
#
# Compressibility (1/GPa) = 0.07030637
#
# Stress axis : x y z
#
# Youngs Moduli (GPa) = 61.91479 22.78566 20.34712
#
# Poissons Ratio (x) = 0.25210 0.33139
# Poissons Ratio (y) = 0.68501 -0.16096
# Poissons Ratio (z) = 1.00838 -0.18025
#
# Static dielectric constant tensor:
#      x y z
#    x 1.712120 0.000000 -0.003800 
#    y 0.000000 1.677570 0.000000 
#    z -0.003800 0.000000 1.715000 
# 
# From -- ./inp_files/172948.got.cif
#   From: 2010.05.17/outbox.cif.g08.bks.cpg/sg12_87_cif.got.tgz:172948.got - 2010.06.03 13:09:07.
