data_PCOD9194754
_publ_section_title
;
Structure prediction by ZEFSAII (Michael W. Deem and Ramdas Pophale) SiO2 
 PCOD9194754
Probable space group: C 2/M
;
_chemical_formula_sum "Si O2"
_cell_formula_units_Z 56
_cell_length_a 17.504012
_cell_length_b 23.838273
_cell_length_c 9.676175
_cell_angle_alpha 90.000000
_cell_angle_beta 46.657859
_cell_angle_gamma 90.000000
_cell_volume 2936.369264
_symmetry_space_group_name_H-M "C 2/M"
_symmetry_group_IT_number 12
_symmetry_cell_setting 'monoclinic'
loop_
_space_group_symop_operation_xyz
x,y,z
-x,y,-z
-x,-y,-z
x,-y,z
1/2+x,1/2+y,z
1/2-x,1/2+y,-z
1/2-x,1/2-y,-z
1/2+x,1/2-y,z
loop_
_atom_site_type_symbol
_atom_site_label
_atom_site_fract_x
_atom_site_fract_y
_atom_site_fract_z
Si Si1 0.060037 0.840986 0.570471
Si Si2 0.781760 0.435105 0.856546
Si Si3 0.915380 0.375147 0.906493
Si Si4 0.202497 0.353313 0.675824
Si Si5 0.536972 0.236338 0.801159
Si Si6 0.371263 0.065199 0.444708
Si Si7 0.033852 0.065936 0.113971
O O1 0.185317 0.843975 0.396047
O O2 0.041158 0.787059 0.690754
O O3 0.000000 0.837229 0.500000
O O4 0.020989 0.894939 0.705103
O O5 0.796681 0.500000 0.884285
O O6 0.821905 0.392441 0.921603
O O7 0.849959 0.427117 0.633264
O O8 0.659563 0.427850 0.972668
O O9 0.957511 0.311574 0.844367
O O10 0.013376 0.414198 0.743068
O O11 0.875580 0.379585 0.112933
O O12 0.146608 0.296947 0.689076
O O13 0.208826 0.396444 0.541568
O O14 0.500000 0.254530 0.000000
O O15 0.356876 0.000000 0.430752
O O16 0.008039 0.000000 0.166725
O O17 0.000000 0.081017 0.000000
#
# Coordination Sequence:
#
# PCOD9194754 Si02
#       7
#     8   8   8   8   8   8   8
#     4  12  24  39  60  87 115 148 191 236 282 330
#     4  10  20  35  57  86 118 150 188 236 286 332
#     4  10  20  37  58  86 118 146 181 236 293 339
#     4  10  22  39  58  81 116 153 188 231 282 340
#     4   9  21  41  61  82 112 148 189 234 283 342
#     4  10  20  34  57  87 115 149 191 232 281 343
#     4  10  22  41  61  82 114 156 197 232 271 329
#
# _framework density 19.071171
#
# number of rings (size 3 to 8) (size 9 to 14) (size 15 to 20)
#    0.000    1.857    0.000    4.714    0.000    7.143 
#    0.000    9.286    0.000    0.000    0.000    0.000 
#    0.000    0.000    0.000    0.000    0.000    0.000 
#
# Total GULP energy -156379.220466 kJ/mol
# GULP energy per Si atom -5584.972159 kJ/mol
# Density = 1.902776 g / cm^3
# Si number density = 19.071171 Si / 1000 Ang^3
#
#
#
# Elastic Constant Matrix: (Units=GPa)
#
#
# Indices 1 2 3 4 5 6 
#
# 1 136.5621 53.4483 37.5341 0.0000 10.9039 0.0000
# 2 53.4483 73.3787 52.0659 0.0000 15.6680 0.0000
# 3 37.5341 52.0659 81.0268 0.0000 8.4936 0.0000
# 4 0.0000 0.0000 0.0000 32.3676 0.0000 9.3196
# 5 10.9039 15.6680 8.4936 0.0000 21.1330 0.0000
# 6 0.0000 0.0000 0.0000 9.3196 0.0000 24.6485
#
#
#
# Elastic Compliance Matrix: (Units=1/GPa)
#
#
# Indices 1 2 3 4 5 6 
#
# 1 0.010245 -0.007605 0.000109 0.000000 0.000309 0.000000
# 2 -0.007605 0.034405 -0.017040 0.000000 -0.014735 0.000000
# 3 0.000109 -0.017040 0.022886 0.000000 0.003379 0.000000
# 4 0.000000 0.000000 0.000000 0.034669 0.000000 -0.013109
# 5 0.000309 -0.014735 0.003379 0.000000 0.056726 0.000000
# 6 0.000000 0.000000 0.000000 -0.013109 0.000000 0.045527
#
#
# Mechanical properties :
#
#
# Convention : Reuss Voigt Hill
#
# Bulk Modulus (GPa) = 54.16250 64.11825 59.14037
# Shear Modulus (GPa) = 19.25408 25.49110 22.37259
#
# Velocity S-wave (km/s) = 3.18085 3.65996 3.42879
# Velocity P-wave (km/s) = 6.47706 7.18011 6.83762
#
# Compressibility (1/GPa) = 0.01846296
#
# Stress axis : x y z
#
# Youngs Moduli (GPa) = 97.61149 29.06588 43.69421
#
# Poissons Ratio (x) = 0.22106 -0.00476
# Poissons Ratio (y) = 0.74238 0.74455
# Poissons Ratio (z) = -0.01064 0.49528
#
# Static dielectric constant tensor:
#      x y z
#    x 1.672200 0.000000 -0.023730 
#    y 0.000000 1.642630 0.000000 
#    z -0.023730 0.000000 1.653240 
# 
# From -- ./inp_files/79080.got.cif
#   From: 2010.05.17/outbox.cif.g08.bks.cpg/sg12_40_cif.got.tgz:79080.got - 2010.06.03 13:09:07.
