data_PCOD9194827
_publ_section_title
;
Structure prediction by ZEFSAII (Michael W. Deem and Ramdas Pophale) SiO2 
 PCOD9194827
Probable space group: C 2/M
;
_chemical_formula_sum "Si O2"
_cell_formula_units_Z 64
_cell_length_a 15.147752
_cell_length_b 8.770697
_cell_length_c 31.634655
_cell_angle_alpha 90.000000
_cell_angle_beta 127.496721
_cell_angle_gamma 90.000000
_cell_volume 3334.503068
_symmetry_space_group_name_H-M "C 2/M"
_symmetry_group_IT_number 12
_symmetry_cell_setting 'monoclinic'
loop_
_space_group_symop_operation_xyz
x,y,z
-x,y,-z
-x,-y,-z
x,-y,z
1/2+x,1/2+y,z
1/2-x,1/2+y,-z
1/2-x,1/2-y,-z
1/2+x,1/2-y,z
loop_
_atom_site_type_symbol
_atom_site_label
_atom_site_fract_x
_atom_site_fract_y
_atom_site_fract_z
Si Si1 0.259043 0.818121 0.330582
Si Si2 0.594790 0.326281 0.558497
Si Si3 0.819252 0.316439 0.866251
Si Si4 0.302407 0.829994 0.555466
Si Si5 0.683694 0.316439 0.743299
Si Si6 0.439808 0.185207 0.670851
Si Si7 0.758024 0.182019 0.935103
Si Si8 0.574818 0.183833 0.950754
O O1 0.366310 0.768212 0.389817
O O2 0.271473 0.749580 0.287675
O O3 0.150858 0.749005 0.322613
O O4 0.251693 0.000000 0.327232
O O5 0.500000 0.261701 0.500000
O O6 0.561438 0.500000 0.561011
O O7 0.703444 0.337814 0.560812
O O8 0.817226 0.500000 0.868789
O O9 0.763572 0.274704 0.805637
O O10 0.754623 0.248377 0.887312
O O11 0.948042 0.267246 0.907265
O O12 0.250000 0.750000 0.500000
O O13 0.402287 0.762211 0.612536
O O14 0.335319 0.000000 0.551906
O O15 0.677016 0.500000 0.738758
O O16 0.561765 0.246964 0.715543
O O17 0.436478 0.000000 0.670299
O O18 0.652279 0.225565 0.933302
O O19 0.763587 0.000000 0.935233
O O20 0.866052 0.245939 0.991053
O O21 0.577107 0.000000 0.955627
#
# Coordination Sequence:
#
# PCOD9194827 Si02
#       8
#     8   8   8   8   8   8   8   8
#     4  11  23  40  61  87 117 153 196 243 296 355
#     4   9  19  36  56  81 111 147 186 230 288 351
#     4  10  22  39  58  83 115 154 199 240 289 350
#     4   9  19  33  52  80 110 140 176 224 283 346
#     4  11  24  41  62  87 116 158 205 250 301 355
#     4  10  22  42  62  84 115 153 195 242 297 357
#     4  10  20  34  57  89 120 153 195 242 291 339
#     4   9  19  37  58  82 118 160 194 232 289 350
#
# _framework density 19.193263999999999
#
# number of rings (size 3 to 8) (size 9 to 14) (size 15 to 20)
#    0.000    2.125    0.000    3.375    1.750    7.250 
#    0.000    1.250    0.000    0.000    0.000    0.000 
#    0.000    0.000    0.000    0.000    0.000    0.000 
#
# Total GULP energy -178646.536908 kJ/mol
# GULP energy per Si atom -5582.704278 kJ/mol
# Density = 1.914958 g / cm^3
# Si number density = 19.193264 Si / 1000 Ang^3
#
#
#
# Elastic Constant Matrix: (Units=GPa)
#
#
# Indices 1 2 3 4 5 6 
#
# 1 70.2843 28.1840 46.9600 0.0000 -15.7612 0.0000
# 2 28.1840 57.1608 45.1107 0.0000 -13.0813 0.0000
# 3 46.9600 45.1107 117.7920 0.0000 -28.2809 0.0000
# 4 0.0000 0.0000 0.0000 25.9165 0.0000 -2.9139
# 5 -15.7612 -13.0813 -28.2809 0.0000 31.7167 0.0000
# 6 0.0000 0.0000 0.0000 -2.9139 0.0000 26.8398
#
#
#
# Elastic Compliance Matrix: (Units=1/GPa)
#
#
# Indices 1 2 3 4 5 6 
#
# 1 0.020688 -0.005106 -0.005509 0.000000 0.003263 0.000000
# 2 -0.005106 0.026461 -0.007745 0.000000 0.001470 0.000000
# 3 -0.005509 -0.007745 0.015558 0.000000 0.007941 0.000000
# 4 0.000000 0.000000 0.000000 0.039062 0.000000 0.004241
# 5 0.003263 0.001470 0.007941 0.000000 0.040838 0.000000
# 6 0.000000 0.000000 0.000000 0.004241 0.000000 0.037719
#
#
# Mechanical properties :
#
#
# Convention : Reuss Voigt Hill
#
# Bulk Modulus (GPa) = 38.48091 53.97185 46.22638
# Shear Modulus (GPa) = 22.15249 25.22675 23.68962
#
# Velocity S-wave (km/s) = 3.40101 3.62934 3.51703
# Velocity P-wave (km/s) = 5.95946 6.76343 6.37414
#
# Compressibility (1/GPa) = 0.02598691
#
# Stress axis : x y z
#
# Youngs Moduli (GPa) = 48.33767 37.79146 64.27398
#
# Poissons Ratio (x) = 0.19298 0.35406
# Poissons Ratio (y) = 0.24683 0.49780
# Poissons Ratio (z) = 0.26628 0.29270
#
# Static dielectric constant tensor:
#      x y z
#    x 1.670000 0.000000 0.011880 
#    y 0.000000 1.662830 0.000000 
#    z 0.011880 0.000000 1.665800 
# 
# From -- ./inp_files/375549.got.cif
#   From: 2010.05.17/outbox.cif.g08.bks.cpg/sg12_188_cif.got.tgz:375549.got - 2010.06.03 13:09:07.
