data_PCOD9194832
_publ_section_title
;
Structure prediction by ZEFSAII (Michael W. Deem and Ramdas Pophale) SiO2 
 PCOD9194832
Probable space group: C 2/M
;
_chemical_formula_sum "Si O2"
_cell_formula_units_Z 48
_cell_length_a 15.302630
_cell_length_b 13.516156
_cell_length_c 10.675508
_cell_angle_alpha 90.000000
_cell_angle_beta 77.155830
_cell_angle_gamma 90.000000
_cell_volume 2152.795416
_symmetry_space_group_name_H-M "C 2/M"
_symmetry_group_IT_number 12
_symmetry_cell_setting 'monoclinic'
loop_
_space_group_symop_operation_xyz
x,y,z
-x,y,-z
-x,-y,-z
x,-y,z
1/2+x,1/2+y,z
1/2-x,1/2+y,-z
1/2-x,1/2-y,-z
1/2+x,1/2-y,z
loop_
_atom_site_type_symbol
_atom_site_label
_atom_site_fract_x
_atom_site_fract_y
_atom_site_fract_z
Si Si1 0.896900 0.218553 0.209116
Si Si2 0.783129 0.881594 0.016502
Si Si3 0.391324 0.611072 0.481227
Si Si4 0.394488 0.228187 0.867243
Si Si5 0.412315 0.190907 0.587079
Si Si6 0.186081 0.390069 0.611010
O O1 0.837836 0.161798 0.122240
O O2 0.898058 0.156565 0.338933
O O3 0.848574 0.319376 0.268573
O O4 0.000132 0.247284 0.138295
O O5 0.681078 0.839097 0.037158
O O6 0.783209 0.000000 0.018687
O O7 0.842868 0.833432 0.886806
O O8 0.425392 0.500000 0.461613
O O9 0.425011 0.691161 0.571524
O O10 0.291091 0.602928 0.565074
O O11 0.397356 0.171277 0.734727
O O12 0.500000 0.142574 0.500000
O O13 0.337284 0.158467 0.515674
O O14 0.147098 0.500000 0.635043
#
# Coordination Sequence:
#
# PCOD9194832 Si02
#       6
#     8   8   8   8   8   8
#     4  11  21  42  66  94 133 172 222 276 329 391
#     4  11  26  46  70  96 130 180 231 278 329 392
#     4  10  20  34  57  89 125 167 211 263 328 391
#     4  11  24  43  65  98 134 171 225 281 327 386
#     4  11  20  38  58  90 127 165 201 267 325 388
#     4  10  21  37  62  95 131 170 212 262 328 400
#
# _framework density 22.296592
#
# number of rings (size 3 to 8) (size 9 to 14) (size 15 to 20)
#    0.000    1.333    3.333    5.000    0.000    6.000 
#    0.000    5.000    0.000    5.000    0.000    0.000 
#    0.000    0.000    0.000    0.000    0.000    0.000 
#
# Total GULP energy -133645.067350 kJ/mol
# GULP energy per Si atom -5568.544473 kJ/mol
# Density = 2.224584 g / cm^3
# Si number density = 22.296592 Si / 1000 Ang^3
#
#
#
# Elastic Constant Matrix: (Units=GPa)
#
#
# Indices 1 2 3 4 5 6 
#
# 1 107.7447 38.4883 39.4599 0.0000 -24.5363 0.0000
# 2 38.4883 138.5843 20.5465 0.0000 -11.0271 0.0000
# 3 39.4599 20.5465 82.5344 0.0000 -29.2979 0.0000
# 4 0.0000 0.0000 0.0000 23.9771 0.0000 40.5716
# 5 -24.5363 -11.0271 -29.2979 0.0000 24.4608 0.0000
# 6 0.0000 0.0000 0.0000 40.5716 0.0000 85.2498
#
#
#
# Elastic Compliance Matrix: (Units=1/GPa)
#
#
# Indices 1 2 3 4 5 6 
#
# 1 0.013168 -0.002571 -0.002398 0.000000 0.009178 0.000000
# 2 -0.002571 0.008051 -0.000699 0.000000 0.000212 0.000000
# 3 -0.002398 -0.000699 0.021695 0.000000 0.023265 0.000000
# 4 0.000000 0.000000 0.000000 0.214202 0.000000 -0.101942
# 5 0.009178 0.000212 0.023265 0.000000 0.078049 0.000000
# 6 0.000000 0.000000 0.000000 -0.101942 0.000000 0.060246
#
#
# Mechanical properties :
#
#
# Convention : Reuss Voigt Hill
#
# Bulk Modulus (GPa) = 31.66888 58.42808 45.04848
# Shear Modulus (GPa) = 11.98257 42.09546 27.03901
#
# Velocity S-wave (km/s) = 2.32074 4.34980 3.48616
# Velocity P-wave (km/s) = 4.62768 7.17562 6.03759
#
# Compressibility (1/GPa) = 0.03157674
#
# Stress axis : x y z
#
# Youngs Moduli (GPa) = 75.94304 124.21556 46.09323
#
# Poissons Ratio (x) = 0.31939 0.11051
# Poissons Ratio (y) = 0.19527 0.03224
# Poissons Ratio (z) = 0.18208 0.08689
#
# Static dielectric constant tensor:
#      x y z
#    x 1.597540 0.000000 0.061230 
#    y 0.000000 1.835700 0.000000 
#    z 0.061230 0.000000 1.837910 
# 
# From -- ./inp_files/142868.got.cif
#   From: 2010.05.17/outbox.cif.g08.bks.cpg/sg12_72_cif.got.tgz:142868.got - 2010.06.03 13:09:07.
