data_PCOD9194160
_publ_section_title
;
Structure prediction by ZEFSAII (Michael W. Deem and Ramdas Pophale) SiO2 
 PCOD9194160
Probable space group: C 2/M
;
_chemical_formula_sum "Si O2"
_cell_formula_units_Z 48
_cell_length_a 18.933124
_cell_length_b 8.628261
_cell_length_c 24.782209
_cell_angle_alpha 90.000000
_cell_angle_beta 39.963374
_cell_angle_gamma 90.000000
_cell_volume 2600.291254
_symmetry_space_group_name_H-M "C 2/M"
_symmetry_group_IT_number 12
_symmetry_cell_setting 'monoclinic'
loop_
_space_group_symop_operation_xyz
x,y,z
-x,y,-z
-x,-y,-z
x,-y,z
1/2+x,1/2+y,z
1/2-x,1/2+y,-z
1/2-x,1/2-y,-z
1/2+x,1/2-y,z
loop_
_atom_site_type_symbol
_atom_site_label
_atom_site_fract_x
_atom_site_fract_y
_atom_site_fract_z
Si Si1 0.965229 0.314118 0.080856
Si Si2 0.965599 0.312044 0.578541
Si Si3 0.873122 0.185960 0.922328
Si Si4 0.779085 0.313431 0.766006
Si Si5 0.628857 0.185692 0.579940
Si Si6 0.556645 0.685942 0.239486
O O1 0.967241 0.500000 0.082114
O O2 0.842271 0.254466 0.163048
O O3 0.049538 0.248713 0.075504
O O4 0.000000 0.266312 0.000000
O O5 0.962131 0.500000 0.577425
O O6 0.849142 0.264006 0.672163
O O7 0.000000 0.251746 0.500000
O O8 0.056747 0.272416 0.569579
O O9 0.920312 0.230151 0.835795
O O10 0.870183 0.000000 0.926793
O O11 0.750000 0.250000 0.000000
O O12 0.774604 0.500000 0.769979
O O13 0.849894 0.256696 0.776030
O O14 0.750000 0.250000 0.500000
O O15 0.560792 0.255348 0.669834
O O16 0.630967 0.000000 0.583577
O O17 0.561223 0.500000 0.241129
#
# Coordination Sequence:
#
# PCOD9194160 Si02
#       6
#     8   8   8   8   8   8
#     4  11  24  40  58  82 113 148 184 226 279 336
#     4   8  16  32  53  77 106 140 178 220 267 320
#     4  11  24  40  60  85 112 146 187 232 283 337
#     4  10  20  35  58  85 111 145 187 229 278 332
#     4  10  20  34  55  82 111 147 188 232 282 333
#     4  10  21  38  58  81 112 149 188 232 283 336
#
# _framework density 18.45947
#
# number of rings (size 3 to 8) (size 9 to 14) (size 15 to 20)
#    0.000    2.000    0.000    4.500    0.000    9.333 
#    0.000    3.333    0.000   17.000    0.000    0.000 
#    0.000    0.000    0.000    0.000    0.000    0.000 
#
# Total GULP energy -134029.363038 kJ/mol
# GULP energy per Si atom -5584.556793 kJ/mol
# Density = 1.841746 g / cm^3
# Si number density = 18.459470 Si / 1000 Ang^3
#
#
#
# Elastic Constant Matrix: (Units=GPa)
#
#
# Indices 1 2 3 4 5 6 
#
# 1 124.4500 40.3097 122.7902 0.0000 6.9399 0.0000
# 2 40.3097 48.1876 53.9193 0.0000 5.4336 -0.0002
# 3 122.7902 53.9193 221.2443 0.0000 1.5551 0.0000
# 4 0.0000 0.0000 0.0000 33.2919 0.0000 -5.3413
# 5 6.9399 5.4336 1.5551 0.0000 42.4583 0.0000
# 6 0.0000 -0.0002 0.0000 -5.3413 0.0000 31.8854
#
#
#
# Elastic Compliance Matrix: (Units=1/GPa)
#
#
# Indices 1 2 3 4 5 6 
#
# 1 0.018967 -0.005320 -0.009216 0.000000 -0.002082 0.000000
# 2 -0.005320 0.030524 -0.004466 0.000000 -0.002873 0.000000
# 3 -0.009216 -0.004466 0.010711 0.000000 0.001686 0.000000
# 4 0.000000 0.000000 0.000000 0.030867 0.000000 0.005171
# 5 -0.002082 -0.002873 0.001686 0.000000 0.024199 0.000000
# 6 0.000000 0.000000 0.000000 0.005171 0.000000 0.032228
#
#
# Mechanical properties :
#
#
# Convention : Reuss Voigt Hill
#
# Bulk Modulus (GPa) = 45.04752 91.99113 68.51933
# Shear Modulus (GPa) = 25.92019 33.31797 29.61908
#
# Velocity S-wave (km/s) = 3.75129 4.25305 4.01002
# Velocity P-wave (km/s) = 6.57414 8.60582 7.65766
#
# Compressibility (1/GPa) = 0.02219878
#
# Stress axis : x y z
#
# Youngs Moduli (GPa) = 52.72207 32.76130 93.36005
#
# Poissons Ratio (x) = 0.17429 0.86038
# Poissons Ratio (y) = 0.28047 0.41697
# Poissons Ratio (z) = 0.48587 0.14632
#
# Static dielectric constant tensor:
#      x y z
#    x 1.603770 0.000000 0.020990 
#    y 0.000000 1.626350 0.000000 
#    z 0.020990 0.000000 1.633080 
# 
# From -- ./inp_files/365382.got.cif
#   From: 2010.05.17/outbox.cif.g08.bks.cpg/sg12_183_cif.got.tgz:365382.got - 2010.06.03 13:09:07.
