data_PCOD9194842
_publ_section_title
;
Structure prediction by ZEFSAII (Michael W. Deem and Ramdas Pophale) SiO2 
 PCOD9194842
Probable space group: C 2/M
;
_chemical_formula_sum "Si O2"
_cell_formula_units_Z 52
_cell_length_a 12.835075
_cell_length_b 20.158974
_cell_length_c 11.606621
_cell_angle_alpha 90.000000
_cell_angle_beta 59.421076
_cell_angle_gamma 90.000000
_cell_volume 2585.473469
_symmetry_space_group_name_H-M "C 2/M"
_symmetry_group_IT_number 12
_symmetry_cell_setting 'monoclinic'
loop_
_space_group_symop_operation_xyz
x,y,z
-x,y,-z
-x,-y,-z
x,-y,z
1/2+x,1/2+y,z
1/2-x,1/2+y,-z
1/2-x,1/2-y,-z
1/2+x,1/2-y,z
loop_
_atom_site_type_symbol
_atom_site_label
_atom_site_fract_x
_atom_site_fract_y
_atom_site_fract_z
Si Si1 0.216431 0.577929 0.223231
Si Si2 0.940398 0.079495 0.251157
Si Si3 0.500000 0.878591 0.500000
Si Si4 0.892351 0.577737 0.154277
Si Si5 0.872465 0.314460 0.359362
Si Si6 0.215729 0.080035 0.059321
Si Si7 0.410008 0.686479 0.445631
O O1 0.240256 0.500000 0.196465
O O2 0.330562 0.603738 0.232280
O O3 0.092746 0.584709 0.362941
O O4 0.216646 0.605590 0.093211
O O5 0.928709 0.114559 0.380312
O O6 0.073933 0.094734 0.128398
O O7 0.931323 0.000000 0.267201
O O8 0.412362 0.839112 0.463479
O O9 0.880825 0.500000 0.200578
O O10 0.912294 0.630500 0.244536
O O11 0.775041 0.600608 0.146573
O O12 0.000000 0.578276 0.000000
O O13 0.727874 0.308559 0.434295
O O14 0.926291 0.240158 0.332886
O O15 0.229465 0.000000 0.055717
O O16 0.500000 0.698366 0.500000
#
# Coordination Sequence:
#
# PCOD9194842 Si02
#       7
#     8   8   4   8   8   8   8
#     4  10  20  34  57  90 126 158 196 248 304 361
#     4  10  20  36  60  91 120 155 207 254 303 362
#     4  12  21  38  58  86 117 162 204 250 286 374
#     4  10  21  39  62  91 123 159 204 254 307 361
#     4  11  24  40  62  86 122 163 202 248 307 365
#     4   9  18  35  58  86 122 160 195 247 308 355
#     4  11  23  42  63  84 122 164 203 251 308 363
#
# _framework density 20.112371
#
# number of rings (size 3 to 8) (size 9 to 14) (size 15 to 20)
#    0.000    1.692    2.308    2.538    0.000    5.231 
#    0.000    1.538    0.000    3.692    0.000    0.000 
#    0.000    0.000    0.000    0.000    0.000    0.000 
#
# Total GULP energy -144947.919861 kJ/mol
# GULP energy per Si atom -5574.919995 kJ/mol
# Density = 2.006659 g / cm^3
# Si number density = 20.112371 Si / 1000 Ang^3
#
#
#
# Elastic Constant Matrix: (Units=GPa)
#
#
# Indices 1 2 3 4 5 6 
#
# 1 134.0025 22.4001 30.6548 0.0000 6.4967 0.0000
# 2 22.4001 45.1436 17.7531 0.0000 4.5818 0.0000
# 3 30.6548 17.7531 53.3762 0.0000 3.6007 0.0000
# 4 0.0000 0.0000 0.0000 17.2367 0.0000 9.5190
# 5 6.4967 4.5818 3.6007 0.0000 20.1033 0.0000
# 6 0.0000 0.0000 0.0000 9.5190 0.0000 19.1794
#
#
#
# Elastic Compliance Matrix: (Units=1/GPa)
#
#
# Indices 1 2 3 4 5 6 
#
# 1 0.008927 -0.002644 -0.004144 0.000000 -0.001540 0.000000
# 2 -0.002644 0.026648 -0.007078 0.000000 -0.003951 0.000000
# 3 -0.004144 -0.007078 0.023555 0.000000 -0.001266 0.000000
# 4 0.000000 0.000000 0.000000 0.079921 0.000000 -0.039666
# 5 -0.001540 -0.003951 -0.001266 0.000000 0.051368 0.000000
# 6 0.000000 0.000000 0.000000 -0.039666 0.000000 0.071826
#
#
# Mechanical properties :
#
#
# Convention : Reuss Voigt Hill
#
# Bulk Modulus (GPa) = 31.84924 41.57093 36.71008
# Shear Modulus (GPa) = 16.64211 22.08484 19.36348
#
# Velocity S-wave (km/s) = 2.87968 3.31731 3.10621
# Velocity P-wave (km/s) = 5.18910 5.94869 5.58183
#
# Compressibility (1/GPa) = 0.03139793
#
# Stress axis : x y z
#
# Youngs Moduli (GPa) = 112.01867 37.52629 42.45473
#
# Poissons Ratio (x) = 0.09921 0.17592
# Poissons Ratio (y) = 0.29614 0.30051
# Poissons Ratio (z) = 0.46418 0.26562
#
# Static dielectric constant tensor:
#      x y z
#    x 1.752460 0.000000 0.004270 
#    y 0.000000 1.745390 0.000000 
#    z 0.004270 0.000000 1.708810 
# 
# From -- ./inp_files/133806.got.cif
#   From: 2010.05.17/outbox.cif.g08.bks.cpg/sg12_67_cif.got.tgz:133806.got - 2010.06.03 13:09:07.
