data_PCOD9194759
_publ_section_title
;
Structure prediction by ZEFSAII (Michael W. Deem and Ramdas Pophale) SiO2 
 PCOD9194759
Probable space group: C 2/M
;
_chemical_formula_sum "Si O2"
_cell_formula_units_Z 64
_cell_length_a 19.248886
_cell_length_b 20.773613
_cell_length_c 12.575611
_cell_angle_alpha 90.000000
_cell_angle_beta 41.091954
_cell_angle_gamma 90.000000
_cell_volume 3305.142259
_symmetry_space_group_name_H-M "C 2/M"
_symmetry_group_IT_number 12
_symmetry_cell_setting 'monoclinic'
loop_
_space_group_symop_operation_xyz
x,y,z
-x,y,-z
-x,-y,-z
x,-y,z
1/2+x,1/2+y,z
1/2-x,1/2+y,-z
1/2-x,1/2-y,-z
1/2+x,1/2-y,z
loop_
_atom_site_type_symbol
_atom_site_label
_atom_site_fract_x
_atom_site_fract_y
_atom_site_fract_z
Si Si1 0.755968 0.303945 0.823285
Si Si2 0.432052 0.293093 0.673270
Si Si3 0.482528 0.265561 0.844724
Si Si4 0.175261 0.428431 0.128064
Si Si5 0.989926 0.610576 0.841915
Si Si6 0.338490 0.570121 0.740532
Si Si7 0.202876 0.755718 0.672728
Si Si8 0.329515 0.891641 0.222280
O O1 0.823992 0.247775 0.801782
O O2 0.793495 0.371126 0.829234
O O3 0.768856 0.296926 0.681232
O O4 0.631750 0.290532 0.986970
O O5 0.500000 0.263905 0.500000
O O6 0.494167 0.289081 0.711023
O O7 0.407045 0.366615 0.675541
O O8 0.485804 0.187975 0.838536
O O9 0.584364 0.283588 0.796354
O O10 0.181909 0.500000 0.167090
O O11 0.060855 0.417661 0.205595
O O12 0.255691 0.425846 0.934646
O O13 0.106220 0.588880 0.745923
O O14 0.911549 0.596649 0.031091
O O15 0.389831 0.500000 0.688302
O O16 0.275825 0.576118 0.700962
O O17 0.250000 0.750000 0.500000
O O18 0.193366 0.684374 0.735306
#
# Coordination Sequence:
#
# PCOD9194759 Si02
#       8
#     8   8   8   8   8   8   8   8
#     4  12  20  38  61  84 115 152 198 250 296 345
#     4  12  23  35  57  89 120 152 198 243 297 347
#     4  11  20  34  58  86 113 153 190 241 300 346
#     4  10  20  34  57  87 116 154 201 245 287 344
#     4   9  16  30  52  84 113 146 189 239 289 345
#     4  10  20  35  55  83 120 159 195 236 290 352
#     4  11  22  35  56  89 118 145 191 252 301 351
#     4   9  17  30  52  79 116 147 187 233 295 348
#
# _framework density 19.363765999999998
#
# number of rings (size 3 to 8) (size 9 to 14) (size 15 to 20)
#    0.000    1.500    5.000    2.250    0.000    0.750 
#    0.000    2.500    0.000    3.375    0.000    0.000 
#    0.000    0.000    0.000    0.000    0.000    0.000 
#
# Total GULP energy -178528.689531 kJ/mol
# GULP energy per Si atom -5579.021548 kJ/mol
# Density = 1.931969 g / cm^3
# Si number density = 19.363766 Si / 1000 Ang^3
#
#
#
# Elastic Constant Matrix: (Units=GPa)
#
#
# Indices 1 2 3 4 5 6 
#
# 1 104.7923 53.8554 13.7844 0.0000 18.4848 0.0000
# 2 53.8554 99.5899 6.5730 0.0000 6.5471 0.0000
# 3 13.7844 6.5730 34.0106 0.0000 14.3237 0.0000
# 4 0.0000 0.0000 0.0000 11.4586 0.0000 9.7352
# 5 18.4848 6.5471 14.3237 0.0000 19.5131 0.0000
# 6 0.0000 0.0000 0.0000 9.7352 0.0000 25.6066
#
#
#
# Elastic Compliance Matrix: (Units=1/GPa)
#
#
# Indices 1 2 3 4 5 6 
#
# 1 0.015638 -0.007659 0.000433 0.000000 -0.012562 0.000000
# 2 -0.007659 0.014033 -0.000985 0.000000 0.003270 0.000000
# 3 0.000433 -0.000985 0.042630 0.000000 -0.031372 0.000000
# 4 0.000000 0.000000 0.000000 0.128909 0.000000 -0.049009
# 5 -0.012562 0.003270 -0.031372 0.000000 0.085079 0.000000
# 6 0.000000 0.000000 0.000000 -0.049009 0.000000 0.057685
#
#
# Mechanical properties :
#
#
# Convention : Reuss Voigt Hill
#
# Bulk Modulus (GPa) = 17.89627 42.97981 30.43804
# Shear Modulus (GPa) = 13.19180 22.26100 17.72640
#
# Velocity S-wave (km/s) = 2.61293 3.39429 3.02891
# Velocity P-wave (km/s) = 4.28549 6.13235 5.29014
#
# Compressibility (1/GPa) = 0.05587756
#
# Stress axis : x y z
#
# Youngs Moduli (GPa) = 63.94742 71.25999 23.45758
#
# Poissons Ratio (x) = 0.54580 -0.01015
# Poissons Ratio (y) = 0.48979 0.02311
# Poissons Ratio (z) = -0.02766 0.07020
#
# Static dielectric constant tensor:
#      x y z
#    x 1.658390 0.000000 0.044230 
#    y 0.000000 1.676310 0.000000 
#    z 0.044230 0.000000 1.637860 
# 
# From -- ./inp_files/159543.got.cif
#   From: 2010.05.17/outbox.cif.g08.bks.cpg/sg12_80_cif.got.tgz:159543.got - 2010.06.03 13:09:07.
