data_PCOD9194928
_publ_section_title
;
Structure prediction by ZEFSAII (Michael W. Deem and Ramdas Pophale) SiO2 
 PCOD9194928
Probable space group: C 2/M
;
_chemical_formula_sum "Si O2"
_cell_formula_units_Z 52
_cell_length_a 18.394621
_cell_length_b 14.232091
_cell_length_c 16.416787
_cell_angle_alpha 90.000000
_cell_angle_beta 34.732228
_cell_angle_gamma 90.000000
_cell_volume 2448.645197
_symmetry_space_group_name_H-M "C 2/M"
_symmetry_group_IT_number 12
_symmetry_cell_setting 'monoclinic'
loop_
_space_group_symop_operation_xyz
x,y,z
-x,y,-z
-x,-y,-z
x,-y,z
1/2+x,1/2+y,z
1/2-x,1/2+y,-z
1/2-x,1/2-y,-z
1/2+x,1/2-y,z
loop_
_atom_site_type_symbol
_atom_site_label
_atom_site_fract_x
_atom_site_fract_y
_atom_site_fract_z
Si Si1 0.000000 0.743719 0.500000
Si Si2 0.644373 0.603543 0.469684
Si Si3 0.517584 0.705404 0.729190
Si Si4 0.696386 0.773864 0.188872
Si Si5 0.554001 0.388403 0.040891
Si Si6 0.614375 0.893440 0.958544
Si Si7 0.580393 0.897284 0.718097
O O1 0.093496 0.813085 0.462167
O O2 0.088072 0.693760 0.352561
O O3 0.604190 0.500000 0.479333
O O4 0.582783 0.626289 0.614263
O O5 0.796283 0.603906 0.337707
O O6 0.378973 0.732438 0.819823
O O7 0.514921 0.670328 0.824368
O O8 0.590533 0.804673 0.654961
O O9 0.799225 0.855859 0.084449
O O10 0.778524 0.685197 0.145790
O O11 0.540294 0.500000 0.066295
O O12 0.500000 0.366531 0.000000
O O13 0.545776 0.888617 0.110104
O O14 0.663530 0.000000 0.901711
O O15 0.500000 0.878390 0.000000
O O16 0.578619 0.000000 0.678841
#
# Coordination Sequence:
#
# PCOD9194928 Si02
#       7
#     4   8   8   8   8   8   8
#     4  10  23  36  63  90 122 160 191 242 321 366
#     4  10  21  38  60  92 127 157 197 244 301 369
#     4  11  23  40  63  91 121 164 206 251 306 357
#     4  11  23  41  61  91 123 159 201 255 310 362
#     4  11  25  43  65  89 120 165 213 255 301 359
#     4  10  20  34  58  90 120 155 194 243 308 369
#     4  10  21  36  57  87 120 158 199 247 301 356
#
# _framework density 21.236232999999999
#
# number of rings (size 3 to 8) (size 9 to 14) (size 15 to 20)
#    0.000    1.538    1.538    3.000    2.154    5.538 
#    0.000    0.385    0.000    0.000    0.000    0.000 
#    0.000    0.000    0.000    0.000    0.000    0.000 
#
# Total GULP energy -145175.163629 kJ/mol
# GULP energy per Si atom -5583.660140 kJ/mol
# Density = 2.118790 g / cm^3
# Si number density = 21.236233 Si / 1000 Ang^3
#
#
#
# Elastic Constant Matrix: (Units=GPa)
#
#
# Indices 1 2 3 4 5 6 
#
# 1 70.1438 13.9051 8.9570 0.0000 5.3105 -0.0001
# 2 13.9051 79.9895 -1.5277 0.0000 -6.3282 -0.0001
# 3 8.9570 -1.5277 66.5910 0.0000 1.3479 0.0001
# 4 0.0000 0.0000 0.0000 -40.5379 0.0000 -199.8901
# 5 5.3105 -6.3282 1.3479 0.0000 27.5529 0.0000
# 6 -0.0001 -0.0001 0.0001 -199.8901 0.0000-1001.6444
#
#
#
# Elastic Compliance Matrix: (Units=1/GPa)
#
#
# Indices 1 2 3 4 5 6 
#
# 1 0.015383 -0.002995 -0.002066 0.000000 -0.003552 0.000000
# 2 -0.002995 0.013320 0.000635 0.000000 0.003605 0.000000
# 3 -0.002066 0.000635 0.015314 0.000000 -0.000205 0.000000
# 4 0.000000 0.000000 0.000000 -1.544459 -0.000001 0.308215
# 5 -0.003552 0.003605 -0.000205 -0.000001 0.037816 0.000000
# 6 0.000000 0.000000 0.000000 0.308215 0.000000 -0.062506
#
#
# Mechanical properties :
#
#
# Convention : Reuss Voigt Hill
#
# Bulk Modulus (GPa) = 28.43666 28.82145 28.62906
# Shear Modulus (GPa) = -3.32323 -189.89988 -96.61156
#
# Velocity S-wave (km/s) = -1.25231 -9.46661 -6.75222
# Velocity P-wave (km/s) = 3.36581 10.29017 6.87601
#
# Compressibility (1/GPa) = 0.03516588
#
# Stress axis : x y z
#
# Youngs Moduli (GPa) = 65.00794 75.07756 65.30118
#
# Poissons Ratio (x) = 0.22482 0.13491
# Poissons Ratio (y) = 0.19467 -0.04149
# Poissons Ratio (z) = 0.13430 -0.04770
#
# Static dielectric constant tensor:
#      x y z
#    x 1.788610 0.000000 0.037790 
#    y 0.000000 1.748680 0.000000 
#    z 0.037790 0.000000 1.798440 
# 
# From -- ./inp_files/284268.got.cif
#   From: 2010.05.17/outbox.cif.g08.bks.cpg/sg12_143_cif.got.tgz:284268.got - 2010.06.03 13:09:07.
