data_PCOD9194137
_publ_section_title
;
Structure prediction by ZEFSAII (Michael W. Deem and Ramdas Pophale) SiO2 
 PCOD9194137
Probable space group: C 2/M
;
_chemical_formula_sum "Si O2"
_cell_formula_units_Z 40
_cell_length_a 26.516690
_cell_length_b 7.498112
_cell_length_c 11.251979
_cell_angle_alpha 90.000000
_cell_angle_beta 52.217733
_cell_angle_gamma 90.000000
_cell_volume 1768.140108
_symmetry_space_group_name_H-M "C 2/M"
_symmetry_group_IT_number 12
_symmetry_cell_setting 'monoclinic'
loop_
_space_group_symop_operation_xyz
x,y,z
-x,y,-z
-x,-y,-z
x,-y,z
1/2+x,1/2+y,z
1/2-x,1/2+y,-z
1/2-x,1/2-y,-z
1/2+x,1/2-y,z
loop_
_atom_site_type_symbol
_atom_site_label
_atom_site_fract_x
_atom_site_fract_y
_atom_site_fract_z
Si Si1 0.187399 0.713143 0.668075
Si Si2 0.261493 0.217573 0.155086
Si Si3 0.508355 0.200583 0.356288
Si Si4 0.645853 0.703062 0.191275
Si Si5 0.956488 0.718501 0.177282
O O1 0.180966 0.500000 0.683851
O O2 0.250000 0.750000 0.500000
O O3 0.206624 0.778459 0.770345
O O4 0.117331 0.777002 0.730104
O O5 0.187571 0.270663 0.242464
O O6 0.262388 0.000000 0.147792
O O7 0.303886 0.291956 0.987993
O O8 0.500000 0.284136 0.500000
O O9 0.584542 0.192679 0.237862
O O10 0.482186 0.278057 0.270165
O O11 0.480562 0.000000 0.405050
O O12 0.626264 0.500000 0.242827
O O13 0.959101 0.500000 0.174311
O O14 0.000000 0.772602 0.000000
#
# Coordination Sequence:
#
# PCOD9194137 Si02
#       5
#     8   8   8   8   8
#     4  10  21  36  57  83 112 145 183 230 280 330
#     4   9  19  36  56  79 108 144 182 221 271 331
#     4  10  21  35  54  80 109 144 186 228 272 327
#     4  10  20  34  55  82 109 141 180 225 277 326
#     4   9  18  35  58  80 105 145 191 228 269 328
#
# _framework density 22.622641999999999
#
# number of rings (size 3 to 8) (size 9 to 14) (size 15 to 20)
#    0.000    2.400    0.000    1.800    2.800    5.200 
#    0.000    1.000    0.000    2.400    0.000    0.000 
#    0.000    0.000    0.000    0.000    0.000    0.000 
#
# Total GULP energy -111520.011601 kJ/mol
# GULP energy per Si atom -5576.000580 kJ/mol
# Density = 2.257115 g / cm^3
# Si number density = 22.622642 Si / 1000 Ang^3
#
#
#
# Elastic Constant Matrix: (Units=GPa)
#
#
# Indices 1 2 3 4 5 6 
#
# 1 249.8760 19.0184 93.6876 0.0000 6.0565 0.0000
# 2 19.0184 60.1231 1.5266 0.0000 0.7700 0.0000
# 3 93.6876 1.5266 116.8209 0.0000 7.2046 0.0000
# 4 0.0000 0.0000 0.0000 12.2016 0.0000 -14.9290
# 5 6.0565 0.7700 7.2046 0.0000 38.8455 0.0000
# 6 0.0000 0.0000 0.0000 -14.9290 0.0000 -8.1278
#
#
#
# Elastic Compliance Matrix: (Units=1/GPa)
#
#
# Indices 1 2 3 4 5 6 
#
# 1 0.005901 -0.001747 -0.004709 0.000000 -0.000012 0.000000
# 2 -0.001747 0.017158 0.001195 0.000000 -0.000289 0.000000
# 3 -0.004709 0.001195 0.012419 0.000000 -0.001593 0.000000
# 4 0.000000 0.000000 0.000000 0.025238 0.000000 -0.046357
# 5 -0.000012 -0.000289 -0.001593 0.000000 0.026046 0.000000
# 6 0.000000 0.000000 0.000000 -0.046357 0.000000 -0.037887
#
#
# Mechanical properties :
#
#
# Convention : Reuss Voigt Hill
#
# Bulk Modulus (GPa) = 40.07013 72.80948 56.43981
# Shear Modulus (GPa) = 73.83885 29.42302 51.63094
#
# Velocity S-wave (km/s) = 5.71928 3.61030 4.78249
# Velocity P-wave (km/s) = 7.83355 7.04508 7.44975
#
# Compressibility (1/GPa) = 0.02495624
#
# Stress axis : x y z
#
# Youngs Moduli (GPa) = 169.47247 58.28026 80.52215
#
# Poissons Ratio (x) = 0.10180 0.37915
# Poissons Ratio (y) = 0.29604 -0.09619
# Poissons Ratio (z) = 0.79798 -0.06962
#
# Static dielectric constant tensor:
#      x y z
#    x 1.890080 0.000000 0.024970 
#    y 0.000000 1.878420 0.000000 
#    z 0.024970 0.000000 1.987530 
# 
# From -- ./inp_files/162371.got.cif
#   From: 2010.05.17/outbox.cif.g08.bks.cpg/sg12_82_cif.got.tgz:162371.got - 2010.06.03 13:09:07.
