data_PCOD9194248
_publ_section_title
;
Structure prediction by ZEFSAII (Michael W. Deem and Ramdas Pophale) SiO2 
 PCOD9194248
Probable space group: C 2/M
;
_chemical_formula_sum "Si O2"
_cell_formula_units_Z 44
_cell_length_a 12.400645
_cell_length_b 25.337407
_cell_length_c 10.341805
_cell_angle_alpha 90.000000
_cell_angle_beta 38.345727
_cell_angle_gamma 90.000000
_cell_volume 2015.942702
_symmetry_space_group_name_H-M "C 2/M"
_symmetry_group_IT_number 12
_symmetry_cell_setting 'monoclinic'
loop_
_space_group_symop_operation_xyz
x,y,z
-x,y,-z
-x,-y,-z
x,-y,z
1/2+x,1/2+y,z
1/2-x,1/2+y,-z
1/2-x,1/2-y,-z
1/2+x,1/2-y,z
loop_
_atom_site_type_symbol
_atom_site_label
_atom_site_fract_x
_atom_site_fract_y
_atom_site_fract_z
Si Si1 0.581360 0.442081 0.565430
Si Si2 0.688163 0.800523 0.753330
Si Si3 0.000000 0.391764 0.500000
Si Si4 0.068846 0.394181 0.713973
Si Si5 0.195708 0.811928 0.850693
Si Si6 0.688484 0.357704 0.125986
O O1 0.500000 0.443264 0.500000
O O2 0.559097 0.500000 0.646444
O O3 0.784475 0.429053 0.357902
O O4 0.474022 0.396587 0.740826
O O5 0.650510 0.834272 0.658777
O O6 0.739593 0.739627 0.722776
O O7 0.815108 0.831912 0.729456
O O8 0.500000 0.800970 0.000000
O O9 0.052005 0.417268 0.585747
O O10 0.164190 0.355609 0.312627
O O11 0.871866 0.389473 0.949290
O O12 0.196906 0.812273 0.007363
O O13 0.000000 0.826827 0.000000
#
# Coordination Sequence:
#
# PCOD9194248 Si02
#       6
#     8   8   4   8   8   8
#     4  11  23  38  62  92 115 148 199 251 306 356
#     4   9  18  33  55  84 115 158 199 235 289 347
#     4  10  22  36  57  84 116 164 199 234 296 350
#     4  10  21  39  58  83 122 156 196 246 294 350
#     4  10  20  34  55  83 119 157 198 237 282 348
#     4  10  20  37  58  82 120 157 191 241 300 346
#
# _framework density 21.826017
#
# number of rings (size 3 to 8) (size 9 to 14) (size 15 to 20)
#    0.000    2.000    1.818    1.636    0.000    4.364 
#    0.000    2.273    0.000   10.364    0.000    0.000 
#    0.000    0.000    0.000    0.000    0.000    0.000 
#
# Total GULP energy -122486.478260 kJ/mol
# GULP energy per Si atom -5567.567194 kJ/mol
# Density = 2.177634 g / cm^3
# Si number density = 21.826017 Si / 1000 Ang^3
#
#
#
# Elastic Constant Matrix: (Units=GPa)
#
#
# Indices 1 2 3 4 5 6 
#
# 1 96.2820 -5.8005 26.7016 0.0000 -16.3375 0.0000
# 2 -5.8005 44.2138 9.1522 0.0000 -14.5722 0.0000
# 3 26.7016 9.1522 61.2359 0.0000 -19.6016 0.0000
# 4 0.0000 0.0000 0.0000 21.4212 0.0000 -4.7137
# 5 -16.3375 -14.5722 -19.6016 0.0000 35.6958 0.0000
# 6 0.0000 0.0000 0.0000 -4.7137 0.0000 5.7477
#
#
#
# Elastic Compliance Matrix: (Units=1/GPa)
#
#
# Indices 1 2 3 4 5 6 
#
# 1 0.012781 0.004303 -0.004588 0.000000 0.005087 0.000000
# 2 0.004303 0.027600 -0.002141 0.000000 0.012061 0.000000
# 3 -0.004588 -0.002141 0.021473 0.000000 0.008818 0.000000
# 4 0.000000 0.000000 0.000000 0.056962 0.000000 0.046715
# 5 0.005087 0.012061 0.008818 0.000000 0.040109 0.000000
# 6 0.000000 0.000000 0.000000 0.046715 0.000000 0.212294
#
#
# Mechanical properties :
#
#
# Convention : Reuss Voigt Hill
#
# Bulk Modulus (GPa) = 17.54271 29.09317 23.31794
# Shear Modulus (GPa) = 12.65593 24.01816 18.33704
#
# Velocity S-wave (km/s) = 2.41063 3.32088 2.90167
# Velocity P-wave (km/s) = 3.97532 5.29744 4.68327
#
# Compressibility (1/GPa) = 0.05700373
#
# Stress axis : x y z
#
# Youngs Moduli (GPa) = 78.24177 36.23158 46.56934
#
# Poissons Ratio (x) = -0.15591 0.21365
# Poissons Ratio (y) = -0.33668 0.09968
# Poissons Ratio (z) = 0.35896 0.07756
#
# Static dielectric constant tensor:
#      x y z
#    x 1.850070 0.000000 0.070270 
#    y 0.000000 1.856340 0.000000 
#    z 0.070270 0.000000 1.809910 
# 
# From -- ./inp_files/136861.got.cif
#   From: 2010.05.17/outbox.cif.g08.bks.cpg/sg12_69_cif.got.tgz:136861.got - 2010.06.03 13:09:07.
