data_PCOD9194895
_publ_section_title
;
Structure prediction by ZEFSAII (Michael W. Deem and Ramdas Pophale) SiO2 
 PCOD9194895
Probable space group: C 2/M
;
_chemical_formula_sum "Si O2"
_cell_formula_units_Z 64
_cell_length_a 14.727262
_cell_length_b 9.038539
_cell_length_c 21.831418
_cell_angle_alpha 90.000000
_cell_angle_beta 82.532438
_cell_angle_gamma 90.000000
_cell_volume 2881.396736
_symmetry_space_group_name_H-M "C 2/M"
_symmetry_group_IT_number 12
_symmetry_cell_setting 'monoclinic'
loop_
_space_group_symop_operation_xyz
x,y,z
-x,y,-z
-x,-y,-z
x,-y,z
1/2+x,1/2+y,z
1/2-x,1/2+y,-z
1/2-x,1/2-y,-z
1/2+x,1/2-y,z
loop_
_atom_site_type_symbol
_atom_site_label
_atom_site_fract_x
_atom_site_fract_y
_atom_site_fract_z
Si Si1 0.370576 0.825518 0.948214
Si Si2 0.160227 0.173394 0.588177
Si Si3 0.813406 0.325315 0.083872
Si Si4 0.345571 0.674963 0.210736
Si Si5 0.541938 0.327133 0.164785
Si Si6 0.639242 0.172319 0.461561
Si Si7 0.830330 0.827272 0.734201
Si Si8 0.514638 0.171919 0.359154
O O1 0.284657 0.726338 0.934061
O O2 0.449885 0.774998 0.895319
O O3 0.350927 0.000000 0.941317
O O4 0.381143 0.802830 0.019970
O O5 0.268517 0.202728 0.586138
O O6 0.141859 0.221019 0.519297
O O7 0.086410 0.260687 0.634343
O O8 0.144641 0.000000 0.598576
O O9 0.811925 0.500000 0.099375
O O10 0.833590 0.229730 0.141771
O O11 0.330971 0.500000 0.216771
O O12 0.452252 0.707798 0.212988
O O13 0.269074 0.753874 0.257879
O O14 0.534911 0.500000 0.147289
O O15 0.630189 0.310230 0.200114
O O16 0.551790 0.184908 0.425898
O O17 0.646091 0.000000 0.481945
O O18 0.907915 0.753651 0.686265
O O19 0.823959 0.000000 0.720656
O O20 0.513324 0.000000 0.342802
#
# Coordination Sequence:
#
# PCOD9194895 Si02
#       8
#     8   8   8   8   8   8   8   8
#     4  10  20  34  58  87 116 151 191 234 286 352
#     4  10  20  36  60  90 122 155 194 239 284 338
#     4  10  20  35  56  86 120 151 185 235 294 346
#     4  11  23  40  62  87 113 151 195 238 293 357
#     4  10  23  41  61  84 116 152 190 240 299 353
#     4   9  20  38  59  86 123 161 192 231 289 345
#     4  11  24  43  62  83 114 153 196 248 295 339
#     4  11  23  39  60  85 117 157 197 239 287 347
#
# _framework density 22.211451
#
# number of rings (size 3 to 8) (size 9 to 14) (size 15 to 20)
#    0.000    1.750    1.250    2.625    0.000    7.500 
#    0.000    7.500    0.000    0.000    0.000    0.000 
#    0.000    0.000    0.000    0.000    0.000    0.000 
#
# Total GULP energy -178930.440297 kJ/mol
# GULP energy per Si atom -5591.576259 kJ/mol
# Density = 2.216090 g / cm^3
# Si number density = 22.211451 Si / 1000 Ang^3
#
#
#
# Elastic Constant Matrix: (Units=GPa)
#
#
# Indices 1 2 3 4 5 6 
#
# 1 91.3163 41.7753 9.4093 0.0000 -26.7612 0.0000
# 2 41.7753 77.9056 32.4606 0.0000 -26.3367 0.0000
# 3 9.4093 32.4606 69.3329 0.0000 -28.3877 0.0000
# 4 0.0000 0.0000 0.0000 37.2087 0.0000 -13.8000
# 5 -26.7612 -26.3367 -28.3877 0.0000 40.2405 0.0000
# 6 0.0000 0.0000 0.0000 -13.8000 0.0000 25.7815
#
#
#
# Elastic Compliance Matrix: (Units=1/GPa)
#
#
# Indices 1 2 3 4 5 6 
#
# 1 0.016970 -0.008050 0.005526 0.000000 0.009915 0.000000
# 2 -0.008050 0.021437 -0.007581 0.000000 0.003328 0.000000
# 3 0.005526 -0.007581 0.023477 0.000000 0.015275 0.000000
# 4 0.000000 0.000000 0.000000 0.033532 0.000000 0.017949
# 5 0.009915 0.003328 0.015275 0.000000 0.044398 0.000000
# 6 0.000000 0.000000 0.000000 0.017949 0.000000 0.048395
#
#
# Mechanical properties :
#
#
# Convention : Reuss Voigt Hill
#
# Bulk Modulus (GPa) = 23.99719 45.09391 34.54555
# Shear Modulus (GPa) = 22.49099 30.97345 26.73222
#
# Velocity S-wave (km/s) = 3.18557 3.73833 3.47296
# Velocity P-wave (km/s) = 4.93537 6.24337 5.62750
#
# Compressibility (1/GPa) = 0.04167154
#
# Stress axis : x y z
#
# Youngs Moduli (GPa) = 58.92714 46.64867 42.59542
#
# Poissons Ratio (x) = 0.37554 -0.23536
# Poissons Ratio (y) = 0.47439 0.32292
# Poissons Ratio (z) = -0.32560 0.35365
#
# Static dielectric constant tensor:
#      x y z
#    x 1.835920 0.000000 -0.019970 
#    y 0.000000 1.739960 0.000000 
#    z -0.019970 0.000000 1.853900 
# 
# From -- ./inp_files/359723.got.cif
#   From: 2010.05.17/outbox.cif.g08.bks.cpg/sg12_180_cif.got.tgz:359723.got - 2010.06.03 13:09:07.
