data_PCOD9194505
_publ_section_title
;
Structure prediction by ZEFSAII (Michael W. Deem and Ramdas Pophale) SiO2 
 PCOD9194505
Probable space group: C 2/M
;
_chemical_formula_sum "Si O2"
_cell_formula_units_Z 64
_cell_length_a 14.214990
_cell_length_b 11.906328
_cell_length_c 18.747016
_cell_angle_alpha 90.000000
_cell_angle_beta 87.155778
_cell_angle_gamma 90.000000
_cell_volume 3168.992635
_symmetry_space_group_name_H-M "C 2/M"
_symmetry_group_IT_number 12
_symmetry_cell_setting 'monoclinic'
loop_
_space_group_symop_operation_xyz
x,y,z
-x,y,-z
-x,-y,-z
x,-y,z
1/2+x,1/2+y,z
1/2-x,1/2+y,-z
1/2-x,1/2-y,-z
1/2+x,1/2-y,z
loop_
_atom_site_type_symbol
_atom_site_label
_atom_site_fract_x
_atom_site_fract_y
_atom_site_fract_z
Si Si1 0.793249 0.128792 0.915214
Si Si2 0.588799 0.372323 0.838009
Si Si3 0.749175 0.125220 0.533757
Si Si4 0.982228 0.733418 0.722935
Si Si5 0.399350 0.217287 0.023752
Si Si6 0.222924 0.721367 0.224043
Si Si7 0.040179 0.128027 0.421416
Si Si8 0.665725 0.121391 0.680969
O O1 0.688531 0.137862 0.953738
O O2 0.787610 0.186903 0.838430
O O3 0.822554 0.000000 0.910322
O O4 0.862129 0.202768 0.961673
O O5 0.564848 0.500000 0.854977
O O6 0.520405 0.321473 0.780344
O O7 0.584211 0.294991 0.907746
O O8 0.697335 0.363979 0.806257
O O9 0.750000 0.250000 0.500000
O O10 0.848027 0.121065 0.571892
O O11 0.667447 0.126496 0.595769
O O12 0.743476 0.000000 0.496155
O O13 0.881310 0.685638 0.749825
O O14 0.979620 0.795808 0.646350
O O15 0.062161 0.639561 0.714946
O O16 0.500000 0.164576 0.000000
O O17 0.269546 0.782037 0.289871
O O18 0.000000 0.166962 0.500000
O O19 0.003627 0.000000 0.411384
O O20 0.703686 0.000000 0.701430
#
# Coordination Sequence:
#
# PCOD9194505 Si02
#       8
#     8   8   8   8   8   8   8   8
#     4  10  21  36  57  82 112 151 193 233 280 340
#     4  10  22  37  56  83 115 148 186 234 287 339
#     4  10  20  37  59  84 117 154 191 241 298 353
#     4  11  21  36  59  84 110 147 194 238 283 349
#     4  10  21  37  55  83 117 147 185 235 285 334
#     4  10  21  37  56  82 113 149 193 240 282 343
#     4  10  20  34  56  84 113 147 191 240 288 344
#     4  10  21  37  57  82 114 150 191 241 294 347
#
# _framework density 20.195692000000001
#
# number of rings (size 3 to 8) (size 9 to 14) (size 15 to 20)
#    0.000    1.875    1.250    2.625    0.000    4.250 
#    0.000    3.125    0.000   11.250    0.000    0.000 
#    0.000    0.000    0.000    0.000    0.000    0.000 
#
# Total GULP energy -178451.273824 kJ/mol
# GULP energy per Si atom -5576.602307 kJ/mol
# Density = 2.014973 g / cm^3
# Si number density = 20.195692 Si / 1000 Ang^3
#
#
#
# Elastic Constant Matrix: (Units=GPa)
#
#
# Indices 1 2 3 4 5 6 
#
# 1 105.8947 -15.0763 -4.6770 0.0000 -18.5146 0.0000
# 2 -15.0763 66.1482 11.1500 0.0000 8.3457 0.0000
# 3 -4.6770 11.1500 49.9809 0.0000 6.2864 0.0000
# 4 0.0000 0.0000 0.0000 -11.8359 0.0000 -22.5561
# 5 -18.5146 8.3457 6.2864 0.0000 32.2415 0.0000
# 6 0.0000 0.0000 0.0000 -22.5561 0.0000 -15.4718
#
#
#
# Elastic Compliance Matrix: (Units=1/GPa)
#
#
# Indices 1 2 3 4 5 6 
#
# 1 0.010683 0.001733 -0.000105 0.000000 0.005707 0.000000
# 2 0.001733 0.016377 -0.003161 0.000000 -0.002628 0.000000
# 3 -0.000105 -0.003161 0.021126 0.000000 -0.003361 0.000000
# 4 0.000000 0.000000 0.000000 0.047510 0.000000 -0.069264
# 5 0.005707 -0.002628 -0.003361 0.000000 0.035628 0.000000
# 6 0.000000 0.000000 0.000000 -0.069264 0.000000 0.036345
#
#
# Mechanical properties :
#
#
# Convention : Reuss Voigt Hill
#
# Bulk Modulus (GPa) = 22.16315 22.75746 22.46031
# Shear Modulus (GPa) = 26.91430 16.36191 21.63810
#
# Velocity S-wave (km/s) = 3.65454 2.84943 3.27681
# Velocity P-wave (km/s) = 5.36708 4.70304 5.04600
#
# Compressibility (1/GPa) = 0.04511994
#
# Stress axis : x y z
#
# Youngs Moduli (GPa) = 93.60548 61.06203 47.33572
#
# Poissons Ratio (x) = -0.10579 0.00495
# Poissons Ratio (y) = -0.16217 0.14962
# Poissons Ratio (z) = 0.00979 0.19300
#
# Static dielectric constant tensor:
#      x y z
#    x 1.747050 0.000000 -0.039750 
#    y 0.000000 1.694620 0.000000 
#    z -0.039750 0.000000 1.714990 
# 
# From -- ./inp_files/269295.got.cif
#   From: 2010.05.17/outbox.cif.g08.bks.cpg/sg12_135_cif.got.tgz:269295.got - 2010.06.03 13:09:07.
