data_PCOD9194448
_publ_section_title
;
Structure prediction by ZEFSAII (Michael W. Deem and Ramdas Pophale) SiO2 
 PCOD9194448
Probable space group: C 2/M
;
_chemical_formula_sum "Si O2"
_cell_formula_units_Z 60
_cell_length_a 9.859508
_cell_length_b 14.346623
_cell_length_c 18.487246
_cell_angle_alpha 90.000000
_cell_angle_beta 112.698411
_cell_angle_gamma 90.000000
_cell_volume 2412.495402
_symmetry_space_group_name_H-M "C 2/M"
_symmetry_group_IT_number 12
_symmetry_cell_setting 'monoclinic'
loop_
_space_group_symop_operation_xyz
x,y,z
-x,y,-z
-x,-y,-z
x,-y,z
1/2+x,1/2+y,z
1/2-x,1/2+y,-z
1/2-x,1/2-y,-z
1/2+x,1/2-y,z
loop_
_atom_site_type_symbol
_atom_site_label
_atom_site_fract_x
_atom_site_fract_y
_atom_site_fract_z
Si Si1 0.500000 0.255608 0.000000
Si Si2 0.630374 0.363445 0.447901
Si Si3 0.559661 0.099866 0.909866
Si Si4 0.930286 0.646132 0.559305
Si Si5 0.706324 0.600809 0.824942
Si Si6 0.747398 0.308109 0.155178
Si Si7 0.189745 0.098870 0.652016
Si Si8 0.762785 0.685764 0.324794
O O1 0.595827 0.183687 0.971337
O O2 0.396213 0.311638 0.924859
O O3 0.765381 0.395187 0.526872
O O4 0.601479 0.255275 0.459300
O O5 0.469499 0.405135 0.417475
O O6 0.686102 0.367394 0.375613
O O7 0.384642 0.100995 0.863329
O O8 0.638632 0.116777 0.850541
O O9 0.603585 0.000000 0.950040
O O10 0.000000 0.607782 0.500000
O O11 0.066791 0.649898 0.642381
O O12 0.658135 0.500000 0.847418
O O13 0.675133 0.706640 0.842865
O O14 0.658197 0.600303 0.731870
O O15 0.707992 0.319760 0.231346
O O16 0.251054 0.204329 0.655014
O O17 0.273642 0.000000 0.659477
#
# Coordination Sequence:
#
# PCOD9194448 Si02
#       8
#     4   8   8   8   8   8   8   8
#     4  10  21  36  55  80 108 138 179 230 273 322
#     4   9  16  29  50  73 103 141 177 213 261 314
#     4  10  20  37  58  78 106 145 184 221 268 326
#     4   8  15  28  49  74  97 132 185 221 246 303
#     4   8  17  32  51  76 104 137 179 222 262 313
#     4  10  20  34  56  83 109 138 180 227 275 325
#     4   9  17  29  47  75 106 132 167 221 271 304
#     4   9  18  31  52  77 103 139 180 219 263 323
#
# _framework density 24.870514
#
# number of rings (size 3 to 8) (size 9 to 14) (size 15 to 20)
#    0.000    2.933    0.000    0.600    0.000   10.133 
#    0.000    1.000    0.000   47.600    0.000    4.667 
#    0.000    0.000    0.000    0.000    0.000    0.000 
#
# Total GULP energy -167297.545184 kJ/mol
# GULP energy per Si atom -5576.584839 kJ/mol
# Density = 2.481391 g / cm^3
# Si number density = 24.870514 Si / 1000 Ang^3
#
#
#
# Elastic Constant Matrix: (Units=GPa)
#
#
# Indices 1 2 3 4 5 6 
#
# 1 80.8367 6.8606 21.3332 0.0000 -6.1846 0.0000
# 2 6.8606 72.7175 3.9298 0.0000 -3.9802 0.0000
# 3 21.3332 3.9298 149.8877 0.0000 6.2233 0.0000
# 4 0.0000 0.0000 0.0000 -10.9371 0.0000 -0.3294
# 5 -6.1846 -3.9802 6.2233 0.0000 34.9311 0.0000
# 6 0.0000 0.0000 0.0000 -0.3294 0.0000 6.9634
#
#
#
# Elastic Compliance Matrix: (Units=1/GPa)
#
#
# Indices 1 2 3 4 5 6 
#
# 1 0.013167 -0.000996 -0.001954 0.000000 0.002566 0.000000
# 2 -0.000996 0.013941 -0.000284 0.000000 0.001463 0.000000
# 3 -0.001954 -0.000284 0.007025 0.000000 -0.001630 0.000000
# 4 0.000000 0.000000 0.000000 -0.091302 0.000000 -0.004319
# 5 0.002566 0.001463 -0.001630 0.000000 0.029539 0.000000
# 6 0.000000 0.000000 0.000000 -0.004319 0.000000 0.143403
#
#
# Mechanical properties :
#
#
# Convention : Reuss Voigt Hill
#
# Bulk Modulus (GPa) = 36.14910 40.85434 38.50172
# Shear Modulus (GPa) = 38.03284 24.27938 31.15611
#
# Velocity S-wave (km/s) = 3.91479 3.12786 3.54324
# Velocity P-wave (km/s) = 5.91612 5.43205 5.67925
#
# Compressibility (1/GPa) = 0.02766321
#
# Stress axis : x y z
#
# Youngs Moduli (GPa) = 75.94586 71.72945 142.34926
#
# Poissons Ratio (x) = 0.07146 0.27822
# Poissons Ratio (y) = 0.07566 0.04049
# Poissons Ratio (z) = 0.14844 0.02040
#
# Static dielectric constant tensor:
#      x y z
#    x 2.049670 0.000000 -0.049330 
#    y 0.000000 2.034810 0.000000 
#    z -0.049330 0.000000 2.022600 
# 
# From -- ./inp_files/305500.got.cif
#   From: 2010.05.17/outbox.cif.g08.bks.cpg/sg12_153_cif.got.tgz:305500.got - 2010.06.03 13:09:07.
