data_PCOD9194297
_publ_section_title
;
Structure prediction by ZEFSAII (Michael W. Deem and Ramdas Pophale) SiO2 
 PCOD9194297
Probable space group: C 2/M
;
_chemical_formula_sum "Si O2"
_cell_formula_units_Z 40
_cell_length_a 9.124446
_cell_length_b 25.785532
_cell_length_c 12.229461
_cell_angle_alpha 90.000000
_cell_angle_beta 139.646764
_cell_angle_gamma 90.000000
_cell_volume 1863.066837
_symmetry_space_group_name_H-M "C 2/M"
_symmetry_group_IT_number 12
_symmetry_cell_setting 'monoclinic'
loop_
_space_group_symop_operation_xyz
x,y,z
-x,y,-z
-x,-y,-z
x,-y,z
1/2+x,1/2+y,z
1/2-x,1/2+y,-z
1/2-x,1/2-y,-z
1/2+x,1/2-y,z
loop_
_atom_site_type_symbol
_atom_site_label
_atom_site_fract_x
_atom_site_fract_y
_atom_site_fract_z
Si Si1 0.735743 0.440169 0.568032
Si Si2 0.875339 0.803235 0.046523
Si Si3 0.416020 0.555097 0.829089
Si Si4 0.736518 0.854906 0.608745
Si Si5 0.882894 0.405502 0.049171
O O1 0.500000 0.435902 0.500000
O O2 0.745186 0.500000 0.529806
O O3 0.742457 0.391973 0.485722
O O4 0.945978 0.433105 0.770658
O O5 0.054625 0.817458 0.244936
O O6 0.750000 0.750000 0.000000
O O7 0.699810 0.850941 0.948244
O O8 0.000000 0.801420 0.000000
O O9 0.308566 0.500000 0.747407
O O10 0.251610 0.601529 0.711986
O O11 0.500000 0.557295 0.000000
O O12 0.649829 0.562897 0.896461
O O13 0.500000 0.827388 0.500000
O O14 0.000000 0.397075 0.000000
#
# Coordination Sequence:
#
# PCOD9194297 Si02
#       5
#     8   8   8   8   8
#     4  11  23  37  57  91 132 170 210 257 307 359
#     4  11  24  45  69  92 119 158 208 258 316 380
#     4  10  20  34  55  84 120 167 214 251 297 362
#     4  11  22  39  61  89 124 160 199 255 312 365
#     4  11  22  39  62  88 125 171 216 260 308 368
#
# _framework density 21.469975000000002
#
# number of rings (size 3 to 8) (size 9 to 14) (size 15 to 20)
#    0.000    1.200    0.000    9.000    0.000    6.400 
#    0.000    5.000    0.000    0.000    0.000    0.000 
#    0.000    0.000    0.000    0.000    0.000    0.000 
#
# Total GULP energy -111717.398445 kJ/mol
# GULP energy per Si atom -5585.869922 kJ/mol
# Density = 2.142111 g / cm^3
# Si number density = 21.469975 Si / 1000 Ang^3
#
#
#
# Elastic Constant Matrix: (Units=GPa)
#
#
# Indices 1 2 3 4 5 6 
#
# 1 128.9918 22.4552 17.3148 0.0000 -7.3279 0.0000
# 2 22.4552 102.2256 12.8873 0.0000 -0.3454 0.0000
# 3 17.3148 12.8873 84.2440 0.0000 2.7529 0.0000
# 4 0.0000 0.0000 0.0000 5.1652 0.0000 5.5501
# 5 -7.3279 -0.3454 2.7529 0.0000 38.9899 0.0000
# 6 0.0000 0.0000 0.0000 5.5501 0.0000 148.9238
#
#
#
# Elastic Compliance Matrix: (Units=1/GPa)
#
#
# Indices 1 2 3 4 5 6 
#
# 1 0.008335 -0.001634 -0.001517 0.000000 0.001659 0.000000
# 2 -0.001634 0.010296 -0.001235 0.000000 -0.000129 0.000000
# 3 -0.001517 -0.001235 0.012409 0.000000 -0.001172 0.000000
# 4 0.000000 0.000000 0.000000 0.201680 0.000000 -0.007516
# 5 0.001659 -0.000129 -0.001172 0.000000 0.026041 0.000000
# 6 0.000000 0.000000 0.000000 -0.007516 0.000000 0.006995
#
#
# Mechanical properties :
#
#
# Convention : Reuss Voigt Hill
#
# Bulk Modulus (GPa) = 44.90762 46.75290 45.83026
# Shear Modulus (GPa) = 17.73352 56.13606 36.93479
#
# Velocity S-wave (km/s) = 2.87708 5.11889 4.15215
# Velocity P-wave (km/s) = 5.65674 7.53397 6.66181
#
# Compressibility (1/GPa) = 0.02226793
#
# Stress axis : x y z
#
# Youngs Moduli (GPa) = 119.97889 97.12058 80.58416
#
# Poissons Ratio (x) = 0.15869 0.12227
# Poissons Ratio (y) = 0.19604 0.09953
# Poissons Ratio (z) = 0.18205 0.11995
#
# Static dielectric constant tensor:
#      x y z
#    x 1.858510 0.000000 0.025800 
#    y 0.000000 1.758210 0.000000 
#    z 0.025800 0.000000 1.832340 
# 
# From -- ./inp_files/125483.got.cif
#   From: 2010.05.17/outbox.cif.g08.bks.cpg/sg12_63_cif.got.tgz:125483.got - 2010.06.03 13:09:07.
