data_PCOD9194275
_publ_section_title
;
Structure prediction by ZEFSAII (Michael W. Deem and Ramdas Pophale) SiO2 
 PCOD9194275
Probable space group: C 2/M
;
_chemical_formula_sum "Si O2"
_cell_formula_units_Z 64
_cell_length_a 23.389134
_cell_length_b 17.887007
_cell_length_c 8.549902
_cell_angle_alpha 90.000000
_cell_angle_beta 83.337741
_cell_angle_gamma 90.000000
_cell_volume 3552.796585
_symmetry_space_group_name_H-M "C 2/M"
_symmetry_group_IT_number 12
_symmetry_cell_setting 'monoclinic'
loop_
_space_group_symop_operation_xyz
x,y,z
-x,y,-z
-x,-y,-z
x,-y,z
1/2+x,1/2+y,z
1/2-x,1/2+y,-z
1/2-x,1/2-y,-z
1/2+x,1/2-y,z
loop_
_atom_site_type_symbol
_atom_site_label
_atom_site_fract_x
_atom_site_fract_y
_atom_site_fract_z
Si Si1 0.805797 0.913323 0.214346
Si Si2 0.042688 0.583524 0.839249
Si Si3 0.723923 0.675372 0.084528
Si Si4 0.000103 0.270850 0.687214
Si Si5 0.383603 0.708664 0.328780
Si Si6 0.166117 0.636268 0.761089
Si Si7 0.373150 0.759024 0.691550
Si Si8 0.678334 0.086068 0.397734
O O1 0.853565 0.867415 0.292536
O O2 0.744533 0.906106 0.322844
O O3 0.819895 0.000000 0.198408
O O4 0.798697 0.877014 0.046166
O O5 0.038397 0.500000 0.774928
O O6 0.022505 0.647305 0.727151
O O7 0.109744 0.599266 0.857134
O O8 0.000000 0.588701 0.000000
O O9 0.774723 0.633535 0.162846
O O10 0.673767 0.707999 0.209358
O O11 0.750000 0.750000 0.000000
O O12 0.049099 0.215409 0.734830
O O13 0.000000 0.266363 0.500000
O O14 0.934800 0.256625 0.757575
O O15 0.349691 0.776275 0.255049
O O16 0.378560 0.727270 0.513964
O O17 0.172495 0.601586 0.585356
O O18 0.355076 0.846377 0.678453
O O19 0.660002 0.000000 0.370116
#
# Coordination Sequence:
#
# PCOD9194275 Si02
#       8
#     8   8   8   8   8   8   8   8
#     4  11  23  37  56  84 113 143 182 230 283 331
#     4  10  22  35  50  77 115 153 183 217 269 327
#     4  12  22  35  56  83 112 145 181 227 277 330
#     4   9  20  35  58  83 104 139 190 232 268 317
#     4   9  18  38  57  79 106 142 190 229 265 323
#     4  10  20  35  56  77 108 151 190 222 264 322
#     4  10  20  35  59  85 111 146 186 227 274 329
#     4  10  20  34  55  84 116 149 183 223 273 326
#
# _framework density 18.013978999999999
#
# number of rings (size 3 to 8) (size 9 to 14) (size 15 to 20)
#    0.000    1.875    2.500    1.875    1.750    3.750 
#    0.000    3.125    0.000    4.875    0.000    0.000 
#    0.000    0.000    0.000    0.000    0.000    0.000 
#
# Total GULP energy -178564.568304 kJ/mol
# GULP energy per Si atom -5580.142760 kJ/mol
# Density = 1.797298 g / cm^3
# Si number density = 18.013979 Si / 1000 Ang^3
#
#
#
# Elastic Constant Matrix: (Units=GPa)
#
#
# Indices 1 2 3 4 5 6 
#
# 1 141.7298 64.4140 40.6632 0.0000 -1.9635 0.0000
# 2 64.4140 117.3046 30.7603 0.0000 2.2751 0.0000
# 3 40.6632 30.7603 33.6971 0.0000 -6.2570 0.0000
# 4 0.0000 0.0000 0.0000 24.6172 0.0000 0.7778
# 5 -1.9635 2.2751 -6.2570 0.0000 20.2413 0.0000
# 6 0.0000 0.0000 0.0000 0.7778 0.0000 20.0527
#
#
#
# Elastic Compliance Matrix: (Units=1/GPa)
#
#
# Indices 1 2 3 4 5 6 
#
# 1 0.011937 -0.003469 -0.011618 0.000000 -0.002043 0.000000
# 2 -0.003469 0.012652 -0.008158 0.000000 -0.004280 0.000000
# 3 -0.011618 -0.008158 0.054216 0.000000 0.016549 0.000000
# 4 0.000000 0.000000 0.000000 0.040672 0.000000 -0.001578
# 5 -0.002043 -0.004280 0.016549 0.000000 0.054802 0.000000
# 6 0.000000 0.000000 0.000000 -0.001578 0.000000 0.049930
#
#
# Mechanical properties :
#
#
# Convention : Reuss Voigt Hill
#
# Bulk Modulus (GPa) = 30.94510 62.71184 46.82847
# Shear Modulus (GPa) = 17.76387 23.44186 20.60287
#
# Velocity S-wave (km/s) = 3.14366 3.61129 3.38556
# Velocity P-wave (km/s) = 5.51293 7.23028 6.42921
#
# Compressibility (1/GPa) = 0.03231529
#
# Stress axis : x y z
#
# Youngs Moduli (GPa) = 83.77243 79.03971 18.44476
#
# Poissons Ratio (x) = 0.27417 0.21429
# Poissons Ratio (y) = 0.29058 0.15048
# Poissons Ratio (z) = 0.97326 0.64482
#
# Static dielectric constant tensor:
#      x y z
#    x 1.647270 0.000000 -0.016710 
#    y 0.000000 1.591980 0.000000 
#    z -0.016710 0.000000 1.623540 
# 
# From -- ./inp_files/87968.got.cif
#   From: 2010.05.17/outbox.cif.g08.bks.cpg/sg12_44_cif.got.tgz:87968.got - 2010.06.03 13:09:07.
