data_PCOD9194745
_publ_section_title
;
Structure prediction by ZEFSAII (Michael W. Deem and Ramdas Pophale) SiO2 
 PCOD9194745
Probable space group: C 2/M
;
_chemical_formula_sum "Si O2"
_cell_formula_units_Z 50
_cell_length_a 29.499353
_cell_length_b 7.572119
_cell_length_c 12.330371
_cell_angle_alpha 90.000000
_cell_angle_beta 128.546479
_cell_angle_gamma 90.000000
_cell_volume 2154.120363
_symmetry_space_group_name_H-M "C 2/M"
_symmetry_group_IT_number 12
_symmetry_cell_setting 'monoclinic'
loop_
_space_group_symop_operation_xyz
x,y,z
-x,y,-z
-x,-y,-z
x,-y,z
1/2+x,1/2+y,z
1/2-x,1/2+y,-z
1/2-x,1/2-y,-z
1/2+x,1/2-y,z
loop_
_atom_site_type_symbol
_atom_site_label
_atom_site_fract_x
_atom_site_fract_y
_atom_site_fract_z
Si Si1 0.132217 0.285584 0.376878
Si Si2 0.915471 0.282115 0.162646
Si Si3 0.731966 0.213907 0.676511
Si Si4 0.542662 0.692807 0.430841
Si Si5 0.633559 0.793958 0.138937
Si Si6 0.809243 0.288888 0.152704
Si Si7 0.000000 0.500000 0.500000
O O1 0.131558 0.500000 0.373147
O O2 0.194866 0.230990 0.516839
O O3 0.085733 0.226632 0.395787
O O4 0.120520 0.218460 0.238305
O O5 0.920810 0.500000 0.177311
O O6 0.863873 0.224110 0.165294
O O7 0.977755 0.209863 0.286821
O O8 0.897845 0.225821 0.015065
O O9 0.797397 0.280255 0.774410
O O10 0.698995 0.274675 0.736495
O O11 0.734346 0.000000 0.682003
O O12 0.552954 0.500000 0.492798
O O13 0.544507 0.846570 0.521479
O O14 0.617555 0.000000 0.118945
O O15 0.815099 0.500000 0.166320
O O16 0.750000 0.250000 0.000000
#
# Coordination Sequence:
#
# PCOD9194745 Si02
#       7
#     8   8   8   8   8   8   2
#     4  10  22  42  64  91 135 181 227 285 342 401
#     4  10  21  40  63  92 136 180 223 283 341 397
#     4  10  21  35  59  91 129 176 221 281 352 397
#     4  12  27  45  73 105 130 182 229 269 344 404
#     4  10  21  38  64  93 128 183 231 275 345 405
#     4  10  20  34  57  86 123 169 214 270 345 399
#     4  12  26  52  72  92 152 164 214 292 326 394
#
# _framework density 23.211328999999999
#
# number of rings (size 3 to 8) (size 9 to 14) (size 15 to 20)
#    0.000    1.600    3.200    0.720    2.240    3.200 
#    0.000    3.200    0.000    0.000    0.000    0.000 
#    0.000    0.000    0.000    0.000    0.000    0.000 
#
# Total GULP energy -139682.196860 kJ/mol
# GULP energy per Si atom -5587.287874 kJ/mol
# Density = 2.315850 g / cm^3
# Si number density = 23.211329 Si / 1000 Ang^3
#
#
#
# Elastic Constant Matrix: (Units=GPa)
#
#
# Indices 1 2 3 4 5 6 
#
# 1 68.0571 0.5101 33.5082 0.0000 -12.5828 0.0000
# 2 0.5101 96.3695 16.4454 0.0000 -14.0164 0.0000
# 3 33.5082 16.4454 97.7048 0.0000 -3.4889 0.0000
# 4 0.0000 0.0000 0.0000 15.6813 0.0000 16.9616
# 5 -12.5828 -14.0164 -3.4889 0.0000 46.2706 0.0000
# 6 0.0000 0.0000 0.0000 16.9616 0.0000 38.0350
#
#
#
# Elastic Compliance Matrix: (Units=1/GPa)
#
#
# Indices 1 2 3 4 5 6 
#
# 1 0.018882 0.001777 -0.006590 0.000000 0.005176 0.000000
# 2 0.001777 0.011316 -0.002381 0.000000 0.003732 0.000000
# 3 -0.006590 -0.002381 0.012841 0.000000 -0.001545 0.000000
# 4 0.000000 0.000000 0.000000 0.123193 0.000000 -0.054937
# 5 0.005176 0.003732 -0.001545 0.000000 0.024034 0.000000
# 6 0.000000 0.000000 0.000000 -0.054937 0.000000 0.050791
#
#
# Mechanical properties :
#
#
# Convention : Reuss Voigt Hill
#
# Bulk Modulus (GPa) = 34.90188 40.33986 37.62087
# Shear Modulus (GPa) = 18.86839 34.10856 26.48847
#
# Velocity S-wave (km/s) = 2.85423 3.83754 3.38181
# Velocity P-wave (km/s) = 5.09228 6.08709 5.61178
#
# Compressibility (1/GPa) = 0.02865175
#
# Stress axis : x y z
#
# Youngs Moduli (GPa) = 52.96099 88.36707 77.87825
#
# Poissons Ratio (x) = -0.15707 0.51321
# Poissons Ratio (y) = -0.09414 0.18544
# Poissons Ratio (z) = 0.34901 0.21041
#
# Static dielectric constant tensor:
#      x y z
#    x 1.823500 0.000000 -0.033180 
#    y 0.000000 1.879850 0.000000 
#    z -0.033180 0.000000 1.915650 
# 
# From -- ./inp_files/181186.got.cif
#   From: 2010.05.17/outbox.cif.g08.bks.cpg/sg12_91_cif.got.tgz:181186.got - 2010.06.03 13:09:07.
