data_PCOD9194327
_publ_section_title
;
Structure prediction by ZEFSAII (Michael W. Deem and Ramdas Pophale) SiO2 
 PCOD9194327
Probable space group: C 2/M
;
_chemical_formula_sum "Si O2"
_cell_formula_units_Z 64
_cell_length_a 12.813171
_cell_length_b 22.826496
_cell_length_c 11.500821
_cell_angle_alpha 90.000000
_cell_angle_beta 61.367064
_cell_angle_gamma 90.000000
_cell_volume 2952.395970
_symmetry_space_group_name_H-M "C 2/M"
_symmetry_group_IT_number 12
_symmetry_cell_setting 'monoclinic'
loop_
_space_group_symop_operation_xyz
x,y,z
-x,y,-z
-x,-y,-z
x,-y,z
1/2+x,1/2+y,z
1/2-x,1/2+y,-z
1/2-x,1/2-y,-z
1/2+x,1/2-y,z
loop_
_atom_site_type_symbol
_atom_site_label
_atom_site_fract_x
_atom_site_fract_y
_atom_site_fract_z
Si Si1 0.354306 0.331902 0.332082
Si Si2 0.584043 0.068835 0.236053
Si Si3 0.895875 0.216873 0.798614
Si Si4 0.649783 0.931505 0.796776
Si Si5 0.489646 0.431317 0.141205
Si Si6 0.742013 0.618362 0.039919
Si Si7 0.631098 0.634410 0.415839
Si Si8 0.602317 0.180765 0.360196
O O1 0.469369 0.294788 0.233170
O O2 0.389243 0.395677 0.262910
O O3 0.345797 0.333007 0.475501
O O4 0.230234 0.312096 0.348529
O O5 0.469359 0.077438 0.213832
O O6 0.574474 0.113228 0.347676
O O7 0.592808 0.000000 0.259114
O O8 0.700388 0.090953 0.104843
O O9 0.802492 0.185601 0.934155
O O10 0.876164 0.179510 0.688672
O O11 0.891657 0.283688 0.763316
O O12 0.664964 0.894457 0.906566
O O13 0.764206 0.911407 0.661839
O O14 0.655022 0.000000 0.825614
O O15 0.466907 0.500000 0.156667
O O16 0.617959 0.416283 0.128844
O O17 0.500000 0.412799 0.000000
O O18 0.500000 0.606926 0.500000
O O19 0.500000 0.204310 0.500000
#
# Coordination Sequence:
#
# PCOD9194327 Si02
#       8
#     8   8   8   8   8   8   8   8
#     4  10  21  37  57  84 116 150 196 246 293 354
#     4  11  24  40  59  87 123 161 202 244 290 356
#     4   9  22  40  61  89 115 145 195 252 299 351
#     4  10  20  34  55  85 120 157 197 242 295 356
#     4  10  20  35  57  84 114 152 198 249 302 350
#     4  10  20  38  62  87 115 150 197 250 302 354
#     4   9  18  35  57  83 116 151 197 253 299 345
#     4  12  25  40  62  87 119 165 201 238 297 352
#
# _framework density 21.677309000000001
#
# number of rings (size 3 to 8) (size 9 to 14) (size 15 to 20)
#    0.000    1.875    0.000    4.875    0.000    8.000 
#    0.000    0.000    0.000    1.500    0.000    0.000 
#    0.000    0.000    0.000    0.000    0.000    0.000 
#
# Total GULP energy -178783.351160 kJ/mol
# GULP energy per Si atom -5586.979724 kJ/mol
# Density = 2.162797 g / cm^3
# Si number density = 21.677309 Si / 1000 Ang^3
#
#
#
# Elastic Constant Matrix: (Units=GPa)
#
#
# Indices 1 2 3 4 5 6 
#
# 1 105.6795 37.3600 5.3484 0.0000 -11.9294 0.0000
# 2 37.3600 81.1965 17.2330 0.0000 -9.6311 0.0000
# 3 5.3484 17.2330 51.0674 0.0000 -15.2967 0.0000
# 4 0.0000 0.0000 0.0000 20.2832 0.0000 5.2654
# 5 -11.9294 -9.6311 -15.2967 0.0000 29.7352 0.0000
# 6 0.0000 0.0000 0.0000 5.2654 0.0000 12.2324
#
#
#
# Elastic Compliance Matrix: (Units=1/GPa)
#
#
# Indices 1 2 3 4 5 6 
#
# 1 0.011678 -0.005279 0.001714 0.000000 0.003857 0.000000
# 2 -0.005279 0.015794 -0.004586 0.000000 0.000639 0.000000
# 3 0.001714 -0.004586 0.024484 0.000000 0.011797 0.000000
# 4 0.000000 0.000000 0.000000 0.055504 0.000000 -0.023891
# 5 0.003857 0.000639 0.011797 0.000000 0.041453 0.000000
# 6 0.000000 0.000000 0.000000 -0.023891 0.000000 0.092034
#
#
# Mechanical properties :
#
#
# Convention : Reuss Voigt Hill
#
# Bulk Modulus (GPa) = 28.04825 39.75845 33.90335
# Shear Modulus (GPa) = 18.57820 24.31695 21.44758
#
# Velocity S-wave (km/s) = 2.93069 3.35292 3.14889
# Velocity P-wave (km/s) = 4.94156 5.77670 5.37537
#
# Compressibility (1/GPa) = 0.03565285
#
# Stress axis : x y z
#
# Youngs Moduli (GPa) = 85.63443 63.31557 40.84351
#
# Poissons Ratio (x) = 0.33426 -0.06999
# Poissons Ratio (y) = 0.45209 0.18729
# Poissons Ratio (z) = -0.14675 0.29034
#
# Static dielectric constant tensor:
#      x y z
#    x 1.778430 0.000000 0.011290 
#    y 0.000000 1.789550 0.000000 
#    z 0.011290 0.000000 1.811110 
# 
# From -- ./inp_files/135928.got.cif
#   From: 2010.05.17/outbox.cif.g08.bks.cpg/sg12_68_cif.got.tgz:135928.got - 2010.06.03 13:09:07.
