data_PCOD9194662
_publ_section_title
;
Structure prediction by ZEFSAII (Michael W. Deem and Ramdas Pophale) SiO2 
 PCOD9194662
Probable space group: C 2/M
;
_chemical_formula_sum "Si O2"
_cell_formula_units_Z 64
_cell_length_a 8.511572
_cell_length_b 22.720042
_cell_length_c 15.515865
_cell_angle_alpha 90.000000
_cell_angle_beta 79.516494
_cell_angle_gamma 90.000000
_cell_volume 2950.422253
_symmetry_space_group_name_H-M "C 2/M"
_symmetry_group_IT_number 12
_symmetry_cell_setting 'monoclinic'
loop_
_space_group_symop_operation_xyz
x,y,z
-x,y,-z
-x,-y,-z
x,-y,z
1/2+x,1/2+y,z
1/2-x,1/2+y,-z
1/2-x,1/2-y,-z
1/2+x,1/2-y,z
loop_
_atom_site_type_symbol
_atom_site_label
_atom_site_fract_x
_atom_site_fract_y
_atom_site_fract_z
Si Si1 0.397589 0.865244 0.344686
Si Si2 0.675109 0.668249 0.525357
Si Si3 0.325784 0.565257 0.753400
Si Si4 0.352066 0.932479 0.585058
Si Si5 0.837373 0.190356 0.964366
Si Si6 0.767698 0.748141 0.317187
Si Si7 0.313974 0.065131 0.041461
Si Si8 0.519298 0.317256 0.235070
O O1 0.307717 0.837911 0.437078
O O2 0.287561 0.914858 0.313367
O O3 0.566307 0.893071 0.349179
O O4 0.388166 0.807202 0.288104
O O5 0.500000 0.676387 0.500000
O O6 0.700372 0.603964 0.566176
O O7 0.726221 0.717455 0.591243
O O8 0.387454 0.500000 0.734748
O O9 0.223295 0.567076 0.852207
O O10 0.461112 0.614212 0.748146
O O11 0.500000 0.933701 0.500000
O O12 0.318302 0.000000 0.610226
O O13 0.754079 0.126800 0.987132
O O14 0.879214 0.195378 0.859301
O O15 0.750000 0.250000 0.000000
O O16 0.000000 0.187903 0.000000
O O17 0.601395 0.718253 0.306738
O O18 0.837944 0.796994 0.246205
O O19 0.249511 0.000000 0.018838
O O20 0.500000 0.064850 0.000000
#
# Coordination Sequence:
#
# PCOD9194662 Si02
#       8
#     8   8   8   8   8   8   8   8
#     4  10  20  34  57  80 102 140 186 233 282 334
#     4  11  22  35  52  79 108 140 183 235 292 340
#     4   9  18  35  59  84 112 148 190 235 286 342
#     4   9  19  35  52  72 100 134 175 223 277 335
#     4  11  22  37  60  90 122 157 197 243 297 356
#     4  11  21  37  55  78 111 143 185 234 284 339
#     4   9  19  37  61  89 121 157 198 241 291 357
#     4  10  22  38  58  84 113 152 191 232 287 346
#
# _framework density 21.691811999999999
#
# number of rings (size 3 to 8) (size 9 to 14) (size 15 to 20)
#    0.000    2.000    0.000    4.125    0.000    4.500 
#    0.000    3.125    0.000    0.000    0.000    0.000 
#    0.000    0.000    0.000    0.000    0.000    0.000 
#
# Total GULP energy -178383.460381 kJ/mol
# GULP energy per Si atom -5574.483137 kJ/mol
# Density = 2.164244 g / cm^3
# Si number density = 21.691812 Si / 1000 Ang^3
#
#
#
# Elastic Constant Matrix: (Units=GPa)
#
#
# Indices 1 2 3 4 5 6 
#
# 1 33.0472 59.9180 18.7197 0.0000 6.1690 0.0000
# 2 59.9180 182.4277 42.7339 0.0000 4.1323 0.0000
# 3 18.7197 42.7339 41.3018 0.0000 -0.6502 0.0000
# 4 0.0000 0.0000 0.0000 26.5432 0.0000 0.6347
# 5 6.1690 4.1323 -0.6502 0.0000 27.3165 0.0000
# 6 0.0000 0.0000 0.0000 0.6347 0.0000 30.2627
#
#
#
# Elastic Compliance Matrix: (Units=1/GPa)
#
#
# Indices 1 2 3 4 5 6 
#
# 1 0.085288 -0.024470 -0.013588 0.000000 -0.015883 0.000000
# 2 -0.024470 0.014300 -0.003654 0.000000 0.003276 0.000000
# 3 -0.013588 -0.003654 0.034221 0.000000 0.004436 0.000000
# 4 0.000000 0.000000 0.000000 0.037693 0.000000 -0.000791
# 5 -0.015883 0.003276 0.004436 0.000000 0.039805 0.000000
# 6 0.000000 0.000000 0.000000 -0.000791 0.000000 0.033061
#
#
# Mechanical properties :
#
#
# Convention : Reuss Voigt Hill
#
# Bulk Modulus (GPa) = 19.84670 55.50223 37.67447
# Shear Modulus (GPa) = 14.51014 25.85149 20.18081
#
# Velocity S-wave (km/s) = 2.58916 3.45594 3.05346
# Velocity P-wave (km/s) = 4.25530 6.44724 5.46235
#
# Compressibility (1/GPa) = 0.05038620
#
# Stress axis : x y z
#
# Youngs Moduli (GPa) = 11.72499 69.92783 29.22179
#
# Poissons Ratio (x) = 1.71113 0.39706
# Poissons Ratio (y) = 0.28691 0.10677
# Poissons Ratio (z) = 0.15932 0.25551
#
# Static dielectric constant tensor:
#      x y z
#    x 1.874970 0.000000 0.008390 
#    y 0.000000 1.868380 0.000000 
#    z 0.008390 0.000000 1.871340 
# 
# From -- ./inp_files/258105.got.cif
#   From: 2010.05.17/outbox.cif.g08.bks.cpg/sg12_130_cif.got.tgz:258105.got - 2010.06.03 13:09:07.
