data_PCOD9194779
_publ_section_title
;
Structure prediction by ZEFSAII (Michael W. Deem and Ramdas Pophale) SiO2 
 PCOD9194779
Probable space group: C 2/M
;
_chemical_formula_sum "Si O2"
_cell_formula_units_Z 64
_cell_length_a 27.609552
_cell_length_b 14.036168
_cell_length_c 12.607466
_cell_angle_alpha 90.000000
_cell_angle_beta 142.433294
_cell_angle_gamma 90.000000
_cell_volume 2978.797617
_symmetry_space_group_name_H-M "C 2/M"
_symmetry_group_IT_number 12
_symmetry_cell_setting 'monoclinic'
loop_
_space_group_symop_operation_xyz
x,y,z
-x,y,-z
-x,-y,-z
x,-y,z
1/2+x,1/2+y,z
1/2-x,1/2+y,-z
1/2-x,1/2-y,-z
1/2+x,1/2-y,z
loop_
_atom_site_type_symbol
_atom_site_label
_atom_site_fract_x
_atom_site_fract_y
_atom_site_fract_z
Si Si1 0.150289 0.609989 0.010078
Si Si2 0.269343 0.386617 0.731895
Si Si3 0.826386 0.109689 0.256993
Si Si4 0.019116 0.226342 0.415597
Si Si5 0.870259 0.613232 0.790244
Si Si6 0.353582 0.306931 0.086082
Si Si7 0.184174 0.888438 0.421582
Si Si8 0.604206 0.208843 0.374938
O O1 0.129812 0.500000 0.948074
O O2 0.246678 0.612388 0.187985
O O3 0.113702 0.637855 0.060078
O O4 0.135096 0.692634 0.899217
O O5 0.260295 0.500000 0.731396
O O6 0.320967 0.372999 0.714403
O O7 0.183469 0.341215 0.558944
O O8 0.310105 0.340449 0.904786
O O9 0.899581 0.167931 0.429523
O O10 0.808734 0.155500 0.111441
O O11 0.848394 0.000000 0.280785
O O12 0.038172 0.295590 0.351038
O O13 0.000000 0.266193 0.500000
O O14 0.944810 0.159621 0.255581
O O15 0.879475 0.500000 0.796854
O O16 0.776456 0.634407 0.607662
O O17 0.915961 0.660715 0.772530
O O18 0.127525 0.816872 0.384594
O O19 0.170712 0.000000 0.422049
#
# Coordination Sequence:
#
# PCOD9194779 Si02
#       8
#     8   8   8   8   8   8   8   8
#     4  10  20  36  61  90 114 141 185 237 281 324
#     4  10  20  34  57  88 114 138 178 235 288 330
#     4  10  21  38  61  84 109 148 194 233 274 332
#     4  10  24  39  55  78 110 151 190 226 270 330
#     4   9  17  31  55  84 110 139 180 230 278 327
#     4  11  21  37  56  80 117 152 185 229 282 330
#     4   9  17  29  50  83 114 140 178 226 277 330
#     4  11  19  35  58  79 109 149 190 226 270 331
#
# _framework density 21.485178999999999
#
# number of rings (size 3 to 8) (size 9 to 14) (size 15 to 20)
#    0.000    2.000    0.000    6.375    0.000    5.250 
#    0.000    3.750    0.000   10.875    0.000    0.000 
#    0.000    0.000    0.000    0.000    0.000    0.000 
#
# Total GULP energy -178730.950904 kJ/mol
# GULP energy per Si atom -5585.342216 kJ/mol
# Density = 2.143628 g / cm^3
# Si number density = 21.485179 Si / 1000 Ang^3
#
#
#
# Elastic Constant Matrix: (Units=GPa)
#
#
# Indices 1 2 3 4 5 6 
#
# 1 124.7954 22.9842 15.2465 0.0000 -26.3419 0.0000
# 2 22.9842 62.8116 5.5562 0.0000 -19.8201 0.0000
# 3 15.2465 5.5562 60.6920 0.0000 -17.7119 0.0000
# 4 0.0000 0.0000 0.0000 13.1183 0.0000 -11.5763
# 5 -26.3419 -19.8201 -17.7119 0.0000 32.3956 0.0000
# 6 0.0000 0.0000 0.0000 -11.5763 0.0000 13.4796
#
#
#
# Elastic Compliance Matrix: (Units=1/GPa)
#
#
# Indices 1 2 3 4 5 6 
#
# 1 0.009766 -0.001355 -0.000302 0.000000 0.006947 0.000000
# 2 -0.001355 0.020133 0.002106 0.000000 0.012367 0.000000
# 3 -0.000302 0.002106 0.019828 0.000000 0.011884 0.000000
# 4 0.000000 0.000000 0.000000 0.314799 0.000000 0.270350
# 5 0.006947 0.012367 0.011884 0.000000 0.050581 0.000000
# 6 0.000000 0.000000 0.000000 0.270350 0.000000 0.306362
#
#
# Mechanical properties :
#
#
# Convention : Reuss Voigt Hill
#
# Bulk Modulus (GPa) = 19.75278 37.31921 28.53599
# Shear Modulus (GPa) = 6.78017 25.43285 16.10651
#
# Velocity S-wave (km/s) = 1.77837 3.44428 2.74096
# Velocity P-wave (km/s) = 3.66475 5.76410 4.82987
#
# Compressibility (1/GPa) = 0.05062579
#
# Stress axis : x y z
#
# Youngs Moduli (GPa) = 102.39720 49.67080 50.43449
#
# Poissons Ratio (x) = 0.06729 0.01523
# Poissons Ratio (y) = 0.13872 -0.10624
# Poissons Ratio (z) = 0.03091 -0.10463
#
# Static dielectric constant tensor:
#      x y z
#    x 1.806300 0.000000 -0.005100 
#    y 0.000000 1.780360 0.000000 
#    z -0.005100 0.000000 1.808840 
# 
# From -- ./inp_files/189487.got.cif
#   From: 2010.05.17/outbox.cif.g08.bks.cpg/sg12_95_cif.got.tgz:189487.got - 2010.06.03 13:09:07.
