data_PCOD9194703
_publ_section_title
;
Structure prediction by ZEFSAII (Michael W. Deem and Ramdas Pophale) SiO2 
 PCOD9194703
Probable space group: C 2/M
;
_chemical_formula_sum "Si O2"
_cell_formula_units_Z 28
_cell_length_a 12.276697
_cell_length_b 21.171841
_cell_length_c 5.342843
_cell_angle_alpha 90.000000
_cell_angle_beta 106.998797
_cell_angle_gamma 90.000000
_cell_volume 1328.041593
_symmetry_space_group_name_H-M "C 2/M"
_symmetry_group_IT_number 12
_symmetry_cell_setting 'monoclinic'
loop_
_space_group_symop_operation_xyz
x,y,z
-x,y,-z
-x,-y,-z
x,-y,z
1/2+x,1/2+y,z
1/2-x,1/2+y,-z
1/2-x,1/2-y,-z
1/2+x,1/2-y,z
loop_
_atom_site_type_symbol
_atom_site_label
_atom_site_fract_x
_atom_site_fract_y
_atom_site_fract_z
Si Si1 0.571740 0.573842 0.789527
Si Si2 0.000000 0.340263 0.500000
Si Si3 0.219929 0.652670 0.874806
Si Si4 0.115352 0.246202 0.188859
O O1 0.500000 0.598298 0.500000
O O2 0.596396 0.500000 0.753673
O O3 0.500000 0.575768 0.000000
O O4 0.689720 0.610053 0.918993
O O5 0.103784 0.378511 0.694105
O O6 0.068260 0.291467 0.370353
O O7 0.294336 0.690361 0.714744
O O8 0.170047 0.706041 0.025437
O O9 0.000000 0.216165 0.000000
#
# Coordination Sequence:
#
# PCOD9194703 Si02
#       4
#     8   4   8   8
#     4  10  23  43  66  92 118 153 207 259 303 354
#     4  10  20  34  57  84 127 156 202 240 294 372
#     4  10  20  36  57  86 119 162 195 249 301 359
#     4   9  19  35  52  87 119 159 201 241 296 361
#
# _framework density 21.083677999999999
#
# number of rings (size 3 to 8) (size 9 to 14) (size 15 to 20)
#    0.000    2.286    0.000    1.714    4.000    0.000 
#   25.714    0.714    0.000    7.714    0.000    0.000 
#    0.000    0.000    0.000    0.000    0.000    0.000 
#
# Total GULP energy -78016.398222 kJ/mol
# GULP energy per Si atom -5572.599873 kJ/mol
# Density = 2.103569 g / cm^3
# Si number density = 21.083678 Si / 1000 Ang^3
#
#
#
# Elastic Constant Matrix: (Units=GPa)
#
#
# Indices 1 2 3 4 5 6 
#
# 1 162.0629 36.2595 73.8184 0.0000 45.5075 0.0000
# 2 36.2595 46.2726 15.6926 0.0000 28.6014 0.0000
# 3 73.8184 15.6926 108.8093 0.0000 45.8305 0.0000
# 4 0.0000 0.0000 0.0000 23.5403 0.0000 12.6353
# 5 45.5075 28.6014 45.8305 0.0000 71.9069 0.0000
# 6 0.0000 0.0000 0.0000 12.6353 0.0000 1.5700
#
#
#
# Elastic Compliance Matrix: (Units=1/GPa)
#
#
# Indices 1 2 3 4 5 6 
#
# 1 0.010308 -0.005799 -0.005988 0.000000 -0.000400 0.000000
# 2 -0.005799 0.031985 0.004284 0.000000 -0.011783 0.000000
# 3 -0.005988 0.004284 0.016071 0.000000 -0.008157 0.000000
# 4 0.000000 0.000000 0.000000 -0.012796 0.000000 0.102984
# 5 -0.000400 -0.011783 -0.008157 0.000000 0.024046 0.000000
# 6 0.000000 0.000000 0.000000 0.102984 0.000000 -0.191865
#
#
# Mechanical properties :
#
#
# Convention : Reuss Voigt Hill
#
# Bulk Modulus (GPa) = 23.06370 63.18731 43.12551
# Shear Modulus (GPa) = -53.88375 32.16173 -10.86101
#
# Velocity S-wave (km/s) = -5.06089 3.90992 -2.27213
# Velocity P-wave (km/s) = 4.81531 7.10057 3.68991
#
# Compressibility (1/GPa) = 0.04335818
#
# Stress axis : x y z
#
# Youngs Moduli (GPa) = 97.01329 31.26421 62.22456
#
# Poissons Ratio (x) = 0.18130 0.37261
# Poissons Ratio (y) = 0.56259 -0.26658
# Poissons Ratio (z) = 0.58093 -0.13394
#
# Static dielectric constant tensor:
#      x y z
#    x 1.801090 0.000000 0.036650 
#    y 0.000000 1.744400 0.000000 
#    z 0.036650 0.000000 1.911230 
# 
# From -- ./inp_files/5631.got.cif
#   From: 2010.05.17/outbox.cif.g08.bks.cpg/sg12_3_cif.got.tgz:5631.got - 2010.06.03 13:09:07.
