data_PCOD9194031
_publ_section_title
;
Structure prediction by ZEFSAII (Michael W. Deem and Ramdas Pophale) SiO2 
 PCOD9194031
Probable space group: C 2/M
;
_chemical_formula_sum "Si O2"
_cell_formula_units_Z 64
_cell_length_a 28.854068
_cell_length_b 8.889898
_cell_length_c 35.505158
_cell_angle_alpha 90.000000
_cell_angle_beta 156.730460
_cell_angle_gamma 90.000000
_cell_volume 3597.950905
_symmetry_space_group_name_H-M "C 2/M"
_symmetry_group_IT_number 12
_symmetry_cell_setting 'monoclinic'
loop_
_space_group_symop_operation_xyz
x,y,z
-x,y,-z
-x,-y,-z
x,-y,z
1/2+x,1/2+y,z
1/2-x,1/2+y,-z
1/2-x,1/2-y,-z
1/2+x,1/2-y,z
loop_
_atom_site_type_symbol
_atom_site_label
_atom_site_fract_x
_atom_site_fract_y
_atom_site_fract_z
Si Si1 0.468438 0.179605 0.386173
Si Si2 0.347959 0.819562 0.143437
Si Si3 0.355515 0.319629 0.229391
Si Si4 0.869385 0.828312 0.384190
Si Si5 0.960514 0.680690 0.776647
Si Si6 0.418016 0.182265 0.972410
Si Si7 0.591239 0.818014 0.949906
Si Si8 0.720478 0.179112 0.609733
O O1 0.433667 0.257431 0.321439
O O2 0.383465 0.239225 0.355914
O O3 0.601128 0.217817 0.498186
O O4 0.459321 0.000000 0.376412
O O5 0.386254 0.753480 0.212302
O O6 0.441003 0.780397 0.180536
O O7 0.338850 0.000000 0.138665
O O8 0.220169 0.750294 0.039855
O O9 0.363057 0.500000 0.232531
O O10 0.218834 0.279363 0.135248
O O11 0.790139 0.751697 0.356692
O O12 0.000000 0.830222 0.500000
O O13 0.832442 0.000000 0.349667
O O14 0.945449 0.500000 0.764971
O O15 0.836534 0.758264 0.676987
O O16 0.007424 0.724957 0.853052
O O17 0.425235 0.000000 0.977203
O O18 0.500000 0.239933 0.000000
O O19 0.450321 0.228652 0.039236
O O20 0.601982 0.000000 0.957867
O O21 0.724556 0.000000 0.616303
#
# Coordination Sequence:
#
# PCOD9194031 Si02
#       8
#     8   8   8   8   8   8   8   8
#     4  10  20  35  54  77 107 141 177 218 264 313
#     4  10  20  35  54  76 103 135 173 221 273 320
#     4  10  20  34  55  79 101 136 182 219 261 319
#     4   9  17  31  52  75 101 136 175 212 252 303
#     4  10  21  35  53  77 104 137 177 222 271 319
#     4   8  15  29  49  75 106 134 163 204 252 303
#     4   9  18  33  53  77 104 136 174 214 259 316
#     4  10  21  35  52  77 109 141 174 218 269 314
#
# _framework density 17.787901999999999
#
# number of rings (size 3 to 8) (size 9 to 14) (size 15 to 20)
#    0.000    2.500    0.000    3.000    0.000    5.500 
#    0.000    3.125    0.000    9.375    0.000    0.000 
#    0.000    0.000    0.000    0.000    0.000    0.000 
#
# Total GULP energy -178525.499979 kJ/mol
# GULP energy per Si atom -5578.921874 kJ/mol
# Density = 1.774742 g / cm^3
# Si number density = 17.787902 Si / 1000 Ang^3
#
#
#
# Elastic Constant Matrix: (Units=GPa)
#
#
# Indices 1 2 3 4 5 6 
#
# 1 124.5646 35.3708 60.0527 -0.0001 3.8757 -0.0002
# 2 35.3708 35.4608 29.5236 -0.0003 -3.7066 0.0016
# 3 60.0527 29.5236 66.0898 0.0004 -12.0126 0.0002
# 4 -0.0001 -0.0003 0.0004 21.7649 0.0002 -1.2299
# 5 3.8757 -3.7066 -12.0126 0.0002 23.5278 0.0001
# 6 -0.0002 0.0016 0.0002 -1.2299 0.0001 26.8566
#
#
#
# Elastic Compliance Matrix: (Units=1/GPa)
#
#
# Indices 1 2 3 4 5 6 
#
# 1 0.017458 -0.005830 -0.015376 0.000000 -0.011645 0.000001
# 2 -0.005830 0.047108 -0.015678 0.000001 0.000377 -0.000003
# 3 -0.015376 -0.015678 0.039812 -0.000001 0.020390 0.000000
# 4 0.000000 0.000001 -0.000001 0.046065 -0.000001 0.002110
# 5 -0.011645 0.000377 0.020390 -0.000001 0.054891 0.000000
# 6 0.000001 -0.000003 0.000000 0.002110 0.000000 0.037331
#
#
# Mechanical properties :
#
#
# Convention : Reuss Voigt Hill
#
# Bulk Modulus (GPa) = 32.66856 52.88993 42.77925
# Shear Modulus (GPa) = 15.30753 21.17441 18.24097
#
# Velocity S-wave (km/s) = 2.93671 3.45394 3.20577
# Velocity P-wave (km/s) = 5.46850 6.76050 6.14853
#
# Compressibility (1/GPa) = 0.03061047
#
# Stress axis : x y z
#
# Youngs Moduli (GPa) = 57.27891 21.22797 25.11794
#
# Poissons Ratio (x) = 0.12375 0.38621
# Poissons Ratio (y) = 0.33392 0.39380
# Poissons Ratio (z) = 0.88072 0.33282
#
# Static dielectric constant tensor:
#      x y z
#    x 1.601030 0.000000 -0.001790 
#    y 0.000000 1.593280 0.000000 
#    z -0.001790 0.000000 1.599410 
# 
# From -- ./inp_files/243896.got.cif
#   From: 2010.05.17/outbox.cif.g08.bks.cpg/sg12_122_cif.got.tgz:243896.got - 2010.06.03 13:09:07.
