data_PCOD9194426
_publ_section_title
;
Structure prediction by ZEFSAII (Michael W. Deem and Ramdas Pophale) SiO2 
 PCOD9194426
Probable space group: C 2/M
;
_chemical_formula_sum "Si O2"
_cell_formula_units_Z 58
_cell_length_a 8.537243
_cell_length_b 12.305732
_cell_length_c 29.717123
_cell_angle_alpha 90.000000
_cell_angle_beta 92.998330
_cell_angle_gamma 90.000000
_cell_volume 3117.718694
_symmetry_space_group_name_H-M "C 2/M"
_symmetry_group_IT_number 12
_symmetry_cell_setting 'monoclinic'
loop_
_space_group_symop_operation_xyz
x,y,z
-x,y,-z
-x,-y,-z
x,-y,z
1/2+x,1/2+y,z
1/2-x,1/2+y,-z
1/2-x,1/2-y,-z
1/2+x,1/2-y,z
loop_
_atom_site_type_symbol
_atom_site_label
_atom_site_fract_x
_atom_site_fract_y
_atom_site_fract_z
Si Si1 0.931351 0.877300 0.083989
Si Si2 0.706156 0.310096 0.545774
Si Si3 0.470352 0.877171 0.404540
Si Si4 0.500000 0.500000 0.500000
Si Si5 0.559812 0.122577 0.702291
Si Si6 0.870031 0.696173 0.966733
Si Si7 0.220484 0.288408 0.244261
Si Si8 0.499719 0.623640 0.190169
O O1 0.747839 0.866583 0.067953
O O2 0.035419 0.788963 0.059072
O O3 0.954944 0.860386 0.137435
O O4 0.983017 0.000000 0.073094
O O5 0.750000 0.250000 0.500000
O O6 0.638351 0.216596 0.576955
O O7 0.860901 0.361039 0.570178
O O8 0.583377 0.404152 0.532297
O O9 0.479171 0.865960 0.350913
O O10 0.412139 0.000000 0.414158
O O11 0.686156 0.210588 0.719994
O O12 0.405947 0.142549 0.730120
O O13 0.618816 0.000000 0.710466
O O14 0.750000 0.750000 0.000000
O O15 0.000000 0.637214 0.000000
O O16 0.347129 0.357668 0.218810
O O17 0.127356 0.210263 0.208492
O O18 0.556967 0.500000 0.196382
#
# Coordination Sequence:
#
# PCOD9194426 Si02
#       8
#     8   8   8   2   8   8   8   8
#     4  10  20  35  54  78 108 140 182 224 272 319
#     4  12  24  40  60  85 113 147 187 228 277 327
#     4  11  24  39  61  84 114 147 186 228 274 326
#     4  12  24  40  60  84 116 144 186 230 276 328
#     4  10  21  38  57  83 111 145 181 222 267 327
#     4   9  19  34  52  75 105 141 181 222 266 321
#     4  10  20  36  58  80 113 142 178 221 273 320
#     4  10  20  34  56  82 107 142 179 223 270 323
#
# _framework density 18.603345000000001
#
# number of rings (size 3 to 8) (size 9 to 14) (size 15 to 20)
#    0.000    1.655    2.069    2.483    0.966    3.310 
#    0.000    2.069    1.517   11.586    0.000    0.000 
#    0.000    0.000    0.000    0.000    0.000    0.000 
#
# Total GULP energy -161581.235511 kJ/mol
# GULP energy per Si atom -5571.766742 kJ/mol
# Density = 1.856100 g / cm^3
# Si number density = 18.603345 Si / 1000 Ang^3
#
#
#
# Elastic Constant Matrix: (Units=GPa)
#
#
# Indices 1 2 3 4 5 6 
#
# 1 34.1777 1.4596 4.1714 0.0000 7.3052 0.0000
# 2 1.4596 96.5912 34.0926 0.0000 -3.8990 0.0000
# 3 4.1714 34.0926 82.0739 0.0000 12.6720 0.0000
# 4 0.0000 0.0000 0.0000 37.2592 0.0000 14.8124
# 5 7.3052 -3.8990 12.6720 0.0000 27.4728 0.0000
# 6 0.0000 0.0000 0.0000 14.8124 0.0000 28.2003
#
#
#
# Elastic Compliance Matrix: (Units=1/GPa)
#
#
# Indices 1 2 3 4 5 6 
#
# 1 0.031085 -0.000832 0.000065 0.000000 -0.008414 0.000000
# 2 -0.000832 0.012658 -0.005951 0.000000 0.004763 0.000000
# 3 0.000065 -0.005951 0.015920 0.000000 -0.008205 0.000000
# 4 0.000000 0.000000 0.000000 0.033923 0.000000 -0.017818
# 5 -0.008414 0.004763 -0.008205 0.000000 0.043098 0.000000
# 6 0.000000 0.000000 0.000000 -0.017818 0.000000 0.044820
#
#
# Mechanical properties :
#
#
# Convention : Reuss Voigt Hill
#
# Bulk Modulus (GPa) = 21.63293 32.47664 27.05479
# Shear Modulus (GPa) = 23.77011 30.12775 26.94893
#
# Velocity S-wave (km/s) = 3.57842 4.02864 3.81019
# Velocity P-wave (km/s) = 5.35978 6.25582 5.82505
#
# Compressibility (1/GPa) = 0.04622581
#
# Stress axis : x y z
#
# Youngs Moduli (GPa) = 32.16998 78.99990 62.81519
#
# Poissons Ratio (x) = 0.06575 -0.00408
# Poissons Ratio (y) = 0.02677 0.37382
# Poissons Ratio (z) = -0.00209 0.47014
#
# Static dielectric constant tensor:
#      x y z
#    x 1.637900 0.000000 0.013030 
#    y 0.000000 1.638870 0.000000 
#    z 0.013030 0.000000 1.620530 
# 
# From -- ./inp_files/355834.got.cif
#   From: 2010.05.17/outbox.cif.g08.bks.cpg/sg12_178_cif.got.tgz:355834.got - 2010.06.03 13:09:07.
