data_PCOD9194412
_publ_section_title
;
Structure prediction by ZEFSAII (Michael W. Deem and Ramdas Pophale) SiO2 
 PCOD9194412
Probable space group: C 2/M
;
_chemical_formula_sum "Si O2"
_cell_formula_units_Z 40
_cell_length_a 9.217319
_cell_length_b 13.386308
_cell_length_c 16.632254
_cell_angle_alpha 90.000000
_cell_angle_beta 130.088990
_cell_angle_gamma 90.000000
_cell_volume 1570.014319
_symmetry_space_group_name_H-M "C 2/M"
_symmetry_group_IT_number 12
_symmetry_cell_setting 'monoclinic'
loop_
_space_group_symop_operation_xyz
x,y,z
-x,y,-z
-x,-y,-z
x,-y,z
1/2+x,1/2+y,z
1/2-x,1/2+y,-z
1/2-x,1/2-y,-z
1/2+x,1/2-y,z
loop_
_atom_site_type_symbol
_atom_site_label
_atom_site_fract_x
_atom_site_fract_y
_atom_site_fract_z
Si Si1 0.737179 0.392770 0.766032
Si Si2 0.652195 0.613555 0.128397
Si Si3 0.425163 0.764369 0.121360
Si Si4 0.285475 0.659951 0.414097
Si Si5 0.214213 0.117073 0.406592
O O1 0.746128 0.500000 0.808273
O O2 0.794908 0.392473 0.692458
O O3 0.514670 0.366873 0.680355
O O4 0.909746 0.329052 0.862059
O O5 0.711195 0.500000 0.163955
O O6 0.536361 0.658680 0.162756
O O7 0.830202 0.681205 0.163757
O O8 0.500000 0.612901 0.000000
O O9 0.250000 0.750000 0.000000
O O10 0.500000 0.624665 0.500000
O O11 0.287504 0.778886 0.394549
O O12 0.206169 0.632592 0.473280
O O13 0.252270 0.000000 0.397478
#
# Coordination Sequence:
#
# PCOD9194412 Si02
#       5
#     8   8   8   8   8
#     4  10  20  34  56  81 108 148 195 240 292 356
#     4   9  19  38  60  83 115 154 198 251 306 359
#     4  10  21  37  60  87 117 157 202 251 304 361
#     4   9  18  33  54  80 110 147 184 229 289 352
#     4   9  18  33  53  80 113 143 183 235 288 349
#
# _framework density 25.477474000000001
#
# number of rings (size 3 to 8) (size 9 to 14) (size 15 to 20)
#    0.000    2.600    0.000    1.200    2.800    3.600 
#    0.000    3.000    0.000   11.400    0.000    0.000 
#    0.000    0.000    0.000    0.000    0.000    0.000 
#
# Total GULP energy -111408.032437 kJ/mol
# GULP energy per Si atom -5570.401622 kJ/mol
# Density = 2.541949 g / cm^3
# Si number density = 25.477474 Si / 1000 Ang^3
#
#
#
# Elastic Constant Matrix: (Units=GPa)
#
#
# Indices 1 2 3 4 5 6 
#
# 1 86.1784 54.9606 22.0891 0.0000 14.2987 0.0000
# 2 54.9606 160.1198 4.3806 0.0000 13.3832 0.0000
# 3 22.0891 4.3806 86.0076 0.0000 19.8120 0.0000
# 4 0.0000 0.0000 0.0000 29.5986 0.0000 10.8079
# 5 14.2987 13.3832 19.8120 0.0000 43.0368 0.0000
# 6 0.0000 0.0000 0.0000 10.8079 0.0000 30.0907
#
#
#
# Elastic Compliance Matrix: (Units=1/GPa)
#
#
# Indices 1 2 3 4 5 6 
#
# 1 0.016207 -0.005288 -0.003391 0.000000 -0.002179 0.000000
# 2 -0.005288 0.008139 0.001255 0.000000 -0.001352 0.000000
# 3 -0.003391 0.001255 0.013719 0.000000 -0.005579 0.000000
# 4 0.000000 0.000000 0.000000 0.038885 0.000000 -0.013967
# 5 -0.002179 -0.001352 -0.005579 0.000000 0.026949 0.000000
# 6 0.000000 0.000000 0.000000 -0.013967 0.000000 0.038249
#
#
# Mechanical properties :
#
#
# Convention : Reuss Voigt Hill
#
# Bulk Modulus (GPa) = 43.07236 55.01850 49.04543
# Shear Modulus (GPa) = 30.35157 37.27026 33.81092
#
# Velocity S-wave (km/s) = 3.45528 3.82890 3.64688
# Velocity P-wave (km/s) = 5.73248 6.41788 6.08484
#
# Compressibility (1/GPa) = 0.02321674
#
# Stress axis : x y z
#
# Youngs Moduli (GPa) = 61.70129 122.86359 72.89131
#
# Poissons Ratio (x) = 0.64972 0.24718
# Poissons Ratio (y) = 0.32628 -0.09148
# Poissons Ratio (z) = 0.20924 -0.15419
#
# Static dielectric constant tensor:
#      x y z
#    x 2.086860 0.000000 -0.058890 
#    y 0.000000 2.168140 0.000000 
#    z -0.058890 0.000000 2.000380 
# 
# From -- ./inp_files/203277.got.cif
#   From: 2010.05.17/outbox.cif.g08.bks.cpg/sg12_102_cif.got.tgz:203277.got - 2010.06.03 13:09:07.
