data_PCOD9194782
_publ_section_title
;
Structure prediction by ZEFSAII (Michael W. Deem and Ramdas Pophale) SiO2 
 PCOD9194782
Probable space group: C 2/M
;
_chemical_formula_sum "Si O2"
_cell_formula_units_Z 48
_cell_length_a 14.684587
_cell_length_b 19.073167
_cell_length_c 9.686140
_cell_angle_alpha 90.000000
_cell_angle_beta 133.967424
_cell_angle_gamma 90.000000
_cell_volume 1952.574863
_symmetry_space_group_name_H-M "C 2/M"
_symmetry_group_IT_number 12
_symmetry_cell_setting 'monoclinic'
loop_
_space_group_symop_operation_xyz
x,y,z
-x,y,-z
-x,-y,-z
x,-y,z
1/2+x,1/2+y,z
1/2-x,1/2+y,-z
1/2-x,1/2-y,-z
1/2+x,1/2-y,z
loop_
_atom_site_type_symbol
_atom_site_label
_atom_site_fract_x
_atom_site_fract_y
_atom_site_fract_z
Si Si1 0.681557 0.920054 0.688887
Si Si2 0.716107 0.079315 0.035395
Si Si3 0.621827 0.796055 0.414979
Si Si4 0.048422 0.170252 0.700416
Si Si5 0.388717 0.424824 0.709909
Si Si6 0.630715 0.077253 0.252679
O O1 0.640816 0.851779 0.560275
O O2 0.829518 0.919893 0.799575
O O3 0.640272 0.000000 0.603151
O O4 0.652306 0.914400 0.818823
O O5 0.808286 0.145988 0.142937
O O6 0.641792 0.078763 0.100284
O O7 0.776386 0.000000 0.095933
O O8 0.750000 0.750000 0.500000
O O9 0.507562 0.747056 0.341574
O O10 0.580249 0.848240 0.249761
O O11 0.000000 0.143552 0.500000
O O12 0.982567 0.133066 0.759986
O O13 0.449244 0.500000 0.756431
O O14 0.269263 0.421941 0.476036
O O15 0.577772 0.000000 0.235874
#
# Coordination Sequence:
#
# PCOD9194782 Si02
#       6
#     8   8   8   8   8   8
#     4   9  19  36  57  81 108 144 186 231 272 317
#     4  10  20  34  57  88 116 137 174 233 288 325
#     4  11  19  35  54  74 112 154 189 217 262 336
#     4  12  21  32  51  81 115 149 183 220 274 335
#     4   9  16  29  50  73 105 142 179 216 260 320
#     4   9  17  33  56  78 101 142 191 227 262 320
#
# _framework density 24.582923999999998
#
# number of rings (size 3 to 8) (size 9 to 14) (size 15 to 20)
#    0.000    2.000    5.000    2.000    0.000    1.333 
#    0.000    5.833    0.000    2.000    0.000    0.000 
#    0.000   20.000    0.000    0.000    0.000    0.000 
#
# Total GULP energy -133813.988906 kJ/mol
# GULP energy per Si atom -5575.582871 kJ/mol
# Density = 2.452697 g / cm^3
# Si number density = 24.582924 Si / 1000 Ang^3
#
#
#
# Elastic Constant Matrix: (Units=GPa)
#
#
# Indices 1 2 3 4 5 6 
#
# 1 90.1848 48.2034 37.4698 0.0000 -25.9977 0.0000
# 2 48.2034 180.6118 52.6233 0.0000 -7.3382 0.0000
# 3 37.4698 52.6233 120.9746 0.0000 -32.6123 0.0000
# 4 0.0000 0.0000 0.0000 23.0001 0.0000 7.6129
# 5 -25.9977 -7.3382 -32.6123 0.0000 40.7845 0.0000
# 6 0.0000 0.0000 0.0000 7.6129 0.0000 4.3174
#
#
#
# Elastic Compliance Matrix: (Units=1/GPa)
#
#
# Indices 1 2 3 4 5 6 
#
# 1 0.015948 -0.003604 -0.001028 0.000000 0.008696 0.000000
# 2 -0.003604 0.007214 -0.002921 0.000000 -0.003335 0.000000
# 3 -0.001028 -0.002921 0.012158 0.000000 0.008541 0.000000
# 4 0.000000 0.000000 0.000000 0.104423 0.000000 -0.184129
# 5 0.008696 -0.003335 0.008541 0.000000 0.036291 0.000000
# 6 0.000000 0.000000 0.000000 -0.184129 0.000000 0.556292
#
#
# Mechanical properties :
#
#
# Convention : Reuss Voigt Hill
#
# Bulk Modulus (GPa) = 49.46838 74.26270 61.86554
# Shear Modulus (GPa) = 6.62981 30.51874 18.57427
#
# Velocity S-wave (km/s) = 1.64401 3.52726 2.75176
# Velocity P-wave (km/s) = 4.87549 6.84568 5.94280
#
# Compressibility (1/GPa) = 0.02021494
#
# Stress axis : x y z
#
# Youngs Moduli (GPa) = 62.70276 138.61846 82.25346
#
# Poissons Ratio (x) = 0.49953 0.08455
# Poissons Ratio (y) = 0.22596 0.24025
# Poissons Ratio (z) = 0.06446 0.40489
#
# Static dielectric constant tensor:
#      x y z
#    x 2.038990 0.000000 0.068570 
#    y 0.000000 2.000570 0.000000 
#    z 0.068570 0.000000 1.999550 
# 
# From -- ./inp_files/75436.got.cif
#   From: 2010.05.17/outbox.cif.g08.bks.cpg/sg12_38_cif.got.tgz:75436.got - 2010.06.03 13:09:07.
