data_PCOD9194937
_publ_section_title
;
Structure prediction by ZEFSAII (Michael W. Deem and Ramdas Pophale) SiO2 
 PCOD9194937
Probable space group: C 2/M
;
_chemical_formula_sum "Si O2"
_cell_formula_units_Z 58
_cell_length_a 8.816643
_cell_length_b 26.893555
_cell_length_c 20.221425
_cell_angle_alpha 90.000000
_cell_angle_beta 36.971621
_cell_angle_gamma 90.000000
_cell_volume 2883.637374
_symmetry_space_group_name_H-M "C 2/M"
_symmetry_group_IT_number 12
_symmetry_cell_setting 'monoclinic'
loop_
_space_group_symop_operation_xyz
x,y,z
-x,y,-z
-x,-y,-z
x,-y,z
1/2+x,1/2+y,z
1/2-x,1/2+y,-z
1/2-x,1/2-y,-z
1/2+x,1/2-y,z
loop_
_atom_site_type_symbol
_atom_site_label
_atom_site_fract_x
_atom_site_fract_y
_atom_site_fract_z
Si Si1 0.504887 0.815297 0.684561
Si Si2 0.500000 0.500000 0.500000
Si Si3 0.518714 0.628765 0.141690
Si Si4 0.750742 0.405100 0.337133
Si Si5 0.413836 0.201131 0.955337
Si Si6 0.093240 0.845061 0.266239
Si Si7 0.316980 0.233692 0.619628
Si Si8 0.303498 0.441388 0.123435
O O1 0.220091 0.835315 0.790451
O O2 0.687648 0.863177 0.628061
O O3 0.479261 0.785253 0.624768
O O4 0.606836 0.776224 0.703075
O O5 0.629333 0.455024 0.408853
O O6 0.583901 0.629373 0.196639
O O7 0.425950 0.575530 0.149802
O O8 0.742805 0.651679 0.020195
O O9 0.606830 0.380002 0.325490
O O10 0.029109 0.417983 0.212681
O O11 0.657844 0.189788 0.825933
O O12 0.500000 0.208709 0.000000
O O13 0.250000 0.250000 0.000000
O O14 0.839928 0.812452 0.354957
O O15 0.500000 0.254656 0.500000
O O16 0.278889 0.500000 0.127715
O O17 0.500000 0.423804 0.000000
#
# Coordination Sequence:
#
# PCOD9194937 Si02
#       8
#     8   2   8   8   8   8   8   8
#     4  10  22  37  60  86 123 155 199 248 305 373
#     4  12  28  44  66  86 122 156 236 280 336 372
#     4   9  20  38  58  88 124 160 198 249 305 374
#     4  11  24  43  66  89 122 165 212 273 326 378
#     4  10  20  34  58  90 132 164 196 235 299 380
#     4  10  22  39  60  89 128 164 207 252 310 381
#     4  11  22  36  57  90 119 161 203 242 302 376
#     4  10  20  39  64  90 117 153 200 254 316 380
#
# _framework density 20.113486999999999
#
# number of rings (size 3 to 8) (size 9 to 14) (size 15 to 20)
#    0.000    1.793    0.690    2.897    2.897    4.966 
#    1.241    0.000    0.000   10.345    0.000    0.000 
#    0.000    0.000    0.000    0.000    0.000    0.000 
#
# Total GULP energy -161482.369790 kJ/mol
# GULP energy per Si atom -5568.357579 kJ/mol
# Density = 2.006771 g / cm^3
# Si number density = 20.113487 Si / 1000 Ang^3
#
#
#
# Elastic Constant Matrix: (Units=GPa)
#
#
# Indices 1 2 3 4 5 6 
#
# 1 130.9795 65.5514 35.5473 0.0000 3.6517 0.0000
# 2 65.5514 87.5420 7.4902 0.0000 7.8560 0.0000
# 3 35.5473 7.4902 60.3214 -0.0001 4.3049 0.0000
# 4 0.0000 0.0000 -0.0001 23.4154 0.0000 -1.1856
# 5 3.6517 7.8560 4.3049 0.0000 18.0192 0.0000
# 6 0.0000 0.0000 0.0000 -1.1856 0.0000 22.3503
#
#
#
# Elastic Compliance Matrix: (Units=1/GPa)
#
#
# Indices 1 2 3 4 5 6 
#
# 1 0.015171 -0.011013 -0.007830 0.000000 0.003597 0.000000
# 2 -0.011013 0.019958 0.004551 0.000000 -0.007557 0.000000
# 3 -0.007830 0.004551 0.021013 0.000000 -0.005418 0.000000
# 4 0.000000 0.000000 0.000000 0.042822 0.000000 0.002271
# 5 0.003597 -0.007557 -0.005418 0.000000 0.059356 0.000000
# 6 0.000000 0.000000 0.000000 0.002271 0.000000 0.044863
#
#
# Mechanical properties :
#
#
# Convention : Reuss Voigt Hill
#
# Bulk Modulus (GPa) = 36.28490 55.11340 45.69915
# Shear Modulus (GPa) = 20.75092 24.10724 22.42908
#
# Velocity S-wave (km/s) = 3.21548 3.46578 3.34297
# Velocity P-wave (km/s) = 5.64491 6.59365 6.13764
#
# Compressibility (1/GPa) = 0.02755967
#
# Stress axis : x y z
#
# Youngs Moduli (GPa) = 65.91492 50.10425 47.58888
#
# Poissons Ratio (x) = 0.55180 0.37260
# Poissons Ratio (y) = 0.72592 -0.21658
# Poissons Ratio (z) = 0.51608 -0.22802
#
# Static dielectric constant tensor:
#      x y z
#    x 1.765430 0.000000 -0.028560 
#    y 0.000000 1.727300 0.000000 
#    z -0.028560 0.000000 1.760120 
# 
# From -- ./inp_files/302434.got.cif
#   From: 2010.05.17/outbox.cif.g08.bks.cpg/sg12_152_cif.got.tgz:302434.got - 2010.06.03 13:09:07.
