data_PCOD9194970
_publ_section_title
;
Structure prediction by ZEFSAII (Michael W. Deem and Ramdas Pophale) SiO2 
 PCOD9194970
Probable space group: C 2/M
;
_chemical_formula_sum "Si O2"
_cell_formula_units_Z 56
_cell_length_a 33.846514
_cell_length_b 14.581026
_cell_length_c 12.237886
_cell_angle_alpha 90.000000
_cell_angle_beta 28.615374
_cell_angle_gamma 90.000000
_cell_volume 2892.531799
_symmetry_space_group_name_H-M "C 2/M"
_symmetry_group_IT_number 12
_symmetry_cell_setting 'monoclinic'
loop_
_space_group_symop_operation_xyz
x,y,z
-x,y,-z
-x,-y,-z
x,-y,z
1/2+x,1/2+y,z
1/2-x,1/2+y,-z
1/2-x,1/2-y,-z
1/2+x,1/2-y,z
loop_
_atom_site_type_symbol
_atom_site_label
_atom_site_fract_x
_atom_site_fract_y
_atom_site_fract_z
Si Si1 0.831209 0.221403 0.737611
Si Si2 0.450565 0.390464 0.869336
Si Si3 0.318163 0.896437 0.642491
Si Si4 0.876314 0.107444 0.826819
Si Si5 0.375185 0.610230 0.438699
Si Si6 0.904683 0.400654 0.198953
Si Si7 0.842452 0.784254 0.291224
O O1 0.860190 0.315303 0.609785
O O2 0.883563 0.168729 0.701653
O O3 0.815304 0.149484 0.678119
O O4 0.750000 0.250000 0.000000
O O5 0.448529 0.500000 0.873168
O O6 0.435702 0.362360 0.780488
O O7 0.534391 0.365856 0.730367
O O8 0.373688 0.352951 0.123808
O O9 0.348537 0.888618 0.443890
O O10 0.339500 0.000000 0.627101
O O11 0.218946 0.886915 0.897762
O O12 0.891113 0.000000 0.763735
O O13 0.370037 0.500000 0.436691
O O14 0.358827 0.664853 0.366806
O O15 0.882254 0.500000 0.203719
O O16 0.893694 0.309638 0.156578
O O17 0.000000 0.404614 0.000000
O O18 0.750000 0.750000 0.500000
#
# Coordination Sequence:
#
# PCOD9194970 Si02
#       7
#     8   8   8   8   8   8   8
#     4  10  20  34  59  84 120 157 200 243 294 349
#     4  10  22  39  62  90 126 160 192 241 306 366
#     4   9  17  32  55  83 115 153 197 240 290 348
#     4   9  18  34  57  86 117 153 196 239 286 354
#     4  11  23  40  62  93 124 155 193 249 309 358
#     4  10  20  35  57  83 112 148 194 242 287 344
#     4  12  24  37  61  87 123 158 197 237 294 361
#
# _framework density 19.360201
#
# number of rings (size 3 to 8) (size 9 to 14) (size 15 to 20)
#    0.000    1.857    1.429    3.000    2.000    4.571 
#    0.000    2.143    0.000    0.000    0.000    1.000 
#    0.000    0.000    0.000    0.000    0.000    0.000 
#
# Total GULP energy -156180.266708 kJ/mol
# GULP energy per Si atom -5577.866668 kJ/mol
# Density = 1.931614 g / cm^3
# Si number density = 19.360201 Si / 1000 Ang^3
#
#
#
# Elastic Constant Matrix: (Units=GPa)
#
#
# Indices 1 2 3 4 5 6 
#
# 1 114.5952 54.0635 3.3804 0.0000 -1.8823 0.0000
# 2 54.0635 66.6049 3.9311 0.0000 -6.7515 0.0000
# 3 3.3804 3.9311 43.4070 0.0000 -8.0783 0.0000
# 4 0.0000 0.0000 0.0000 19.0950 0.0000 9.7413
# 5 -1.8823 -6.7515 -8.0783 0.0000 21.4695 0.0000
# 6 0.0000 0.0000 0.0000 9.7413 0.0000 20.5248
#
#
#
# Elastic Compliance Matrix: (Units=1/GPa)
#
#
# Indices 1 2 3 4 5 6 
#
# 1 0.014279 -0.011829 -0.000538 0.000000 -0.002670 0.000000
# 2 -0.011829 0.025320 -0.000089 0.000000 0.006892 0.000000
# 3 -0.000538 -0.000089 0.024811 0.000000 0.009260 0.000000
# 4 0.000000 0.000000 0.000000 0.069100 0.000000 -0.032796
# 5 -0.002670 0.006892 0.009260 0.000000 0.051995 0.000000
# 6 0.000000 0.000000 0.000000 -0.032796 0.000000 0.064287
#
#
# Mechanical properties :
#
#
# Convention : Reuss Voigt Hill
#
# Bulk Modulus (GPa) = 25.31816 38.59523 31.95669
# Shear Modulus (GPa) = 17.36889 23.10001 20.23445
#
# Velocity S-wave (km/s) = 2.99849 3.45798 3.23640
# Velocity P-wave (km/s) = 5.00936 5.99350 5.52340
#
# Compressibility (1/GPa) = 0.03949735
#
# Stress axis : x y z
#
# Youngs Moduli (GPa) = 70.03174 39.49484 40.30446
#
# Poissons Ratio (x) = 0.46720 0.02167
# Poissons Ratio (y) = 0.82844 0.00360
# Poissons Ratio (z) = 0.03765 0.00353
#
# Static dielectric constant tensor:
#      x y z
#    x 1.665590 0.000000 0.012270 
#    y 0.000000 1.706010 0.000000 
#    z 0.012270 0.000000 1.660040 
# 
# From -- ./inp_files/189614.got.cif
#   From: 2010.05.17/outbox.cif.g08.bks.cpg/sg12_95_cif.got.tgz:189614.got - 2010.06.03 13:09:07.
