data_PCOD9194878
_publ_section_title
;
Structure prediction by ZEFSAII (Michael W. Deem and Ramdas Pophale) SiO2 
 PCOD9194878
Probable space group: C 2/M
;
_chemical_formula_sum "Si O2"
_cell_formula_units_Z 56
_cell_length_a 21.991467
_cell_length_b 26.216819
_cell_length_c 5.292995
_cell_angle_alpha 90.000000
_cell_angle_beta 67.446318
_cell_angle_gamma 90.000000
_cell_volume 2818.267799
_symmetry_space_group_name_H-M "C 2/M"
_symmetry_group_IT_number 12
_symmetry_cell_setting 'monoclinic'
loop_
_space_group_symop_operation_xyz
x,y,z
-x,y,-z
-x,-y,-z
x,-y,z
1/2+x,1/2+y,z
1/2-x,1/2+y,-z
1/2-x,1/2-y,-z
1/2+x,1/2-y,z
loop_
_atom_site_type_symbol
_atom_site_label
_atom_site_fract_x
_atom_site_fract_y
_atom_site_fract_z
Si Si1 0.144314 0.621600 0.821131
Si Si2 0.262244 0.559912 0.633931
Si Si3 0.364997 0.265593 0.778833
Si Si4 0.423731 0.161172 0.559620
Si Si5 0.743426 0.207203 0.716607
Si Si6 0.841748 0.062347 0.007166
Si Si7 0.954869 0.146226 0.822790
O O1 0.183710 0.569144 0.759878
O O2 0.095505 0.633038 0.669065
O O3 0.207343 0.658100 0.671619
O O4 0.113777 0.636227 0.140239
O O5 0.272664 0.500000 0.616592
O O6 0.297412 0.577374 0.835713
O O7 0.300324 0.577248 0.321975
O O8 0.405262 0.221574 0.569117
O O9 0.317191 0.302010 0.694235
O O10 0.411001 0.301899 0.871595
O O11 0.309725 0.231546 0.007395
O O12 0.500000 0.157390 0.500000
O O13 0.750000 0.250000 0.500000
O O14 0.907607 0.096540 0.900586
O O15 0.853295 0.000000 0.986568
O O16 0.000000 0.145137 0.500000
O O17 0.000000 0.147404 0.000000
#
# Coordination Sequence:
#
# PCOD9194878 Si02
#       7
#     8   8   8   8   8   8   8
#     4  11  22  37  62  87 118 150 193 244 293 356
#     4  10  21  39  67  94 117 146 190 254 315 351
#     4  10  23  37  55  85 118 152 201 245 292 349
#     4  11  23  39  57  82 119 164 197 229 279 356
#     4  10  20  34  58  85 112 149 187 248 305 340
#     4  10  22  41  63  89 119 154 198 250 301 352
#     4  12  27  40  59  86 121 169 205 243 289 344
#
# _framework density 19.870360999999999
#
# number of rings (size 3 to 8) (size 9 to 14) (size 15 to 20)
#    0.000    1.429    1.429    3.429    4.000    2.857 
#    0.000    0.000    0.000    2.571    0.000    0.000 
#    0.000    0.000    0.000    0.000    0.000    0.000 
#
# Total GULP energy -156155.393611 kJ/mol
# GULP energy per Si atom -5576.978343 kJ/mol
# Density = 1.982513 g / cm^3
# Si number density = 19.870361 Si / 1000 Ang^3
#
#
#
# Elastic Constant Matrix: (Units=GPa)
#
#
# Indices 1 2 3 4 5 6 
#
# 1 117.4559 26.9965 17.5100 0.0000 4.7487 0.0000
# 2 26.9965 38.9519 23.5075 0.0000 1.4296 0.0000
# 3 17.5100 23.5075 71.1777 0.0000 0.9912 0.0000
# 4 0.0000 0.0000 0.0000 10.3883 0.0000 -5.7126
# 5 4.7487 1.4296 0.9912 0.0000 30.4413 0.0000
# 6 0.0000 0.0000 0.0000 -5.7126 0.0000 24.6950
#
#
#
# Elastic Compliance Matrix: (Units=1/GPa)
#
#
# Indices 1 2 3 4 5 6 
#
# 1 0.010178 -0.006878 -0.000215 0.000000 -0.001258 0.000000
# 2 -0.006878 0.036753 -0.010442 0.000000 -0.000313 0.000000
# 3 -0.000215 -0.010442 0.017551 0.000000 -0.000048 0.000000
# 4 0.000000 0.000000 0.000000 0.110292 0.000000 0.025513
# 5 -0.001258 -0.000313 -0.000048 0.000000 0.033062 0.000000
# 6 0.000000 0.000000 0.000000 0.025513 0.000000 0.046396
#
#
# Mechanical properties :
#
#
# Convention : Reuss Voigt Hill
#
# Bulk Modulus (GPa) = 33.99885 40.40149 37.20017
# Shear Modulus (GPa) = 16.71653 23.74304 20.22979
#
# Velocity S-wave (km/s) = 2.90363 3.46048 3.19421
# Velocity P-wave (km/s) = 5.32812 6.02853 5.68912
#
# Compressibility (1/GPa) = 0.02941276
#
# Stress axis : x y z
#
# Youngs Moduli (GPa) = 98.25533 27.20877 56.97560
#
# Poissons Ratio (x) = 0.18715 0.01223
# Poissons Ratio (y) = 0.67581 0.59493
# Poissons Ratio (z) = 0.02109 0.28411
#
# Static dielectric constant tensor:
#      x y z
#    x 1.724660 0.000000 0.034080 
#    y 0.000000 1.724710 0.000000 
#    z 0.034080 0.000000 1.695770 
# 
# From -- ./inp_files/18098.got.cif
#   From: 2010.05.17/outbox.cif.g08.bks.cpg/sg12_10_cif.got.tgz:18098.got - 2010.06.03 13:09:07.
