data_PCOD9194537
_publ_section_title
;
Structure prediction by ZEFSAII (Michael W. Deem and Ramdas Pophale) SiO2 
 PCOD9194537
Probable space group: C 2/M
;
_chemical_formula_sum "Si O2"
_cell_formula_units_Z 48
_cell_length_a 17.686742
_cell_length_b 13.230474
_cell_length_c 13.296944
_cell_angle_alpha 90.000000
_cell_angle_beta 66.216817
_cell_angle_gamma 90.000000
_cell_volume 2847.300035
_symmetry_space_group_name_H-M "C 2/M"
_symmetry_group_IT_number 12
_symmetry_cell_setting 'monoclinic'
loop_
_space_group_symop_operation_xyz
x,y,z
-x,y,-z
-x,-y,-z
x,-y,z
1/2+x,1/2+y,z
1/2-x,1/2+y,-z
1/2-x,1/2-y,-z
1/2+x,1/2-y,z
loop_
_atom_site_type_symbol
_atom_site_label
_atom_site_fract_x
_atom_site_fract_y
_atom_site_fract_z
Si Si1 0.346284 0.379195 0.235743
Si Si2 0.912062 0.886554 0.603358
Si Si3 0.303573 0.790769 0.562353
Si Si4 0.966509 0.384444 0.405287
Si Si5 0.411522 0.384236 0.991593
Si Si6 0.482527 0.297493 0.762386
O O1 0.354471 0.500000 0.237288
O O2 0.260091 0.344288 0.328484
O O3 0.425550 0.334164 0.253279
O O4 0.351899 0.351829 0.114334
O O5 0.852356 0.800394 0.591490
O O6 0.000000 0.879440 0.500000
O O7 0.937650 0.867932 0.704673
O O8 0.878751 0.000000 0.605926
O O9 0.250000 0.750000 0.500000
O O10 0.370043 0.863940 0.474644
O O11 0.983738 0.500000 0.369056
O O12 0.004322 0.307969 0.303354
O O13 0.000000 0.365129 0.500000
O O14 0.392239 0.500000 0.968310
O O15 0.426171 0.307901 0.892028
O O16 0.500000 0.390485 0.000000
#
# Coordination Sequence:
#
# PCOD9194537 Si02
#       6
#     8   8   8   8   8   8
#     4  10  20  34  56  85 112 140 175 218 267 316
#     4  11  21  34  54  79 107 139 179 222 266 315
#     4  12  21  36  51  80 113 140 171 216 271 323
#     4  11  22  37  54  75 106 142 181 217 261 323
#     4   8  16  30  54  84 107 134 175 221 263 307
#     4  11  17  36  58  79 105 137 182 225 265 305
#
# _framework density 16.858077000000002
#
# number of rings (size 3 to 8) (size 9 to 14) (size 15 to 20)
#    0.000    1.500    5.000    3.000    0.000    2.667 
#    0.000    0.833    0.000    5.500    0.000    0.000 
#    0.000    0.000    0.000    0.000    0.000    0.000 
#
# Total GULP energy -133741.066625 kJ/mol
# GULP energy per Si atom -5572.544443 kJ/mol
# Density = 1.681971 g / cm^3
# Si number density = 16.858077 Si / 1000 Ang^3
#
#
#
# Elastic Constant Matrix: (Units=GPa)
#
#
# Indices 1 2 3 4 5 6 
#
# 1 49.0714 19.3337 19.9319 0.0000 9.5520 0.0000
# 2 19.3337 110.7343 55.4874 0.0000 6.9820 0.0000
# 3 19.9319 55.4874 131.6945 0.0000 2.2464 0.0000
# 4 0.0000 0.0000 0.0000 22.6686 0.0000 -0.2039
# 5 9.5520 6.9820 2.2464 0.0000 22.3597 0.0000
# 6 0.0000 0.0000 0.0000 -0.2039 0.0000 15.5274
#
#
#
# Elastic Compliance Matrix: (Units=1/GPa)
#
#
# Indices 1 2 3 4 5 6 
#
# 1 0.024142 -0.002378 -0.002493 0.000000 -0.009320 0.000000
# 2 -0.002378 0.011900 -0.004616 0.000000 -0.002236 0.000000
# 3 -0.002493 -0.004616 0.009890 0.000000 0.001513 0.000000
# 4 0.000000 0.000000 0.000000 0.044119 0.000000 0.000579
# 5 -0.009320 -0.002236 0.001513 0.000000 0.049251 0.000000
# 6 0.000000 0.000000 0.000000 0.000579 0.000000 0.064410
#
#
# Mechanical properties :
#
#
# Convention : Reuss Voigt Hill
#
# Bulk Modulus (GPa) = 37.09489 53.44513 45.27001
# Shear Modulus (GPa) = 21.58229 25.22762 23.40495
#
# Velocity S-wave (km/s) = 3.58192 3.87262 3.73010
# Velocity P-wave (km/s) = 6.25770 7.19500 6.74266
#
# Compressibility (1/GPa) = 0.02695789
#
# Stress axis : x y z
#
# Youngs Moduli (GPa) = 41.42100 84.03568 101.11674
#
# Poissons Ratio (x) = 0.19986 0.25207
# Poissons Ratio (y) = 0.09851 0.46672
# Poissons Ratio (z) = 0.10326 0.38788
#
# Static dielectric constant tensor:
#      x y z
#    x 1.444570 0.000000 0.035260 
#    y 0.000000 1.589400 0.000000 
#    z 0.035260 0.000000 1.599720 
# 
# From -- ./inp_files/154197.got.cif
#   From: 2010.05.17/outbox.cif.g08.bks.cpg/sg12_78_cif.got.tgz:154197.got - 2010.06.03 13:09:07.
