data_PCOD9194685
_publ_section_title
;
Structure prediction by ZEFSAII (Michael W. Deem and Ramdas Pophale) SiO2 
 PCOD9194685
Probable space group: C 2/M
;
_chemical_formula_sum "Si O2"
_cell_formula_units_Z 64
_cell_length_a 24.626854
_cell_length_b 18.872845
_cell_length_c 14.829479
_cell_angle_alpha 90.000000
_cell_angle_beta 28.890864
_cell_angle_gamma 90.000000
_cell_volume 3330.026559
_symmetry_space_group_name_H-M "C 2/M"
_symmetry_group_IT_number 12
_symmetry_cell_setting 'monoclinic'
loop_
_space_group_symop_operation_xyz
x,y,z
-x,y,-z
-x,-y,-z
x,-y,z
1/2+x,1/2+y,z
1/2-x,1/2+y,-z
1/2-x,1/2-y,-z
1/2+x,1/2-y,z
loop_
_atom_site_type_symbol
_atom_site_label
_atom_site_fract_x
_atom_site_fract_y
_atom_site_fract_z
Si Si1 0.384286 0.080455 0.952089
Si Si2 0.718302 0.578107 0.360574
Si Si3 0.082190 0.722374 0.550119
Si Si4 0.757818 0.085562 0.014037
Si Si5 0.184601 0.278394 0.725716
Si Si6 0.503180 0.212058 0.142213
Si Si7 0.502215 0.363581 0.394916
Si Si8 0.610940 0.079938 0.399525
O O1 0.477912 0.128707 0.863618
O O2 0.423265 0.000000 0.884857
O O3 0.279001 0.081542 0.174414
O O4 0.335105 0.105139 0.927231
O O5 0.736491 0.500000 0.371340
O O6 0.775233 0.640086 0.334374
O O7 0.587799 0.594356 0.534716
O O8 0.204572 0.734450 0.415611
O O9 0.998104 0.740101 0.754828
O O10 0.087189 0.643746 0.502765
O O11 0.048783 0.783580 0.528442
O O12 0.872883 0.126013 0.824771
O O13 0.774872 0.000000 0.979873
O O14 0.709587 0.098212 0.184365
O O15 0.109006 0.266757 0.747978
O O16 0.104290 0.267886 0.929298
O O17 0.500000 0.391964 0.500000
O O18 0.500000 0.075015 0.500000
O O19 0.630793 0.000000 0.408077
#
# Coordination Sequence:
#
# PCOD9194685 Si02
#       8
#     8   8   8   8   8   8   8   8
#     4   9  17  30  52  81 109 143 182 220 269 329
#     4   9  17  31  50  77 115 145 173 220 271 332
#     4  11  23  37  57  81 110 148 186 230 282 332
#     4  10  20  34  57  83 115 156 189 226 270 323
#     4   9  21  37  55  81 109 135 188 233 284 335
#     4  10  20  37  56  77 105 146 178 234 287 329
#     4  11  21  33  51  86 119 148 184 222 275 334
#     4  10  22  41  58  80 114 151 192 231 270 327
#
# _framework density 19.219066000000002
#
# number of rings (size 3 to 8) (size 9 to 14) (size 15 to 20)
#    0.000    2.125    1.250    1.875    1.750    2.500 
#    0.000    4.375    0.000    0.000    0.000    1.750 
#    0.000    0.000    0.000    0.000    0.000    0.000 
#
# Total GULP energy -178325.112117 kJ/mol
# GULP energy per Si atom -5572.659754 kJ/mol
# Density = 1.917532 g / cm^3
# Si number density = 19.219066 Si / 1000 Ang^3
#
#
#
# Elastic Constant Matrix: (Units=GPa)
#
#
# Indices 1 2 3 4 5 6 
#
# 1 39.4633 10.4620 17.1673 0.0000 1.7885 0.0000
# 2 10.4620 59.1423 9.3510 0.0000 -1.4918 0.0000
# 3 17.1673 9.3510 72.3308 0.0000 -2.2420 0.0000
# 4 0.0000 0.0000 0.0000 15.8660 0.0000 1.2864
# 5 1.7885 -1.4918 -2.2420 0.0000 26.7136 0.0000
# 6 0.0000 0.0000 0.0000 1.2864 0.0000 10.5746
#
#
#
# Elastic Compliance Matrix: (Units=1/GPa)
#
#
# Indices 1 2 3 4 5 6 
#
# 1 0.029427 -0.004244 -0.006521 0.000000 -0.002754 0.000000
# 2 -0.004244 0.017889 -0.001269 0.000000 0.001177 0.000000
# 3 -0.006521 -0.001269 0.015589 0.000000 0.001674 0.000000
# 4 0.000000 0.000000 0.000000 0.063656 0.000000 -0.007744
# 5 -0.002754 0.001177 0.001674 0.000000 0.037825 0.000000
# 6 0.000000 0.000000 0.000000 -0.007744 0.000000 0.095508
#
#
# Mechanical properties :
#
#
# Convention : Reuss Voigt Hill
#
# Bulk Modulus (GPa) = 25.74840 27.21078 26.47959
# Shear Modulus (GPa) = 16.84028 19.56125 18.20076
#
# Velocity S-wave (km/s) = 2.96333 3.19377 3.08070
# Velocity P-wave (km/s) = 5.01346 5.27154 5.14412
#
# Compressibility (1/GPa) = 0.03883736
#
# Stress axis : x y z
#
# Youngs Moduli (GPa) = 33.98276 55.89891 64.14767
#
# Poissons Ratio (x) = 0.23723 0.41830
# Poissons Ratio (y) = 0.14422 0.08141
# Poissons Ratio (z) = 0.22160 0.07094
#
# Static dielectric constant tensor:
#      x y z
#    x 1.640560 0.000000 0.030060 
#    y 0.000000 1.689860 0.000000 
#    z 0.030060 0.000000 1.717850 
# 
# From -- ./inp_files/241457.got.cif
#   From: 2010.05.17/outbox.cif.g08.bks.cpg/sg12_121_cif.got.tgz:241457.got - 2010.06.03 13:09:07.
