data_PCOD9194139
_publ_section_title
;
Structure prediction by ZEFSAII (Michael W. Deem and Ramdas Pophale) SiO2 
 PCOD9194139
Probable space group: C 2/M
;
_chemical_formula_sum "Si O2"
_cell_formula_units_Z 64
_cell_length_a 31.971790
_cell_length_b 14.177425
_cell_length_c 9.829239
_cell_angle_alpha 90.000000
_cell_angle_beta 57.601990
_cell_angle_gamma 90.000000
_cell_volume 3761.879941
_symmetry_space_group_name_H-M "C 2/M"
_symmetry_group_IT_number 12
_symmetry_cell_setting 'monoclinic'
loop_
_space_group_symop_operation_xyz
x,y,z
-x,y,-z
-x,-y,-z
x,-y,z
1/2+x,1/2+y,z
1/2-x,1/2+y,-z
1/2-x,1/2-y,-z
1/2+x,1/2-y,z
loop_
_atom_site_type_symbol
_atom_site_label
_atom_site_fract_x
_atom_site_fract_y
_atom_site_fract_z
Si Si1 0.548848 0.612497 0.003050
Si Si2 0.307095 0.388702 0.541447
Si Si3 0.680487 0.892893 0.188446
Si Si4 0.805607 0.391309 0.162129
Si Si5 0.357109 0.699669 0.704217
Si Si6 0.654054 0.296829 0.793151
Si Si7 0.547645 0.388382 0.325210
Si Si8 0.793549 0.889952 0.041150
O O1 0.559465 0.500000 0.968743
O O2 0.597143 0.671527 0.876313
O O3 0.500000 0.633520 0.000000
O O4 0.539646 0.630542 0.179465
O O5 0.313155 0.500000 0.501570
O O6 0.252039 0.375179 0.698818
O O7 0.347081 0.354990 0.582601
O O8 0.315713 0.327642 0.392275
O O9 0.645481 0.811775 0.305923
O O10 0.734828 0.879816 0.159013
O O11 0.664126 0.000000 0.242840
O O12 0.687111 0.882274 0.013383
O O13 0.817437 0.500000 0.177870
O O14 0.837623 0.312216 0.182444
O O15 0.406013 0.667321 0.696067
O O16 0.311975 0.670229 0.881796
O O17 0.676767 0.355465 0.879841
O O18 0.500000 0.367669 0.500000
O O19 0.441545 0.500000 0.681035
O O20 0.804033 0.000000 0.994878
#
# Coordination Sequence:
#
# PCOD9194139 Si02
#       8
#     8   8   8   8   8   8   8   8
#     4  10  21  36  54  77 107 138 173 221 274 328
#     4  11  23  34  51  82 117 146 176 218 268 323
#     4  10  20  34  55  82 109 141 185 228 261 308
#     4  10  20  36  54  79 111 144 184 226 263 307
#     4  12  20  35  56  78 107 146 181 218 269 318
#     4  12  22  36  54  79 109 149 183 216 268 324
#     4  10  21  35  54  80 105 134 176 223 273 327
#     4  11  19  31  54  80 108 140 179 218 259 320
#
# _framework density 17.012771000000001
#
# number of rings (size 3 to 8) (size 9 to 14) (size 15 to 20)
#    0.000    1.250    3.750    3.750    1.750    0.000 
#    0.000    1.875    0.000    0.750    0.000    0.000 
#    0.000    0.000    0.000    0.000    0.000    0.000 
#
# Total GULP energy -178741.312014 kJ/mol
# GULP energy per Si atom -5585.666000 kJ/mol
# Density = 1.697405 g / cm^3
# Si number density = 17.012771 Si / 1000 Ang^3
#
#
#
# Elastic Constant Matrix: (Units=GPa)
#
#
# Indices 1 2 3 4 5 6 
#
# 1 93.2675 51.1851 9.3097 0.0000 1.0047 0.0000
# 2 51.1851 92.0513 7.8905 0.0000 -8.2125 0.0000
# 3 9.3097 7.8905 13.2320 0.0000 -2.8541 0.0000
# 4 0.0000 0.0000 0.0000 11.9222 0.0000 -4.2534
# 5 1.0047 -8.2125 -2.8541 0.0000 20.1639 0.0000
# 6 0.0000 0.0000 0.0000 -4.2534 0.0000 25.2016
#
#
#
# Elastic Compliance Matrix: (Units=1/GPa)
#
#
# Indices 1 2 3 4 5 6 
#
# 1 0.016470 -0.009017 -0.007406 0.000000 -0.005542 0.000000
# 2 -0.009017 0.016677 -0.002103 0.000000 0.006944 0.000000
# 3 -0.007406 -0.002103 0.084514 0.000000 0.011475 0.000000
# 4 0.000000 0.000000 0.000000 0.089251 0.000000 0.015063
# 5 -0.005542 0.006944 0.011475 0.000000 0.054322 0.000000
# 6 0.000000 0.000000 0.000000 0.015063 0.000000 0.042222
#
#
# Mechanical properties :
#
#
# Convention : Reuss Voigt Hill
#
# Bulk Modulus (GPa) = 12.40552 37.25794 24.83173
# Shear Modulus (GPa) = 13.60995 20.13524 16.87260
#
# Velocity S-wave (km/s) = 2.83147 3.44399 3.15264
# Velocity P-wave (km/s) = 4.24233 6.14510 5.28013
#
# Compressibility (1/GPa) = 0.08060929
#
# Stress axis : x y z
#
# Youngs Moduli (GPa) = 60.71823 59.96122 11.83237
#
# Poissons Ratio (x) = 0.54070 0.08763
# Poissons Ratio (y) = 0.54752 0.02488
# Poissons Ratio (z) = 0.44965 0.12608
#
# Static dielectric constant tensor:
#      x y z
#    x 1.557090 0.000000 0.003640 
#    y 0.000000 1.589050 0.000000 
#    z 0.003640 0.000000 1.586880 
# 
# From -- ./inp_files/104498.got.cif
#   From: 2010.05.17/outbox.cif.g08.bks.cpg/sg12_53_cif.got.tgz:104498.got - 2010.06.03 13:09:07.
