data_PCOD9194017
_publ_section_title
;
Structure prediction by ZEFSAII (Michael W. Deem and Ramdas Pophale) SiO2 
 PCOD9194017
Probable space group: C 2/M
;
_chemical_formula_sum "Si O2"
_cell_formula_units_Z 58
_cell_length_a 34.517706
_cell_length_b 16.695449
_cell_length_c 13.269071
_cell_angle_alpha 90.000000
_cell_angle_beta 23.661831
_cell_angle_gamma 90.000000
_cell_volume 3068.954855
_symmetry_space_group_name_H-M "C 2/M"
_symmetry_group_IT_number 12
_symmetry_cell_setting 'monoclinic'
loop_
_space_group_symop_operation_xyz
x,y,z
-x,y,-z
-x,-y,-z
x,-y,z
1/2+x,1/2+y,z
1/2-x,1/2+y,-z
1/2-x,1/2-y,-z
1/2+x,1/2-y,z
loop_
_atom_site_type_symbol
_atom_site_label
_atom_site_fract_x
_atom_site_fract_y
_atom_site_fract_z
Si Si1 0.154686 0.408032 0.117236
Si Si2 0.723288 0.587584 0.785826
Si Si3 0.452677 0.193320 0.788271
Si Si4 0.340509 0.836182 0.675111
Si Si5 0.256373 0.245580 0.365514
Si Si6 0.498999 0.371216 0.658627
Si Si7 0.000000 0.000000 0.500000
Si Si8 0.335246 0.335919 0.594004
O O1 0.132532 0.500000 0.192700
O O2 0.078353 0.367963 0.223725
O O3 0.162992 0.357380 0.199628
O O4 0.255422 0.399368 0.817421
O O5 0.749426 0.500000 0.684559
O O6 0.773749 0.603366 0.772683
O O7 0.754311 0.663129 0.646311
O O8 0.607622 0.592270 0.073233
O O9 0.546021 0.160558 0.624179
O O10 0.484274 0.278430 0.664587
O O11 0.360732 0.214057 0.077211
O O12 0.310597 0.746012 0.715388
O O13 0.250000 0.250000 0.500000
O O14 0.179626 0.191122 0.486290
O O15 0.545560 0.428700 0.464850
O O16 0.561834 0.365739 0.610945
#
# Coordination Sequence:
#
# PCOD9194017 Si02
#       8
#     8   8   8   8   8   8   2   8
#     4  11  22  32  52  79 115 158 194 223 274 343
#     4  10  20  36  54  83 114 142 187 245 282 335
#     4   9  21  39  54  80 114 148 185 243 283 343
#     4  10  20  34  55  76 111 155 189 222 283 344
#     4   9  19  41  67  82 101 144 192 235 304 359
#     4  10  22  35  53  83 119 150 194 229 284 333
#     4  12  24  28  60  88 116 170 194 228 278 360
#     4   9  21  37  54  81 113 145 191 246 283 338
#
# _framework density 18.898942999999999
#
# number of rings (size 3 to 8) (size 9 to 14) (size 15 to 20)
#    0.000    2.207    0.690    2.069    6.759    1.655 
#    0.000   13.793    0.000    1.655    0.000    0.000 
#    0.000    0.000    0.000    0.000    0.000    0.000 
#
# Total GULP energy -161438.214883 kJ/mol
# GULP energy per Si atom -5566.834996 kJ/mol
# Density = 1.885593 g / cm^3
# Si number density = 18.898943 Si / 1000 Ang^3
#
#
#
# Elastic Constant Matrix: (Units=GPa)
#
#
# Indices 1 2 3 4 5 6 
#
# 1 122.2932 34.1848 48.0506 0.0000 -7.7472 0.0000
# 2 34.1848 64.7302 18.1146 0.0000 -5.0379 0.0000
# 3 48.0506 18.1146 40.5556 0.0000 -10.7879 0.0000
# 4 0.0000 0.0000 0.0000 -9.5897 0.0000 54.5959
# 5 -7.7472 -5.0379 -10.7879 0.0000 35.1878 0.0000
# 6 0.0000 0.0000 0.0000 54.5959 0.0000 -176.8172
#
#
#
# Elastic Compliance Matrix: (Units=1/GPa)
#
#
# Indices 1 2 3 4 5 6 
#
# 1 0.016206 -0.003650 -0.018249 0.000000 -0.002549 0.000000
# 2 -0.003650 0.018478 -0.003744 0.000000 0.000694 0.000000
# 3 -0.018249 -0.003744 0.050890 0.000000 0.011048 0.000000
# 4 0.000000 0.000000 0.000000 0.137592 0.000000 0.042484
# 5 -0.002549 0.000694 0.011048 0.000000 0.031344 0.000000
# 6 0.000000 0.000000 0.000000 0.042484 0.000000 0.007462
#
#
# Mechanical properties :
#
#
# Convention : Reuss Voigt Hill
#
# Bulk Modulus (GPa) = 29.16464 47.58658 38.37561
# Shear Modulus (GPa) = 15.39933 -21.76188 -3.18128
#
# Velocity S-wave (km/s) = 2.85761 -3.39704 -1.29883
# Velocity P-wave (km/s) = 5.13355 3.13810 4.25447
#
# Compressibility (1/GPa) = 0.03428810
#
# Stress axis : x y z
#
# Youngs Moduli (GPa) = 61.70493 54.11773 19.65017
#
# Poissons Ratio (x) = 0.19754 0.35859
# Poissons Ratio (y) = 0.22523 0.07357
# Poissons Ratio (z) = 1.12605 0.20262
#
# Static dielectric constant tensor:
#      x y z
#    x 1.670630 0.000000 -0.027950 
#    y 0.000000 1.667860 0.000000 
#    z -0.027950 0.000000 1.699720 
# 
# From -- ./inp_files/189921.got.cif
#   From: 2010.05.17/outbox.cif.g08.bks.cpg/sg12_95_cif.got.tgz:189921.got - 2010.06.03 13:09:07.
