data_PCOD9194938
_publ_section_title
;
Structure prediction by ZEFSAII (Michael W. Deem and Ramdas Pophale) SiO2 
 PCOD9194938
Probable space group: C 2/M
;
_chemical_formula_sum "Si O2"
_cell_formula_units_Z 32
_cell_length_a 5.043976
_cell_length_b 30.657509
_cell_length_c 9.699022
_cell_angle_alpha 90.000000
_cell_angle_beta 111.504721
_cell_angle_gamma 90.000000
_cell_volume 1395.409338
_symmetry_space_group_name_H-M "C 2/M"
_symmetry_group_IT_number 12
_symmetry_cell_setting 'monoclinic'
loop_
_space_group_symop_operation_xyz
x,y,z
-x,y,-z
-x,-y,-z
x,-y,z
1/2+x,1/2+y,z
1/2-x,1/2+y,-z
1/2-x,1/2-y,-z
1/2+x,1/2-y,z
loop_
_atom_site_type_symbol
_atom_site_label
_atom_site_fract_x
_atom_site_fract_y
_atom_site_fract_z
Si Si1 0.892180 0.225728 0.821050
Si Si2 0.825905 0.407245 0.605413
Si Si3 0.756751 0.858445 0.156642
Si Si4 0.231382 0.953786 0.847465
O O1 0.562256 0.237704 0.766417
O O2 0.012234 0.179301 0.797021
O O3 0.000000 0.228936 0.000000
O O4 0.500000 0.403023 0.500000
O O5 0.884449 0.367494 0.721554
O O6 0.842781 0.448407 0.712061
O O7 0.000000 0.409929 0.500000
O O8 0.902709 0.905911 0.151374
O O9 0.500000 0.849461 0.000000
O O10 0.074125 0.000000 0.833882
O O11 0.500000 0.954508 0.000000
#
# Coordination Sequence:
#
# PCOD9194938 Si02
#       4
#     8   8   8   8
#     4  10  20  34  58  91 118 146 194 250 298 347
#     4  10  22  38  59  86 119 158 201 241 290 350
#     4   9  19  37  59  88 119 158 192 249 296 350
#     4   8  17  38  62  90 121 158 199 243 296 354
#
# _framework density 22.932338999999999
#
# number of rings (size 3 to 8) (size 9 to 14) (size 15 to 20)
#    1.500    1.250    0.000    2.250    0.000    5.000 
#    0.000    1.250    0.000    8.250    0.000    0.000 
#    0.000    1.000    0.000    0.000    0.000    0.000 
#
# Total GULP energy -89132.499409 kJ/mol
# GULP energy per Si atom -5570.781213 kJ/mol
# Density = 2.288014 g / cm^3
# Si number density = 22.932339 Si / 1000 Ang^3
#
#
#
# Elastic Constant Matrix: (Units=GPa)
#
#
# Indices 1 2 3 4 5 6 
#
# 1 78.8417 13.6970 27.8924 0.0000 -11.3992 0.0000
# 2 13.6970 171.7582 -3.7306 0.0000 -6.5991 0.0000
# 3 27.8924 -3.7306 121.8806 0.0000 -12.8690 0.0000
# 4 0.0000 0.0000 0.0000 319.4578 0.0000 -63.3303
# 5 -11.3992 -6.5991 -12.8690 0.0000 15.7953 0.0000
# 6 0.0000 0.0000 0.0000 -63.3303 0.0000 21.5981
#
#
#
# Elastic Compliance Matrix: (Units=1/GPa)
#
#
# Indices 1 2 3 4 5 6 
#
# 1 0.014957 -0.000929 -0.002574 0.000000 0.008309 0.000000
# 2 -0.000929 0.006001 0.000646 0.000000 0.002363 0.000000
# 3 -0.002574 0.000646 0.009460 0.000000 0.006119 0.000000
# 4 0.000000 0.000000 0.000000 0.007476 0.000000 0.021921
# 5 0.008309 0.002363 0.006119 0.000000 0.075279 0.000000
# 6 0.000000 0.000000 0.000000 0.021921 0.000000 0.110579
#
#
# Mechanical properties :
#
#
# Convention : Reuss Voigt Hill
#
# Bulk Modulus (GPa) = 40.48174 49.79977 45.14076
# Shear Modulus (GPa) = 21.03484 93.67836 57.35660
#
# Velocity S-wave (km/s) = 3.03191 6.39833 5.00655
# Velocity P-wave (km/s) = 5.47244 8.73773 7.29025
#
# Compressibility (1/GPa) = 0.02470249
#
# Stress axis : x y z
#
# Youngs Moduli (GPa) = 66.85795 166.63726 105.71142
#
# Poissons Ratio (x) = 0.15488 0.27211
# Poissons Ratio (y) = 0.06214 -0.06827
# Poissons Ratio (z) = 0.17210 -0.10762
#
# Static dielectric constant tensor:
#      x y z
#    x 1.867620 0.000000 -0.010520 
#    y 0.000000 1.961220 0.000000 
#    z -0.010520 0.000000 1.831700 
# 
# From -- ./inp_files/115753.got.cif
#   From: 2010.05.17/outbox.cif.g08.bks.cpg/sg12_58_cif.got.tgz:115753.got - 2010.06.03 13:09:07.
