data_PCOD9194735
_publ_section_title
;
Structure prediction by ZEFSAII (Michael W. Deem and Ramdas Pophale) SiO2 
 PCOD9194735
Probable space group: C 2/M
;
_chemical_formula_sum "Si O2"
_cell_formula_units_Z 60
_cell_length_a 20.272743
_cell_length_b 14.531108
_cell_length_c 17.182708
_cell_angle_alpha 90.000000
_cell_angle_beta 32.871828
_cell_angle_gamma 90.000000
_cell_volume 2747.336954
_symmetry_space_group_name_H-M "C 2/M"
_symmetry_group_IT_number 12
_symmetry_cell_setting 'monoclinic'
loop_
_space_group_symop_operation_xyz
x,y,z
-x,y,-z
-x,-y,-z
x,-y,z
1/2+x,1/2+y,z
1/2-x,1/2+y,-z
1/2-x,1/2-y,-z
1/2+x,1/2-y,z
loop_
_atom_site_type_symbol
_atom_site_label
_atom_site_fract_x
_atom_site_fract_y
_atom_site_fract_z
Si Si1 0.904289 0.101419 0.481008
Si Si2 0.995625 0.400547 0.717519
Si Si3 0.482939 0.610815 0.869329
Si Si4 0.500000 0.729879 0.000000
Si Si5 0.664015 0.894037 0.803614
Si Si6 0.610835 0.292423 0.197061
Si Si7 0.271383 0.355634 0.454013
Si Si8 0.161581 0.598943 0.989335
O O1 0.803051 0.127154 0.643944
O O2 0.827603 0.100492 0.476321
O O3 0.020134 0.163021 0.350140
O O4 0.949596 0.000000 0.454180
O O5 0.954662 0.500000 0.728779
O O6 0.138361 0.390530 0.563929
O O7 0.917950 0.314798 0.766424
O O8 0.965313 0.396477 0.839844
O O9 0.458867 0.500000 0.893498
O O10 0.446811 0.663166 0.985000
O O11 0.426444 0.661955 0.849240
O O12 0.628042 0.626191 0.711245
O O13 0.587181 0.801117 0.865867
O O14 0.647569 0.901969 0.912088
O O15 0.637901 0.000000 0.799399
O O16 0.747977 0.320826 0.076763
O O17 0.250000 0.250000 0.500000
O O18 0.218454 0.500000 0.956508
#
# Coordination Sequence:
#
# PCOD9194735 Si02
#       8
#     8   8   8   4   8   8   8   8
#     4  10  20  34  57  86 116 153 192 236 291 348
#     4  11  22  35  57  88 120 152 192 241 296 350
#     4  11  23  39  61  87 117 157 197 245 295 347
#     4  12  24  38  58  84 124 154 196 240 298 360
#     4  10  23  38  57  87 122 159 192 237 301 353
#     4  11  21  39  63  87 119 153 201 245 288 344
#     4  11  19  36  58  86 118 152 194 239 294 349
#     4  10  22  39  59  88 118 154 198 241 292 350
#
# _framework density 21.839331000000001
#
# number of rings (size 3 to 8) (size 9 to 14) (size 15 to 20)
#    0.000    1.333    2.667    5.600    1.867    0.533 
#    0.000    2.000    0.000    0.800    0.000    0.933 
#    0.000    0.400    0.000    0.000    0.000    0.000 
#
# Total GULP energy -167432.025939 kJ/mol
# GULP energy per Si atom -5581.067531 kJ/mol
# Density = 2.178962 g / cm^3
# Si number density = 21.839331 Si / 1000 Ang^3
#
#
#
# Elastic Constant Matrix: (Units=GPa)
#
#
# Indices 1 2 3 4 5 6 
#
# 1 22.7044 24.5196 -12.1135 0.0000 -3.7654 0.0000
# 2 24.5196 181.6012 22.8165 0.0000 -10.3663 0.0000
# 3 -12.1135 22.8165 77.3684 0.0000 -1.2958 0.0000
# 4 0.0000 0.0000 0.0000 49.1104 0.0000 49.5101
# 5 -3.7654 -10.3663 -1.2958 0.0000 24.1097 0.0000
# 6 0.0000 0.0000 0.0000 49.5101 0.0000 103.1033
#
#
#
# Elastic Compliance Matrix: (Units=1/GPa)
#
#
# Indices 1 2 3 4 5 6 
#
# 1 0.062277 -0.009647 0.012700 0.000000 0.006261 0.000000
# 2 -0.009647 0.007351 -0.003654 0.000000 0.001458 0.000000
# 3 0.012700 -0.003654 0.016013 0.000000 0.001273 0.000000
# 4 0.000000 0.000000 0.000000 0.039470 0.000000 -0.018953
# 5 0.006261 0.001458 0.001273 0.000000 0.043150 0.000000
# 6 0.000000 0.000000 0.000000 -0.018953 0.000000 0.018800
#
#
# Mechanical properties :
#
#
# Convention : Reuss Voigt Hill
#
# Bulk Modulus (GPa) = 11.84273 39.12436 25.48355
# Shear Modulus (GPa) = 23.10442 51.69479 37.39961
#
# Velocity S-wave (km/s) = 3.25611 4.87051 4.14271
# Velocity P-wave (km/s) = 4.42388 7.04150 5.88020
#
# Compressibility (1/GPa) = 0.08443997
#
# Stress axis : x y z
#
# Youngs Moduli (GPa) = 16.05733 136.02901 62.45104
#
# Poissons Ratio (x) = 1.31225 -0.79315
# Poissons Ratio (y) = 0.15490 0.22819
# Poissons Ratio (z) = -0.20393 0.49704
#
# Static dielectric constant tensor:
#      x y z
#    x 1.803190 0.000000 0.001030 
#    y 0.000000 1.902900 0.000000 
#    z 0.001030 0.000000 1.812250 
# 
# From -- ./inp_files/289887.got.cif
#   From: 2010.05.17/outbox.cif.g08.bks.cpg/sg12_145_cif.got.tgz:289887.got - 2010.06.03 13:09:07.
