data_PCOD9194175
_publ_section_title
;
Structure prediction by ZEFSAII (Michael W. Deem and Ramdas Pophale) SiO2 
 PCOD9194175
Probable space group: C 2/M
;
_chemical_formula_sum "Si O2"
_cell_formula_units_Z 56
_cell_length_a 18.246607
_cell_length_b 14.454492
_cell_length_c 10.046111
_cell_angle_alpha 90.000000
_cell_angle_beta 74.132153
_cell_angle_gamma 90.000000
_cell_volume 2548.652028
_symmetry_space_group_name_H-M "C 2/M"
_symmetry_group_IT_number 12
_symmetry_cell_setting 'monoclinic'
loop_
_space_group_symop_operation_xyz
x,y,z
-x,y,-z
-x,-y,-z
x,-y,z
1/2+x,1/2+y,z
1/2-x,1/2+y,-z
1/2-x,1/2-y,-z
1/2+x,1/2-y,z
loop_
_atom_site_type_symbol
_atom_site_label
_atom_site_fract_x
_atom_site_fract_y
_atom_site_fract_z
Si Si1 0.872457 0.207925 0.258044
Si Si2 0.910041 0.271653 0.521494
Si Si3 0.200972 0.894552 0.353274
Si Si4 0.124829 0.236030 0.037811
Si Si5 0.507762 0.598880 0.156509
Si Si6 0.763107 0.392079 0.027913
Si Si7 0.275451 0.105818 0.606067
O O1 0.893481 0.269828 0.371812
O O2 0.897814 0.248921 0.104678
O O3 0.785148 0.176843 0.300983
O O4 0.923827 0.115908 0.253316
O O5 0.866294 0.180263 0.598644
O O6 0.859903 0.358370 0.594919
O O7 0.000000 0.272652 0.500000
O O8 0.249773 0.879972 0.194234
O O9 0.252909 0.888597 0.460046
O O10 0.171430 0.000000 0.361872
O O11 0.167030 0.329439 0.057335
O O12 0.057893 0.190213 0.156478
O O13 0.187392 0.153881 0.005767
O O14 0.540036 0.500000 0.185392
O O15 0.500000 0.594042 0.000000
O O16 0.770329 0.500000 0.995350
O O17 0.264197 0.000000 0.654271
#
# Coordination Sequence:
#
# PCOD9194175 Si02
#       7
#     8   8   8   8   8   8   8
#     4  10  20  38  59  81 111 149 192 235 281 333
#     4  11  23  36  56  86 119 147 181 233 286 336
#     4   9  19  37  59  84 112 147 188 230 281 335
#     4  10  20  34  55  82 114 149 186 230 282 335
#     4   9  18  32  53  81 110 138 178 231 284 327
#     4  10  20  34  56  83 114 148 186 232 281 336
#     4  10  20  37  61  83 110 152 194 228 270 335
#
# _framework density 21.972397999999998
#
# number of rings (size 3 to 8) (size 9 to 14) (size 15 to 20)
#    0.000    2.143    0.000    4.286    2.000    2.857 
#    0.000    0.000    0.000    4.714    0.000    0.000 
#    0.000    0.000    0.000    0.000    0.000    0.000 
#
# Total GULP energy -156342.110578 kJ/mol
# GULP energy per Si atom -5583.646806 kJ/mol
# Density = 2.192239 g / cm^3
# Si number density = 21.972398 Si / 1000 Ang^3
#
#
#
# Elastic Constant Matrix: (Units=GPa)
#
#
# Indices 1 2 3 4 5 6 
#
# 1 104.4838 51.0880 2.7501 0.0000 -27.0674 0.0000
# 2 51.0880 95.7934 -6.2485 0.0000 -13.5332 0.0000
# 3 2.7501 -6.2485 51.3999 0.0000 5.1443 0.0000
# 4 0.0000 0.0000 0.0000 11.3276 0.0000 -8.1783
# 5 -27.0674 -13.5332 5.1443 0.0000 26.9967 0.0000
# 6 0.0000 0.0000 0.0000 -8.1783 0.0000 12.7608
#
#
#
# Elastic Compliance Matrix: (Units=1/GPa)
#
#
# Indices 1 2 3 4 5 6 
#
# 1 0.016736 -0.007184 -0.003148 0.000000 0.013778 0.000000
# 2 -0.007184 0.014353 0.002171 0.000000 -0.000422 0.000000
# 3 -0.003148 0.002171 0.020485 0.000000 -0.005971 0.000000
# 4 0.000000 0.000000 0.000000 0.164307 0.000000 0.105302
# 5 0.013778 -0.000422 -0.005971 0.000000 0.051782 0.000000
# 6 0.000000 0.000000 0.000000 0.105302 0.000000 0.145852
#
#
# Mechanical properties :
#
#
# Convention : Reuss Voigt Hill
#
# Bulk Modulus (GPa) = 28.36679 38.53960 33.45320
# Shear Modulus (GPa) = 11.32281 23.82285 17.57283
#
# Velocity S-wave (km/s) = 2.27253 3.29632 2.83109
# Velocity P-wave (km/s) = 4.45242 5.66266 5.09361
#
# Compressibility (1/GPa) = 0.03525249
#
# Stress axis : x y z
#
# Youngs Moduli (GPa) = 59.75192 69.67356 48.81552
#
# Poissons Ratio (x) = 0.50056 0.15366
# Poissons Ratio (y) = 0.42928 -0.10600
# Poissons Ratio (z) = 0.18809 -0.15129
#
# Static dielectric constant tensor:
#      x y z
#    x 1.836300 0.000000 -0.002470 
#    y 0.000000 1.799000 0.000000 
#    z -0.002470 0.000000 1.849320 
# 
# From -- ./inp_files/155993.got.cif
#   From: 2010.05.17/outbox.cif.g08.bks.cpg/sg12_78_cif.got.tgz:155993.got - 2010.06.03 13:09:07.
