data_PCOD9194393
_publ_section_title
;
Structure prediction by ZEFSAII (Michael W. Deem and Ramdas Pophale) SiO2 
 PCOD9194393
Probable space group: C 2/M
;
_chemical_formula_sum "Si O2"
_cell_formula_units_Z 56
_cell_length_a 13.016747
_cell_length_b 12.144984
_cell_length_c 20.605577
_cell_angle_alpha 90.000000
_cell_angle_beta 63.721016
_cell_angle_gamma 90.000000
_cell_volume 2920.832182
_symmetry_space_group_name_H-M "C 2/M"
_symmetry_group_IT_number 12
_symmetry_cell_setting 'monoclinic'
loop_
_space_group_symop_operation_xyz
x,y,z
-x,y,-z
-x,-y,-z
x,-y,z
1/2+x,1/2+y,z
1/2-x,1/2+y,-z
1/2-x,1/2-y,-z
1/2+x,1/2-y,z
loop_
_atom_site_type_symbol
_atom_site_label
_atom_site_fract_x
_atom_site_fract_y
_atom_site_fract_z
Si Si1 0.721213 0.122738 0.089714
Si Si2 0.295367 0.873054 0.252644
Si Si3 0.512906 0.738014 0.159330
Si Si4 0.129915 0.372113 0.484675
Si Si5 0.464355 0.373509 0.716645
Si Si6 0.832681 0.715017 0.383565
Si Si7 0.891486 0.710145 0.997376
O O1 0.605042 0.167231 0.155238
O O2 0.687334 0.128853 0.022242
O O3 0.752331 0.000000 0.100487
O O4 0.818404 0.215326 0.066201
O O5 0.388316 0.792288 0.194850
O O6 0.311145 0.856448 0.325379
O O7 0.165413 0.847423 0.268374
O O8 0.318626 0.000000 0.228079
O O9 0.523042 0.643535 0.209438
O O10 0.555847 0.712684 0.074846
O O11 0.150489 0.500000 0.462451
O O12 0.146236 0.353738 0.557111
O O13 0.222472 0.293146 0.425134
O O14 0.000000 0.344540 0.500000
O O15 0.487662 0.500000 0.692198
O O16 0.556634 0.291875 0.659523
O O17 0.000000 0.654846 0.000000
#
# Coordination Sequence:
#
# PCOD9194393 Si02
#       7
#     8   8   8   8   8   8   8
#     4   9  19  35  52  74 102 132 167 212 264 314
#     4  10  20  34  56  78 102 139 179 217 259 306
#     4   9  20  34  52  76 104 131 173 219 260 311
#     4  10  20  34  56  82 110 145 176 207 256 309
#     4  10  21  36  55  76 104 140 176 215 264 309
#     4  10  20  36  54  80 113 137 174 222 253 299
#     4   9  20  35  53  77 104 132 171 218 266 318
#
# _framework density 19.172618
#
# number of rings (size 3 to 8) (size 9 to 14) (size 15 to 20)
#    0.857    1.571    0.000    2.143    2.000    1.143 
#    0.000    0.000    0.000   11.143    0.000    0.000 
#    0.000    0.000    0.000    0.000    0.000    0.000 
#
# Total GULP energy -155949.147483 kJ/mol
# GULP energy per Si atom -5569.612410 kJ/mol
# Density = 1.912898 g / cm^3
# Si number density = 19.172618 Si / 1000 Ang^3
#
#
#
# Elastic Constant Matrix: (Units=GPa)
#
#
# Indices 1 2 3 4 5 6 
#
# 1 110.4951 22.1627 5.3145 0.0000 -10.4579 0.0000
# 2 22.1627 46.2114 -10.5714 0.0000 -9.2254 0.0000
# 3 5.3145 -10.5714 34.1497 0.0000 -4.2758 0.0000
# 4 0.0000 0.0000 0.0000 7.8018 0.0000 4.3969
# 5 -10.4579 -9.2254 -4.2758 0.0000 23.5513 0.0000
# 6 0.0000 0.0000 0.0000 4.3969 0.0000 7.2146
#
#
#
# Elastic Compliance Matrix: (Units=1/GPa)
#
#
# Indices 1 2 3 4 5 6 
#
# 1 0.010449 -0.005298 -0.003013 0.000000 0.002017 0.000000
# 2 -0.005298 0.028930 0.011158 0.000000 0.011006 0.000000
# 3 -0.003013 0.011158 0.034367 0.000000 0.009272 0.000000
# 4 0.000000 0.000000 0.000000 0.195232 0.000000 -0.118983
# 5 0.002017 0.011006 0.009272 0.000000 0.049351 0.000000
# 6 0.000000 0.000000 0.000000 -0.118983 0.000000 0.211122
#
#
# Mechanical properties :
#
#
# Convention : Reuss Voigt Hill
#
# Bulk Modulus (GPa) = 12.58826 24.96311 18.77569
# Shear Modulus (GPa) = 9.08701 19.31022 14.19862
#
# Velocity S-wave (km/s) = 2.17942 3.17705 2.72429
# Velocity P-wave (km/s) = 3.59349 5.14846 4.43958
#
# Compressibility (1/GPa) = 0.07943911
#
# Stress axis : x y z
#
# Youngs Moduli (GPa) = 95.70614 34.56615 29.09791
#
# Poissons Ratio (x) = 0.18312 0.08768
# Poissons Ratio (y) = 0.50702 -0.32467
# Poissons Ratio (z) = 0.28840 -0.38569
#
# Static dielectric constant tensor:
#      x y z
#    x 1.675870 0.000000 0.007550 
#    y 0.000000 1.619820 0.000000 
#    z 0.007550 0.000000 1.667870 
# 
# From -- ./inp_files/304683.got.cif
#   From: 2010.05.17/outbox.cif.g08.bks.cpg/sg12_153_cif.got.tgz:304683.got - 2010.06.03 13:09:07.
