data_PCOD9194922
_publ_section_title
;
Structure prediction by ZEFSAII (Michael W. Deem and Ramdas Pophale) SiO2 
 PCOD9194922
Probable space group: C 2/M
;
_chemical_formula_sum "Si O2"
_cell_formula_units_Z 56
_cell_length_a 10.914309
_cell_length_b 13.261659
_cell_length_c 19.239201
_cell_angle_alpha 90.000000
_cell_angle_beta 75.473913
_cell_angle_gamma 90.000000
_cell_volume 2695.699878
_symmetry_space_group_name_H-M "C 2/M"
_symmetry_group_IT_number 12
_symmetry_cell_setting 'monoclinic'
loop_
_space_group_symop_operation_xyz
x,y,z
-x,y,-z
-x,-y,-z
x,-y,z
1/2+x,1/2+y,z
1/2-x,1/2+y,-z
1/2-x,1/2-y,-z
1/2+x,1/2-y,z
loop_
_atom_site_type_symbol
_atom_site_label
_atom_site_fract_x
_atom_site_fract_y
_atom_site_fract_z
Si Si1 0.770756 0.724499 0.898312
Si Si2 0.134758 0.205817 0.317487
Si Si3 0.942007 0.000000 0.606567
Si Si4 0.119396 0.883638 0.033834
Si Si5 0.417088 0.113399 0.767328
Si Si6 0.333221 0.883856 0.178212
Si Si7 0.350631 0.200823 0.536524
Si Si8 0.225680 0.000000 0.505079
O O1 0.883809 0.801443 0.904115
O O2 0.799574 0.649924 0.830810
O O3 0.670025 0.808276 0.886668
O O4 0.733155 0.655554 0.968567
O O5 0.064495 0.103672 0.349712
O O6 0.060481 0.297093 0.290633
O O7 0.239291 0.165190 0.248589
O O8 0.179692 0.257885 0.382458
O O9 0.818003 0.000000 0.571242
O O10 0.081783 0.000000 0.554001
O O11 0.133141 0.000000 0.053764
O O12 0.000000 0.877774 0.000000
O O13 0.531847 0.111596 0.804772
O O14 0.401159 0.000000 0.740573
O O15 0.296217 0.000000 0.167483
O O16 0.500000 0.221550 0.500000
O O17 0.250000 0.250000 0.500000
O O18 0.311390 0.088710 0.523359
#
# Coordination Sequence:
#
# PCOD9194922 Si02
#       8
#     8   8   4   8   8   8   8   4
#     4  10  20  37  59  86 121 159 203 248 306 370
#     4  11  24  40  63  90 121 165 210 259 320 387
#     4  11  22  44  66  92 128 170 211 269 335 393
#     4  10  20  34  58  89 122 157 198 249 302 363
#     4  10  23  40  61  86 123 161 205 262 315 370
#     4  10  21  39  60  85 118 162 210 256 305 374
#     4  12  26  44  68  97 132 169 216 274 336 401
#     4  11  25  42  66  96 128 166 211 272 335 400
#
# _framework density 20.773826
#
# number of rings (size 3 to 8) (size 9 to 14) (size 15 to 20)
#    0.000    1.429    2.143    2.786    5.000    0.000 
#    0.000    0.000    1.571    6.857    0.000    0.000 
#    0.000    0.000    0.000    0.000    0.000    0.000 
#
# Total GULP energy -155905.716285 kJ/mol
# GULP energy per Si atom -5568.061296 kJ/mol
# Density = 2.072654 g / cm^3
# Si number density = 20.773826 Si / 1000 Ang^3
#
#
#
# Elastic Constant Matrix: (Units=GPa)
#
#
# Indices 1 2 3 4 5 6 
#
# 1 66.1614 29.7517 -0.8718 0.0000 14.0098 0.0000
# 2 29.7517 172.3977 19.1925 0.0000 12.1341 0.0000
# 3 -0.8718 19.1925 40.2373 0.0000 14.3670 0.0000
# 4 0.0000 0.0000 0.0000 17.5517 0.0000 9.4829
# 5 14.0098 12.1341 14.3670 0.0000 27.4083 0.0000
# 6 0.0000 0.0000 0.0000 9.4829 0.0000 33.3610
#
#
#
# Elastic Compliance Matrix: (Units=1/GPa)
#
#
# Indices 1 2 3 4 5 6 
#
# 1 0.019043 -0.003147 0.006018 0.000000 -0.011495 0.000000
# 2 -0.003147 0.006693 -0.003417 0.000000 0.000436 0.000000
# 3 0.006018 -0.003417 0.033427 0.000000 -0.019086 0.000000
# 4 0.000000 0.000000 0.000000 0.067312 0.000000 -0.019134
# 5 -0.011495 0.000436 -0.019086 0.000000 0.052172 0.000000
# 6 0.000000 0.000000 0.000000 -0.019134 0.000000 0.035414
#
#
# Mechanical properties :
#
#
# Convention : Reuss Voigt Hill
#
# Bulk Modulus (GPa) = 17.21980 41.66014 29.43997
# Shear Modulus (GPa) = 21.32095 31.04581 26.18338
#
# Velocity S-wave (km/s) = 3.20713 3.87003 3.55407
# Velocity P-wave (km/s) = 4.69269 6.32986 5.57174
#
# Compressibility (1/GPa) = 0.05807267
#
# Stress axis : x y z
#
# Youngs Moduli (GPa) = 52.51185 149.40231 29.91567
#
# Poissons Ratio (x) = 0.47022 -0.18004
# Poissons Ratio (y) = 0.16527 0.10221
# Poissons Ratio (z) = -0.31603 0.51045
#
# Static dielectric constant tensor:
#      x y z
#    x 1.769830 0.000000 0.009940 
#    y 0.000000 1.694070 0.000000 
#    z 0.009940 0.000000 1.775640 
# 
# From -- ./inp_files/304713.got.cif
#   From: 2010.05.17/outbox.cif.g08.bks.cpg/sg12_153_cif.got.tgz:304713.got - 2010.06.03 13:09:07.
