data_PCOD9194417
_publ_section_title
;
Structure prediction by ZEFSAII (Michael W. Deem and Ramdas Pophale) SiO2 
 PCOD9194417
Probable space group: C 2/M
;
_chemical_formula_sum "Si O2"
_cell_formula_units_Z 58
_cell_length_a 7.979811
_cell_length_b 16.979699
_cell_length_c 16.526650
_cell_angle_alpha 90.000000
_cell_angle_beta 84.324524
_cell_angle_gamma 90.000000
_cell_volume 2228.298004
_symmetry_space_group_name_H-M "C 2/M"
_symmetry_group_IT_number 12
_symmetry_cell_setting 'monoclinic'
loop_
_space_group_symop_operation_xyz
x,y,z
-x,y,-z
-x,-y,-z
x,-y,z
1/2+x,1/2+y,z
1/2-x,1/2+y,-z
1/2-x,1/2-y,-z
1/2+x,1/2-y,z
loop_
_atom_site_type_symbol
_atom_site_label
_atom_site_fract_x
_atom_site_fract_y
_atom_site_fract_z
Si Si1 0.566313 0.408502 0.619287
Si Si2 0.865397 0.794946 0.061308
Si Si3 0.504535 0.839366 0.676699
Si Si4 0.812322 0.584356 0.814011
Si Si5 0.500000 0.000000 0.000000
Si Si6 0.780198 0.594681 0.468454
Si Si7 0.863050 0.628136 0.105502
Si Si8 0.362510 0.673597 0.748856
O O1 0.601029 0.500000 0.619334
O O2 0.390547 0.398798 0.577486
O O3 0.715049 0.372317 0.557980
O O4 0.515496 0.378523 0.709143
O O5 0.785001 0.846223 0.135740
O O6 0.941731 0.715673 0.097077
O O7 0.750000 0.750000 0.000000
O O8 0.000000 0.839447 0.000000
O O9 0.373633 0.901887 0.719210
O O10 0.571007 0.858854 0.583707
O O11 0.419344 0.758221 0.710923
O O12 0.681674 0.842637 0.716364
O O13 0.728665 0.500000 0.828085
O O14 0.994463 0.581359 0.851072
O O15 0.360653 0.071844 0.027626
O O16 0.819320 0.500000 0.469291
O O17 0.686809 0.648021 0.158030
#
# Coordination Sequence:
#
# PCOD9194417 Si02
#       8
#     8   8   8   8   2   8   8   8
#     4   8  15  28  50  79 113 139 184 233 279 320
#     4  12  23  40  61  85 116 152 183 238 299 345
#     4  10  20  34  56  81 113 146 188 227 282 337
#     4  11  22  39  62  87 114 150 197 239 280 346
#     4  12  20  36  60  88 108 142 196 250 270 346
#     4   8  14  28  50  80 108 144 182 233 273 322
#     4  11  22  37  59  87 113 144 192 238 288 337
#     4  10  21  34  54  82 110 149 180 230 285 340
#
# _framework density 26.028834
#
# number of rings (size 3 to 8) (size 9 to 14) (size 15 to 20)
#    0.000    1.931    4.138    1.241    0.966    2.483 
#    0.000    0.000    0.000    1.655    0.000    1.931 
#    0.000    0.000    0.000    0.000    0.000    0.000 
#
# Total GULP energy -161583.346834 kJ/mol
# GULP energy per Si atom -5571.839546 kJ/mol
# Density = 2.596959 g / cm^3
# Si number density = 26.028834 Si / 1000 Ang^3
#
#
#
# Elastic Constant Matrix: (Units=GPa)
#
#
# Indices 1 2 3 4 5 6 
#
# 1 97.5593 16.3137 42.0676 0.0000 -28.2783 0.0000
# 2 16.3137 148.5441 79.5123 0.0000 -45.0782 0.0000
# 3 42.0676 79.5123 239.4072 0.0000 -64.1243 0.0000
# 4 0.0000 0.0000 0.0000 47.8321 0.0000 -28.2859
# 5 -28.2783 -45.0782 -64.1243 0.0000 50.4678 0.0000
# 6 0.0000 0.0000 0.0000 -28.2859 0.0000 24.1550
#
#
#
# Elastic Compliance Matrix: (Units=1/GPa)
#
#
# Indices 1 2 3 4 5 6 
#
# 1 0.012413 0.001158 -0.000645 0.000000 0.007170 0.000000
# 2 0.001158 0.009618 -0.001399 0.000000 0.007462 0.000000
# 3 -0.000645 -0.001399 0.006554 0.000000 0.006716 0.000000
# 4 0.000000 0.000000 0.000000 0.067987 0.000000 0.079614
# 5 0.007170 0.007462 0.006716 0.000000 0.039030 0.000000
# 6 0.000000 0.000000 0.000000 0.079614 0.000000 0.134629
#
#
# Mechanical properties :
#
#
# Convention : Reuss Voigt Hill
#
# Bulk Modulus (GPa) = 37.29685 84.58863 60.94274
# Shear Modulus (GPa) = 17.79724 47.66545 32.73134
#
# Velocity S-wave (km/s) = 2.61770 4.28396 3.54998
# Velocity P-wave (km/s) = 4.84733 7.55237 6.34567
#
# Compressibility (1/GPa) = 0.02681191
#
# Stress axis : x y z
#
# Youngs Moduli (GPa) = 80.56075 103.96839 152.57936
#
# Poissons Ratio (x) = -0.12039 0.09847
# Poissons Ratio (y) = -0.09328 0.21349
# Poissons Ratio (z) = 0.05199 0.14547
#
# Static dielectric constant tensor:
#      x y z
#    x 2.163390 0.000000 0.186410 
#    y 0.000000 2.401720 0.000000 
#    z 0.186410 0.000000 2.345240 
# 
# From -- ./inp_files/262892.got.cif
#   From: 2010.05.17/outbox.cif.g08.bks.cpg/sg12_132_cif.got.tgz:262892.got - 2010.06.03 13:09:07.
