data_PCOD9194445
_publ_section_title
;
Structure prediction by ZEFSAII (Michael W. Deem and Ramdas Pophale) SiO2 
 PCOD9194445
Probable space group: C 2/M
;
_chemical_formula_sum "Si O2"
_cell_formula_units_Z 56
_cell_length_a 19.387403
_cell_length_b 8.400408
_cell_length_c 19.400296
_cell_angle_alpha 90.000000
_cell_angle_beta 118.052648
_cell_angle_gamma 90.000000
_cell_volume 2788.373066
_symmetry_space_group_name_H-M "C 2/M"
_symmetry_group_IT_number 12
_symmetry_cell_setting 'monoclinic'
loop_
_space_group_symop_operation_xyz
x,y,z
-x,y,-z
-x,-y,-z
x,-y,z
1/2+x,1/2+y,z
1/2-x,1/2+y,-z
1/2-x,1/2-y,-z
1/2+x,1/2-y,z
loop_
_atom_site_type_symbol
_atom_site_label
_atom_site_fract_x
_atom_site_fract_y
_atom_site_fract_z
Si Si1 0.836429 0.189969 0.251351
Si Si2 0.089536 0.308337 0.322484
Si Si3 0.172672 0.190466 0.232177
Si Si4 0.930492 0.689888 0.175116
Si Si5 0.576886 0.690288 0.575168
Si Si6 0.011331 0.808101 0.083422
Si Si7 0.829918 0.309162 0.503905
O O1 0.751101 0.239093 0.237373
O O2 0.857610 0.253986 0.185889
O O3 0.898855 0.252287 0.338059
O O4 0.841538 0.000000 0.252460
O O5 0.091797 0.500000 0.319848
O O6 0.156046 0.242483 0.302835
O O7 0.104937 0.263143 0.408350
O O8 0.007125 0.251532 0.253545
O O9 0.095234 0.244121 0.153628
O O10 0.177245 0.000000 0.231574
O O11 0.931618 0.500000 0.173952
O O12 0.944277 0.752328 0.104601
O O13 0.500000 0.756137 0.500000
O O14 0.567353 0.500000 0.576478
O O15 0.648253 0.728730 0.557473
O O16 0.011372 0.000000 0.083355
O O17 0.000000 0.752011 0.000000
O O18 0.828480 0.500000 0.495160
O O19 0.750000 0.250000 0.500000
#
# Coordination Sequence:
#
# PCOD9194445 Si02
#       7
#     8   8   8   8   8   8   8
#     4  11  22  36  54  77 109 145 180 221 269 318
#     4   9  19  35  52  73 103 138 176 220 269 318
#     4  10  20  34  56  83 108 139 178 218 262 315
#     4  10  20  35  57  82 107 137 176 218 259 311
#     4  10  22  38  54  74 103 141 184 229 274 317
#     4   9  19  38  62  86 112 140 171 210 259 316
#     4  11  22  34  50  73 102 137 178 224 272 318
#
# _framework density 20.083396
#
# number of rings (size 3 to 8) (size 9 to 14) (size 15 to 20)
#    0.000    2.000    0.000    3.429    0.000    7.429 
#    0.000    0.714    0.000    0.000    0.000    0.000 
#    0.000    0.000    0.000    0.000    0.000    0.000 
#
# Total GULP energy -156390.917819 kJ/mol
# GULP energy per Si atom -5585.389922 kJ/mol
# Density = 2.003769 g / cm^3
# Si number density = 20.083396 Si / 1000 Ang^3
#
#
#
# Elastic Constant Matrix: (Units=GPa)
#
#
# Indices 1 2 3 4 5 6 
#
# 1 93.8753 -5.2160 22.2904 0.0000 -25.9754 0.0000
# 2 -5.2160 6.3686 11.0364 0.0000 -2.0536 0.0000
# 3 22.2904 11.0364 91.1743 0.0000 -29.1029 0.0000
# 4 0.0000 0.0000 0.0000 20.1979 0.0000 -4.5113
# 5 -25.9754 -2.0536 -29.1029 0.0000 32.4154 0.0000
# 6 0.0000 0.0000 0.0000 -4.5113 0.0000 30.9878
#
#
#
# Elastic Compliance Matrix: (Units=1/GPa)
#
#
# Indices 1 2 3 4 5 6 
#
# 1 0.015646 0.021274 -0.002759 0.000000 0.011409 0.000000
# 2 0.021274 0.231381 -0.032364 0.000000 0.002650 0.000000
# 3 -0.002759 -0.032364 0.019904 0.000000 0.013609 0.000000
# 4 0.000000 0.000000 0.000000 0.051174 0.000000 0.007450
# 5 0.011409 0.002650 0.013609 0.000000 0.052378 0.000000
# 6 0.000000 0.000000 0.000000 0.007450 0.000000 0.033355
#
#
# Mechanical properties :
#
#
# Convention : Reuss Voigt Hill
#
# Bulk Modulus (GPa) = 4.17999 27.51556 15.84777
# Shear Modulus (GPa) = 9.77937 27.60740 18.69338
#
# Velocity S-wave (km/s) = 2.20906 3.71163 3.05419
# Velocity P-wave (km/s) = 2.93129 5.66557 4.51061
#
# Compressibility (1/GPa) = 0.23923531
#
# Stress axis : x y z
#
# Youngs Moduli (GPa) = 63.91259 4.32187 50.24114
#
# Poissons Ratio (x) = -0.09194 0.13860
# Poissons Ratio (y) = -1.35968 1.62598
# Poissons Ratio (z) = 0.17632 0.13987
#
# Static dielectric constant tensor:
#      x y z
#    x 1.713150 0.000000 0.026690 
#    y 0.000000 1.680100 0.000000 
#    z 0.026690 0.000000 1.732290 
# 
# From -- ./inp_files/275520.got.cif
#   From: 2010.05.17/outbox.cif.g08.bks.cpg/sg12_138_cif.got.tgz:275520.got - 2010.06.03 13:09:07.
