data_PCOD9194854
_publ_section_title
;
Structure prediction by ZEFSAII (Michael W. Deem and Ramdas Pophale) SiO2 
 PCOD9194854
Probable space group: C 2/M
;
_chemical_formula_sum "Si O2"
_cell_formula_units_Z 64
_cell_length_a 15.335791
_cell_length_b 11.373620
_cell_length_c 28.742479
_cell_angle_alpha 90.000000
_cell_angle_beta 139.686623
_cell_angle_gamma 90.000000
_cell_volume 3243.484302
_symmetry_space_group_name_H-M "C 2/M"
_symmetry_group_IT_number 12
_symmetry_cell_setting 'monoclinic'
loop_
_space_group_symop_operation_xyz
x,y,z
-x,y,-z
-x,-y,-z
x,-y,z
1/2+x,1/2+y,z
1/2-x,1/2+y,-z
1/2-x,1/2-y,-z
1/2+x,1/2-y,z
loop_
_atom_site_type_symbol
_atom_site_label
_atom_site_fract_x
_atom_site_fract_y
_atom_site_fract_z
Si Si1 0.300509 0.222638 0.730179
Si Si2 0.104986 0.362730 0.706519
Si Si3 0.569511 0.138067 0.798134
Si Si4 0.127406 0.375711 0.148445
Si Si5 0.352563 0.723883 0.931982
Si Si6 0.858055 0.863356 0.423249
Si Si7 0.321129 0.132641 0.009495
Si Si8 0.185947 0.638832 0.446864
O O1 0.238511 0.332965 0.731976
O O2 0.453691 0.216156 0.774780
O O3 0.296026 0.133033 0.771812
O O4 0.206353 0.195060 0.648131
O O5 0.103783 0.500000 0.713529
O O6 0.085151 0.317485 0.751135
O O7 0.972320 0.333971 0.622778
O O8 0.716519 0.148990 0.881587
O O9 0.526473 0.000000 0.781718
O O10 0.160288 0.500000 0.138871
O O11 0.149941 0.272695 0.121271
O O12 0.967616 0.373267 0.092831
O O13 0.345357 0.832466 0.965312
O O14 0.500000 0.666601 0.000000
O O15 0.752628 0.860078 0.422737
O O16 0.000000 0.813923 0.500000
O O17 0.882607 0.000000 0.420902
O O18 0.260926 0.000000 0.989268
O O19 0.250000 0.250000 0.000000
O O20 0.202709 0.500000 0.470306
O O21 0.250000 0.750000 0.500000
#
# Coordination Sequence:
#
# PCOD9194854 Si02
#       8
#     8   8   8   8   8   8   8   8
#     4  12  21  37  65  90 121 166 219 264 316 391
#     4  10  22  41  63  89 130 176 215 268 336 392
#     4  11  22  40  65  92 126 171 219 270 328 395
#     4  10  20  35  57  87 118 156 205 260 316 380
#     4  10  21  39  62  89 125 165 207 267 332 397
#     4  10  20  34  57  92 128 163 211 267 316 373
#     4  10  21  38  59  85 121 161 206 260 326 388
#     4  10  20  39  65  94 132 177 220 272 334 397
#
# _framework density 19.731867000000001
#
# number of rings (size 3 to 8) (size 9 to 14) (size 15 to 20)
#    0.000    1.625    2.500    3.000    0.000    3.250 
#    0.000    6.875    0.000    2.250    0.000    0.000 
#    0.000    0.000    0.000    0.000    0.000    0.000 
#
# Total GULP energy -178143.932435 kJ/mol
# GULP energy per Si atom -5566.997889 kJ/mol
# Density = 1.968696 g / cm^3
# Si number density = 19.731867 Si / 1000 Ang^3
#
#
#
# Elastic Constant Matrix: (Units=GPa)
#
#
# Indices 1 2 3 4 5 6 
#
# 1 87.8968 16.0597 41.9301 0.0000 9.5515 0.0000
# 2 16.0597 49.6042 25.7210 0.0000 3.3779 0.0000
# 3 41.9301 25.7210 89.4691 0.0000 -2.5889 0.0000
# 4 0.0000 0.0000 0.0000 20.5191 0.0000 4.1433
# 5 9.5515 3.3779 -2.5889 0.0000 38.5229 0.0000
# 6 0.0000 0.0000 0.0000 4.1433 0.0000 24.7446
#
#
#
# Elastic Compliance Matrix: (Units=1/GPa)
#
#
# Indices 1 2 3 4 5 6 
#
# 1 0.015376 -0.001050 -0.007025 0.000000 -0.004192 0.000000
# 2 -0.001050 0.024014 -0.006478 0.000000 -0.002281 0.000000
# 3 -0.007025 -0.006478 0.016431 0.000000 0.003414 0.000000
# 4 0.000000 0.000000 0.000000 0.050441 0.000000 -0.008446
# 5 -0.004192 -0.002281 0.003414 0.000000 0.027427 0.000000
# 6 0.000000 0.000000 0.000000 -0.008446 0.000000 0.041827
#
#
# Mechanical properties :
#
#
# Convention : Reuss Voigt Hill
#
# Bulk Modulus (GPa) = 37.43298 43.82130 40.62714
# Shear Modulus (GPa) = 23.41645 26.30794 24.86220
#
# Velocity S-wave (km/s) = 3.44864 3.65536 3.55350
# Velocity P-wave (km/s) = 5.90504 6.33026 6.12134
#
# Compressibility (1/GPa) = 0.02671441
#
# Stress axis : x y z
#
# Youngs Moduli (GPa) = 65.03748 41.64322 60.86213
#
# Poissons Ratio (x) = 0.04371 0.42759
# Poissons Ratio (y) = 0.06827 0.39424
# Poissons Ratio (z) = 0.45692 0.26975
#
# Static dielectric constant tensor:
#      x y z
#    x 1.750470 0.000000 -0.056680 
#    y 0.000000 1.719160 0.000000 
#    z -0.056680 0.000000 1.871890 
# 
# From -- ./inp_files/361066.got.cif
#   From: 2010.05.17/outbox.cif.g08.bks.cpg/sg12_181_cif.got.tgz:361066.got - 2010.06.03 13:09:07.
