data_PCOD9194016
_publ_section_title
;
Structure prediction by ZEFSAII (Michael W. Deem and Ramdas Pophale) SiO2 
 PCOD9194016
Probable space group: C 2/M
;
_chemical_formula_sum "Si O2"
_cell_formula_units_Z 28
_cell_length_a 5.365563
_cell_length_b 33.697831
_cell_length_c 7.464217
_cell_angle_alpha 90.000000
_cell_angle_beta 118.466059
_cell_angle_gamma 90.000000
_cell_volume 1186.423103
_symmetry_space_group_name_H-M "C 2/M"
_symmetry_group_IT_number 12
_symmetry_cell_setting 'monoclinic'
loop_
_space_group_symop_operation_xyz
x,y,z
-x,y,-z
-x,-y,-z
x,-y,z
1/2+x,1/2+y,z
1/2-x,1/2+y,-z
1/2-x,1/2-y,-z
1/2+x,1/2-y,z
loop_
_atom_site_type_symbol
_atom_site_label
_atom_site_fract_x
_atom_site_fract_y
_atom_site_fract_z
Si Si1 0.337759 0.955195 0.254099
Si Si2 0.943670 0.733344 0.228531
Si Si3 0.658470 0.593205 0.744003
Si Si4 0.000000 0.661466 0.000000
O O1 0.500000 0.958011 0.500000
O O2 0.546751 0.928257 0.207964
O O3 0.040880 0.935230 0.206692
O O4 0.311803 0.000000 0.174352
O O5 0.729815 0.740578 0.318118
O O6 0.750000 0.750000 0.000000
O O7 0.990962 0.688702 0.175787
O O8 0.500000 0.601296 0.500000
O O9 0.731358 0.633197 0.875532
#
# Coordination Sequence:
#
# PCOD9194016 Si02
#       4
#     8   8   8   4
#     4   9  18  35  54  71 100 138 171 206 248 298
#     4   8  16  30  50  71  94 132 168 191 236 302
#     4  10  21  34  52  78 101 130 170 208 253 297
#     4  10  20  34  55  76 106 132 160 212 257 288
#
# _framework density 23.600349999999999
#
# number of rings (size 3 to 8) (size 9 to 14) (size 15 to 20)
#    0.000    3.143    0.000    0.857    0.000   13.714 
#    0.000    4.286    0.000   15.429    0.000    0.000 
#    0.000    0.000    0.000    0.000    0.000    0.000 
#
# Total GULP energy -78175.136742 kJ/mol
# GULP energy per Si atom -5583.938339 kJ/mol
# Density = 2.354663 g / cm^3
# Si number density = 23.600350 Si / 1000 Ang^3
#
#
#
# Elastic Constant Matrix: (Units=GPa)
#
#
# Indices 1 2 3 4 5 6 
#
# 1 196.6342 65.8647 22.1648 0.0000 15.4016 0.0000
# 2 65.8647 148.4183 16.5580 0.0000 10.0424 0.0000
# 3 22.1648 16.5580 67.2143 0.0000 -9.2814 0.0000
# 4 0.0000 0.0000 0.0000 -23.1733 0.0000 15.1543
# 5 15.4016 10.0424 -9.2814 0.0000 44.9866 0.0000
# 6 0.0000 0.0000 0.0000 15.1543 0.0000 18.6515
#
#
#
# Elastic Compliance Matrix: (Units=1/GPa)
#
#
# Indices 1 2 3 4 5 6 
#
# 1 0.006254 -0.002451 -0.001728 0.000000 -0.001951 0.000000
# 2 -0.002451 0.008059 -0.001348 0.000000 -0.001238 0.000000
# 3 -0.001728 -0.001348 0.016369 0.000000 0.004270 0.000000
# 4 0.000000 0.000000 0.000000 -0.028180 0.000000 0.022896
# 5 -0.001951 -0.001238 0.004270 0.000000 0.024054 0.000000
# 6 0.000000 0.000000 0.000000 0.022896 0.000000 0.035012
#
#
# Mechanical properties :
#
#
# Convention : Reuss Voigt Hill
#
# Bulk Modulus (GPa) = 50.94495 69.04910 59.99703
# Shear Modulus (GPa) = 63.15889 28.60493 45.88191
#
# Velocity S-wave (km/s) = 5.17880 3.48524 4.41400
# Velocity P-wave (km/s) = 7.57584 6.74663 7.17322
#
# Compressibility (1/GPa) = 0.01962903
#
# Stress axis : x y z
#
# Youngs Moduli (GPa) = 159.89748 124.07794 61.08973
#
# Poissons Ratio (x) = 0.30407 0.10556
# Poissons Ratio (y) = 0.39185 0.08237
# Poissons Ratio (z) = 0.27630 0.16729
#
# Static dielectric constant tensor:
#      x y z
#    x 1.838380 0.000000 0.087060 
#    y 0.000000 1.898140 0.000000 
#    z 0.087060 0.000000 1.877590 
# 
# From -- ./inp_files/34159.got.cif
#   From: 2010.05.17/outbox.cif.g08.bks.cpg/sg12_18_cif.got.tgz:34159.got - 2010.06.03 13:09:07.
