data_PCOD9194317
_publ_section_title
;
Structure prediction by ZEFSAII (Michael W. Deem and Ramdas Pophale) SiO2 
 PCOD9194317
Probable space group: C 2/M
;
_chemical_formula_sum "Si O2"
_cell_formula_units_Z 50
_cell_length_a 25.614722
_cell_length_b 8.666814
_cell_length_c 14.833309
_cell_angle_alpha 90.000000
_cell_angle_beta 124.465778
_cell_angle_gamma 90.000000
_cell_volume 2714.932569
_symmetry_space_group_name_H-M "C 2/M"
_symmetry_group_IT_number 12
_symmetry_cell_setting 'monoclinic'
loop_
_space_group_symop_operation_xyz
x,y,z
-x,y,-z
-x,-y,-z
x,-y,z
1/2+x,1/2+y,z
1/2-x,1/2+y,-z
1/2-x,1/2-y,-z
1/2+x,1/2-y,z
loop_
_atom_site_type_symbol
_atom_site_label
_atom_site_fract_x
_atom_site_fract_y
_atom_site_fract_z
Si Si1 0.188441 0.813466 0.888960
Si Si2 0.599660 0.169554 0.474838
Si Si3 0.500000 0.000000 0.500000
Si Si4 0.915952 0.812128 0.072014
Si Si5 0.652903 0.313220 0.180074
Si Si6 0.441290 0.313651 0.752841
Si Si7 0.792869 0.815469 0.298195
O O1 0.126554 0.763782 0.884281
O O2 0.189131 0.762659 0.785848
O O3 0.190863 0.000000 0.893309
O O4 0.250000 0.750000 0.000000
O O5 0.576433 0.254998 0.363098
O O6 0.654557 0.257694 0.581195
O O7 0.624885 0.000000 0.472345
O O8 0.541699 0.132101 0.485701
O O9 0.988223 0.759882 0.151017
O O10 0.916852 0.000000 0.071789
O O11 0.881394 0.763506 0.946281
O O12 0.656055 0.500000 0.182052
O O13 0.609969 0.265243 0.222657
O O14 0.723482 0.248510 0.252470
O O15 0.442159 0.500000 0.753337
O O16 0.790853 0.000000 0.296333
#
# Coordination Sequence:
#
# PCOD9194317 Si02
#       7
#     8   8   2   8   8   8   8
#     4  10  20  34  55  85 117 151 191 240 297 351
#     4  10  23  42  62  86 117 156 197 240 302 361
#     4   8  24  44  62  84 118 148 200 236 298 366
#     4   9  18  34  58  87 119 155 197 244 299 358
#     4  10  20  37  61  88 121 163 202 245 298 360
#     4  10  21  38  62  90 119 157 206 251 298 353
#     4  11  23  38  60  91 124 157 201 252 299 350
#
# _framework density 18.416664000000001
#
# number of rings (size 3 to 8) (size 9 to 14) (size 15 to 20)
#    0.480    1.600    1.600    1.440    2.240    3.840 
#    0.000    2.400    0.000    1.920    0.000    0.000 
#    0.000    0.000    0.000    0.000    0.000    0.000 
#
# Total GULP energy -139212.003909 kJ/mol
# GULP energy per Si atom -5568.480156 kJ/mol
# Density = 1.837475 g / cm^3
# Si number density = 18.416664 Si / 1000 Ang^3
#
#
#
# Elastic Constant Matrix: (Units=GPa)
#
#
# Indices 1 2 3 4 5 6 
#
# 1 193.3896 30.7721 86.2141 0.0000 3.8040 0.0000
# 2 30.7721 16.6049 15.7304 0.0000 2.7906 0.0000
# 3 86.2141 15.7304 116.0127 0.0000 14.9341 0.0000
# 4 0.0000 0.0000 0.0000 23.4337 0.0000 0.8312
# 5 3.8040 2.7906 14.9341 0.0000 11.3297 0.0000
# 6 0.0000 0.0000 0.0000 0.8312 0.0000 23.5299
#
#
#
# Elastic Compliance Matrix: (Units=1/GPa)
#
#
# Indices 1 2 3 4 5 6 
#
# 1 0.010331 -0.014106 -0.006943 0.000000 0.009158 0.000000
# 2 -0.014106 0.088659 0.000798 0.000000 -0.018154 0.000000
# 3 -0.006943 0.000798 0.016134 0.000000 -0.019133 0.000000
# 4 0.000000 0.000000 0.000000 0.042727 0.000000 -0.001509
# 5 0.009158 -0.018154 -0.019133 0.000000 0.114879 0.000000
# 6 0.000000 0.000000 0.000000 -0.001509 0.000000 0.042552
#
#
# Mechanical properties :
#
#
# Convention : Reuss Voigt Hill
#
# Bulk Modulus (GPa) = 13.40091 65.71558 39.55825
# Shear Modulus (GPa) = 13.13509 24.54473 18.83991
#
# Velocity S-wave (km/s) = 2.67351 3.65464 3.20188
# Velocity P-wave (km/s) = 4.10153 7.31906 5.93259
#
# Compressibility (1/GPa) = 0.07462179
#
# Stress axis : x y z
#
# Youngs Moduli (GPa) = 96.79797 11.27912 61.97936
#
# Poissons Ratio (x) = 0.15911 0.43035
# Poissons Ratio (y) = 1.36546 -0.04948
# Poissons Ratio (z) = 0.67212 -0.00900
#
# Static dielectric constant tensor:
#      x y z
#    x 1.622810 0.000000 -0.011190 
#    y 0.000000 1.638480 0.000000 
#    z -0.011190 0.000000 1.607470 
# 
# From -- ./inp_files/244394.got.cif
#   From: 2010.05.17/outbox.cif.g08.bks.cpg/sg12_123_cif.got.tgz:244394.got - 2010.06.03 13:09:07.
