data_PCOD9194319
_publ_section_title
;
Structure prediction by ZEFSAII (Michael W. Deem and Ramdas Pophale) SiO2 
 PCOD9194319
Probable space group: C 2/M
;
_chemical_formula_sum "Si O2"
_cell_formula_units_Z 64
_cell_length_a 15.909357
_cell_length_b 8.715650
_cell_length_c 24.570663
_cell_angle_alpha 90.000000
_cell_angle_beta 81.609126
_cell_angle_gamma 90.000000
_cell_volume 3370.507957
_symmetry_space_group_name_H-M "C 2/M"
_symmetry_group_IT_number 12
_symmetry_cell_setting 'monoclinic'
loop_
_space_group_symop_operation_xyz
x,y,z
-x,y,-z
-x,-y,-z
x,-y,z
1/2+x,1/2+y,z
1/2-x,1/2+y,-z
1/2-x,1/2-y,-z
1/2+x,1/2-y,z
loop_
_atom_site_type_symbol
_atom_site_label
_atom_site_fract_x
_atom_site_fract_y
_atom_site_fract_z
Si Si1 0.291294 0.181167 0.941822
Si Si2 0.571973 0.184737 0.833289
Si Si3 0.524413 0.814466 0.366480
Si Si4 0.473863 0.680528 0.940010
Si Si5 0.644145 0.316426 0.565625
Si Si6 0.070751 0.314983 0.240340
Si Si7 0.337917 0.185292 0.556113
Si Si8 0.240280 0.817300 0.172005
O O1 0.390997 0.220460 0.934471
O O2 0.256800 0.257016 0.890114
O O3 0.276922 0.000000 0.941542
O O4 0.250000 0.250000 0.000000
O O5 0.546237 0.267046 0.891607
O O6 0.504430 0.231252 0.793788
O O7 0.669125 0.220699 0.809605
O O8 0.565905 0.000000 0.841449
O O9 0.432731 0.752605 0.392703
O O10 0.550359 0.764205 0.303509
O O11 0.596165 0.767199 0.403476
O O12 0.521145 0.000000 0.367264
O O13 0.454649 0.500000 0.934269
O O14 0.500000 0.703837 0.000000
O O15 0.638424 0.500000 0.566583
O O16 0.637672 0.256591 0.504263
O O17 0.739328 0.272975 0.576587
O O18 0.073932 0.500000 0.239714
O O19 0.159968 0.254188 0.209834
O O20 0.341646 0.000000 0.550879
O O21 0.230325 0.000000 0.171859
#
# Coordination Sequence:
#
# PCOD9194319 Si02
#       8
#     8   8   8   8   8   8   8   8
#     4  12  24  39  60  87 120 154 191 238 293 351
#     4  10  22  40  61  85 116 153 191 238 296 351
#     4  10  21  37  58  82 114 156 201 240 290 354
#     4  11  23  38  59  89 120 150 191 237 287 351
#     4  10  20  34  55  85 118 151 194 246 298 346
#     4  10  22  41  61  84 115 157 200 243 294 353
#     4   9  19  36  56  81 117 158 195 238 294 354
#     4  11  23  40  62  88 117 152 195 242 296 350
#
# _framework density 18.988235
#
# number of rings (size 3 to 8) (size 9 to 14) (size 15 to 20)
#    0.000    1.625    1.250    3.375    0.000    8.000 
#    0.000    0.000    0.000    0.000    0.000    0.000 
#    0.000    0.000    0.000    0.000    0.000    0.000 
#
# Total GULP energy -178829.304982 kJ/mol
# GULP energy per Si atom -5588.415781 kJ/mol
# Density = 1.894502 g / cm^3
# Si number density = 18.988235 Si / 1000 Ang^3
#
#
#
# Elastic Constant Matrix: (Units=GPa)
#
#
# Indices 1 2 3 4 5 6 
#
# 1 138.7250 30.1862 72.0657 0.0000 -20.8804 0.0000
# 2 30.1862 20.3570 26.4445 0.0000 -1.5730 0.0000
# 3 72.0657 26.4445 110.8713 0.0000 -24.5734 0.0000
# 4 0.0000 0.0000 0.0000 19.1057 0.0000 -8.1410
# 5 -20.8804 -1.5730 -24.5734 0.0000 19.9721 0.0000
# 6 0.0000 0.0000 0.0000 -8.1410 0.0000 33.3484
#
#
#
# Elastic Compliance Matrix: (Units=1/GPa)
#
#
# Indices 1 2 3 4 5 6 
#
# 1 0.013532 -0.015292 -0.003134 0.000000 0.009086 0.000000
# 2 -0.015292 0.095506 -0.020234 0.000000 -0.033361 0.000000
# 3 -0.003134 -0.020234 0.020354 0.000000 0.020173 0.000000
# 4 0.000000 0.000000 0.000000 0.058417 0.000000 0.014261
# 5 0.009086 -0.033361 0.020173 0.000000 0.081762 0.000000
# 6 0.000000 0.000000 0.000000 0.014261 0.000000 0.033468
#
#
# Mechanical properties :
#
#
# Convention : Reuss Voigt Hill
#
# Bulk Modulus (GPa) = 19.20460 58.59402 38.89931
# Shear Modulus (GPa) = 12.57176 23.90237 18.23707
#
# Velocity S-wave (km/s) = 2.57589 3.55180 3.10246
# Velocity P-wave (km/s) = 4.35693 6.90981 5.77617
#
# Compressibility (1/GPa) = 0.05207087
#
# Stress axis : x y z
#
# Youngs Moduli (GPa) = 73.89939 10.47058 49.13020
#
# Poissons Ratio (x) = 0.16011 0.15399
# Poissons Ratio (y) = 1.13006 0.99411
# Poissons Ratio (z) = 0.23163 0.21186
#
# Static dielectric constant tensor:
#      x y z
#    x 1.615560 0.000000 -0.001080 
#    y 0.000000 1.646060 0.000000 
#    z -0.001080 0.000000 1.635990 
# 
# From -- ./inp_files/338722.got.cif
#   From: 2010.05.17/outbox.cif.g08.bks.cpg/sg12_170_cif.got.tgz:338722.got - 2010.06.03 13:09:07.
