data_PCOD9194336
_publ_section_title
;
Structure prediction by ZEFSAII (Michael W. Deem and Ramdas Pophale) SiO2 
 PCOD9194336
Probable space group: C 2/M
;
_chemical_formula_sum "Si O2"
_cell_formula_units_Z 48
_cell_length_a 21.003229
_cell_length_b 7.736153
_cell_length_c 15.303059
_cell_angle_alpha 90.000000
_cell_angle_beta 109.933996
_cell_angle_gamma 90.000000
_cell_volume 2337.528720
_symmetry_space_group_name_H-M "C 2/M"
_symmetry_group_IT_number 12
_symmetry_cell_setting 'monoclinic'
loop_
_space_group_symop_operation_xyz
x,y,z
-x,y,-z
-x,-y,-z
x,-y,z
1/2+x,1/2+y,z
1/2-x,1/2+y,-z
1/2-x,1/2-y,-z
1/2+x,1/2-y,z
loop_
_atom_site_type_symbol
_atom_site_label
_atom_site_fract_x
_atom_site_fract_y
_atom_site_fract_z
Si Si1 0.930087 0.298015 0.197394
Si Si2 0.175043 0.793520 0.999661
Si Si3 0.567639 0.293137 0.483824
Si Si4 0.079187 0.201533 0.293512
Si Si5 0.660688 0.791525 0.684143
Si Si6 0.313374 0.287736 0.796619
O O1 0.943145 0.500000 0.218791
O O2 0.881183 0.279388 0.091742
O O3 0.889573 0.227512 0.262892
O O4 0.002951 0.212229 0.221784
O O5 0.167904 0.000000 0.995494
O O6 0.250000 0.750000 0.000000
O O7 0.169102 0.732237 0.096768
O O8 0.500000 0.223889 0.500000
O O9 0.558422 0.500000 0.471459
O O10 0.577786 0.222915 0.390874
O O11 0.630285 0.259262 0.576913
O O12 0.132944 0.274518 0.249993
O O13 0.097787 0.000000 0.311795
O O14 0.737132 0.732832 0.737255
O O15 0.661342 0.000000 0.690117
O O16 0.313919 0.500000 0.798000
#
# Coordination Sequence:
#
# PCOD9194336 Si02
#       6
#     8   8   8   8   8   8
#     4  11  22  37  58  86 116 147 190 236 283 335
#     4  11  21  37  61  87 114 148 193 234 279 336
#     4  10  20  34  55  86 114 142 188 237 280 329
#     4  10  21  39  60  81 114 153 188 231 283 338
#     4  10  20  36  58  82 111 149 190 230 278 340
#     4   9  20  39  59  82 113 151 189 227 280 346
#
# _framework density 20.534507999999999
#
# number of rings (size 3 to 8) (size 9 to 14) (size 15 to 20)
#    0.000    1.833    3.333    1.000    0.000    3.000 
#    0.000    5.833    0.000    0.000    0.000    0.000 
#    0.000    0.000    0.000    0.000    0.000    0.000 
#
# Total GULP energy -134079.446920 kJ/mol
# GULP energy per Si atom -5586.643622 kJ/mol
# Density = 2.048777 g / cm^3
# Si number density = 20.534508 Si / 1000 Ang^3
#
#
#
# Elastic Constant Matrix: (Units=GPa)
#
#
# Indices 1 2 3 4 5 6 
#
# 1 113.9739 -4.2388 47.6467 0.0000 -23.2661 0.0000
# 2 -4.2388 31.5792 -9.9085 0.0000 -11.3719 0.0000
# 3 47.6467 -9.9085 138.6018 0.0000 -9.7568 0.0000
# 4 0.0000 0.0000 0.0000 25.0547 0.0000 8.5318
# 5 -23.2661 -11.3719 -9.7568 0.0000 35.6791 0.0000
# 6 0.0000 0.0000 0.0000 8.5318 0.0000 16.7840
#
#
#
# Elastic Compliance Matrix: (Units=1/GPa)
#
#
# Indices 1 2 3 4 5 6 
#
# 1 0.011899 0.003431 -0.003285 0.000000 0.007954 0.000000
# 2 0.003431 0.038431 0.002639 0.000000 0.015208 0.000000
# 3 -0.003285 0.002639 0.008607 0.000000 0.001052 0.000000
# 4 0.000000 0.000000 0.000000 0.048268 0.000000 -0.024536
# 5 0.007954 0.015208 0.001052 0.000000 0.038349 0.000000
# 6 0.000000 0.000000 0.000000 -0.024536 0.000000 0.072053
#
#
# Mechanical properties :
#
#
# Convention : Reuss Voigt Hill
#
# Bulk Modulus (GPa) = 15.50268 39.01708 27.25988
# Shear Modulus (GPa) = 21.40960 32.21393 26.81177
#
# Velocity S-wave (km/s) = 3.23246 3.96507 3.61736
# Velocity P-wave (km/s) = 4.63656 6.32490 5.54536
#
# Compressibility (1/GPa) = 0.06450498
#
# Stress axis : x y z
#
# Youngs Moduli (GPa) = 84.04344 26.02053 116.18502
#
# Poissons Ratio (x) = -0.08927 0.38169
# Poissons Ratio (y) = -0.28833 -0.30656
# Poissons Ratio (z) = 0.27610 -0.06866
#
# Static dielectric constant tensor:
#      x y z
#    x 1.691640 0.000000 -0.038620 
#    y 0.000000 1.745000 0.000000 
#    z -0.038620 0.000000 1.697240 
# 
# From -- ./inp_files/229831.got.cif
#   From: 2010.05.17/outbox.cif.g08.bks.cpg/sg12_115_cif.got.tgz:229831.got - 2010.06.03 13:09:07.
