data_PCOD9194932
_publ_section_title
;
Structure prediction by ZEFSAII (Michael W. Deem and Ramdas Pophale) SiO2 
 PCOD9194932
Probable space group: C 2/M
;
_chemical_formula_sum "Si O2"
_cell_formula_units_Z 56
_cell_length_a 11.939824
_cell_length_b 23.467512
_cell_length_c 11.063095
_cell_angle_alpha 90.000000
_cell_angle_beta 70.212653
_cell_angle_gamma 90.000000
_cell_volume 2916.827356
_symmetry_space_group_name_H-M "C 2/M"
_symmetry_group_IT_number 12
_symmetry_cell_setting 'monoclinic'
loop_
_space_group_symop_operation_xyz
x,y,z
-x,y,-z
-x,-y,-z
x,-y,z
1/2+x,1/2+y,z
1/2-x,1/2+y,-z
1/2-x,1/2-y,-z
1/2+x,1/2-y,z
loop_
_atom_site_type_symbol
_atom_site_label
_atom_site_fract_x
_atom_site_fract_y
_atom_site_fract_z
Si Si1 0.863796 0.618785 0.077216
Si Si2 0.170725 0.159594 0.734786
Si Si3 0.794892 0.566754 0.848842
Si Si4 0.251904 0.261855 0.856141
Si Si5 0.576393 0.936803 0.704362
Si Si6 0.120483 0.330047 0.533176
Si Si7 0.495511 0.718896 0.357755
O O1 0.797187 0.674868 0.146407
O O2 0.879329 0.571306 0.174646
O O3 0.802069 0.594277 0.979743
O O4 0.000000 0.636597 0.000000
O O5 0.209359 0.103309 0.793316
O O6 0.173783 0.211901 0.826892
O O7 0.271352 0.171750 0.597914
O O8 0.049307 0.165493 0.704171
O O9 0.763843 0.500000 0.864841
O O10 0.932781 0.570547 0.753672
O O11 0.381340 0.259485 0.745179
O O12 0.250000 0.250000 0.000000
O O13 0.632513 0.885426 0.610331
O O14 0.604598 0.000000 0.648817
O O15 0.098055 0.271794 0.614705
O O16 0.000000 0.336523 0.500000
O O17 0.500000 0.706085 0.500000
#
# Coordination Sequence:
#
# PCOD9194932 Si02
#       7
#     8   8   8   8   8   8   8
#     4  10  22  37  60  89 127 156 191 249 313 363
#     4  12  23  39  62  88 122 162 201 245 305 359
#     4  10  20  38  59  86 121 160 201 248 304 363
#     4  12  24  38  62  94 123 154 201 253 300 361
#     4  10  20  34  58  90 122 159 200 247 301 359
#     4  11  20  37  60  85 125 158 195 243 301 359
#     4  11  25  41  61  88 123 164 201 243 306 370
#
# _framework density 19.198941999999999
#
# number of rings (size 3 to 8) (size 9 to 14) (size 15 to 20)
#    0.000    1.143    5.714    1.714    6.000    2.571 
#    0.000    0.000    0.000    3.000    0.000    0.000 
#    0.000    0.000    0.000    0.000    0.000    0.000 
#
# Total GULP energy -156323.223402 kJ/mol
# GULP energy per Si atom -5582.972264 kJ/mol
# Density = 1.915524 g / cm^3
# Si number density = 19.198942 Si / 1000 Ang^3
#
#
#
# Elastic Constant Matrix: (Units=GPa)
#
#
# Indices 1 2 3 4 5 6 
#
# 1 40.8214 24.3496 15.0727 0.0000 21.8201 0.0000
# 2 24.3496 130.9692 25.1150 0.0000 19.9353 0.0000
# 3 15.0727 25.1150 72.8241 0.0000 17.6785 0.0000
# 4 0.0000 0.0000 0.0000 16.5647 0.0000 0.8095
# 5 21.8201 19.9353 17.6785 0.0000 22.2251 0.0000
# 6 0.0000 0.0000 0.0000 0.8095 0.0000 22.5847
#
#
#
# Elastic Compliance Matrix: (Units=1/GPa)
#
#
# Indices 1 2 3 4 5 6 
#
# 1 0.052428 -0.002413 0.002418 0.000000 -0.051232 0.000000
# 2 -0.002413 0.009069 -0.001523 0.000000 -0.004555 0.000000
# 3 0.002418 -0.001523 0.017352 0.000000 -0.014810 0.000000
# 4 0.000000 0.000000 0.000000 0.060475 0.000000 -0.002168
# 5 -0.051232 -0.004555 -0.014810 0.000000 0.111158 0.000000
# 6 0.000000 0.000000 0.000000 -0.002168 0.000000 0.044356
#
#
# Mechanical properties :
#
#
# Convention : Reuss Voigt Hill
#
# Bulk Modulus (GPa) = 13.19027 41.52103 27.35565
# Shear Modulus (GPa) = 15.47294 24.28004 19.87649
#
# Velocity S-wave (km/s) = 2.84196 3.56006 3.22108
# Velocity P-wave (km/s) = 4.20170 6.21066 5.30220
#
# Compressibility (1/GPa) = 0.07581345
#
# Stress axis : x y z
#
# Youngs Moduli (GPa) = 19.07374 110.26241 57.63146
#
# Poissons Ratio (x) = 0.26605 -0.13934
# Poissons Ratio (y) = 0.04602 0.08775
# Poissons Ratio (z) = -0.04611 0.16789
#
# Static dielectric constant tensor:
#      x y z
#    x 1.688030 0.000000 0.030840 
#    y 0.000000 1.659170 0.000000 
#    z 0.030840 0.000000 1.695570 
# 
# From -- ./inp_files/133860.got.cif
#   From: 2010.05.17/outbox.cif.g08.bks.cpg/sg12_67_cif.got.tgz:133860.got - 2010.06.03 13:09:07.
