data_PCOD9194744
_publ_section_title
;
Structure prediction by ZEFSAII (Michael W. Deem and Ramdas Pophale) SiO2 
 PCOD9194744
Probable space group: C 2/M
;
_chemical_formula_sum "Si O2"
_cell_formula_units_Z 36
_cell_length_a 9.077377
_cell_length_b 17.451999
_cell_length_c 14.072420
_cell_angle_alpha 90.000000
_cell_angle_beta 55.315687
_cell_angle_gamma 90.000000
_cell_volume 1833.177693
_symmetry_space_group_name_H-M "C 2/M"
_symmetry_group_IT_number 12
_symmetry_cell_setting 'monoclinic'
loop_
_space_group_symop_operation_xyz
x,y,z
-x,y,-z
-x,-y,-z
x,-y,z
1/2+x,1/2+y,z
1/2-x,1/2+y,-z
1/2-x,1/2-y,-z
1/2+x,1/2-y,z
loop_
_atom_site_type_symbol
_atom_site_label
_atom_site_fract_x
_atom_site_fract_y
_atom_site_fract_z
Si Si1 0.107683 0.299235 0.693671
Si Si2 0.000000 0.153186 0.500000
Si Si3 0.593200 0.917038 0.363750
Si Si4 0.523636 0.378073 0.706039
Si Si5 0.874587 0.586988 0.136670
O O1 0.315692 0.300281 0.583235
O O2 0.038046 0.213100 0.718079
O O3 0.099536 0.346300 0.795048
O O4 0.985946 0.348510 0.667759
O O5 0.026931 0.108467 0.589893
O O6 0.500000 0.913120 0.500000
O O7 0.803806 0.911757 0.306058
O O8 0.548502 0.000000 0.336912
O O9 0.335176 0.408342 0.812359
O O10 0.909135 0.500000 0.160055
O O11 0.000000 0.599377 0.000000
#
# Coordination Sequence:
#
# PCOD9194744 Si02
#       5
#     8   4   8   8   8
#     4  11  22  37  61  87 117 156 195 237 286 349
#     4  10  20  34  57  86 121 158 188 224 286 352
#     4  11  22  35  53  87 125 151 184 236 292 344
#     4  11  22  37  61  87 117 156 195 237 286 349
#     4  10  23  44  63  81 113 157 202 244 288 340
#
# _framework density 19.638031000000002
#
# number of rings (size 3 to 8) (size 9 to 14) (size 15 to 20)
#    0.000    1.333    2.222    4.667    3.111    0.889 
#    0.000    4.444    0.000    4.000    0.000    0.000 
#    0.000    0.000    0.000    0.000    0.000    0.000 
#
# Total GULP energy -100564.430552 kJ/mol
# GULP energy per Si atom -5586.912808 kJ/mol
# Density = 1.959333 g / cm^3
# Si number density = 19.638031 Si / 1000 Ang^3
#
#
#
# Elastic Constant Matrix: (Units=GPa)
#
#
# Indices 1 2 3 4 5 6 
#
# 1 99.9574 20.9908 44.6629 0.0000 -11.4553 0.0000
# 2 20.9908 115.3987 37.5787 0.0000 3.5639 0.0000
# 3 44.6629 37.5787 129.1660 0.0000 -20.5155 0.0000
# 4 0.0000 0.0000 0.0000 17.5771 0.0000 -13.0285
# 5 -11.4553 3.5639 -20.5155 0.0000 16.9391 0.0000
# 6 0.0000 0.0000 0.0000 -13.0285 0.0000 0.5110
#
#
#
# Elastic Compliance Matrix: (Units=1/GPa)
#
#
# Indices 1 2 3 4 5 6 
#
# 1 0.012213 -0.001378 -0.003051 0.000000 0.004854 0.000000
# 2 -0.001378 0.010378 -0.003761 0.000000 -0.007670 0.000000
# 3 -0.003051 -0.003761 0.011997 0.000000 0.013258 0.000000
# 4 0.000000 0.000000 0.000000 -0.003179 0.000000 -0.081044
# 5 0.004854 -0.007670 0.013258 0.000000 0.079988 0.000000
# 6 0.000000 0.000000 0.000000 -0.081044 0.000000 -0.109338
#
#
# Mechanical properties :
#
#
# Convention : Reuss Voigt Hill
#
# Bulk Modulus (GPa) = 54.92211 61.22079 58.07145
# Shear Modulus (GPa) = 204.00049 23.09142 113.54596
#
# Velocity S-wave (km/s) = 10.20323 3.43279 7.61216
# Velocity P-wave (km/s) = 12.91649 6.85232 10.33901
#
# Compressibility (1/GPa) = 0.01820760
#
# Stress axis : x y z
#
# Youngs Moduli (GPa) = 81.87846 96.35846 83.35374
#
# Poissons Ratio (x) = 0.13277 0.25434
# Poissons Ratio (y) = 0.11281 0.31351
# Poissons Ratio (z) = 0.24984 0.36242
#
# Static dielectric constant tensor:
#      x y z
#    x 1.725780 0.000000 0.003890 
#    y 0.000000 1.699480 0.000000 
#    z 0.003890 0.000000 1.652260 
# 
# From -- ./inp_files/195248.got.cif
#   From: 2010.05.17/outbox.cif.g08.bks.cpg/sg12_98_cif.got.tgz:195248.got - 2010.06.03 13:09:07.
