data_PCOD9194627
_publ_section_title
;
Structure prediction by ZEFSAII (Michael W. Deem and Ramdas Pophale) SiO2 
 PCOD9194627
Probable space group: C 2/M
;
_chemical_formula_sum "Si O2"
_cell_formula_units_Z 56
_cell_length_a 9.178239
_cell_length_b 23.524273
_cell_length_c 12.632012
_cell_angle_alpha 90.000000
_cell_angle_beta 109.161273
_cell_angle_gamma 90.000000
_cell_volume 2576.293435
_symmetry_space_group_name_H-M "C 2/M"
_symmetry_group_IT_number 12
_symmetry_cell_setting 'monoclinic'
loop_
_space_group_symop_operation_xyz
x,y,z
-x,y,-z
-x,-y,-z
x,-y,z
1/2+x,1/2+y,z
1/2-x,1/2+y,-z
1/2-x,1/2-y,-z
1/2+x,1/2-y,z
loop_
_atom_site_type_symbol
_atom_site_label
_atom_site_fract_x
_atom_site_fract_y
_atom_site_fract_z
Si Si1 0.219669 0.936377 0.243150
Si Si2 0.505437 0.434254 0.625239
Si Si3 0.682875 0.682890 0.178460
Si Si4 0.517107 0.210767 0.882935
Si Si5 0.754915 0.150786 0.312261
Si Si6 0.439156 0.935077 0.603949
Si Si7 0.842354 0.733231 0.418168
O O1 0.153972 0.883762 0.162342
O O2 0.404847 0.931647 0.289093
O O3 0.152635 0.930694 0.346922
O O4 0.177810 0.000000 0.197782
O O5 0.500000 0.417059 0.500000
O O6 0.551843 0.500000 0.638541
O O7 0.630388 0.394522 0.712192
O O8 0.535829 0.723453 0.135903
O O9 0.757662 0.694155 0.312891
O O10 0.814881 0.702091 0.127092
O O11 0.388251 0.176503 0.785944
O O12 0.500000 0.192806 0.000000
O O13 0.676539 0.113975 0.387469
O O14 0.859749 0.205204 0.366483
O O15 0.500000 0.929100 0.500000
O O16 0.375662 0.000000 0.599166
O O17 0.750000 0.750000 0.500000
O O18 0.000000 0.708491 0.500000
#
# Coordination Sequence:
#
# PCOD9194627 Si02
#       7
#     8   8   8   8   8   8   8
#     4  10  22  38  61  87 123 166 204 250 306 368
#     4  10  21  36  58  91 130 174 213 248 299 375
#     4  11  24  43  66  92 126 163 208 261 315 384
#     4  11  25  45  67  94 117 162 217 269 326 369
#     4  11  22  36  60  86 125 160 206 263 310 369
#     4  10  20  34  56  87 122 168 210 244 298 373
#     4  11  25  36  54  89 126 165 197 242 311 381
#
# _framework density 21.736654999999999
#
# number of rings (size 3 to 8) (size 9 to 14) (size 15 to 20)
#    0.000    1.429    1.429    3.857   10.000    2.286 
#    0.000    0.000    0.000    4.286    0.000    0.000 
#    0.000    0.000    0.000    0.000    0.000    0.000 
#
# Total GULP energy -156516.769889 kJ/mol
# GULP energy per Si atom -5589.884639 kJ/mol
# Density = 2.168718 g / cm^3
# Si number density = 21.736655 Si / 1000 Ang^3
#
#
#
# Elastic Constant Matrix: (Units=GPa)
#
#
# Indices 1 2 3 4 5 6 
#
# 1 76.1256 24.8863 -3.5793 0.0000 -10.2414 0.0000
# 2 24.8863 155.7309 13.6168 0.0000 0.2503 0.0000
# 3 -3.5793 13.6168 32.1000 0.0000 -14.7040 0.0000
# 4 0.0000 0.0000 0.0000 5.4724 0.0000 -5.5548
# 5 -10.2414 0.2503 -14.7040 0.0000 20.6515 0.0000
# 6 0.0000 0.0000 0.0000 -5.5548 0.0000 31.1420
#
#
#
# Elastic Compliance Matrix: (Units=1/GPa)
#
#
# Indices 1 2 3 4 5 6 
#
# 1 0.017054 -0.003708 0.010936 0.000000 0.016288 0.000000
# 2 -0.003708 0.007612 -0.006718 0.000000 -0.006714 0.000000
# 3 0.010936 -0.006718 0.056011 0.000000 0.045385 0.000000
# 4 0.000000 0.000000 0.000000 0.223136 0.000000 0.039801
# 5 0.016288 -0.006714 0.045385 0.000000 0.088896 0.000000
# 6 0.000000 0.000000 0.000000 0.039801 0.000000 0.039210
#
#
# Mechanical properties :
#
#
# Convention : Reuss Voigt Hill
#
# Bulk Modulus (GPa) = 12.24038 37.08936 24.66487
# Shear Modulus (GPa) = 10.91388 26.72201 18.81795
#
# Velocity S-wave (km/s) = 2.24318 3.51002 2.94551
# Velocity P-wave (km/s) = 3.51462 5.79025 4.78955
#
# Compressibility (1/GPa) = 0.08169682
#
# Stress axis : x y z
#
# Youngs Moduli (GPa) = 58.63821 131.37103 17.85356
#
# Poissons Ratio (x) = 0.48707 -0.19524
# Poissons Ratio (y) = 0.21741 0.11994
# Poissons Ratio (z) = -0.64124 0.88255
#
# Static dielectric constant tensor:
#      x y z
#    x 1.806830 0.000000 -0.000270 
#    y 0.000000 1.827980 0.000000 
#    z -0.000270 0.000000 1.802260 
# 
# From -- ./inp_files/198511.got.cif
#   From: 2010.05.17/outbox.cif.g08.bks.cpg/sg12_100_cif.got.tgz:198511.got - 2010.06.03 13:09:07.
