data_PCOD9194099
_publ_section_title
;
Structure prediction by ZEFSAII (Michael W. Deem and Ramdas Pophale) SiO2 
 PCOD9194099
Probable space group: C 2/M
;
_chemical_formula_sum "Si O2"
_cell_formula_units_Z 64
_cell_length_a 17.212928
_cell_length_b 11.638106
_cell_length_c 20.683251
_cell_angle_alpha 90.000000
_cell_angle_beta 55.414391
_cell_angle_gamma 90.000000
_cell_volume 3411.166231
_symmetry_space_group_name_H-M "C 2/M"
_symmetry_group_IT_number 12
_symmetry_cell_setting 'monoclinic'
loop_
_space_group_symop_operation_xyz
x,y,z
-x,y,-z
-x,-y,-z
x,-y,z
1/2+x,1/2+y,z
1/2-x,1/2+y,-z
1/2-x,1/2-y,-z
1/2+x,1/2-y,z
loop_
_atom_site_type_symbol
_atom_site_label
_atom_site_fract_x
_atom_site_fract_y
_atom_site_fract_z
Si Si1 0.756911 0.368325 0.039894
Si Si2 0.047987 0.627090 0.818634
Si Si3 0.909043 0.864710 0.362188
Si Si4 0.774830 0.734250 0.327267
Si Si5 0.403003 0.361293 0.512451
Si Si6 0.734332 0.136055 0.212895
Si Si7 0.598613 0.770704 0.930144
Si Si8 0.912301 0.219631 0.798986
O O1 0.760101 0.500000 0.010307
O O2 0.849345 0.345810 0.039908
O O3 0.665270 0.360218 0.129909
O O4 0.750000 0.250000 0.000000
O O5 0.010072 0.500000 0.827201
O O6 0.147026 0.643701 0.734458
O O7 0.072004 0.651772 0.881353
O O8 0.973770 0.717441 0.825063
O O9 0.831595 0.810083 0.352070
O O10 0.900511 0.819860 0.439447
O O11 0.012068 0.840834 0.283245
O O12 0.894193 0.000000 0.370876
O O13 0.685349 0.679806 0.404237
O O14 0.743963 0.807138 0.279110
O O15 0.500000 0.323003 0.500000
O O16 0.403087 0.500000 0.511416
O O17 0.826925 0.176389 0.129483
O O18 0.646355 0.189430 0.215852
O O19 0.728459 0.000000 0.220132
O O20 0.500000 0.718815 0.000000
#
# Coordination Sequence:
#
# PCOD9194099 Si02
#       8
#     8   8   8   8   8   8   8   8
#     4  11  24  40  60  86 116 151 190 236 287 339
#     4  10  20  35  57  82 110 146 187 231 278 329
#     4  10  20  35  57  81 107 143 182 225 278 333
#     4  10  20  35  54  80 113 145 181 226 275 331
#     4  10  20  34  55  81 108 142 184 229 276 325
#     4  10  21  37  57  81 111 148 185 224 280 341
#     4  10  22  38  56  82 110 143 187 234 279 326
#     4  10  21  37  58  83 112 144 184 231 279 333
#
# _framework density 18.761911999999999
#
# number of rings (size 3 to 8) (size 9 to 14) (size 15 to 20)
#    0.000    1.875    0.000    3.750    0.000    4.750 
#    0.000    8.125    0.000    9.000    0.000    0.000 
#    0.000    0.000    0.000    0.000    0.000    0.000 
#
# Total GULP energy -178604.672622 kJ/mol
# GULP energy per Si atom -5581.396019 kJ/mol
# Density = 1.871921 g / cm^3
# Si number density = 18.761912 Si / 1000 Ang^3
#
#
#
# Elastic Constant Matrix: (Units=GPa)
#
#
# Indices 1 2 3 4 5 6 
#
# 1 114.8685 22.1477 44.1952 0.0000 1.2929 0.0000
# 2 22.1477 58.7214 3.4791 0.0000 20.3243 0.0000
# 3 44.1952 3.4791 82.5147 0.0000 -1.6519 0.0000
# 4 0.0000 0.0000 0.0000 6.8499 0.0000 5.7622
# 5 1.2929 20.3243 -1.6519 0.0000 32.0355 0.0000
# 6 0.0000 0.0000 0.0000 5.7622 0.0000 13.0239
#
#
#
# Elastic Compliance Matrix: (Units=1/GPa)
#
#
# Indices 1 2 3 4 5 6 
#
# 1 0.012017 -0.004982 -0.006179 0.000000 0.002357 0.000000
# 2 -0.004982 0.024006 0.001357 0.000000 -0.014959 0.000000
# 3 -0.006179 0.001357 0.015375 0.000000 0.000181 0.000000
# 4 0.000000 0.000000 0.000000 0.232528 0.000000 -0.102877
# 5 0.002357 -0.014959 0.000181 0.000000 0.040620 0.000000
# 6 0.000000 0.000000 0.000000 -0.102877 0.000000 0.122297
#
#
# Mechanical properties :
#
#
# Convention : Reuss Voigt Hill
#
# Bulk Modulus (GPa) = 31.45750 43.97207 37.71479
# Shear Modulus (GPa) = 10.48111 22.80072 16.64092
#
# Velocity S-wave (km/s) = 2.36612 3.48985 2.98140
# Velocity P-wave (km/s) = 4.92623 6.30290 5.65660
#
# Compressibility (1/GPa) = 0.03178892
#
# Stress axis : x y z
#
# Youngs Moduli (GPa) = 83.21477 41.65664 65.04049
#
# Poissons Ratio (x) = 0.20754 0.40189
# Poissons Ratio (y) = 0.41459 -0.08825
# Poissons Ratio (z) = 0.51420 -0.05652
#
# Static dielectric constant tensor:
#      x y z
#    x 1.627340 0.000000 0.011290 
#    y 0.000000 1.629360 0.000000 
#    z 0.011290 0.000000 1.658570 
# 
# From -- ./inp_files/315679.got.cif
#   From: 2010.05.17/outbox.cif.g08.bks.cpg/sg12_158_cif.got.tgz:315679.got - 2010.06.03 13:09:07.
