data_PCOD9194551
_publ_section_title
;
Structure prediction by ZEFSAII (Michael W. Deem and Ramdas Pophale) SiO2 
 PCOD9194551
Probable space group: C 2/M
;
_chemical_formula_sum "Si O2"
_cell_formula_units_Z 56
_cell_length_a 29.001343
_cell_length_b 8.948410
_cell_length_c 19.220747
_cell_angle_alpha 90.000000
_cell_angle_beta 35.341234
_cell_angle_gamma 90.000000
_cell_volume 2885.334612
_symmetry_space_group_name_H-M "C 2/M"
_symmetry_group_IT_number 12
_symmetry_cell_setting 'monoclinic'
loop_
_space_group_symop_operation_xyz
x,y,z
-x,y,-z
-x,-y,-z
x,-y,z
1/2+x,1/2+y,z
1/2-x,1/2+y,-z
1/2-x,1/2-y,-z
1/2+x,1/2-y,z
loop_
_atom_site_type_symbol
_atom_site_label
_atom_site_fract_x
_atom_site_fract_y
_atom_site_fract_z
Si Si1 0.366833 0.824499 0.418428
Si Si2 0.754800 0.322085 0.333885
Si Si3 0.044436 0.323008 0.234607
Si Si4 0.688435 0.678138 0.131327
Si Si5 0.256520 0.826006 0.794172
Si Si6 0.070899 0.826343 0.053584
Si Si7 0.419284 0.177728 0.194178
O O1 0.297205 0.725945 0.535841
O O2 0.449858 0.796746 0.356936
O O3 0.386645 0.796999 0.313122
O O4 0.346462 0.000000 0.450415
O O5 0.753139 0.500000 0.327667
O O6 0.720285 0.242585 0.308319
O O7 0.846849 0.277365 0.233696
O O8 0.059247 0.500000 0.222922
O O9 0.100822 0.232876 0.216857
O O10 0.066381 0.270078 0.129688
O O11 0.694811 0.500000 0.119611
O O12 0.709572 0.737375 0.181731
O O13 0.750000 0.750000 0.000000
O O14 0.278787 0.000000 0.771977
O O15 0.160439 0.815405 0.916243
O O16 0.002372 0.764184 0.087411
O O17 0.054399 0.000000 0.090313
O O18 0.433907 0.000000 0.168712
#
# Coordination Sequence:
#
# PCOD9194551 Si02
#       7
#     8   8   8   8   8   8   8
#     4   9  19  37  60  85 114 151 192 236 286 339
#     4  11  23  38  57  83 115 155 196 239 289 342
#     4  10  20  36  60  88 118 149 186 237 290 338
#     4  12  23  37  61  90 118 150 189 233 283 340
#     4  11  24  40  57  82 118 155 192 237 289 344
#     4  10  20  34  56  85 114 148 192 239 287 339
#     4   9  20  37  58  84 115 151 193 238 291 343
#
# _framework density 19.408494000000001
#
# number of rings (size 3 to 8) (size 9 to 14) (size 15 to 20)
#    0.000    1.714    1.429    4.286    0.000    6.286 
#    0.000    3.571    0.000    4.286    0.000    0.000 
#    0.000    0.000    0.000    0.000    0.000    0.000 
#
# Total GULP energy -156461.896806 kJ/mol
# GULP energy per Si atom -5587.924886 kJ/mol
# Density = 1.936432 g / cm^3
# Si number density = 19.408494 Si / 1000 Ang^3
#
#
#
# Elastic Constant Matrix: (Units=GPa)
#
#
# Indices 1 2 3 4 5 6 
#
# 1 110.0272 49.0425 3.5927 -0.0008 -2.3672 -0.0001
# 2 49.0425 90.1785 13.5727 -0.0067 -8.9727 0.0026
# 3 3.5927 13.5727 9.6562 -0.0052 -5.4728 0.0014
# 4 -0.0008 -0.0067 -0.0052 23.8671 0.0007 -7.4013
# 5 -2.3672 -8.9727 -5.4728 0.0007 19.0622 -0.0005
# 6 -0.0001 0.0026 0.0014 -7.4013 -0.0005 30.0513
#
#
#
# Elastic Compliance Matrix: (Units=1/GPa)
#
#
# Indices 1 2 3 4 5 6 
#
# 1 0.012276 -0.007602 0.005917 0.000000 -0.000355 0.000000
# 2 -0.007602 0.018793 -0.022821 0.000000 0.001350 -0.000001
# 3 0.005917 -0.022821 0.152595 0.000027 0.033803 0.000002
# 4 0.000000 0.000000 0.000027 0.045363 0.000006 0.011173
# 5 -0.000355 0.001350 0.033803 0.000006 0.062756 0.000001
# 6 0.000000 -0.000001 0.000002 0.011173 0.000001 0.036028
#
#
# Mechanical properties :
#
#
# Convention : Reuss Voigt Hill
#
# Bulk Modulus (GPa) = 7.42663 38.03084 22.72873
# Shear Modulus (GPa) = 11.85652 24.17305 18.01479
#
# Velocity S-wave (km/s) = 2.47431 3.53298 3.04993
# Velocity P-wave (km/s) = 3.46377 6.02329 4.91313
#
# Compressibility (1/GPa) = 0.13465062
#
# Stress axis : x y z
#
# Youngs Moduli (GPa) = 81.45729 53.21234 6.55328
#
# Poissons Ratio (x) = 0.40453 -0.03877
# Poissons Ratio (y) = 0.61926 0.14956
# Poissons Ratio (z) = -0.48197 1.21438
#
# Static dielectric constant tensor:
#      x y z
#    x 1.685180 0.000000 -0.005890 
#    y 0.000000 1.651460 0.000000 
#    z -0.005890 0.000000 1.672850 
# 
# From -- ./inp_files/292391.got.cif
#   From: 2010.05.17/outbox.cif.g08.bks.cpg/sg12_147_cif.got.tgz:292391.got - 2010.06.03 13:09:07.
