data_PCOD9194774
_publ_section_title
;
Structure prediction by ZEFSAII (Michael W. Deem and Ramdas Pophale) SiO2 
 PCOD9194774
Probable space group: C 2/M
;
_chemical_formula_sum "Si O2"
_cell_formula_units_Z 42
_cell_length_a 13.748161
_cell_length_b 7.378053
_cell_length_c 27.048284
_cell_angle_alpha 90.000000
_cell_angle_beta 32.662368
_cell_angle_gamma 90.000000
_cell_volume 1480.704701
_symmetry_space_group_name_H-M "C 2/M"
_symmetry_group_IT_number 12
_symmetry_cell_setting 'monoclinic'
loop_
_space_group_symop_operation_xyz
x,y,z
-x,y,-z
-x,-y,-z
x,-y,z
1/2+x,1/2+y,z
1/2-x,1/2+y,-z
1/2-x,1/2-y,-z
1/2+x,1/2-y,z
loop_
_atom_site_type_symbol
_atom_site_label
_atom_site_fract_x
_atom_site_fract_y
_atom_site_fract_z
Si Si1 0.873776 0.294451 0.263105
Si Si2 0.000000 0.500000 0.500000
Si Si3 0.005965 0.788480 0.313495
Si Si4 0.964773 0.219477 0.438957
Si Si5 0.257746 0.220614 0.927907
Si Si6 0.890330 0.216517 0.118493
O O1 0.849348 0.500000 0.256403
O O2 0.946371 0.302890 0.288414
O O3 0.036777 0.210067 0.161523
O O4 0.676083 0.213904 0.350355
O O5 0.106412 0.340148 0.486414
O O6 0.916899 0.728171 0.403122
O O7 0.224454 0.767941 0.224265
O O8 0.977560 0.000000 0.319174
O O9 0.955035 0.000000 0.449651
O O10 0.181708 0.266696 0.905598
O O11 0.266571 0.000000 0.926095
O O12 0.097174 0.285366 0.032763
O O13 0.901713 0.000000 0.114643
#
# Coordination Sequence:
#
# PCOD9194774 Si02
#       6
#     8   2   8   8   8   8
#     4   9  18  36  62  84 117 160 203 238 288 351
#     4  12  26  44  76  86 120 146 198 240 312 366
#     4  10  20  34  57  87 123 155 197 243 293 347
#     4  10  24  44  66  91 121 153 191 243 306 361
#     4   7  11  23  46  77 109 155 201 240 275 327
#     4   8  13  24  46  76 113 156 204 236 277 333
#
# _framework density 28.364871000000001
#
# number of rings (size 3 to 8) (size 9 to 14) (size 15 to 20)
#    0.000    3.048    0.000    3.143    4.000    0.000 
#    0.000    9.524    0.000    0.000    0.000    0.000 
#    0.000    0.000    0.000    0.000    0.000    0.000 
#
# Total GULP energy -117287.778442 kJ/mol
# GULP energy per Si atom -5585.132307 kJ/mol
# Density = 2.830031 g / cm^3
# Si number density = 28.364871 Si / 1000 Ang^3
#
#
#
# Elastic Constant Matrix: (Units=GPa)
#
#
# Indices 1 2 3 4 5 6 
#
# 1 115.0419 15.3712 7.7692 0.0003 6.0311 0.0003
# 2 15.3712 140.6516 4.6369 0.0008 8.2392 0.0015
# 3 7.7692 4.6369 144.3823 0.0000 11.9876 0.0001
# 4 0.0003 0.0008 0.0000 17.9302 0.0000 5.2423
# 5 6.0311 8.2392 11.9876 0.0000 68.9386 0.0002
# 6 0.0003 0.0015 0.0001 5.2423 0.0002 26.8958
#
#
#
# Elastic Compliance Matrix: (Units=1/GPa)
#
#
# Indices 1 2 3 4 5 6 
#
# 1 0.008874 -0.000922 -0.000398 0.000000 -0.000597 0.000000
# 2 -0.000922 0.007259 -0.000120 0.000000 -0.000766 0.000000
# 3 -0.000398 -0.000120 0.007049 0.000000 -0.001177 0.000000
# 4 0.000000 0.000000 0.000000 0.059142 0.000000 -0.011527
# 5 -0.000597 -0.000766 -0.001177 0.000000 0.014854 0.000000
# 6 0.000000 0.000000 0.000000 -0.011527 0.000000 0.039427
#
#
# Mechanical properties :
#
#
# Convention : Reuss Voigt Hill
#
# Bulk Modulus (GPa) = 49.25557 50.62558 49.94058
# Shear Modulus (GPa) = 34.18736 47.57284 40.88010
#
# Velocity S-wave (km/s) = 3.47547 4.09977 3.80046
# Velocity P-wave (km/s) = 5.78860 6.34804 6.07476
#
# Compressibility (1/GPa) = 0.02030227
#
# Stress axis : x y z
#
# Youngs Moduli (GPa) = 112.69095 137.75382 141.86348
#
# Poissons Ratio (x) = 0.12697 0.05651
# Poissons Ratio (y) = 0.10387 0.01701
# Poissons Ratio (z) = 0.04489 0.01652
#
# Static dielectric constant tensor:
#      x y z
#    x 2.331430 0.000000 -0.037750 
#    y 0.000000 2.052130 0.000000 
#    z -0.037750 0.000000 2.424170 
# 
# From -- ./inp_files/267317.got.cif
#   From: 2010.05.17/outbox.cif.g08.bks.cpg/sg12_134_cif.got.tgz:267317.got - 2010.06.03 13:09:07.
