data_PCOD9194095
_publ_section_title
;
Structure prediction by ZEFSAII (Michael W. Deem and Ramdas Pophale) SiO2 
 PCOD9194095
Probable space group: C 2/M
;
_chemical_formula_sum "Si O2"
_cell_formula_units_Z 64
_cell_length_a 18.586843
_cell_length_b 8.844976
_cell_length_c 28.261238
_cell_angle_alpha 90.000000
_cell_angle_beta 48.177331
_cell_angle_gamma 90.000000
_cell_volume 3462.369750
_symmetry_space_group_name_H-M "C 2/M"
_symmetry_group_IT_number 12
_symmetry_cell_setting 'monoclinic'
loop_
_space_group_symop_operation_xyz
x,y,z
-x,y,-z
-x,-y,-z
x,-y,z
1/2+x,1/2+y,z
1/2-x,1/2+y,-z
1/2-x,1/2-y,-z
1/2+x,1/2-y,z
loop_
_atom_site_type_symbol
_atom_site_label
_atom_site_fract_x
_atom_site_fract_y
_atom_site_fract_z
Si Si1 0.036662 0.318574 0.627754
Si Si2 0.417451 0.318839 0.246816
Si Si3 0.095762 0.819389 0.237435
Si Si4 0.917680 0.682356 0.499166
Si Si5 0.464190 0.318080 0.119154
Si Si6 0.703205 0.319083 0.882997
Si Si7 0.331024 0.819485 0.998741
Si Si8 0.284967 0.179560 0.381285
O O1 0.020475 0.500000 0.636460
O O2 0.052321 0.271161 0.566911
O O3 0.134261 0.285861 0.614296
O O4 0.950654 0.236370 0.693074
O O5 0.405687 0.500000 0.254837
O O6 0.515913 0.280612 0.232122
O O7 0.427664 0.276367 0.187609
O O8 0.329308 0.242843 0.313170
O O9 0.195842 0.738472 0.182328
O O10 0.108317 0.000000 0.231888
O O11 0.910626 0.500000 0.502250
O O12 0.815513 0.747895 0.559766
O O13 0.000000 0.727645 0.500000
O O14 0.480624 0.500000 0.111586
O O15 0.383636 0.283729 0.115148
O O16 0.564036 0.236118 0.064029
O O17 0.705958 0.500000 0.888158
O O18 0.685901 0.240551 0.940837
O O19 0.324817 0.000000 0.000407
O O20 0.250000 0.750000 0.000000
O O21 0.274923 0.000000 0.382620
#
# Coordination Sequence:
#
# PCOD9194095 Si02
#       8
#     8   8   8   8   8   8   8   8
#     4   9  19  36  56  78 106 142 184 229 279 334
#     4   9  19  37  59  81 108 145 187 228 272 329
#     4  10  20  35  58  85 112 146 190 236 279 331
#     4  10  21  36  54  76 105 143 184 225 274 336
#     4  10  22  40  61  86 117 153 191 232 282 338
#     4  11  23  39  60  86 119 155 189 231 283 338
#     4  12  25  41  63  88 116 151 192 238 284 334
#     4  10  20  34  55  81 108 139 178 228 279 327
#
# _framework density 18.484449999999999
#
# number of rings (size 3 to 8) (size 9 to 14) (size 15 to 20)
#    0.000    1.875    0.000    3.750    0.000    6.750 
#    0.000    5.000    0.000    0.000    0.000    0.000 
#    0.000    0.000    0.000    0.000    0.000    0.000 
#
# Total GULP energy -178830.271006 kJ/mol
# GULP energy per Si atom -5588.445969 kJ/mol
# Density = 1.844238 g / cm^3
# Si number density = 18.484450 Si / 1000 Ang^3
#
#
#
# Elastic Constant Matrix: (Units=GPa)
#
#
# Indices 1 2 3 4 5 6 
#
# 1 123.8182 55.7888 90.5108 -0.0004 38.8092 -0.0004
# 2 55.7888 43.3143 42.5058 0.0022 31.1855 -0.0005
# 3 90.5108 42.5058 129.2018 -0.0014 70.4890 -0.0002
# 4 -0.0004 0.0022 -0.0014 -19.9210 0.0008 -12.5671
# 5 38.8092 31.1855 70.4890 0.0008 -26.4940 0.0001
# 6 -0.0004 -0.0005 -0.0002 -12.5671 0.0001 23.9201
#
#
#
# Elastic Compliance Matrix: (Units=1/GPa)
#
#
# Indices 1 2 3 4 5 6 
#
# 1 0.023815 -0.019413 -0.006879 -0.000002 -0.006266 -0.000001
# 2 -0.019413 0.048811 -0.007461 0.000005 0.009168 0.000003
# 3 -0.006879 -0.007461 0.010321 -0.000001 0.008601 -0.000001
# 4 -0.000002 0.000005 -0.000001 -0.037702 0.000000 -0.019808
# 5 -0.006266 0.009168 0.008601 0.000000 -0.013248 0.000000
# 6 -0.000001 0.000003 -0.000001 -0.019808 0.000000 0.031399
#
#
# Mechanical properties :
#
#
# Convention : Reuss Voigt Hill
#
# Bulk Modulus (GPa) = 64.75427 74.88277 69.81852
# Shear Modulus (GPa) = 36.75170 2.66959 19.71064
#
# Velocity S-wave (km/s) = 4.46382 1.20307 3.26902
# Velocity P-wave (km/s) = 7.85337 6.52143 7.21818
#
# Compressibility (1/GPa) = 0.01544300
#
# Stress axis : x y z
#
# Youngs Moduli (GPa) = 41.98993 20.48704 96.89294
#
# Poissons Ratio (x) = 0.39771 0.66648
# Poissons Ratio (y) = 0.81514 0.72291
# Poissons Ratio (z) = 0.28883 0.15285
#
# Static dielectric constant tensor:
#      x y z
#    x 1.620840 0.000000 0.011110 
#    y 0.000000 1.619210 0.000000 
#    z 0.011110 0.000000 1.600860 
# 
# From -- ./inp_files/378252.got.cif
#   From: 2010.05.17/outbox.cif.g08.bks.cpg/sg12_190_cif.got.tgz:378252.got - 2010.06.03 13:09:07.
