data_PCOD9194027
_publ_section_title
;
Structure prediction by ZEFSAII (Michael W. Deem and Ramdas Pophale) SiO2 
 PCOD9194027
Probable space group: C 2/M
;
_chemical_formula_sum "Si O2"
_cell_formula_units_Z 56
_cell_length_a 30.380739
_cell_length_b 7.424087
_cell_length_c 11.382465
_cell_angle_alpha 90.000000
_cell_angle_beta 68.096537
_cell_angle_gamma 90.000000
_cell_volume 2381.982107
_symmetry_space_group_name_H-M "C 2/M"
_symmetry_group_IT_number 12
_symmetry_cell_setting 'monoclinic'
loop_
_space_group_symop_operation_xyz
x,y,z
-x,y,-z
-x,-y,-z
x,-y,z
1/2+x,1/2+y,z
1/2-x,1/2+y,-z
1/2-x,1/2-y,-z
1/2+x,1/2-y,z
loop_
_atom_site_type_symbol
_atom_site_label
_atom_site_fract_x
_atom_site_fract_y
_atom_site_fract_z
Si Si1 0.378531 0.703896 0.829432
Si Si2 0.523586 0.280408 0.353881
Si Si3 0.868620 0.219418 0.289519
Si Si4 0.219264 0.703111 0.179413
Si Si5 0.793493 0.786080 0.543868
Si Si6 0.176680 0.221160 0.904934
Si Si7 0.477287 0.719532 0.148397
O O1 0.393792 0.500000 0.841116
O O2 0.421282 0.777733 0.710107
O O3 0.327934 0.699921 0.816044
O O4 0.365188 0.785616 0.968227
O O5 0.500000 0.217534 0.500000
O O6 0.519854 0.500000 0.362286
O O7 0.501807 0.226785 0.248108
O O8 0.842295 0.275834 0.434314
O O9 0.835439 0.275787 0.214283
O O10 0.922355 0.275999 0.214055
O O11 0.868971 0.000000 0.289829
O O12 0.216485 0.500000 0.137550
O O13 0.216692 0.698349 0.322433
O O14 0.271556 0.779675 0.102750
O O15 0.750000 0.750000 0.500000
O O16 0.796775 0.000000 0.560120
O O17 0.177953 0.000000 0.906549
O O18 0.478791 0.500000 0.144739
O O19 0.500000 0.777204 0.000000
#
# Coordination Sequence:
#
# PCOD9194027 Si02
#       7
#     8   8   8   8   8   8   8
#     4  10  20  34  55  78 105 141 180 220 271 323
#     4   9  18  30  46  74 109 136 171 227 277 320
#     4   9  17  29  50  77 108 139 170 214 270 320
#     4  11  22  36  53  76 110 144 182 223 263 315
#     4  11  21  35  55  80 111 145 179 218 266 319
#     4   9  17  32  51  76 108 140 173 219 269 318
#     4   9  16  27  46  74 105 137 172 214 270 329
#
# _framework density 23.509834000000001
#
# number of rings (size 3 to 8) (size 9 to 14) (size 15 to 20)
#    0.000    2.286    1.429    2.143    2.000    3.429 
#    0.000    0.714    0.000    0.429    0.000    0.000 
#    0.000    4.000    0.000    0.000    0.000    0.000 
#
# Total GULP energy -156361.806455 kJ/mol
# GULP energy per Si atom -5584.350231 kJ/mol
# Density = 2.345632 g / cm^3
# Si number density = 23.509834 Si / 1000 Ang^3
#
#
#
# Elastic Constant Matrix: (Units=GPa)
#
#
# Indices 1 2 3 4 5 6 
#
# 1 102.2933 2.5531 60.3424 0.0000 -21.4061 0.0000
# 2 2.5531 82.8178 17.6451 0.0000 -1.5787 0.0000
# 3 60.3424 17.6451 203.6207 0.0000 -26.1284 0.0000
# 4 0.0000 0.0000 0.0000 3.2420 0.0000 2.4538
# 5 -21.4061 -1.5787 -26.1284 0.0000 49.5218 0.0000
# 6 0.0000 0.0000 0.0000 2.4538 0.0000 7.7899
#
#
#
# Elastic Compliance Matrix: (Units=1/GPa)
#
#
# Indices 1 2 3 4 5 6 
#
# 1 0.012454 0.000379 -0.003251 0.000000 0.003680 0.000000
# 2 0.000379 0.012315 -0.001189 0.000000 -0.000071 0.000000
# 3 -0.003251 -0.001189 0.006213 0.000000 0.001835 0.000000
# 4 0.000000 0.000000 0.000000 0.405015 0.000000 -0.127577
# 5 0.003680 -0.000071 0.001835 0.000000 0.022750 0.000000
# 6 0.000000 0.000000 0.000000 -0.127577 0.000000 0.168557
#
#
# Mechanical properties :
#
#
# Convention : Reuss Voigt Hill
#
# Bulk Modulus (GPa) = 43.74384 61.09032 52.41708
# Shear Modulus (GPa) = 7.77549 32.65682 20.21616
#
# Velocity S-wave (km/s) = 1.82058 3.73107 2.93559
# Velocity P-wave (km/s) = 4.80275 6.67852 5.81674
#
# Compressibility (1/GPa) = 0.02286036
#
# Stress axis : x y z
#
# Youngs Moduli (GPa) = 80.29239 81.20247 160.95070
#
# Poissons Ratio (x) = -0.03077 0.52333
# Poissons Ratio (y) = -0.03043 0.19130
# Poissons Ratio (z) = 0.26107 0.09651
#
# Static dielectric constant tensor:
#      x y z
#    x 1.863460 0.000000 -0.003840 
#    y 0.000000 1.994840 0.000000 
#    z -0.003840 0.000000 1.904000 
# 
# From -- ./inp_files/187273.got.cif
#   From: 2010.05.17/outbox.cif.g08.bks.cpg/sg12_94_cif.got.tgz:187273.got - 2010.06.03 13:09:07.
