data_PCOD9194453
_publ_section_title
;
Structure prediction by ZEFSAII (Michael W. Deem and Ramdas Pophale) SiO2 
 PCOD9194453
Probable space group: C 2/M
;
_chemical_formula_sum "Si O2"
_cell_formula_units_Z 56
_cell_length_a 31.985995
_cell_length_b 11.259095
_cell_length_c 8.699663
_cell_angle_alpha 90.000000
_cell_angle_beta 116.211133
_cell_angle_gamma 90.000000
_cell_volume 2810.876488
_symmetry_space_group_name_H-M "C 2/M"
_symmetry_group_IT_number 12
_symmetry_cell_setting 'monoclinic'
loop_
_space_group_symop_operation_xyz
x,y,z
-x,y,-z
-x,-y,-z
x,-y,z
1/2+x,1/2+y,z
1/2-x,1/2+y,-z
1/2-x,1/2-y,-z
1/2+x,1/2-y,z
loop_
_atom_site_type_symbol
_atom_site_label
_atom_site_fract_x
_atom_site_fract_y
_atom_site_fract_z
Si Si1 0.305414 0.362563 0.410745
Si Si2 0.579186 0.635276 0.959247
Si Si3 0.480874 0.366615 0.643660
Si Si4 0.638076 0.797235 0.271281
Si Si5 0.581678 0.130518 0.465377
Si Si6 0.358252 0.266940 0.211302
Si Si7 0.706479 0.865012 0.120670
O O1 0.301095 0.500000 0.444102
O O2 0.326101 0.291106 0.586215
O O3 0.340530 0.344757 0.324815
O O4 0.254826 0.320183 0.271109
O O5 0.588019 0.500000 0.021362
O O6 0.525053 0.646628 0.828009
O O7 0.608641 0.663449 0.852621
O O8 0.597970 0.723901 0.118296
O O9 0.500000 0.368266 0.500000
O O10 0.459875 0.500000 0.636716
O O11 0.449587 0.249029 0.604828
O O12 0.614789 0.870218 0.370163
O O13 0.667417 0.864972 0.190323
O O14 0.612678 0.158991 0.666030
O O15 0.558833 0.000000 0.442114
O O16 0.314374 0.216936 0.046160
O O17 0.714197 0.000000 0.078106
#
# Coordination Sequence:
#
# PCOD9194453 Si02
#       7
#     8   8   8   8   8   8   8
#     4  10  20  34  56  83 111 146 189 236 286 334
#     4  10  20  37  59  84 114 148 189 236 291 345
#     4  10  21  39  62  88 115 148 187 238 292 340
#     4  10  22  37  55  81 115 152 189 231 281 341
#     4  11  23  39  59  86 118 155 193 235 285 342
#     4  10  20  35  56  84 112 147 189 240 283 338
#     4  10  20  36  55  78 111 150 190 234 282 336
#
# _framework density 19.922609999999999
#
# number of rings (size 3 to 8) (size 9 to 14) (size 15 to 20)
#    0.000    1.857    1.429    2.571    0.000    3.714 
#    0.000    3.571    0.000   13.714    0.000    0.000 
#    0.000    0.000    0.000    0.000    0.000    0.000 
#
# Total GULP energy -156297.187957 kJ/mol
# GULP energy per Si atom -5582.042427 kJ/mol
# Density = 1.987727 g / cm^3
# Si number density = 19.922610 Si / 1000 Ang^3
#
#
#
# Elastic Constant Matrix: (Units=GPa)
#
#
# Indices 1 2 3 4 5 6 
#
# 1 28.7660 21.8640 3.4168 0.0000 6.4220 0.0000
# 2 21.8640 106.5994 31.9195 0.0000 21.4560 0.0000
# 3 3.4168 31.9195 85.0008 0.0000 19.6955 0.0000
# 4 0.0000 0.0000 0.0000 -1.2339 0.0000 8.8884
# 5 6.4220 21.4560 19.6955 0.0000 31.6125 0.0000
# 6 0.0000 0.0000 0.0000 8.8884 0.0000 12.5527
#
#
#
# Elastic Compliance Matrix: (Units=1/GPa)
#
#
# Indices 1 2 3 4 5 6 
#
# 1 0.041864 -0.008466 0.002496 0.000000 -0.004314 0.000000
# 2 -0.008466 0.013166 -0.003426 0.000000 -0.005082 0.000000
# 3 0.002496 -0.003426 0.014644 0.000000 -0.007305 0.000000
# 4 0.000000 0.000000 0.000000 -0.132844 0.000000 0.094064
# 5 -0.004314 -0.005082 -0.007305 0.000000 0.040509 0.000000
# 6 0.000000 0.000000 0.000000 0.094064 0.000000 0.013059
#
#
# Mechanical properties :
#
#
# Convention : Reuss Voigt Hill
#
# Bulk Modulus (GPa) = 19.65358 37.19631 28.42494
# Shear Modulus (GPa) = 191.19597 19.46398 105.32998
#
# Velocity S-wave (km/s) = 9.80702 3.12906 7.27903
# Velocity P-wave (km/s) = 11.75259 5.63610 9.21653
#
# Compressibility (1/GPa) = 0.05088132
#
# Stress axis : x y z
#
# Youngs Moduli (GPa) = 23.88670 75.95307 68.28955
#
# Poissons Ratio (x) = 0.64299 -0.17043
# Poissons Ratio (y) = 0.20222 0.23398
# Poissons Ratio (z) = -0.05961 0.26024
#
# Static dielectric constant tensor:
#      x y z
#    x 1.706950 0.000000 0.010210 
#    y 0.000000 1.696300 0.000000 
#    z 0.010210 0.000000 1.683660 
# 
# From -- ./inp_files/110540.got.cif
#   From: 2010.05.17/outbox.cif.g08.bks.cpg/sg12_56_cif.got.tgz:110540.got - 2010.06.03 13:09:07.
