data_PCOD9194147
_publ_section_title
;
Structure prediction by ZEFSAII (Michael W. Deem and Ramdas Pophale) SiO2 
 PCOD9194147
Probable space group: C 2/M
;
_chemical_formula_sum "Si O2"
_cell_formula_units_Z 42
_cell_length_a 19.875596
_cell_length_b 12.945935
_cell_length_c 8.273447
_cell_angle_alpha 90.000000
_cell_angle_beta 122.189356
_cell_angle_gamma 90.000000
_cell_volume 1801.608333
_symmetry_space_group_name_H-M "C 2/M"
_symmetry_group_IT_number 12
_symmetry_cell_setting 'monoclinic'
loop_
_space_group_symop_operation_xyz
x,y,z
-x,y,-z
-x,-y,-z
x,-y,z
1/2+x,1/2+y,z
1/2-x,1/2+y,-z
1/2-x,1/2-y,-z
1/2+x,1/2-y,z
loop_
_atom_site_type_symbol
_atom_site_label
_atom_site_fract_x
_atom_site_fract_y
_atom_site_fract_z
Si Si1 0.000000 0.000000 0.500000
Si Si2 0.381934 0.787304 0.627844
Si Si3 0.956898 0.804012 0.209395
Si Si4 0.297823 0.383623 0.867430
Si Si5 0.734798 0.615318 0.560315
Si Si6 0.620648 0.118104 0.702594
O O1 0.977772 0.906843 0.338518
O O2 0.463409 0.733385 0.779265
O O3 0.330785 0.697261 0.469514
O O4 0.322981 0.837360 0.684675
O O5 0.394960 0.874579 0.509775
O O6 0.932003 0.705983 0.285983
O O7 0.877910 0.824287 0.005871
O O8 0.312915 0.500000 0.942010
O O9 0.281294 0.387745 0.653807
O O10 0.214450 0.354572 0.843898
O O11 0.726428 0.500000 0.616157
O O12 0.607544 0.000000 0.740230
#
# Coordination Sequence:
#
# PCOD9194147 Si02
#       6
#     2   8   8   8   8   8
#     4  12  24  36  50  94 124 144 184 238 300 330
#     4  10  20  34  55  82 110 142 186 235 281 329
#     4  12  22  36  57  85 121 150 185 239 286 341
#     4   9  19  36  57  81 116 150 191 232 281 338
#     4   9  20  37  57  81 108 150 193 235 280 338
#     4  10  21  38  59  85 111 153 194 231 279 341
#
# _framework density 23.312503
#
# number of rings (size 3 to 8) (size 9 to 14) (size 15 to 20)
#    0.000    1.905    2.857    2.286    1.333    3.048 
#    0.000    1.905    0.000    5.714    0.000   22.667 
#    0.000    0.000    0.000    0.000    0.000    0.000 
#
# Total GULP energy -116967.637675 kJ/mol
# GULP energy per Si atom -5569.887508 kJ/mol
# Density = 2.325944 g / cm^3
# Si number density = 23.312503 Si / 1000 Ang^3
#
#
#
# Elastic Constant Matrix: (Units=GPa)
#
#
# Indices 1 2 3 4 5 6 
#
# 1 72.6756 40.6397 30.8079 0.0000 30.8214 0.0000
# 2 40.6397 176.6197 30.6624 0.0000 17.3164 0.0000
# 3 30.8079 30.6624 91.3318 0.0000 32.1278 0.0000
# 4 0.0000 0.0000 0.0000 31.6160 0.0000 6.3523
# 5 30.8214 17.3164 32.1278 0.0000 30.9737 0.0000
# 6 0.0000 0.0000 0.0000 6.3523 0.0000 8.7337
#
#
#
# Elastic Compliance Matrix: (Units=1/GPa)
#
#
# Indices 1 2 3 4 5 6 
#
# 1 0.025926 -0.003737 0.001338 0.000000 -0.025096 0.000000
# 2 -0.003737 0.006630 -0.001527 0.000000 0.001595 0.000000
# 3 0.001338 -0.001527 0.017600 0.000000 -0.018734 0.000000
# 4 0.000000 0.000000 0.000000 0.037043 0.000000 -0.026942
# 5 -0.025096 0.001595 -0.018734 0.000000 0.075798 0.000000
# 6 0.000000 0.000000 0.000000 -0.026942 0.000000 0.134095
#
#
# Mechanical properties :
#
#
# Convention : Reuss Voigt Hill
#
# Bulk Modulus (GPa) = 23.63828 60.53856 42.08842
# Shear Modulus (GPa) = 15.67171 30.16584 22.91877
#
# Velocity S-wave (km/s) = 2.59558 3.60109 3.13886
# Velocity P-wave (km/s) = 4.37544 6.58142 5.58836
#
# Compressibility (1/GPa) = 0.04230426
#
# Stress axis : x y z
#
# Youngs Moduli (GPa) = 38.57153 150.82054 56.81706
#
# Poissons Ratio (x) = 0.56364 -0.07600
# Poissons Ratio (y) = 0.14415 0.08674
# Poissons Ratio (z) = -0.05159 0.23024
#
# Static dielectric constant tensor:
#      x y z
#    x 1.929910 0.000000 0.010700 
#    y 0.000000 1.889970 0.000000 
#    z 0.010700 0.000000 1.931660 
# 
# From -- ./inp_files/163972.got.cif
#   From: 2010.05.17/outbox.cif.g08.bks.cpg/sg12_82_cif.got.tgz:163972.got - 2010.06.03 13:09:07.
