data_PCOD9194296
_publ_section_title
;
Structure prediction by ZEFSAII (Michael W. Deem and Ramdas Pophale) SiO2 
 PCOD9194296
Probable space group: C 2/M
;
_chemical_formula_sum "Si O2"
_cell_formula_units_Z 64
_cell_length_a 27.648325
_cell_length_b 21.699909
_cell_length_c 17.891891
_cell_angle_alpha 90.000000
_cell_angle_beta 18.173840
_cell_angle_gamma 90.000000
_cell_volume 3348.111847
_symmetry_space_group_name_H-M "C 2/M"
_symmetry_group_IT_number 12
_symmetry_cell_setting 'monoclinic'
loop_
_space_group_symop_operation_xyz
x,y,z
-x,y,-z
-x,-y,-z
x,-y,z
1/2+x,1/2+y,z
1/2-x,1/2+y,-z
1/2-x,1/2-y,-z
1/2+x,1/2-y,z
loop_
_atom_site_type_symbol
_atom_site_label
_atom_site_fract_x
_atom_site_fract_y
_atom_site_fract_z
Si Si1 0.680388 0.258600 0.330819
Si Si2 0.823405 0.790841 0.825403
Si Si3 0.823968 0.705850 0.273581
Si Si4 0.166946 0.429746 0.236948
Si Si5 0.314360 0.625768 0.150403
Si Si6 0.335031 0.663147 0.344110
Si Si7 0.716579 0.929947 0.987944
Si Si8 0.864230 0.569063 0.455771
O O1 0.503224 0.274632 0.574317
O O2 0.751741 0.269611 0.143494
O O3 0.743324 0.294446 0.310765
O O4 0.716866 0.188578 0.298896
O O5 0.692264 0.634474 0.155569
O O6 0.750000 0.750000 0.000000
O O7 0.722443 0.672603 0.486419
O O8 0.838116 0.773986 0.290833
O O9 0.000000 0.683636 0.000000
O O10 0.162051 0.500000 0.272035
O O11 0.299952 0.395529 0.086312
O O12 0.189424 0.431138 0.116492
O O13 0.000000 0.400114 0.500000
O O14 0.225150 0.578192 0.334454
O O15 0.491091 0.636713 0.913164
O O16 0.212353 0.618411 0.485671
O O17 0.547506 0.922390 0.198686
O O18 0.775319 0.000000 0.881161
O O19 0.837776 0.500000 0.466998
#
# Coordination Sequence:
#
# PCOD9194296 Si02
#       8
#     8   8   8   8   8   8   8   8
#     4  11  25  39  60  94 123 154 210 251 321 367
#     4  11  25  40  63  97 128 160 200 271 312 368
#     4  11  23  43  62  86 120 165 206 257 308 371
#     4  10  20  34  55  84 120 162 196 234 300 379
#     4  12  21  37  58  91 127 161 195 254 316 383
#     4  11  25  38  63  89 120 167 208 251 309 371
#     4  10  22  40  62  87 122 171 212 247 315 385
#     4  11  22  38  62  92 127 164 205 254 311 385
#
# _framework density 19.115252999999999
#
# number of rings (size 3 to 8) (size 9 to 14) (size 15 to 20)
#    0.000    1.125    3.750    2.250    7.000    1.500 
#    0.000    1.250    0.000    1.125    0.000    0.000 
#    0.000    0.000    0.000    0.000    0.000    0.000 
#
# Total GULP energy -178404.066059 kJ/mol
# GULP energy per Si atom -5575.127064 kJ/mol
# Density = 1.907175 g / cm^3
# Si number density = 19.115253 Si / 1000 Ang^3
#
#
#
# Elastic Constant Matrix: (Units=GPa)
#
#
# Indices 1 2 3 4 5 6 
#
# 1 104.1774 -1.0031 16.3188 -0.0050 -9.2432 0.0075
# 2 -1.0031 45.1683 5.1679 0.0319 -4.4918 -0.0194
# 3 16.3188 5.1679 44.8522 0.0365 -3.9369 -0.0364
# 4 -0.0050 0.0319 0.0365 15.2541 -0.0122 -5.1820
# 5 -9.2432 -4.4918 -3.9369 -0.0122 28.3905 0.0095
# 6 0.0075 -0.0194 -0.0364 -5.1820 0.0095 11.0465
#
#
#
# Elastic Compliance Matrix: (Units=1/GPa)
#
#
# Indices 1 2 3 4 5 6 
#
# 1 0.010449 0.000952 -0.003644 0.000007 0.003047 -0.000017
# 2 0.000952 0.022818 -0.002664 -0.000034 0.003551 0.000011
# 3 -0.003644 -0.002664 0.024080 -0.000031 0.001731 0.000061
# 4 0.000007 -0.000034 -0.000031 0.077984 0.000014 0.036583
# 5 0.003047 0.003551 0.001731 0.000014 0.037017 -0.000016
# 6 -0.000017 0.000011 0.000061 0.036583 -0.000016 0.107688
#
#
# Mechanical properties :
#
#
# Convention : Reuss Voigt Hill
#
# Bulk Modulus (GPa) = 21.44251 26.12947 23.78599
# Shear Modulus (GPa) = 16.32416 22.51916 19.42166
#
# Velocity S-wave (km/s) = 2.92547 3.43603 3.19098
# Velocity P-wave (km/s) = 4.75952 5.42594 5.10362
#
# Compressibility (1/GPa) = 0.04663633
#
# Stress axis : x y z
#
# Youngs Moduli (GPa) = 95.69941 43.82409 41.52772
#
# Poissons Ratio (x) = -0.04172 0.15133
# Poissons Ratio (y) = -0.09111 0.11062
# Poissons Ratio (z) = 0.34874 0.11674
#
# Static dielectric constant tensor:
#      x y z
#    x 1.673150 0.000000 0.016880 
#    y 0.000000 1.714110 0.000010 
#    z 0.016880 0.000010 1.669390 
# 
# From -- ./inp_files/294283.got.cif
#   From: 2010.05.17/outbox.cif.g08.bks.cpg/sg12_148_cif.got.tgz:294283.got - 2010.06.03 13:09:07.
