data_PCOD9194994
_publ_section_title
;
Structure prediction by ZEFSAII (Michael W. Deem and Ramdas Pophale) SiO2 
 PCOD9194994
Probable space group: C 2/M
;
_chemical_formula_sum "Si O2"
_cell_formula_units_Z 56
_cell_length_a 18.247065
_cell_length_b 16.011733
_cell_length_c 11.499456
_cell_angle_alpha 90.000000
_cell_angle_beta 56.799988
_cell_angle_gamma 90.000000
_cell_volume 2811.329469
_symmetry_space_group_name_H-M "C 2/M"
_symmetry_group_IT_number 12
_symmetry_cell_setting 'monoclinic'
loop_
_space_group_symop_operation_xyz
x,y,z
-x,y,-z
-x,-y,-z
x,-y,z
1/2+x,1/2+y,z
1/2-x,1/2+y,-z
1/2-x,1/2-y,-z
1/2+x,1/2-y,z
loop_
_atom_site_type_symbol
_atom_site_label
_atom_site_fract_x
_atom_site_fract_y
_atom_site_fract_z
Si Si1 0.171059 0.596299 0.791792
Si Si2 0.398506 0.344935 0.089566
Si Si3 0.130915 0.094589 0.289728
Si Si4 0.654102 0.752577 0.637651
Si Si5 0.508494 0.243543 0.370713
Si Si6 0.771857 0.910950 0.032189
Si Si7 0.881795 0.683985 0.936157
O O1 0.159420 0.500000 0.771784
O O2 0.275054 0.610724 0.729422
O O3 0.143370 0.659045 0.714280
O O4 0.119911 0.617042 0.956869
O O5 0.369144 0.312967 0.240687
O O6 0.324437 0.405453 0.105367
O O7 0.500000 0.372798 0.000000
O O8 0.390665 0.268533 0.003479
O O9 0.065708 0.173224 0.350047
O O10 0.101000 0.000000 0.350450
O O11 0.156669 0.089543 0.131819
O O12 0.750000 0.750000 0.500000
O O13 0.587009 0.734963 0.592818
O O14 0.500000 0.195946 0.500000
O O15 0.549360 0.192567 0.227593
O O16 0.706622 0.836292 0.058407
O O17 0.723534 0.000000 0.066172
#
# Coordination Sequence:
#
# PCOD9194994 Si02
#       7
#     8   8   8   8   8   8   8
#     4   9  20  39  68  94 120 158 205 261 306 352
#     4  11  20  37  63  89 119 154 207 257 303 357
#     4   9  18  36  60  93 122 147 196 256 308 363
#     4  11  24  40  61  91 125 163 204 252 310 373
#     4  12  24  37  59  89 121 165 208 251 309 370
#     4  10  20  34  59  89 121 154 191 246 310 365
#     4  10  20  36  61  90 117 157 209 253 290 361
#
# _framework density 19.919402000000002
#
# number of rings (size 3 to 8) (size 9 to 14) (size 15 to 20)
#    0.000    1.714    2.857    2.571    6.000    0.571 
#    0.000    4.286    0.000    2.143    0.000    0.000 
#    0.000    0.000    0.000    0.000    0.000    0.000 
#
# Total GULP energy -156001.614844 kJ/mol
# GULP energy per Si atom -5571.486244 kJ/mol
# Density = 1.987406 g / cm^3
# Si number density = 19.919402 Si / 1000 Ang^3
#
#
#
# Elastic Constant Matrix: (Units=GPa)
#
#
# Indices 1 2 3 4 5 6 
#
# 1 74.0525 16.3320 29.0151 0.0000 16.1886 0.0000
# 2 16.3320 49.5500 1.6227 0.0000 1.4595 0.0000
# 3 29.0151 1.6227 117.6926 0.0000 1.9934 0.0000
# 4 0.0000 0.0000 0.0000 7.6230 0.0000 2.9213
# 5 16.1886 1.4595 1.9934 0.0000 32.5882 0.0000
# 6 0.0000 0.0000 0.0000 2.9213 0.0000 4.7586
#
#
#
# Elastic Compliance Matrix: (Units=1/GPa)
#
#
# Indices 1 2 3 4 5 6 
#
# 1 0.018304 -0.005640 -0.004289 0.000000 -0.008578 0.000000
# 2 -0.005640 0.021954 0.001058 0.000000 0.001754 0.000000
# 3 -0.004289 0.001058 0.009514 0.000000 0.001501 0.000000
# 4 0.000000 0.000000 0.000000 0.171536 0.000000 -0.105303
# 5 -0.008578 0.001754 0.001501 0.000000 0.034777 0.000000
# 6 0.000000 0.000000 0.000000 -0.105303 0.000000 0.274789
#
#
# Mechanical properties :
#
#
# Convention : Reuss Voigt Hill
#
# Bulk Modulus (GPa) = 31.22119 37.24831 34.23475
# Shear Modulus (GPa) = 8.93987 21.94898 15.44442
#
# Velocity S-wave (km/s) = 2.12079 3.32307 2.78752
# Velocity P-wave (km/s) = 4.65884 5.78480 5.25208
#
# Compressibility (1/GPa) = 0.03202953
#
# Stress axis : x y z
#
# Youngs Moduli (GPa) = 54.63412 45.54928 105.10636
#
# Poissons Ratio (x) = 0.25689 0.45084
# Poissons Ratio (y) = 0.30813 -0.11120
# Poissons Ratio (z) = 0.23435 -0.04819
#
# Static dielectric constant tensor:
#      x y z
#    x 1.908730 0.000000 -0.365610 
#    y 0.000000 1.754360 0.000000 
#    z -0.365610 0.000000 2.339350 
# 
# From -- ./inp_files/157722.got.cif
#   From: 2010.05.17/outbox.cif.g08.bks.cpg/sg12_79_cif.got.tgz:157722.got - 2010.06.03 13:09:07.
