data_PCOD9194281
_publ_section_title
;
Structure prediction by ZEFSAII (Michael W. Deem and Ramdas Pophale) SiO2 
 PCOD9194281
Probable space group: C 2/M
;
_chemical_formula_sum "Si O2"
_cell_formula_units_Z 56
_cell_length_a 24.302883
_cell_length_b 11.738085
_cell_length_c 20.801924
_cell_angle_alpha 90.000000
_cell_angle_beta 30.329255
_cell_angle_gamma 90.000000
_cell_volume 2996.558475
_symmetry_space_group_name_H-M "C 2/M"
_symmetry_group_IT_number 12
_symmetry_cell_setting 'monoclinic'
loop_
_space_group_symop_operation_xyz
x,y,z
-x,y,-z
-x,-y,-z
x,-y,z
1/2+x,1/2+y,z
1/2-x,1/2+y,-z
1/2-x,1/2-y,-z
1/2+x,1/2-y,z
loop_
_atom_site_type_symbol
_atom_site_label
_atom_site_fract_x
_atom_site_fract_y
_atom_site_fract_z
Si Si1 0.525959 0.236399 0.643642
Si Si2 0.710754 0.631606 0.245642
Si Si3 0.915523 0.626286 0.644421
Si Si4 0.153261 0.873357 0.096002
Si Si5 0.354473 0.827071 0.980471
Si Si6 0.898585 0.368779 0.304889
Si Si7 0.717450 0.633280 0.387759
O O1 0.476108 0.135029 0.651927
O O2 0.426563 0.308325 0.774159
O O3 0.597042 0.198090 0.632855
O O4 0.604236 0.305801 0.517505
O O5 0.662237 0.500000 0.288160
O O6 0.643690 0.749234 0.300194
O O7 0.746428 0.642929 0.283608
O O8 0.806471 0.637675 0.096849
O O9 0.859120 0.500000 0.698390
O O10 0.000000 0.626558 0.500000
O O11 0.152870 0.806850 0.029189
O O12 0.112984 0.000000 0.128680
O O13 0.272794 0.873933 0.007622
O O14 0.478262 0.863392 0.846308
O O15 0.872257 0.500000 0.345012
O O16 0.813092 0.324784 0.338452
O O17 0.701772 0.500000 0.416762
#
# Coordination Sequence:
#
# PCOD9194281 Si02
#       7
#     8   8   8   8   8   8   8
#     4  11  20  36  59  85 115 151 192 240 296 353
#     4  11  22  38  60  87 118 156 197 241 294 348
#     4  11  23  38  57  89 125 157 192 237 299 359
#     4  10  20  34  55  84 117 152 191 242 298 350
#     4  10  21  35  54  84 115 154 192 239 288 348
#     4  10  21  37  56  81 115 152 195 244 288 341
#     4  10  22  37  57  84 113 151 197 244 291 339
#
# _framework density 18.688105
#
# number of rings (size 3 to 8) (size 9 to 14) (size 15 to 20)
#    0.000    1.571    2.857    2.571    0.000    2.000 
#    0.000    2.143    0.000    4.286    0.000    5.000 
#    0.000    0.000    0.000    0.000    0.000    0.000 
#
# Total GULP energy -155988.318474 kJ/mol
# GULP energy per Si atom -5571.011374 kJ/mol
# Density = 1.864557 g / cm^3
# Si number density = 18.688105 Si / 1000 Ang^3
#
#
#
# Elastic Constant Matrix: (Units=GPa)
#
#
# Indices 1 2 3 4 5 6 
#
# 1 70.7464 34.9971 13.9499 0.0000 5.7689 0.0000
# 2 34.9971 115.5758 22.7648 0.0000 9.7875 0.0001
# 3 13.9499 22.7648 55.6174 0.0000 9.8575 0.0000
# 4 0.0000 0.0000 0.0000 -6.8570 0.0000 -7.8668
# 5 5.7689 9.7875 9.8575 0.0000 28.5202 0.0000
# 6 0.0000 0.0001 0.0000 -7.8668 0.0000 -71.7124
#
#
#
# Elastic Compliance Matrix: (Units=1/GPa)
#
#
# Indices 1 2 3 4 5 6 
#
# 1 0.016931 -0.004607 -0.002167 0.000000 -0.001095 0.000000
# 2 -0.004607 0.010776 -0.002945 0.000000 -0.001748 0.000000
# 3 -0.002167 -0.002945 0.020743 0.000000 -0.005720 0.000000
# 4 0.000000 0.000000 0.000000 -0.166834 0.000000 0.018302
# 5 -0.001095 -0.001748 -0.005720 0.000000 0.037861 0.000000
# 6 0.000000 0.000000 0.000000 0.018302 0.000000 -0.015952
#
#
# Mechanical properties :
#
#
# Convention : Reuss Voigt Hill
#
# Bulk Modulus (GPa) = 34.46996 42.81814 38.64405
# Shear Modulus (GPa) = -74.21925 1.33868 -36.44029
#
# Velocity S-wave (km/s) = -6.30880 0.84728 -4.42058
# Velocity P-wave (km/s) = 5.88073 4.89069 2.30912
#
# Compressibility (1/GPa) = 0.02901077
#
# Stress axis : x y z
#
# Youngs Moduli (GPa) = 59.06457 92.80262 48.20958
#
# Poissons Ratio (x) = 0.42756 0.10446
# Poissons Ratio (y) = 0.27212 0.14198
# Poissons Ratio (z) = 0.12798 0.27332
#
# Static dielectric constant tensor:
#      x y z
#    x 1.653310 0.000000 -0.006450 
#    y 0.000000 1.710880 0.000000 
#    z -0.006450 0.000000 1.630610 
# 
# From -- ./inp_files/174814.got.cif
#   From: 2010.05.17/outbox.cif.g08.bks.cpg/sg12_88_cif.got.tgz:174814.got - 2010.06.03 13:09:07.
