data_PCOD9194728
_publ_section_title
;
Structure prediction by ZEFSAII (Michael W. Deem and Ramdas Pophale) SiO2 
 PCOD9194728
Probable space group: C 2/M
;
_chemical_formula_sum "Si O2"
_cell_formula_units_Z 48
_cell_length_a 30.231578
_cell_length_b 9.034527
_cell_length_c 16.813510
_cell_angle_alpha 90.000000
_cell_angle_beta 36.933787
_cell_angle_gamma 90.000000
_cell_volume 2759.439150
_symmetry_space_group_name_H-M "C 2/M"
_symmetry_group_IT_number 12
_symmetry_cell_setting 'monoclinic'
loop_
_space_group_symop_operation_xyz
x,y,z
-x,y,-z
-x,-y,-z
x,-y,z
1/2+x,1/2+y,z
1/2-x,1/2+y,-z
1/2-x,1/2-y,-z
1/2+x,1/2-y,z
loop_
_atom_site_type_symbol
_atom_site_label
_atom_site_fract_x
_atom_site_fract_y
_atom_site_fract_z
Si Si1 0.170922 0.175602 0.105715
Si Si2 0.552916 0.824284 0.164061
Si Si3 0.174950 0.177025 0.578217
Si Si4 0.584524 0.675495 0.394127
Si Si5 0.980043 0.822197 0.118916
Si Si6 0.604610 0.824923 0.528614
O O1 0.121857 0.247250 0.106800
O O2 0.128945 0.199366 0.249524
O O3 0.177408 0.000000 0.083288
O O4 0.250000 0.250000 0.000000
O O5 0.531977 0.756795 0.108691
O O6 0.480313 0.798114 0.322978
O O7 0.564351 0.000000 0.141823
O O8 0.250000 0.250000 0.500000
O O9 0.104444 0.213609 0.735694
O O10 0.153815 0.239512 0.522027
O O11 0.182158 0.000000 0.565685
O O12 0.500000 0.718792 0.500000
O O13 0.585590 0.500000 0.411607
O O14 0.614873 0.764751 0.425377
O O15 0.988482 0.000000 0.114873
O O16 0.000000 0.781267 0.000000
O O17 0.618367 0.000000 0.513769
#
# Coordination Sequence:
#
# PCOD9194728 Si02
#       6
#     8   8   8   8   8   8
#     4  11  23  39  58  81 114 150 184 228 279 330
#     4  10  20  35  57  84 113 146 185 228 276 330
#     4  10  20  36  58  82 113 146 181 228 282 333
#     4  10  20  36  59  84 110 143 186 230 274 326
#     4   9  19  37  60  83 107 142 187 230 274 327
#     4  10  20  34  57  86 113 144 186 230 275 329
#
# _framework density 17.394839999999999
#
# number of rings (size 3 to 8) (size 9 to 14) (size 15 to 20)
#    0.000    2.000    1.667    2.000    0.000    4.000 
#    3.000    0.000    0.000    0.000    0.000    0.000 
#    0.000    0.000    0.000    0.000    0.000    0.000 
#
# Total GULP energy -134006.137707 kJ/mol
# GULP energy per Si atom -5583.589071 kJ/mol
# Density = 1.735525 g / cm^3
# Si number density = 17.394840 Si / 1000 Ang^3
#
#
#
# Elastic Constant Matrix: (Units=GPa)
#
#
# Indices 1 2 3 4 5 6 
#
# 1 172.2291 90.2644 81.8638 -0.0001 -14.0098 0.0001
# 2 90.2644 78.0653 64.1452 -0.0013 -9.7724 0.0005
# 3 81.8638 64.1452 78.9403 -0.0029 -16.1044 0.0011
# 4 -0.0001 -0.0013 -0.0029 25.2126 0.0001 -4.3731
# 5 -14.0098 -9.7724 -16.1044 0.0001 32.6688 0.0001
# 6 0.0001 0.0005 0.0011 -4.3731 0.0001 37.7973
#
#
#
# Elastic Compliance Matrix: (Units=1/GPa)
#
#
# Indices 1 2 3 4 5 6 
#
# 1 0.015244 -0.013975 -0.004416 -0.000001 0.000180 0.000000
# 2 -0.013975 0.051923 -0.028632 -0.000001 -0.004576 0.000000
# 3 -0.004416 -0.028632 0.042671 0.000003 0.010576 0.000000
# 4 -0.000001 -0.000001 0.000003 0.040475 0.000001 0.004683
# 5 0.000180 -0.004576 0.010576 0.000001 0.034532 0.000000
# 6 0.000000 0.000000 0.000000 0.004683 0.000000 0.026999
#
#
# Mechanical properties :
#
#
# Convention : Reuss Voigt Hill
#
# Bulk Modulus (GPa) = 63.32655 89.08683 76.20669
# Shear Modulus (GPa) = 16.06919 25.33315 20.70117
#
# Velocity S-wave (km/s) = 3.04269 3.82037 3.45349
# Velocity P-wave (km/s) = 6.98773 8.41344 7.73351
#
# Compressibility (1/GPa) = 0.01579117
#
# Stress axis : x y z
#
# Youngs Moduli (GPa) = 65.59811 19.25937 23.43524
#
# Poissons Ratio (x) = 0.26916 0.10349
# Poissons Ratio (y) = 0.91676 0.67100
# Poissons Ratio (z) = 0.28969 0.55143
#
# Static dielectric constant tensor:
#      x y z
#    x 1.556910 0.000000 0.004250 
#    y 0.000000 1.576920 0.000000 
#    z 0.004250 0.000000 1.580800 
# 
# From -- ./inp_files/244694.got.cif
#   From: 2010.05.17/outbox.cif.g08.bks.cpg/sg12_123_cif.got.tgz:244694.got - 2010.06.03 13:09:07.
