data_PCOD9194758
_publ_section_title
;
Structure prediction by ZEFSAII (Michael W. Deem and Ramdas Pophale) SiO2 
 PCOD9194758
Probable space group: C 2/M
;
_chemical_formula_sum "Si O2"
_cell_formula_units_Z 56
_cell_length_a 27.407509
_cell_length_b 8.491120
_cell_length_c 12.207041
_cell_angle_alpha 90.000000
_cell_angle_beta 76.645057
_cell_angle_gamma 90.000000
_cell_volume 2764.005871
_symmetry_space_group_name_H-M "C 2/M"
_symmetry_group_IT_number 12
_symmetry_cell_setting 'monoclinic'
loop_
_space_group_symop_operation_xyz
x,y,z
-x,y,-z
-x,-y,-z
x,-y,z
1/2+x,1/2+y,z
1/2-x,1/2+y,-z
1/2-x,1/2-y,-z
1/2+x,1/2-y,z
loop_
_atom_site_type_symbol
_atom_site_label
_atom_site_fract_x
_atom_site_fract_y
_atom_site_fract_z
Si Si1 0.862538 0.811665 0.441487
Si Si2 0.755606 0.688555 0.120031
Si Si3 0.521964 0.310200 0.606507
Si Si4 0.442407 0.192060 0.022737
Si Si5 0.930126 0.310482 0.784516
Si Si6 0.850951 0.690211 0.212431
Si Si7 0.163639 0.311213 0.311489
O O1 0.840272 0.755886 0.338098
O O2 0.836632 0.745849 0.563532
O O3 0.920788 0.756828 0.412368
O O4 0.861900 0.000000 0.447269
O O5 0.754507 0.500000 0.118175
O O6 0.808018 0.736926 0.148813
O O7 0.710580 0.749897 0.218681
O O8 0.750000 0.750000 0.000000
O O9 0.500000 0.260622 0.500000
O O10 0.521243 0.500000 0.611123
O O11 0.484453 0.245452 0.717005
O O12 0.404883 0.244821 0.137620
O O13 0.443151 0.000000 0.026272
O O14 0.500000 0.245468 0.000000
O O15 0.421181 0.238016 0.914555
O O16 0.929685 0.500000 0.782378
O O17 0.887194 0.253805 0.723480
O O18 0.851710 0.500000 0.218100
O O19 0.163513 0.500000 0.309567
#
# Coordination Sequence:
#
# PCOD9194758 Si02
#       7
#     8   8   8   8   8   8   8
#     4  11  23  39  60  88 123 161 203 248 304 366
#     4  11  24  43  67  92 121 158 200 249 304 360
#     4  10  20  35  54  81 123 164 196 238 296 359
#     4   9  17  32  56  85 116 148 186 238 293 345
#     4  10  20  34  57  87 116 153 203 251 296 353
#     4  10  22  41  63  87 120 159 200 248 301 356
#     4  11  23  39  61  89 120 156 205 256 302 359
#
# _framework density 20.260449000000001
#
# number of rings (size 3 to 8) (size 9 to 14) (size 15 to 20)
#    0.000    1.714    1.429    3.000    0.000    7.143 
#    0.000    0.714    0.000    2.571    0.000    0.000 
#    0.000    0.000    0.000    0.000    0.000    0.000 
#
# Total GULP energy -156502.850745 kJ/mol
# GULP energy per Si atom -5589.387527 kJ/mol
# Density = 2.021434 g / cm^3
# Si number density = 20.260449 Si / 1000 Ang^3
#
#
#
# Elastic Constant Matrix: (Units=GPa)
#
#
# Indices 1 2 3 4 5 6 
#
# 1 103.4576 28.9876 66.4579 0.0000 0.5311 0.0000
# 2 28.9876 21.0455 28.3856 0.0000 2.8316 0.0000
# 3 66.4579 28.3856 177.7069 0.0000 1.2081 0.0000
# 4 0.0000 0.0000 0.0000 27.4713 0.0000 -7.4079
# 5 0.5311 2.8316 1.2081 0.0000 40.4295 0.0000
# 6 0.0000 0.0000 0.0000 -7.4079 0.0000 18.0314
#
#
#
# Elastic Compliance Matrix: (Units=1/GPa)
#
#
# Indices 1 2 3 4 5 6 
#
# 1 0.017254 -0.019395 -0.003363 0.000000 0.001232 0.000000
# 2 -0.019395 0.083005 -0.005969 0.000000 -0.005380 0.000000
# 3 -0.003363 -0.005969 0.007837 0.000000 0.000228 0.000000
# 4 0.000000 0.000000 0.000000 0.040937 0.000000 0.016818
# 5 0.001232 -0.005380 0.000228 0.000000 0.025088 0.000000
# 6 0.000000 0.000000 0.000000 0.016818 0.000000 0.062368
#
#
# Mechanical properties :
#
#
# Convention : Reuss Voigt Hill
#
# Bulk Modulus (GPa) = 19.74651 61.09691 40.42171
# Shear Modulus (GPa) = 16.08634 29.07837 22.58236
#
# Velocity S-wave (km/s) = 2.82082 3.79255 3.34219
# Velocity P-wave (km/s) = 4.51407 7.02845 5.90661
#
# Compressibility (1/GPa) = 0.05064186
#
# Stress axis : x y z
#
# Youngs Moduli (GPa) = 57.95767 12.04752 127.60446
#
# Poissons Ratio (x) = 0.23366 0.42912
# Poissons Ratio (y) = 1.12410 0.76163
# Poissons Ratio (z) = 0.19491 0.07191
#
# Static dielectric constant tensor:
#      x y z
#    x 1.720320 0.000000 0.010510 
#    y 0.000000 1.684610 0.000000 
#    z 0.010510 0.000000 1.692110 
# 
# From -- ./inp_files/180689.got.cif
#   From: 2010.05.17/outbox.cif.g08.bks.cpg/sg12_91_cif.got.tgz:180689.got - 2010.06.03 13:09:07.
