data_PCOD9194571
_publ_section_title
;
Structure prediction by ZEFSAII (Michael W. Deem and Ramdas Pophale) SiO2 
 PCOD9194571
Probable space group: C 2/M
;
_chemical_formula_sum "Si O2"
_cell_formula_units_Z 56
_cell_length_a 12.417763
_cell_length_b 12.889434
_cell_length_c 19.130587
_cell_angle_alpha 90.000000
_cell_angle_beta 50.515311
_cell_angle_gamma 90.000000
_cell_volume 2363.236622
_symmetry_space_group_name_H-M "C 2/M"
_symmetry_group_IT_number 12
_symmetry_cell_setting 'monoclinic'
loop_
_space_group_symop_operation_xyz
x,y,z
-x,y,-z
-x,-y,-z
x,-y,z
1/2+x,1/2+y,z
1/2-x,1/2+y,-z
1/2-x,1/2-y,-z
1/2+x,1/2-y,z
loop_
_atom_site_type_symbol
_atom_site_label
_atom_site_fract_x
_atom_site_fract_y
_atom_site_fract_z
Si Si1 0.439066 0.171310 0.365171
Si Si2 0.427895 0.226679 0.215045
Si Si3 0.831271 0.890581 0.080424
Si Si4 0.184767 0.379699 0.366367
Si Si5 0.124541 0.186999 0.493206
Si Si6 0.639696 0.164558 0.895250
Si Si7 0.145294 0.109883 0.082442
O O1 0.475596 0.179395 0.268819
O O2 0.557071 0.118223 0.363373
O O3 0.276418 0.134434 0.432758
O O4 0.426846 0.284670 0.407956
O O5 0.312169 0.314283 0.280853
O O6 0.380264 0.141644 0.177919
O O7 0.548841 0.291334 0.127975
O O8 0.807934 0.784111 0.128152
O O9 0.785997 0.000000 0.130928
O O10 0.775098 0.883953 0.024259
O O11 0.000000 0.894154 0.000000
O O12 0.214089 0.500000 0.373934
O O13 0.146823 0.300478 0.445794
O O14 0.000000 0.136459 0.500000
O O15 0.755327 0.108449 0.892412
O O16 0.500000 0.157204 0.000000
O O17 0.065828 0.000000 0.113646
#
# Coordination Sequence:
#
# PCOD9194571 Si02
#       7
#     8   8   8   8   8   8   8
#     4   9  18  33  53  81 110 142 177 217 269 324
#     4  11  21  36  56  78 110 148 188 229 273 331
#     4   9  17  32  55  82 103 131 182 237 281 323
#     4  10  20  34  56  86 113 140 178 230 279 322
#     4   8  16  32  56  81 109 141 177 213 262 330
#     4  11  22  37  58  79 111 147 194 235 284 337
#     4  11  22  37  57  79 107 145 187 237 288 334
#
# _framework density 23.696314999999998
#
# number of rings (size 3 to 8) (size 9 to 14) (size 15 to 20)
#    0.000    2.143    2.857    1.714    0.000    3.429 
#    0.000    0.714    0.000    0.429    0.000    5.000 
#    0.000    0.000    0.000    0.000    0.000    0.000 
#
# Total GULP energy -156180.746432 kJ/mol
# GULP energy per Si atom -5577.883801 kJ/mol
# Density = 2.364238 g / cm^3
# Si number density = 23.696315 Si / 1000 Ang^3
#
#
#
# Elastic Constant Matrix: (Units=GPa)
#
#
# Indices 1 2 3 4 5 6 
#
# 1 124.7341 7.5508 8.3548 0.0000 20.5996 0.0000
# 2 7.5508 65.2794 0.0766 0.0000 1.8607 0.0000
# 3 8.3548 0.0766 55.9349 0.0000 31.0624 0.0000
# 4 0.0000 0.0000 0.0000 1.5381 0.0000 3.6280
# 5 20.5996 1.8607 31.0624 0.0000 50.8070 0.0000
# 6 0.0000 0.0000 0.0000 3.6280 0.0000 5.9193
#
#
#
# Elastic Compliance Matrix: (Units=1/GPa)
#
#
# Indices 1 2 3 4 5 6 
#
# 1 0.008680 -0.000889 0.000970 0.000000 -0.004080 0.000000
# 2 -0.000889 0.015433 0.000341 0.000000 -0.000413 0.000000
# 3 0.000970 0.000341 0.027189 0.000000 -0.017029 0.000000
# 4 0.000000 0.000000 0.000000 -1.458751 0.000000 0.894088
# 5 -0.004080 -0.000413 -0.017029 0.000000 0.031763 0.000000
# 6 0.000000 0.000000 0.000000 0.894088 0.000000 -0.379060
#
#
# Mechanical properties :
#
#
# Convention : Reuss Voigt Hill
#
# Bulk Modulus (GPa) = 19.17638 30.87921 25.02779
# Shear Modulus (GPa) = -2.87652 26.98397 12.05372
#
# Velocity S-wave (km/s) = -1.10297 3.37818 2.25783
# Velocity P-wave (km/s) = 2.54717 5.31749 4.16916
#
# Compressibility (1/GPa) = 0.05214750
#
# Stress axis : x y z
#
# Youngs Moduli (GPa) = 115.21207 64.79643 36.77937
#
# Poissons Ratio (x) = 0.05759 -0.03569
# Poissons Ratio (y) = 0.10240 -0.01255
# Poissons Ratio (z) = -0.11181 -0.02211
#
# Static dielectric constant tensor:
#      x y z
#    x 1.994570 0.000000 -0.005280 
#    y 0.000000 1.866250 0.000000 
#    z -0.005280 0.000000 1.949160 
# 
# From -- ./inp_files/263212.got.cif
#   From: 2010.05.17/outbox.cif.g08.bks.cpg/sg12_132_cif.got.tgz:263212.got - 2010.06.03 13:09:07.
