data_PCOD9194815
_publ_section_title
;
Structure prediction by ZEFSAII (Michael W. Deem and Ramdas Pophale) SiO2 
 PCOD9194815
Probable space group: C 2/M
;
_chemical_formula_sum "Si O2"
_cell_formula_units_Z 64
_cell_length_a 27.233353
_cell_length_b 15.968105
_cell_length_c 9.067484
_cell_angle_alpha 90.000000
_cell_angle_beta 50.631156
_cell_angle_gamma 90.000000
_cell_volume 3048.350845
_symmetry_space_group_name_H-M "C 2/M"
_symmetry_group_IT_number 12
_symmetry_cell_setting 'monoclinic'
loop_
_space_group_symop_operation_xyz
x,y,z
-x,y,-z
-x,-y,-z
x,-y,z
1/2+x,1/2+y,z
1/2-x,1/2+y,-z
1/2-x,1/2-y,-z
1/2+x,1/2-y,z
loop_
_atom_site_type_symbol
_atom_site_label
_atom_site_fract_x
_atom_site_fract_y
_atom_site_fract_z
Si Si1 0.979806 0.743326 0.870364
Si Si2 0.145924 0.091007 0.967382
Si Si3 0.665055 0.261293 0.769683
Si Si4 0.809572 0.902435 0.802716
Si Si5 0.172331 0.402235 0.193176
Si Si6 0.543388 0.907697 0.274369
Si Si7 0.500705 0.408631 0.676718
Si Si8 0.694873 0.248118 0.383077
O O1 0.990814 0.656591 0.768008
O O2 0.016614 0.818904 0.716988
O O3 0.902173 0.746394 0.022499
O O4 0.000000 0.745590 0.000000
O O5 0.164647 0.130161 0.088468
O O6 0.070546 0.083891 0.122923
O O7 0.176403 0.000000 0.912336
O O8 0.168213 0.138109 0.780328
O O9 0.665273 0.232873 0.600888
O O10 0.729936 0.235389 0.727078
O O11 0.829261 0.834185 0.645274
O O12 0.829827 0.000000 0.741512
O O13 0.734241 0.902271 0.971675
O O14 0.164239 0.500000 0.261513
O O15 0.111507 0.380721 0.209540
O O16 0.183454 0.331862 0.298323
O O17 0.500000 0.913586 0.500000
O O18 0.550916 0.000000 0.192342
O O19 0.500000 0.401919 0.500000
O O20 0.531539 0.500000 0.652658
#
# Coordination Sequence:
#
# PCOD9194815 Si02
#       8
#     8   8   8   8   8   8   8   8
#     4  11  24  39  59  86 120 161 198 242 295 354
#     4   9  18  34  55  79 113 151 185 231 284 340
#     4  10  23  38  52  85 120 154 196 228 300 349
#     4  10  20  34  57  89 114 147 192 232 284 340
#     4  10  21  37  63  91 115 148 195 246 298 348
#     4  10  23  42  64  88 114 150 201 254 299 346
#     4   9  19  36  58  84 115 152 197 240 282 336
#     4  11  22  36  60  85 118 155 188 243 286 352
#
# _framework density 20.994956999999999
#
# number of rings (size 3 to 8) (size 9 to 14) (size 15 to 20)
#    0.000    2.000    1.250    1.500    5.250    2.000 
#    0.000    2.500    0.000    0.000    0.000    0.000 
#    0.000    0.000    0.000    0.000    0.000    0.000 
#
# Total GULP energy -178238.011173 kJ/mol
# GULP energy per Si atom -5569.937849 kJ/mol
# Density = 2.094717 g / cm^3
# Si number density = 20.994957 Si / 1000 Ang^3
#
#
#
# Elastic Constant Matrix: (Units=GPa)
#
#
# Indices 1 2 3 4 5 6 
#
# 1 42.6771 41.3799 2.4473 0.0000 5.9762 0.0000
# 2 41.3799 134.4828 48.3783 0.0000 43.5623 0.0000
# 3 2.4473 48.3783 50.6090 0.0000 6.5642 0.0000
# 4 0.0000 0.0000 0.0000 27.7254 0.0000 -5.9324
# 5 5.9762 43.5623 6.5642 0.0000 38.7388 0.0000
# 6 0.0000 0.0000 0.0000 -5.9324 0.0000 -33.2650
#
#
#
# Elastic Compliance Matrix: (Units=1/GPa)
#
#
# Indices 1 2 3 4 5 6 
#
# 1 0.050059 -0.032510 0.025476 0.000000 0.024518 0.000000
# 2 -0.032510 0.040515 -0.032615 0.000000 -0.035018 0.000000
# 3 0.025476 -0.032615 0.046479 0.000000 0.024870 0.000000
# 4 0.000000 0.000000 0.000000 0.034742 0.000000 -0.006196
# 5 0.024518 -0.035018 0.024870 0.000000 0.057195 0.000000
# 6 0.000000 0.000000 0.000000 -0.006196 0.000000 -0.028957
#
#
# Mechanical properties :
#
#
# Convention : Reuss Voigt Hill
#
# Bulk Modulus (GPa) = 17.31439 45.79774 31.55607
# Shear Modulus (GPa) = 16.74574 15.67738 16.21156
#
# Velocity S-wave (km/s) = 2.82726 2.73558 2.78180
# Velocity P-wave (km/s) = 4.35002 5.64260 5.03794
#
# Compressibility (1/GPa) = 0.05775542
#
# Stress axis : x y z
#
# Youngs Moduli (GPa) = 19.97645 24.68228 21.51501
#
# Poissons Ratio (x) = 0.80241 -0.54811
# Poissons Ratio (y) = 0.64942 0.70171
# Poissons Ratio (z) = -0.50892 0.80502
#
# Static dielectric constant tensor:
#      x y z
#    x 1.811700 0.000000 -0.017300 
#    y 0.000000 1.871570 0.000000 
#    z -0.017300 0.000000 1.769520 
# 
# From -- ./inp_files/111987.got.cif
#   From: 2010.05.17/outbox.cif.g08.bks.cpg/sg12_56_cif.got.tgz:111987.got - 2010.06.03 13:09:07.
