data_PCOD9194602
_publ_section_title
;
Structure prediction by ZEFSAII (Michael W. Deem and Ramdas Pophale) SiO2 
 PCOD9194602
Probable space group: C 2/M
;
_chemical_formula_sum "Si O2"
_cell_formula_units_Z 58
_cell_length_a 9.174495
_cell_length_b 24.838933
_cell_length_c 28.019444
_cell_angle_alpha 90.000000
_cell_angle_beta 149.154695
_cell_angle_gamma 90.000000
_cell_volume 3273.832742
_symmetry_space_group_name_H-M "C 2/M"
_symmetry_group_IT_number 12
_symmetry_cell_setting 'monoclinic'
loop_
_space_group_symop_operation_xyz
x,y,z
-x,y,-z
-x,-y,-z
x,-y,z
1/2+x,1/2+y,z
1/2-x,1/2+y,-z
1/2-x,1/2-y,-z
1/2+x,1/2-y,z
loop_
_atom_site_type_symbol
_atom_site_label
_atom_site_fract_x
_atom_site_fract_y
_atom_site_fract_z
Si Si1 0.500000 0.000000 0.000000
Si Si2 0.034014 0.252914 0.800741
Si Si3 0.610279 0.709737 0.922774
Si Si4 0.326187 0.588684 0.026692
Si Si5 0.075366 0.436130 0.852803
Si Si6 0.482246 0.323335 0.546420
Si Si7 0.864115 0.147097 0.307553
Si Si8 0.670432 0.794913 0.618081
O O1 0.315498 0.046904 0.976977
O O2 0.831420 0.301387 0.760335
O O3 0.846762 0.212362 0.716535
O O4 0.274062 0.280188 0.835808
O O5 0.171136 0.225205 0.885367
O O6 0.686660 0.648984 0.956962
O O7 0.750000 0.750000 0.000000
O O8 0.655461 0.575598 0.106087
O O9 0.163895 0.584240 0.930310
O O10 0.033081 0.500000 0.843367
O O11 0.796632 0.404697 0.757272
O O12 0.500000 0.350518 0.500000
O O13 0.605412 0.353760 0.626747
O O14 0.648108 0.265751 0.590368
O O15 0.152141 0.311594 0.463639
O O16 0.165265 0.163284 0.369201
#
# Coordination Sequence:
#
# PCOD9194602 Si02
#       8
#     2   8   8   8   8   8   8   8
#     4  12  24  42  60  92 112 162 224 278 306 334
#     4  11  22  36  53  87 127 160 202 232 301 370
#     4  12  25  37  54  89 130 170 196 249 309 376
#     4  11  24  41  64  84 121 165 215 259 305 359
#     4  11  22  44  64  83 111 163 214 259 301 368
#     4  10  20  34  58  87 122 155 191 236 299 365
#     4  11  21  36  60  86 118 154 198 247 298 367
#     4  10  20  34  56  86 121 160 196 240 282 368
#
# _framework density 17.716238000000001
#
# number of rings (size 3 to 8) (size 9 to 14) (size 15 to 20)
#    0.000    1.103    4.138    4.552    5.793    0.000 
#    0.000    0.000    0.000    2.069    0.000    0.000 
#    0.000    0.000    0.000    0.000    0.000    0.000 
#
# Total GULP energy -161719.842823 kJ/mol
# GULP energy per Si atom -5576.546304 kJ/mol
# Density = 1.767592 g / cm^3
# Si number density = 17.716238 Si / 1000 Ang^3
#
#
#
# Elastic Constant Matrix: (Units=GPa)
#
#
# Indices 1 2 3 4 5 6 
#
# 1 82.9146 41.3634 28.9315 -0.0009 -1.3144 -0.0017
# 2 41.3634 100.4353 38.6532 -0.0010 -12.8191 -0.0021
# 3 28.9315 38.6532 86.0750 -0.0055 -10.2257 -0.0048
# 4 -0.0009 -0.0010 -0.0055 6.2014 0.0022 4.3832
# 5 -1.3144 -12.8191 -10.2257 0.0022 36.7133 -0.0006
# 6 -0.0017 -0.0021 -0.0048 4.3832 -0.0006 20.0192
#
#
#
# Elastic Compliance Matrix: (Units=1/GPa)
#
#
# Indices 1 2 3 4 5 6 
#
# 1 0.015924 -0.005662 -0.003079 -0.000001 -0.002264 0.000000
# 2 -0.005662 0.014333 -0.004098 -0.000004 0.003660 0.000001
# 3 -0.003079 -0.004098 0.014800 0.000011 0.002581 0.000001
# 4 -0.000001 -0.000004 0.000011 0.190779 -0.000011 -0.041771
# 5 -0.002264 0.003660 0.002581 -0.000011 0.029154 0.000004
# 6 0.000000 0.000001 0.000001 -0.041771 0.000004 0.059098
#
#
# Mechanical properties :
#
#
# Convention : Reuss Voigt Hill
#
# Bulk Modulus (GPa) = 51.60523 54.14680 52.87601
# Shear Modulus (GPa) = 14.03609 23.28524 18.66067
#
# Velocity S-wave (km/s) = 2.81779 3.62932 3.24899
# Velocity P-wave (km/s) = 6.30703 6.94207 6.63215
#
# Compressibility (1/GPa) = 0.01937788
#
# Stress axis : x y z
#
# Youngs Moduli (GPa) = 62.79985 69.76854 67.56937
#
# Poissons Ratio (x) = 0.39504 0.20802
# Poissons Ratio (y) = 0.35559 0.27693
# Poissons Ratio (z) = 0.19333 0.28594
#
# Static dielectric constant tensor:
#      x y z
#    x 1.665420 0.000000 0.015460 
#    y 0.000000 1.567980 -0.000010 
#    z 0.015460 -0.000010 1.633470 
# 
# From -- ./inp_files/373311.got.cif
#   From: 2010.05.17/outbox.cif.g08.bks.cpg/sg12_187_cif.got.tgz:373311.got - 2010.06.03 13:09:07.
