data_PCOD9194310
_publ_section_title
;
Structure prediction by ZEFSAII (Michael W. Deem and Ramdas Pophale) SiO2 
 PCOD9194310
Probable space group: C 2/M
;
_chemical_formula_sum "Si O2"
_cell_formula_units_Z 56
_cell_length_a 27.092164
_cell_length_b 11.851734
_cell_length_c 27.681363
_cell_angle_alpha 90.000000
_cell_angle_beta 20.077116
_cell_angle_gamma 90.000000
_cell_volume 3051.176795
_symmetry_space_group_name_H-M "C 2/M"
_symmetry_group_IT_number 12
_symmetry_cell_setting 'monoclinic'
loop_
_space_group_symop_operation_xyz
x,y,z
-x,y,-z
-x,-y,-z
x,-y,z
1/2+x,1/2+y,z
1/2-x,1/2+y,-z
1/2-x,1/2-y,-z
1/2+x,1/2-y,z
loop_
_atom_site_type_symbol
_atom_site_label
_atom_site_fract_x
_atom_site_fract_y
_atom_site_fract_z
Si Si1 0.200985 0.374593 0.525739
Si Si2 0.586826 0.231545 0.207719
Si Si3 0.899907 0.864278 0.903822
Si Si4 0.874974 0.787540 0.579043
Si Si5 0.686567 0.628070 0.686914
Si Si6 0.337928 0.133277 0.143936
Si Si7 0.409528 0.631221 0.698505
O O1 0.251826 0.500000 0.497726
O O2 0.250000 0.250000 0.500000
O O3 0.241212 0.373578 0.432402
O O4 0.030328 0.366304 0.689557
O O5 0.572265 0.314302 0.175098
O O6 0.558294 0.298340 0.283342
O O7 0.746270 0.181475 0.061158
O O8 0.026955 0.825509 0.822934
O O9 0.903444 0.000000 0.898569
O O10 0.784719 0.695908 0.633070
O O11 0.759192 0.851133 0.718944
O O12 0.000000 0.742892 0.500000
O O13 0.963065 0.858334 0.458101
O O14 0.672437 0.500000 0.717167
O O15 0.236306 0.175502 0.193648
O O16 0.352951 0.000000 0.121356
O O17 0.500000 0.180644 0.000000
O O18 0.390817 0.500000 0.728193
#
# Coordination Sequence:
#
# PCOD9194310 Si02
#       7
#     8   8   8   8   8   8   8
#     4  11  22  39  61  88 119 154 199 246 296 351
#     4  11  21  36  59  84 116 154 196 242 290 353
#     4  10  22  38  56  80 116 157 193 241 299 350
#     4  10  20  36  58  83 113 151 189 240 295 355
#     4  10  21  38  58  81 112 148 192 241 292 348
#     4   9  19  35  55  81 114 150 188 241 297 347
#     4  10  20  34  55  85 115 150 196 243 297 355
#
# _framework density 18.353574999999999
#
# number of rings (size 3 to 8) (size 9 to 14) (size 15 to 20)
#    0.000    1.857    2.857    1.286    2.000    2.571 
#    0.000    0.000    0.000    0.429    0.000    0.000 
#    0.000    0.000    0.000    0.000    0.000    0.000 
#
# Total GULP energy -155988.466558 kJ/mol
# GULP energy per Si atom -5571.016663 kJ/mol
# Density = 1.831180 g / cm^3
# Si number density = 18.353575 Si / 1000 Ang^3
#
#
#
# Elastic Constant Matrix: (Units=GPa)
#
#
# Indices 1 2 3 4 5 6 
#
# 1 65.9796 34.4686 21.0341 -0.0036 -13.8417 0.0010
# 2 34.4686 75.6929 12.0003 -0.0047 -13.0762 0.0019
# 3 21.0341 12.0003 91.7234 -0.0070 -18.0941 0.0028
# 4 -0.0036 -0.0047 -0.0070 22.4557 0.0012 -5.4017
# 5 -13.8417 -13.0762 -18.0941 0.0012 30.2320 -0.0003
# 6 0.0010 0.0019 0.0028 -5.4017 -0.0003 24.6025
#
#
#
# Elastic Compliance Matrix: (Units=1/GPa)
#
#
# Indices 1 2 3 4 5 6 
#
# 1 0.021485 -0.008562 -0.002944 0.000001 0.004371 0.000000
# 2 -0.008562 0.017734 0.000434 0.000002 0.004010 -0.000001
# 3 -0.002944 0.000434 0.012804 0.000003 0.006503 -0.000001
# 4 0.000001 0.000002 0.000003 0.047015 0.000001 0.010323
# 5 0.004371 0.004010 0.006503 0.000001 0.040705 0.000000
# 6 0.000000 -0.000001 -0.000001 0.010323 0.000000 0.042913
#
#
# Mechanical properties :
#
#
# Convention : Reuss Voigt Hill
#
# Bulk Modulus (GPa) = 33.46860 40.93354 37.20107
# Shear Modulus (GPa) = 23.28195 26.51757 24.89976
#
# Velocity S-wave (km/s) = 3.56550 3.80520 3.68730
# Velocity P-wave (km/s) = 5.93510 6.45424 6.20011
#
# Compressibility (1/GPa) = 0.02987875
#
# Stress axis : x y z
#
# Youngs Moduli (GPa) = 46.54495 56.38899 78.10347
#
# Poissons Ratio (x) = 0.48278 0.22997
# Poissons Ratio (y) = 0.39850 -0.03392
# Poissons Ratio (z) = 0.13705 -0.02449
#
# Static dielectric constant tensor:
#      x y z
#    x 1.634010 0.000000 -0.035260 
#    y 0.000000 1.626240 0.000000 
#    z -0.035260 0.000000 1.662760 
# 
# From -- ./inp_files/103157.got.cif
#   From: 2010.05.17/outbox.cif.g08.bks.cpg/sg12_52_cif.got.tgz:103157.got - 2010.06.03 13:09:07.
