data_PCOD9194596
_publ_section_title
;
Structure prediction by ZEFSAII (Michael W. Deem and Ramdas Pophale) SiO2 
 PCOD9194596
Probable space group: C 2/M
;
_chemical_formula_sum "Si O2"
_cell_formula_units_Z 64
_cell_length_a 16.048064
_cell_length_b 7.707529
_cell_length_c 31.942507
_cell_angle_alpha 90.000000
_cell_angle_beta 131.227446
_cell_angle_gamma 90.000000
_cell_volume 2971.542838
_symmetry_space_group_name_H-M "C 2/M"
_symmetry_group_IT_number 12
_symmetry_cell_setting 'monoclinic'
loop_
_space_group_symop_operation_xyz
x,y,z
-x,y,-z
-x,-y,-z
x,-y,z
1/2+x,1/2+y,z
1/2-x,1/2+y,-z
1/2-x,1/2-y,-z
1/2+x,1/2-y,z
loop_
_atom_site_type_symbol
_atom_site_label
_atom_site_fract_x
_atom_site_fract_y
_atom_site_fract_z
Si Si1 0.140630 0.293323 0.437780
Si Si2 0.771808 0.786547 0.677253
Si Si3 0.751505 0.205395 0.063358
Si Si4 0.435223 0.297419 0.061956
Si Si5 0.701333 0.798202 0.744709
Si Si6 0.315427 0.289167 0.866716
Si Si7 0.951973 0.288429 0.439785
Si Si8 0.045263 0.800477 0.321640
O O1 0.134976 0.500000 0.430181
O O2 0.250000 0.250000 0.500000
O O3 0.129129 0.209161 0.388638
O O4 0.036178 0.236886 0.431108
O O5 0.745232 0.725137 0.715306
O O6 0.670621 0.732245 0.613625
O O7 0.888067 0.729695 0.696098
O O8 0.772006 0.000000 0.677077
O O9 0.861352 0.274560 0.075987
O O10 0.743430 0.234683 0.109901
O O11 0.747190 0.000000 0.053697
O O12 0.644103 0.282812 0.004623
O O13 0.453481 0.500000 0.077521
O O14 0.557121 0.225725 0.093384
O O15 0.752954 0.725938 0.804399
O O16 0.568593 0.789357 0.703353
O O17 0.733913 0.000000 0.754571
O O18 0.314603 0.500000 0.867138
O O19 0.951349 0.500000 0.440868
O O20 0.000000 0.227767 0.500000
O O21 0.016460 0.000000 0.304037
#
# Coordination Sequence:
#
# PCOD9194596 Si02
#       8
#     8   8   8   8   8   8   8   8
#     4  11  21  35  57  83 115 148 182 226 278 338
#     4   9  18  35  58  80 105 146 190 224 269 340
#     4  10  20  34  56  86 118 149 185 236 290 334
#     4   9  19  36  56  81 115 154 193 231 276 337
#     4  10  21  40  60  79 108 150 196 235 277 334
#     4  10  21  36  57  81 109 150 196 236 276 334
#     4   9  16  29  53  80 104 137 181 221 260 323
#     4  11  22  37  60  86 112 143 184 234 287 337
#
# _framework density 21.537633
#
# number of rings (size 3 to 8) (size 9 to 14) (size 15 to 20)
#    0.000    2.125    1.250    2.250    0.000    6.000 
#    0.000    3.750    0.000    1.500    0.000    0.000 
#    0.000    0.000    0.000    0.000    0.000    0.000 
#
# Total GULP energy -178710.224277 kJ/mol
# GULP energy per Si atom -5584.694509 kJ/mol
# Density = 2.148861 g / cm^3
# Si number density = 21.537633 Si / 1000 Ang^3
#
#
#
# Elastic Constant Matrix: (Units=GPa)
#
#
# Indices 1 2 3 4 5 6 
#
# 1 118.4346 0.0900 35.6182 0.0000 -35.1493 0.0000
# 2 0.0900 34.6947 -9.6217 0.0000 2.0519 0.0000
# 3 35.6182 -9.6217 75.9846 0.0000 -33.3577 0.0000
# 4 0.0000 0.0000 0.0000 13.5564 0.0000 -3.0254
# 5 -35.1493 2.0519 -33.3577 0.0000 28.2263 0.0000
# 6 0.0000 0.0000 0.0000 -3.0254 0.0000 15.6668
#
#
#
# Elastic Compliance Matrix: (Units=1/GPa)
#
#
# Indices 1 2 3 4 5 6 
#
# 1 0.013580 -0.000607 0.002080 0.000000 0.019412 0.000000
# 2 -0.000607 0.030212 0.005849 0.000000 0.003960 0.000000
# 3 0.002080 0.005849 0.028838 0.000000 0.036246 0.000000
# 4 0.000000 0.000000 0.000000 0.077088 0.000000 0.014886
# 5 0.019412 0.003960 0.036246 0.000000 0.102149 0.000000
# 6 0.000000 0.000000 0.000000 0.014886 0.000000 0.066704
#
#
# Mechanical properties :
#
#
# Convention : Reuss Voigt Hill
#
# Bulk Modulus (GPa) = 11.45818 31.25410 21.35614
# Shear Modulus (GPa) = 15.01419 25.02506 20.01962
#
# Velocity S-wave (km/s) = 2.64316 3.41240 3.05211
# Velocity P-wave (km/s) = 3.82709 5.48350 4.72840
#
# Compressibility (1/GPa) = 0.08727391
#
# Stress axis : x y z
#
# Youngs Moduli (GPa) = 73.63942 33.09930 34.67599
#
# Poissons Ratio (x) = 0.02007 -0.07212
# Poissons Ratio (y) = 0.04466 -0.20281
# Poissons Ratio (z) = -0.15315 -0.19358
#
# Static dielectric constant tensor:
#      x y z
#    x 1.788300 0.000000 0.003020 
#    y 0.000000 1.822440 0.000000 
#    z 0.003020 0.000000 1.764090 
# 
# From -- ./inp_files/375605.got.cif
#   From: 2010.05.17/outbox.cif.g08.bks.cpg/sg12_188_cif.got.tgz:375605.got - 2010.06.03 13:09:07.
