data_PCOD9194762
_publ_section_title
;
Structure prediction by ZEFSAII (Michael W. Deem and Ramdas Pophale) SiO2 
 PCOD9194762
Probable space group: C 2/M
;
_chemical_formula_sum "Si O2"
_cell_formula_units_Z 40
_cell_length_a 15.085101
_cell_length_b 8.284461
_cell_length_c 14.506582
_cell_angle_alpha 90.000000
_cell_angle_beta 71.890674
_cell_angle_gamma 90.000000
_cell_volume 1723.113064
_symmetry_space_group_name_H-M "C 2/M"
_symmetry_group_IT_number 12
_symmetry_cell_setting 'monoclinic'
loop_
_space_group_symop_operation_xyz
x,y,z
-x,y,-z
-x,-y,-z
x,-y,z
1/2+x,1/2+y,z
1/2-x,1/2+y,-z
1/2-x,1/2-y,-z
1/2+x,1/2-y,z
loop_
_atom_site_type_symbol
_atom_site_label
_atom_site_fract_x
_atom_site_fract_y
_atom_site_fract_z
Si Si1 0.911297 0.306578 0.585283
Si Si2 0.884366 0.808149 0.924322
Si Si3 0.509018 0.804522 0.734514
Si Si4 0.709450 0.689514 0.864644
Si Si5 0.287763 0.813099 0.340962
O O1 0.915654 0.500000 0.580738
O O2 0.807348 0.260915 0.590395
O O3 0.000000 0.243758 0.500000
O O4 0.932095 0.256999 0.683864
O O5 0.803970 0.716810 0.892722
O O6 0.979826 0.766261 0.842011
O O7 0.867617 0.000000 0.923267
O O8 0.870960 0.765642 0.035798
O O9 0.610088 0.748357 0.666094
O O10 0.511093 0.000000 0.740249
O O11 0.702275 0.500000 0.842384
O O12 0.712152 0.789364 0.770104
O O13 0.285957 0.000000 0.365918
#
# Coordination Sequence:
#
# PCOD9194762 Si02
#       5
#     8   8   8   8   8
#     4  10  22  42  65  86 113 153 196 242 300 355
#     4  10  20  34  57  87 117 155 200 239 283 345
#     4  10  22  39  59  86 122 157 191 240 295 346
#     4  10  20  35  56  84 120 158 195 239 290 340
#     4  11  23  38  59  89 120 154 198 241 288 346
#
# _framework density 23.213797
#
# number of rings (size 3 to 8) (size 9 to 14) (size 15 to 20)
#    0.000    1.800    2.000    1.800    0.000    6.000 
#    0.000    4.000    0.000    0.000    0.000    0.000 
#    0.000    0.000    0.000    0.000    0.000    0.000 
#
# Total GULP energy -111778.002755 kJ/mol
# GULP energy per Si atom -5588.900138 kJ/mol
# Density = 2.316096 g / cm^3
# Si number density = 23.213797 Si / 1000 Ang^3
#
#
#
# Elastic Constant Matrix: (Units=GPa)
#
#
# Indices 1 2 3 4 5 6 
#
# 1 102.9534 9.4686 17.7258 0.0000 -29.8844 0.0000
# 2 9.4686 11.2961 8.2572 0.0000 -8.5311 0.0000
# 3 17.7258 8.2572 81.1197 0.0000 -40.8701 0.0000
# 4 0.0000 0.0000 0.0000 23.0305 0.0000 -12.9604
# 5 -29.8844 -8.5311 -40.8701 0.0000 44.8945 0.0000
# 6 0.0000 0.0000 0.0000 -12.9604 0.0000 26.1002
#
#
#
# Elastic Compliance Matrix: (Units=1/GPa)
#
#
# Indices 1 2 3 4 5 6 
#
# 1 0.012587 -0.005071 0.002774 0.000000 0.009941 0.000000
# 2 -0.005071 0.105461 -0.002274 0.000000 0.014595 0.000000
# 3 0.002774 -0.002274 0.023396 0.000000 0.022714 0.000000
# 4 0.000000 0.000000 0.000000 0.060259 0.000000 0.029923
# 5 0.009941 0.014595 0.022714 0.000000 0.052342 0.000000
# 6 0.000000 0.000000 0.000000 0.029923 0.000000 0.053172
#
#
# Mechanical properties :
#
#
# Convention : Reuss Voigt Hill
#
# Bulk Modulus (GPa) = 7.55841 29.58584 18.57212
# Shear Modulus (GPa) = 13.87109 29.46622 21.66865
#
# Velocity S-wave (km/s) = 2.44711 3.56665 3.05854
# Velocity P-wave (km/s) = 3.35373 5.45288 4.52667
#
# Compressibility (1/GPa) = 0.13230303
#
# Stress axis : x y z
#
# Youngs Moduli (GPa) = 79.44459 9.48216 42.74165
#
# Poissons Ratio (x) = 0.04809 -0.11856
# Poissons Ratio (y) = 0.40289 0.09718
# Poissons Ratio (z) = -0.22038 0.02156
#
# Static dielectric constant tensor:
#      x y z
#    x 1.906790 0.000000 -0.030190 
#    y 0.000000 1.797450 0.000000 
#    z -0.030190 0.000000 1.911840 
# 
# From -- ./inp_files/211156.got.cif
#   From: 2010.05.17/outbox.cif.g08.bks.cpg/sg12_106_cif.got.tgz:211156.got - 2010.06.03 13:09:07.
