data_PCOD9194300
_publ_section_title
;
Structure prediction by ZEFSAII (Michael W. Deem and Ramdas Pophale) SiO2 
 PCOD9194300
Probable space group: C 2/M
;
_chemical_formula_sum "Si O2"
_cell_formula_units_Z 42
_cell_length_a 14.315198
_cell_length_b 7.466437
_cell_length_c 24.525574
_cell_angle_alpha 90.000000
_cell_angle_beta 40.678315
_cell_angle_gamma 90.000000
_cell_volume 1708.645282
_symmetry_space_group_name_H-M "C 2/M"
_symmetry_group_IT_number 12
_symmetry_cell_setting 'monoclinic'
loop_
_space_group_symop_operation_xyz
x,y,z
-x,y,-z
-x,-y,-z
x,-y,z
1/2+x,1/2+y,z
1/2-x,1/2+y,-z
1/2-x,1/2-y,-z
1/2+x,1/2-y,z
loop_
_atom_site_type_symbol
_atom_site_label
_atom_site_fract_x
_atom_site_fract_y
_atom_site_fract_z
Si Si1 0.621970 0.711355 0.514350
Si Si2 0.063540 0.220193 0.194273
Si Si3 0.160705 0.711700 0.984050
Si Si4 0.386762 0.292194 0.166688
Si Si5 0.434440 0.297593 0.691046
Si Si6 0.000000 0.500000 0.500000
O O1 0.617681 0.500000 0.502448
O O2 0.750000 0.750000 0.500000
O O3 0.484744 0.778506 0.611434
O O4 0.616707 0.841298 0.465608
O O5 0.227776 0.280430 0.110365
O O6 0.011890 0.284484 0.275987
O O7 0.968009 0.274511 0.185181
O O8 0.065577 0.000000 0.193572
O O9 0.146834 0.500000 0.982559
O O10 0.250000 0.750000 0.000000
O O11 0.001378 0.778680 0.066765
O O12 0.353159 0.500000 0.189503
O O13 0.236056 0.197745 0.227454
O O14 0.491227 0.500000 0.664084
#
# Coordination Sequence:
#
# PCOD9194300 Si02
#       6
#     8   8   8   8   8   2
#     4  11  25  48  77 111 147 190 242 300 367 447
#     4   8  17  35  56  80 115 167 211 261 333 385
#     4   9  16  30  53  78 114 164 217 265 319 386
#     4  10  20  34  55  84 124 167 215 267 327 395
#     4  10  22  40  62  92 127 160 218 280 332 412
#     4  12  26  48  84 104 152 194 234 290 376 442
#
# _framework density 24.580877999999998
#
# number of rings (size 3 to 8) (size 9 to 14) (size 15 to 20)
#    0.000    2.286    0.952    2.571    1.333    2.286 
#    3.429    9.524    0.000    0.000    0.000    0.000 
#    0.000    0.000    0.000    0.000    0.000    0.000 
#
# Total GULP energy -117027.508443 kJ/mol
# GULP energy per Si atom -5572.738497 kJ/mol
# Density = 2.452493 g / cm^3
# Si number density = 24.580878 Si / 1000 Ang^3
#
#
#
# Elastic Constant Matrix: (Units=GPa)
#
#
# Indices 1 2 3 4 5 6 
#
# 1 90.1262 18.2162 3.6104 0.0000 -2.7369 0.0000
# 2 18.2162 141.1763 -5.4119 -0.0002 -3.3564 0.0004
# 3 3.6104 -5.4119 57.1805 0.0001 8.9351 0.0000
# 4 0.0000 -0.0002 0.0001 -1.0391 0.0000 -13.2144
# 5 -2.7369 -3.3564 8.9351 0.0000 35.1815 0.0000
# 6 0.0000 0.0004 0.0000 -13.2144 0.0000 19.8329
#
#
#
# Elastic Compliance Matrix: (Units=1/GPa)
#
#
# Indices 1 2 3 4 5 6 
#
# 1 0.011469 -0.001495 -0.001023 0.000000 0.001010 0.000000
# 2 -0.001495 0.007313 0.000725 0.000000 0.000397 0.000000
# 3 -0.001023 0.000725 0.018352 0.000000 -0.004671 0.000000
# 4 0.000000 0.000000 0.000000 -0.101588 0.000000 -0.067687
# 5 0.001010 0.000397 -0.004671 0.000000 0.029727 0.000000
# 6 0.000000 0.000000 0.000000 -0.067687 0.000000 0.005323
#
#
# Mechanical properties :
#
#
# Convention : Reuss Voigt Hill
#
# Bulk Modulus (GPa) = 29.80953 35.70137 32.75545
# Shear Modulus (GPa) = -341.66620 28.93294 -156.36663
#
# Velocity S-wave (km/s) = -11.80248 3.43454 -7.98444
# Velocity P-wave (km/s) = 13.17490 5.50306 8.46446
#
# Compressibility (1/GPa) = 0.03354632
#
# Stress axis : x y z
#
# Youngs Moduli (GPa) = 87.18851 136.73370 54.49111
#
# Poissons Ratio (x) = 0.20444 0.05577
# Poissons Ratio (y) = 0.13036 -0.03948
# Poissons Ratio (z) = 0.08923 -0.09906
#
# Static dielectric constant tensor:
#      x y z
#    x 2.004290 0.000000 0.058150 
#    y 0.000000 1.954810 0.000000 
#    z 0.058150 0.000000 2.060800 
# 
# From -- ./inp_files/359565.got.cif
#   From: 2010.05.17/outbox.cif.g08.bks.cpg/sg12_180_cif.got.tgz:359565.got - 2010.06.03 13:09:07.
