data_PCOD9194040
_publ_section_title
;
Structure prediction by ZEFSAII (Michael W. Deem and Ramdas Pophale) SiO2 
 PCOD9194040
Probable space group: C 2/M
;
_chemical_formula_sum "Si O2"
_cell_formula_units_Z 40
_cell_length_a 22.042358
_cell_length_b 13.937003
_cell_length_c 5.388388
_cell_angle_alpha 90.000000
_cell_angle_beta 116.564731
_cell_angle_gamma 90.000000
_cell_volume 1480.582161
_symmetry_space_group_name_H-M "C 2/M"
_symmetry_group_IT_number 12
_symmetry_cell_setting 'monoclinic'
loop_
_space_group_symop_operation_xyz
x,y,z
-x,y,-z
-x,-y,-z
x,-y,z
1/2+x,1/2+y,z
1/2-x,1/2+y,-z
1/2-x,1/2-y,-z
1/2+x,1/2-y,z
loop_
_atom_site_type_symbol
_atom_site_label
_atom_site_fract_x
_atom_site_fract_y
_atom_site_fract_z
Si Si1 0.043305 0.828716 0.835457
Si Si2 0.044963 0.604803 0.833381
Si Si3 0.177797 0.699706 0.580502
Si Si4 0.137721 0.101057 0.643103
Si Si5 0.212165 0.650610 0.142617
O O1 0.064962 0.717957 0.893432
O O2 0.110301 0.886333 0.873257
O O3 0.000000 0.842316 0.500000
O O4 0.000000 0.856293 0.000000
O O5 0.081741 0.500000 0.893216
O O6 0.000000 0.605804 0.500000
O O7 0.000000 0.597812 0.000000
O O8 0.130401 0.794694 0.493551
O O9 0.176445 0.634194 0.338472
O O10 0.255301 0.741402 0.757597
O O11 0.166997 0.644566 0.816316
O O12 0.218905 0.095065 0.777480
O O13 0.109900 0.000000 0.491975
#
# Coordination Sequence:
#
# PCOD9194040 Si02
#       5
#     8   8   8   8   8
#     4  10  22  36  49  72 108 148 186 227 262 295
#     4   8  14  28  50  69  86 117 165 216 263 303
#     4   8  16  33  53  73  95 124 165 218 265 305
#     4  10  20  34  55  79 106 147 185 211 259 324
#     4   8  16  33  53  73  95 124 165 218 265 305
#
# _framework density 27.016401999999999
#
# number of rings (size 3 to 8) (size 9 to 14) (size 15 to 20)
#    1.200    2.000    0.000    0.000    0.000    4.000 
#    0.000    8.000    0.000    9.600    0.000   11.200 
#    0.000    0.000    0.000    0.000    0.000    0.000 
#
# Total GULP energy -111374.136903 kJ/mol
# GULP energy per Si atom -5568.706845 kJ/mol
# Density = 2.695491 g / cm^3
# Si number density = 27.016402 Si / 1000 Ang^3
#
#
#
# Elastic Constant Matrix: (Units=GPa)
#
#
# Indices 1 2 3 4 5 6 
#
# 1 140.6526 42.3739 70.1125 0.0000 -51.0117 0.0000
# 2 42.3739 155.9007 44.1355 0.0000 -18.7054 0.0000
# 3 70.1125 44.1355 173.7448 0.0000 -54.8182 0.0000
# 4 0.0000 0.0000 0.0000 17.3658 0.0000 4.2918
# 5 -51.0117 -18.7054 -54.8182 0.0000 57.7894 0.0000
# 6 0.0000 0.0000 0.0000 4.2918 0.0000 -3.9114
#
#
#
# Elastic Compliance Matrix: (Units=1/GPa)
#
#
# Indices 1 2 3 4 5 6 
#
# 1 0.011281 -0.001656 -0.001654 0.000000 0.007853 0.000000
# 2 -0.001656 0.007181 -0.001261 0.000000 -0.000334 0.000000
# 3 -0.001654 -0.001261 0.008782 0.000000 0.006463 0.000000
# 4 0.000000 0.000000 0.000000 0.045300 0.000000 0.049706
# 5 0.007853 -0.000334 0.006463 0.000000 0.030259 0.000000
# 6 0.000000 0.000000 0.000000 0.049706 0.000000 -0.201124
#
#
# Mechanical properties :
#
#
# Convention : Reuss Voigt Hill
#
# Bulk Modulus (GPa) = 55.23983 87.06020 71.15001
# Shear Modulus (GPa) = -60.13674 35.16052 -12.48811
#
# Velocity S-wave (km/s) = -4.72310 3.61148 -2.15231
# Velocity P-wave (km/s) = 3.04178 7.04878 4.49627
#
# Compressibility (1/GPa) = 0.01810288
#
# Stress axis : x y z
#
# Youngs Moduli (GPa) = 88.64289 139.24790 113.86328
#
# Poissons Ratio (x) = 0.23056 0.18833
# Poissons Ratio (y) = 0.14677 0.14362
# Poissons Ratio (z) = 0.14662 0.17564
#
# Static dielectric constant tensor:
#      x y z
#    x 2.396550 0.000000 0.063500 
#    y 0.000000 2.083560 0.000000 
#    z 0.063500 0.000000 2.248920 
# 
# From -- ./inp_files/24390.got.cif
#   From: 2010.05.17/outbox.cif.g08.bks.cpg/sg12_13_cif.got.tgz:24390.got - 2010.06.03 13:09:07.
