data_PCOD9194574
_publ_section_title
;
Structure prediction by ZEFSAII (Michael W. Deem and Ramdas Pophale) SiO2 
 PCOD9194574
Probable space group: C 2/M
;
_chemical_formula_sum "Si O2"
_cell_formula_units_Z 48
_cell_length_a 14.810414
_cell_length_b 22.038592
_cell_length_c 12.864082
_cell_angle_alpha 90.000000
_cell_angle_beta 152.638108
_cell_angle_gamma 90.000000
_cell_volume 1929.827743
_symmetry_space_group_name_H-M "C 2/M"
_symmetry_group_IT_number 12
_symmetry_cell_setting 'monoclinic'
loop_
_space_group_symop_operation_xyz
x,y,z
-x,y,-z
-x,-y,-z
x,-y,z
1/2+x,1/2+y,z
1/2-x,1/2+y,-z
1/2-x,1/2-y,-z
1/2+x,1/2-y,z
loop_
_atom_site_type_symbol
_atom_site_label
_atom_site_fract_x
_atom_site_fract_y
_atom_site_fract_z
Si Si1 0.775535 0.407045 0.750621
Si Si2 0.220877 0.259450 0.254906
Si Si3 0.432940 0.260398 0.265059
Si Si4 0.600007 0.070578 0.339681
Si Si5 0.568330 0.428588 0.179826
Si Si6 0.331525 0.396862 0.138767
O O1 0.773744 0.333531 0.746224
O O2 0.752135 0.428471 0.608262
O O3 0.659627 0.426499 0.736352
O O4 0.000000 0.427213 0.000000
O O5 0.339683 0.237822 0.276751
O O6 0.336965 0.242242 0.479631
O O7 0.000000 0.241777 0.000000
O O8 0.437893 0.333091 0.262239
O O9 0.250000 0.250000 0.000000
O O10 0.725185 0.094729 0.564193
O O11 0.539550 0.000000 0.292509
O O12 0.405248 0.109333 0.119306
O O13 0.603869 0.500000 0.199877
O O14 0.412113 0.423684 0.113857
O O15 0.500000 0.402321 0.000000
#
# Coordination Sequence:
#
# PCOD9194574 Si02
#       6
#     8   8   8   8   8   8
#     4   8  16  31  55  84 110 137 173 219 280 348
#     4   9  18  36  58  80 109 146 181 220 281 343
#     4  10  21  36  56  83 112 143 186 234 276 331
#     4  10  20  34  56  86 114 140 179 230 281 339
#     4  10  22  38  54  76 108 150 198 233 263 322
#     4  10  20  36  58  80 112 149 178 225 290 334
#
# _framework density 24.872685000000001
#
# number of rings (size 3 to 8) (size 9 to 14) (size 15 to 20)
#    0.000    2.500    0.000    2.500    0.000    7.000 
#    0.000    8.333    0.000    0.000    0.000    0.000 
#    0.000    0.000    0.000    0.000    0.000    0.000 
#
# Total GULP energy -133641.895698 kJ/mol
# GULP energy per Si atom -5568.412321 kJ/mol
# Density = 2.481607 g / cm^3
# Si number density = 24.872685 Si / 1000 Ang^3
#
#
#
# Elastic Constant Matrix: (Units=GPa)
#
#
# Indices 1 2 3 4 5 6 
#
# 1 80.3694 -6.0040 68.0142 -0.0001 -25.0801 0.0000
# 2 -6.0040 51.4470 9.2500 0.0000 3.5072 0.0000
# 3 68.0142 9.2500 266.1626 0.0000 -31.6083 0.0004
# 4 -0.0001 0.0000 0.0000 20.0810 0.0000 20.7327
# 5 -25.0801 3.5072 -31.6083 0.0000 41.7507 0.0001
# 6 0.0000 0.0000 0.0004 20.7327 0.0001 201.1362
#
#
#
# Elastic Compliance Matrix: (Units=1/GPa)
#
#
# Indices 1 2 3 4 5 6 
#
# 1 0.018317 0.002284 -0.003820 0.000000 0.007920 0.000000
# 2 0.002284 0.020061 -0.001448 0.000000 -0.001409 0.000000
# 3 -0.003820 -0.001448 0.004972 0.000000 0.001592 0.000000
# 4 0.000000 0.000000 0.000000 0.055729 0.000000 -0.005744
# 5 0.007920 -0.001409 0.001592 0.000000 0.030033 0.000000
# 6 0.000000 0.000000 0.000000 -0.005744 0.000000 0.005564
#
#
# Mechanical properties :
#
#
# Convention : Reuss Voigt Hill
#
# Bulk Modulus (GPa) = 26.74989 60.05547 43.40268
# Shear Modulus (GPa) = 32.65762 74.37483 53.51622
#
# Velocity S-wave (km/s) = 3.62745 5.47422 4.64357
# Velocity P-wave (km/s) = 5.32190 8.00960 6.79987
#
# Compressibility (1/GPa) = 0.03738333
#
# Stress axis : x y z
#
# Youngs Moduli (GPa) = 54.59413 49.84903 201.10619
#
# Poissons Ratio (x) = -0.11388 0.76813
# Poissons Ratio (y) = -0.12472 0.29126
# Poissons Ratio (z) = 0.20852 0.07220
#
# Static dielectric constant tensor:
#      x y z
#    x 2.022760 0.000000 0.017140 
#    y 0.000000 1.962020 0.000000 
#    z 0.017140 0.000000 2.178910 
# 
# From -- ./inp_files/149879.got.cif
#   From: 2010.05.17/outbox.cif.g08.bks.cpg/sg12_75_cif.got.tgz:149879.got - 2010.06.03 13:09:07.
