data_PCOD9194543
_publ_section_title
;
Structure prediction by ZEFSAII (Michael W. Deem and Ramdas Pophale) SiO2 
 PCOD9194543
Probable space group: C 2/M
;
_chemical_formula_sum "Si O2"
_cell_formula_units_Z 64
_cell_length_a 14.759577
_cell_length_b 7.831869
_cell_length_c 30.712611
_cell_angle_alpha 90.000000
_cell_angle_beta 131.027572
_cell_angle_gamma 90.000000
_cell_volume 2678.268820
_symmetry_space_group_name_H-M "C 2/M"
_symmetry_group_IT_number 12
_symmetry_cell_setting 'monoclinic'
loop_
_space_group_symop_operation_xyz
x,y,z
-x,y,-z
-x,-y,-z
x,-y,z
1/2+x,1/2+y,z
1/2-x,1/2+y,-z
1/2-x,1/2-y,-z
1/2+x,1/2-y,z
loop_
_atom_site_type_symbol
_atom_site_label
_atom_site_fract_x
_atom_site_fract_y
_atom_site_fract_z
Si Si1 0.040784 0.789906 0.060701
Si Si2 0.875606 0.303955 0.357434
Si Si3 0.191481 0.700075 0.840408
Si Si4 0.829427 0.694879 0.759226
Si Si5 0.544624 0.305555 0.877229
Si Si6 0.136060 0.709714 0.551150
Si Si7 0.877265 0.196543 0.592800
Si Si8 0.476997 0.795083 0.716734
O O1 0.175984 0.728084 0.112484
O O2 0.956595 0.735307 0.074259
O O3 0.041183 0.000000 0.061457
O O4 0.000000 0.737117 0.000000
O O5 0.838893 0.500000 0.344776
O O6 0.809802 0.222870 0.295428
O O7 0.836278 0.228637 0.391223
O O8 0.019484 0.292818 0.400722
O O9 0.203320 0.500000 0.834240
O O10 0.120726 0.714045 0.863934
O O11 0.105068 0.770640 0.775357
O O12 0.850761 0.500000 0.778253
O O13 0.905009 0.803079 0.817291
O O14 0.891593 0.726724 0.731824
O O15 0.587129 0.500000 0.891251
O O16 0.138810 0.500000 0.552045
O O17 0.241297 0.765213 0.551812
O O18 0.000000 0.762461 0.500000
O O19 0.923566 0.207058 0.657494
O O20 0.877156 0.000000 0.578717
O O21 0.484570 0.000000 0.709846
#
# Coordination Sequence:
#
# PCOD9194543 Si02
#       8
#     8   8   8   8   8   8   8   8
#     4   9  19  36  57  81 111 150 195 235 279 340
#     4  11  22  37  59  87 117 153 192 232 285 343
#     4   9  19  36  56  80 112 152 187 232 290 340
#     4  10  20  36  58  85 118 151 187 237 291 341
#     4  10  20  34  56  85 113 147 191 236 283 340
#     4   9  20  40  62  83 114 154 194 237 283 334
#     4  11  22  36  57  87 117 151 192 236 285 336
#     4   9  18  33  55  81 114 149 186 233 286 344
#
# _framework density 23.896034
#
# number of rings (size 3 to 8) (size 9 to 14) (size 15 to 20)
#    0.000    2.250    1.250    2.250    1.750    3.000 
#    0.000    1.250    0.000    7.875    0.000    0.000 
#    0.000    0.000    0.000    0.000    0.000    0.000 
#
# Total GULP energy -178809.826390 kJ/mol
# GULP energy per Si atom -5587.807075 kJ/mol
# Density = 2.384165 g / cm^3
# Si number density = 23.896034 Si / 1000 Ang^3
#
#
#
# Elastic Constant Matrix: (Units=GPa)
#
#
# Indices 1 2 3 4 5 6 
#
# 1 75.8835 -4.2185 8.9749 0.0000 2.4861 0.0000
# 2 -4.2185 36.9548 -3.6996 0.0000 -2.0762 0.0000
# 3 8.9749 -3.6996 45.3463 0.0000 -3.8992 0.0000
# 4 0.0000 0.0000 0.0000 13.0366 0.0000 0.3165
# 5 2.4861 -2.0762 -3.8992 0.0000 38.4545 0.0000
# 6 0.0000 0.0000 0.0000 0.3165 0.0000 16.3192
#
#
#
# Elastic Compliance Matrix: (Units=1/GPa)
#
#
# Indices 1 2 3 4 5 6 
#
# 1 0.013599 0.001223 -0.002685 0.000000 -0.001085 0.000000
# 2 0.001223 0.027505 0.002142 0.000000 0.001623 0.000000
# 3 -0.002685 0.002142 0.022984 0.000000 0.002620 0.000000
# 4 0.000000 0.000000 0.000000 0.076743 0.000000 -0.001488
# 5 -0.001085 0.001623 0.002620 0.000000 0.026428 0.000000
# 6 0.000000 0.000000 0.000000 -0.001488 0.000000 0.061307
#
#
# Mechanical properties :
#
#
# Convention : Reuss Voigt Hill
#
# Bulk Modulus (GPa) = 15.27963 17.81090 16.54527
# Shear Modulus (GPa) = 20.07842 24.03725 22.05784
#
# Velocity S-wave (km/s) = 2.90184 3.17505 3.04151
# Velocity P-wave (km/s) = 4.19948 4.57285 4.39013
#
# Compressibility (1/GPa) = 0.06544661
#
# Stress axis : x y z
#
# Youngs Moduli (GPa) = 73.53373 36.35666 43.50862
#
# Poissons Ratio (x) = -0.04445 0.11683
# Poissons Ratio (y) = -0.08990 -0.09318
# Poissons Ratio (z) = 0.19745 -0.07786
#
# Static dielectric constant tensor:
#      x y z
#    x 1.959600 0.000000 0.029750 
#    y 0.000000 1.837580 0.000000 
#    z 0.029750 0.000000 1.926900 
# 
# From -- ./inp_files/375636.got.cif
#   From: 2010.05.17/outbox.cif.g08.bks.cpg/sg12_188_cif.got.tgz:375636.got - 2010.06.03 13:09:07.
