data_PCOD9194153
_publ_section_title
;
Structure prediction by ZEFSAII (Michael W. Deem and Ramdas Pophale) SiO2 
 PCOD9194153
Probable space group: C 2/M
;
_chemical_formula_sum "Si O2"
_cell_formula_units_Z 56
_cell_length_a 16.852919
_cell_length_b 7.569296
_cell_length_c 19.847561
_cell_angle_alpha 90.000000
_cell_angle_beta 60.962184
_cell_angle_gamma 90.000000
_cell_volume 2213.594237
_symmetry_space_group_name_H-M "C 2/M"
_symmetry_group_IT_number 12
_symmetry_cell_setting 'monoclinic'
loop_
_space_group_symop_operation_xyz
x,y,z
-x,y,-z
-x,-y,-z
x,-y,z
1/2+x,1/2+y,z
1/2-x,1/2+y,-z
1/2-x,1/2-y,-z
1/2+x,1/2-y,z
loop_
_atom_site_type_symbol
_atom_site_label
_atom_site_fract_x
_atom_site_fract_y
_atom_site_fract_z
Si Si1 0.647228 0.797877 0.119454
Si Si2 0.310928 0.786311 0.687340
Si Si3 0.520407 0.784442 0.604376
Si Si4 0.862241 0.295101 0.166069
Si Si5 0.850244 0.205462 0.024624
Si Si6 0.534120 0.783332 0.746061
Si Si7 0.309096 0.211443 0.541337
O O1 0.747562 0.718505 0.074911
O O2 0.569314 0.723824 0.198440
O O3 0.661285 0.000000 0.135687
O O4 0.609535 0.796082 0.058080
O O5 0.415810 0.729748 0.646323
O O6 0.244762 0.723540 0.773454
O O7 0.276289 0.723763 0.627747
O O8 0.309416 0.000000 0.691756
O O9 0.561616 0.730746 0.659853
O O10 0.588858 0.725449 0.518128
O O11 0.518957 0.000000 0.602221
O O12 0.884880 0.500000 0.152723
O O13 0.890484 0.217833 0.082546
O O14 0.908789 0.218392 0.213867
O O15 0.845732 0.000000 0.008089
O O16 0.535396 0.000000 0.746922
O O17 0.250000 0.250000 0.500000
O O18 0.313329 0.000000 0.546038
#
# Coordination Sequence:
#
# PCOD9194153 Si02
#       7
#     8   8   8   8   8   8   8
#     4   9  18  35  57  78 102 136 178 219 259 308
#     4  10  20  35  56  80 105 137 180 225 264 306
#     4   9  17  33  56  79 104 138 181 221 258 307
#     4  11  22  35  53  78 108 140 174 215 265 319
#     4  10  20  35  56  80 106 137 174 218 264 311
#     4   9  18  32  52  76 102 137 178 217 258 309
#     4  10  20  34  55  82 111 142 176 217 265 314
#
# _framework density 25.298223
#
# number of rings (size 3 to 8) (size 9 to 14) (size 15 to 20)
#    0.000    2.286    0.000    3.000    0.000    6.857 
#    0.000    5.000    0.000    6.000    0.000    0.000 
#    0.000    0.000    0.000    0.000    0.000    0.000 
#
# Total GULP energy -156531.046038 kJ/mol
# GULP energy per Si atom -5590.394501 kJ/mol
# Density = 2.524064 g / cm^3
# Si number density = 25.298223 Si / 1000 Ang^3
#
#
#
# Elastic Constant Matrix: (Units=GPa)
#
#
# Indices 1 2 3 4 5 6 
#
# 1 58.2038 -6.7317 -6.4577 -0.0002 14.0835 -0.0001
# 2 -6.7317 68.1571 -3.8258 -0.0003 2.4869 -0.0002
# 3 -6.4577 -3.8258 116.5458 -0.0001 16.7850 -0.0002
# 4 -0.0002 -0.0003 -0.0001 14.6815 -0.0001 4.7341
# 5 14.0835 2.4869 16.7850 -0.0001 44.2006 -0.0001
# 6 -0.0001 -0.0002 -0.0002 4.7341 -0.0001 12.4313
#
#
#
# Elastic Compliance Matrix: (Units=1/GPa)
#
#
# Indices 1 2 3 4 5 6 
#
# 1 0.019418 0.002301 0.002180 0.000000 -0.007144 0.000000
# 2 0.002301 0.015020 0.000897 0.000000 -0.001919 0.000000
# 3 0.002180 0.000897 0.009349 0.000000 -0.004296 0.000000
# 4 0.000000 0.000000 0.000000 0.077648 0.000000 -0.029570
# 5 -0.007144 -0.001919 -0.004296 0.000000 0.026640 0.000000
# 6 0.000000 0.000000 0.000000 -0.029570 0.000000 0.091703
#
#
# Mechanical properties :
#
#
# Convention : Reuss Voigt Hill
#
# Bulk Modulus (GPa) = 18.33415 23.20847 20.77131
# Shear Modulus (GPa) = 20.22635 31.59079 25.90857
#
# Velocity S-wave (km/s) = 2.83064 3.53758 3.20367
# Velocity P-wave (km/s) = 4.23631 5.08722 4.68114
#
# Compressibility (1/GPa) = 0.05454302
#
# Stress axis : x y z
#
# Youngs Moduli (GPa) = 51.49919 66.57966 106.96077
#
# Poissons Ratio (x) = -0.15319 -0.23322
# Poissons Ratio (y) = -0.11850 -0.09593
# Poissons Ratio (z) = -0.11229 -0.05971
#
# Static dielectric constant tensor:
#      x y z
#    x 2.091970 0.000000 0.029680 
#    y 0.000000 1.983220 0.000000 
#    z 0.029680 0.000000 1.951650 
# 
# From -- ./inp_files/275234.got.cif
#   From: 2010.05.17/outbox.cif.g08.bks.cpg/sg12_138_cif.got.tgz:275234.got - 2010.06.03 13:09:07.
