data_PCOD9194400
_publ_section_title
;
Structure prediction by ZEFSAII (Michael W. Deem and Ramdas Pophale) SiO2 
 PCOD9194400
Probable space group: C 2/M
;
_chemical_formula_sum "Si O2"
_cell_formula_units_Z 40
_cell_length_a 8.830609
_cell_length_b 14.131338
_cell_length_c 14.420792
_cell_angle_alpha 90.000000
_cell_angle_beta 75.064350
_cell_angle_gamma 90.000000
_cell_volume 1738.750361
_symmetry_space_group_name_H-M "C 2/M"
_symmetry_group_IT_number 12
_symmetry_cell_setting 'monoclinic'
loop_
_space_group_symop_operation_xyz
x,y,z
-x,y,-z
-x,-y,-z
x,-y,z
1/2+x,1/2+y,z
1/2-x,1/2+y,-z
1/2-x,1/2-y,-z
1/2+x,1/2-y,z
loop_
_atom_site_type_symbol
_atom_site_label
_atom_site_fract_x
_atom_site_fract_y
_atom_site_fract_z
Si Si1 0.455193 0.386259 0.365094
Si Si2 0.081701 0.211572 0.173574
Si Si3 0.956386 0.393888 0.725489
Si Si4 0.742380 0.885166 0.557325
Si Si5 0.907867 0.360058 0.101263
O O1 0.450986 0.500000 0.363267
O O2 0.473606 0.345439 0.260873
O O3 0.302471 0.353000 0.446895
O O4 0.614455 0.360574 0.396154
O O5 0.224876 0.150094 0.115486
O O6 0.142697 0.303224 0.224863
O O7 0.985664 0.257435 0.106053
O O8 0.891203 0.500000 0.716254
O O9 0.072595 0.360875 0.624799
O O10 0.063826 0.403916 0.801546
O O11 0.738370 0.000000 0.555283
O O12 0.000000 0.401603 0.000000
#
# Coordination Sequence:
#
# PCOD9194400 Si02
#       5
#     8   8   8   8   8
#     4   9  15  27  50  80 109 136 173 216 258 304
#     4  10  20  34  56  80 105 141 174 222 264 314
#     4   9  19  33  53  78 107 138 175 213 260 313
#     4   8  14  27  49  77 108 137 171 219 254 296
#     4  10  21  36  56  75 104 139 180 225 270 303
#
# _framework density 23.005027999999999
#
# number of rings (size 3 to 8) (size 9 to 14) (size 15 to 20)
#    1.200    1.600    2.000    1.800    0.000    1.200 
#    0.000    1.000    0.000    1.200    0.000    7.000 
#    0.000    0.000    0.000    0.000    0.000    0.000 
#
# Total GULP energy -111410.988119 kJ/mol
# GULP energy per Si atom -5570.549406 kJ/mol
# Density = 2.295267 g / cm^3
# Si number density = 23.005028 Si / 1000 Ang^3
#
#
#
# Elastic Constant Matrix: (Units=GPa)
#
#
# Indices 1 2 3 4 5 6 
#
# 1 35.9342 -8.5910 23.2018 0.0000 -11.6110 0.0000
# 2 -8.5910 45.9774 22.0134 0.0000 -9.1319 0.0000
# 3 23.2018 22.0134 132.1717 0.0000 -28.4170 0.0000
# 4 0.0000 0.0000 0.0000 917.2300 0.0000 -279.1350
# 5 -11.6110 -9.1319 -28.4170 0.0000 25.9647 0.0000
# 6 0.0000 0.0000 0.0000 -279.1350 0.0000 90.7284
#
#
#
# Elastic Compliance Matrix: (Units=1/GPa)
#
#
# Indices 1 2 3 4 5 6 
#
# 1 0.040059 0.013492 -0.005764 0.000000 0.016351 0.000000
# 2 0.013492 0.028736 -0.004818 0.000000 0.010867 0.000000
# 3 -0.005764 -0.004818 0.011065 0.000000 0.007839 0.000000
# 4 0.000000 0.000000 0.000000 0.017111 0.000000 0.052642
# 5 0.016351 0.010867 0.007839 0.000000 0.058227 0.000000
# 6 0.000000 0.000000 0.000000 0.052642 0.000000 0.172981
#
#
# Mechanical properties :
#
#
# Convention : Reuss Voigt Hill
#
# Bulk Modulus (GPa) = 11.67107 31.92575 21.79841
# Shear Modulus (GPa) = 14.24832 218.61522 116.43177
#
# Velocity S-wave (km/s) = 2.49139 9.75887 7.12189
# Velocity P-wave (km/s) = 3.65517 11.86965 8.78206
#
# Compressibility (1/GPa) = 0.08568193
#
# Stress axis : x y z
#
# Youngs Moduli (GPa) = 24.96299 34.79935 90.37119
#
# Poissons Ratio (x) = -0.46953 0.52088
# Poissons Ratio (y) = -0.33681 0.43542
# Poissons Ratio (z) = 0.14388 0.16767
#
# Static dielectric constant tensor:
#      x y z
#    x 1.817110 0.000000 -0.015270 
#    y 0.000000 1.909860 0.000000 
#    z -0.015270 0.000000 1.839230 
# 
# From -- ./inp_files/203850.got.cif
#   From: 2010.05.17/outbox.cif.g08.bks.cpg/sg12_102_cif.got.tgz:203850.got - 2010.06.03 13:09:07.
