data_PCOD9194222
_publ_section_title
;
Structure prediction by ZEFSAII (Michael W. Deem and Ramdas Pophale) SiO2 
 PCOD9194222
Probable space group: C 2/M
;
_chemical_formula_sum "Si O2"
_cell_formula_units_Z 64
_cell_length_a 15.635309
_cell_length_b 7.441997
_cell_length_c 28.519874
_cell_angle_alpha 90.000000
_cell_angle_beta 126.376900
_cell_angle_gamma 90.000000
_cell_volume 2671.844501
_symmetry_space_group_name_H-M "C 2/M"
_symmetry_group_IT_number 12
_symmetry_cell_setting 'monoclinic'
loop_
_space_group_symop_operation_xyz
x,y,z
-x,y,-z
-x,-y,-z
x,-y,z
1/2+x,1/2+y,z
1/2-x,1/2+y,-z
1/2-x,1/2-y,-z
1/2+x,1/2-y,z
loop_
_atom_site_type_symbol
_atom_site_label
_atom_site_fract_x
_atom_site_fract_y
_atom_site_fract_z
Si Si1 0.451194 0.703942 0.938135
Si Si2 0.657475 0.794282 0.266153
Si Si3 0.908204 0.795770 0.589548
Si Si4 0.624796 0.715469 0.624285
Si Si5 0.269998 0.281346 0.813324
Si Si6 0.080592 0.719234 0.811598
Si Si7 0.316997 0.214970 0.459122
Si Si8 0.856597 0.714021 0.064347
O O1 0.419727 0.500000 0.941795
O O2 0.348797 0.781794 0.880030
O O3 0.544397 0.701124 0.930489
O O4 0.500000 0.792448 0.000000
O O5 0.759968 0.710236 0.324123
O O6 0.688914 0.793543 0.221856
O O7 0.539977 0.714879 0.231785
O O8 0.649344 0.000000 0.280548
O O9 0.806281 0.719036 0.584044
O O10 0.867788 0.796526 0.522325
O O11 0.025591 0.713074 0.622459
O O12 0.921047 0.000000 0.610811
O O13 0.625197 0.500000 0.631766
O O14 0.617667 0.747211 0.566469
O O15 0.276691 0.500000 0.812652
O O16 0.152637 0.229644 0.791032
O O17 0.077855 0.500000 0.811978
O O18 0.135919 0.772740 0.878906
O O19 0.313759 0.000000 0.465252
O O20 0.872163 0.500000 0.069092
O O21 0.750000 0.750000 0.000000
#
# Coordination Sequence:
#
# PCOD9194222 Si02
#       8
#     8   8   8   8   8   8   8   8
#     4  10  20  35  55  80 112 144 179 224 279 339
#     4  10  21  39  58  79 109 146 189 231 274 327
#     4   9  19  36  55  79 114 151 184 223 281 336
#     4  10  21  36  56  79 109 150 188 226 277 335
#     4  10  20  36  58  80 106 142 182 223 276 331
#     4   9  19  37  58  78 107 145 178 220 278 332
#     4  10  20  34  55  83 114 146 185 233 276 323
#     4  11  21  35  56  81 112 144 180 225 277 335
#
# _framework density 23.953488
#
# number of rings (size 3 to 8) (size 9 to 14) (size 15 to 20)
#    0.000    2.125    1.250    1.875    0.000    6.250 
#    0.000    3.125    0.000    0.000    0.000    0.000 
#    0.000    0.000    0.000    0.000    0.000    0.000 
#
# Total GULP energy -178764.047357 kJ/mol
# GULP energy per Si atom -5586.376480 kJ/mol
# Density = 2.389897 g / cm^3
# Si number density = 23.953488 Si / 1000 Ang^3
#
#
#
# Elastic Constant Matrix: (Units=GPa)
#
#
# Indices 1 2 3 4 5 6 
#
# 1 117.1030 -9.8697 9.7122 0.0000 37.9791 0.0000
# 2 -9.8697 88.1305 -5.7851 0.0000 5.1475 0.0000
# 3 9.7122 -5.7851 61.6954 0.0000 29.8210 0.0000
# 4 0.0000 0.0000 0.0000 4.5187 0.0000 0.7133
# 5 37.9791 5.1475 29.8210 0.0000 36.6516 0.0000
# 6 0.0000 0.0000 0.0000 0.7133 0.0000 14.6946
#
#
#
# Elastic Compliance Matrix: (Units=1/GPa)
#
#
# Indices 1 2 3 4 5 6 
#
# 1 0.016495 0.004058 0.010418 0.000000 -0.026139 0.000000
# 2 0.004058 0.012798 0.005707 0.000000 -0.010645 0.000000
# 3 0.010418 0.005707 0.034133 0.000000 -0.039369 0.000000
# 4 0.000000 0.000000 0.000000 0.223011 0.000000 -0.010825
# 5 -0.026139 -0.010645 -0.039369 0.000000 0.087897 0.000000
# 6 0.000000 0.000000 0.000000 -0.010825 0.000000 0.068577
#
#
# Mechanical properties :
#
#
# Convention : Reuss Voigt Hill
#
# Bulk Modulus (GPa) = 9.63469 28.33819 18.98644
# Shear Modulus (GPa) = 11.43793 29.36443 20.40118
#
# Velocity S-wave (km/s) = 2.18756 3.50507 2.92156
# Velocity P-wave (km/s) = 3.22669 5.31384 4.39593
#
# Compressibility (1/GPa) = 0.10379160
#
# Stress axis : x y z
#
# Youngs Moduli (GPa) = 60.62490 78.13949 29.29706
#
# Poissons Ratio (x) = -0.31708 -0.30523
# Poissons Ratio (y) = -0.24601 -0.16719
# Poissons Ratio (z) = -0.63161 -0.44593
#
# Static dielectric constant tensor:
#      x y z
#    x 1.885160 0.000000 0.038150 
#    y 0.000000 1.946690 0.000000 
#    z 0.038150 0.000000 1.923380 
# 
# From -- ./inp_files/375642.got.cif
#   From: 2010.05.17/outbox.cif.g08.bks.cpg/sg12_188_cif.got.tgz:375642.got - 2010.06.03 13:09:07.
