data_PCOD9194123
_publ_section_title
;
Structure prediction by ZEFSAII (Michael W. Deem and Ramdas Pophale) SiO2 
 PCOD9194123
Probable space group: C 2/M
;
_chemical_formula_sum "Si O2"
_cell_formula_units_Z 64
_cell_length_a 20.007080
_cell_length_b 24.683026
_cell_length_c 17.793575
_cell_angle_alpha 90.000000
_cell_angle_beta 21.693939
_cell_angle_gamma 90.000000
_cell_volume 3248.136207
_symmetry_space_group_name_H-M "C 2/M"
_symmetry_group_IT_number 12
_symmetry_cell_setting 'monoclinic'
loop_
_space_group_symop_operation_xyz
x,y,z
-x,y,-z
-x,-y,-z
x,-y,z
1/2+x,1/2+y,z
1/2-x,1/2+y,-z
1/2-x,1/2-y,-z
1/2+x,1/2-y,z
loop_
_atom_site_type_symbol
_atom_site_label
_atom_site_fract_x
_atom_site_fract_y
_atom_site_fract_z
Si Si1 0.100434 0.803781 0.514858
Si Si2 0.696909 0.440223 0.069393
Si Si3 0.023460 0.686098 0.392175
Si Si4 0.062894 0.787787 0.016214
Si Si5 0.065902 0.150122 0.710100
Si Si6 0.146240 0.896360 0.286277
Si Si7 0.502527 0.837325 0.100407
Si Si8 0.041628 0.619970 0.690816
O O1 0.071443 0.807847 0.634763
O O2 0.288304 0.836024 0.304968
O O3 0.089623 0.742547 0.496581
O O4 0.941078 0.838346 0.644532
O O5 0.641268 0.500000 0.103166
O O6 0.599595 0.390892 0.128205
O O7 0.649274 0.431716 0.207170
O O8 0.910598 0.431232 0.833736
O O9 0.000000 0.661800 0.500000
O O10 0.981139 0.649311 0.365003
O O11 0.234814 0.699108 0.170461
O O12 0.940888 0.815621 0.207079
O O13 0.055387 0.723191 0.024160
O O14 0.000000 0.807347 0.000000
O O15 0.245411 0.113474 0.519562
O O16 0.000000 0.918007 0.500000
O O17 0.357826 0.881232 0.080064
O O18 0.518682 0.844093 0.173968
#
# Coordination Sequence:
#
# PCOD9194123 Si02
#       8
#     8   8   8   8   8   8   8   8
#     4  10  20  34  55  81 120 160 198 219 268 340
#     4  10  22  41  64  85 106 145 199 250 301 348
#     4  12  22  34  54  85 121 158 190 230 275 338
#     4  12  23  33  53  86 122 160 191 227 276 337
#     4  10  21  39  58  84 115 152 190 242 287 336
#     4  10  21  35  55  85 120 154 189 239 282 333
#     4  10  21  34  54  81 120 161 193 224 267 338
#     4  10  21  39  59  83 113 151 192 239 288 343
#
# _framework density 19.703607000000002
#
# number of rings (size 3 to 8) (size 9 to 14) (size 15 to 20)
#    0.000    1.500    2.500    3.375    1.750    3.750 
#    0.000    0.000    0.000    0.750    0.000    7.000 
#    0.000    0.000    0.000    0.000    0.000    0.000 
#
# Total GULP energy -178505.900610 kJ/mol
# GULP energy per Si atom -5578.309394 kJ/mol
# Density = 1.965876 g / cm^3
# Si number density = 19.703607 Si / 1000 Ang^3
#
#
#
# Elastic Constant Matrix: (Units=GPa)
#
#
# Indices 1 2 3 4 5 6 
#
# 1 95.2249 12.7745 18.6549 0.0324 17.2208 -0.0135
# 2 12.7745 34.8845 -2.0748 0.0189 4.8080 0.0201
# 3 18.6549 -2.0748 80.0896 0.0352 -9.9617 -0.0232
# 4 0.0324 0.0189 0.0352 9.8075 -0.0333 -4.6168
# 5 17.2208 4.8080 -9.9617 -0.0333 41.6063 0.0212
# 6 -0.0135 0.0201 -0.0232 -4.6168 0.0212 -0.5259
#
#
#
# Elastic Compliance Matrix: (Units=1/GPa)
#
#
# Indices 1 2 3 4 5 6 
#
# 1 0.012844 -0.004137 -0.003814 -0.000058 -0.005751 -0.000039
# 2 -0.004137 0.030472 0.001575 0.000094 -0.001432 0.000318
# 3 -0.003814 0.001575 0.014006 -0.000029 0.004750 -0.000010
# 4 -0.000058 0.000094 -0.000029 0.019867 0.000111 -0.174398
# 5 -0.005751 -0.001432 0.004750 0.000111 0.027718 0.000026
# 6 -0.000039 0.000318 -0.000010 -0.174398 0.000026 -0.370473
#
#
# Mechanical properties :
#
#
# Convention : Reuss Voigt Hill
#
# Bulk Modulus (GPa) = 22.43726 29.87869 26.15798
# Shear Modulus (GPa) = -21.01215 22.23387 0.61086
#
# Velocity S-wave (km/s) = -3.26914 3.36284 0.55740
# Velocity P-wave (km/s) = 1.68451 5.50229 3.70389
#
# Compressibility (1/GPa) = 0.04456872
#
# Stress axis : x y z
#
# Youngs Moduli (GPa) = 77.85875 32.81706 71.39768
#
# Poissons Ratio (x) = 0.13578 0.27232
# Poissons Ratio (y) = 0.32214 -0.11246
# Poissons Ratio (z) = 0.29696 -0.05169
#
# Static dielectric constant tensor:
#      x y z
#    x 1.727420 -0.000020 0.000100 
#    y -0.000020 1.636460 0.000100 
#    z 0.000100 0.000100 1.810260 
# 
# From -- ./inp_files/286405.got.cif
#   From: 2010.05.17/outbox.cif.g08.bks.cpg/sg12_144_cif.got.tgz:286405.got - 2010.06.03 13:09:07.
