data_PCOD9194515
_publ_section_title
;
Structure prediction by ZEFSAII (Michael W. Deem and Ramdas Pophale) SiO2 
 PCOD9194515
Probable space group: C 2/M
;
_chemical_formula_sum "Si O2"
_cell_formula_units_Z 40
_cell_length_a 18.068101
_cell_length_b 8.606978
_cell_length_c 11.525137
_cell_angle_alpha 90.000000
_cell_angle_beta 89.789020
_cell_angle_gamma 90.000000
_cell_volume 1792.282047
_symmetry_space_group_name_H-M "C 2/M"
_symmetry_group_IT_number 12
_symmetry_cell_setting 'monoclinic'
loop_
_space_group_symop_operation_xyz
x,y,z
-x,y,-z
-x,-y,-z
x,-y,z
1/2+x,1/2+y,z
1/2-x,1/2+y,-z
1/2-x,1/2-y,-z
1/2+x,1/2-y,z
loop_
_atom_site_type_symbol
_atom_site_label
_atom_site_fract_x
_atom_site_fract_y
_atom_site_fract_z
Si Si1 0.484840 0.320221 0.129395
Si Si2 0.288542 0.314341 0.385524
Si Si3 0.960420 0.810048 0.380157
Si Si4 0.357253 0.172890 0.038243
Si Si5 0.703748 0.326566 0.170870
O O1 0.507735 0.500000 0.124729
O O2 0.500023 0.258600 0.259015
O O3 0.500000 0.250156 0.000000
O O4 0.395842 0.300771 0.118960
O O5 0.290366 0.500000 0.386940
O O6 0.250000 0.250000 0.500000
O O7 0.374337 0.259625 0.379818
O O8 0.236764 0.256898 0.281513
O O9 0.000000 0.762697 0.500000
O O10 0.961571 0.000000 0.376738
O O11 0.354985 0.231875 0.905446
O O12 0.389999 0.000000 0.049992
O O13 0.274326 0.157637 0.086088
O O14 0.676512 0.500000 0.199440
#
# Coordination Sequence:
#
# PCOD9194515 Si02
#       5
#     8   8   8   8   8
#     4  10  20  35  58  86 115 153 202 249 295 357
#     4  11  22  37  60  87 120 156 200 251 302 362
#     4   9  19  37  59  83 115 157 202 248 297 351
#     4  10  20  34  56  84 115 148 187 239 298 354
#     4  10  20  35  57  83 113 149 191 237 294 358
#
# _framework density 22.317916
#
# number of rings (size 3 to 8) (size 9 to 14) (size 15 to 20)
#    0.000    2.000    2.000    1.800    0.000    3.600 
#    0.000    4.000    0.000    5.400    0.000    0.000 
#    0.000    0.000    0.000    0.000    0.000    0.000 
#
# Total GULP energy -111441.253344 kJ/mol
# GULP energy per Si atom -5572.062667 kJ/mol
# Density = 2.226712 g / cm^3
# Si number density = 22.317916 Si / 1000 Ang^3
#
#
#
# Elastic Constant Matrix: (Units=GPa)
#
#
# Indices 1 2 3 4 5 6 
#
# 1 39.6989 1.2023 40.0858 0.0000 3.4712 0.0000
# 2 1.2023 50.3206 18.8844 0.0000 -1.7558 0.0000
# 3 40.0858 18.8844 225.4458 0.0000 4.8055 0.0000
# 4 0.0000 0.0000 0.0000 22.6690 0.0000 -0.6795
# 5 3.4712 -1.7558 4.8055 0.0000 41.7249 0.0000
# 6 0.0000 0.0000 0.0000 -0.6795 0.0000 22.8049
#
#
#
# Elastic Compliance Matrix: (Units=1/GPa)
#
#
# Indices 1 2 3 4 5 6 
#
# 1 0.030938 0.001285 -0.005569 0.000000 -0.001878 0.000000
# 2 0.001285 0.020618 -0.001977 0.000000 0.000988 0.000000
# 3 -0.005569 -0.001977 0.005597 0.000000 -0.000265 0.000000
# 4 0.000000 0.000000 0.000000 0.044153 0.000000 0.001316
# 5 -0.001878 0.000988 -0.000265 0.000000 0.024195 0.000000
# 6 0.000000 0.000000 0.000000 0.001316 0.000000 0.043889
#
#
# Mechanical properties :
#
#
# Convention : Reuss Voigt Hill
#
# Bulk Modulus (GPa) = 22.40515 48.42338 35.41427
# Shear Modulus (GPa) = 25.40812 34.45929 29.93370
#
# Velocity S-wave (km/s) = 3.37777 3.93366 3.66627
# Velocity P-wave (km/s) = 5.02726 6.50967 5.81589
#
# Compressibility (1/GPa) = 0.04463259
#
# Stress axis : x y z
#
# Youngs Moduli (GPa) = 32.32300 48.50098 178.66746
#
# Poissons Ratio (x) = -0.06233 0.99492
# Poissons Ratio (y) = -0.04154 0.35316
# Poissons Ratio (z) = 0.17999 0.09587
#
# Static dielectric constant tensor:
#      x y z
#    x 2.004670 0.000000 -0.016910 
#    y 0.000000 1.809690 0.000000 
#    z -0.016910 0.000000 1.847020 
# 
# From -- ./inp_files/162581.got.cif
#   From: 2010.05.17/outbox.cif.g08.bks.cpg/sg12_82_cif.got.tgz:162581.got - 2010.06.03 13:09:07.
