data_PCOD9194484
_publ_section_title
;
Structure prediction by ZEFSAII (Michael W. Deem and Ramdas Pophale) SiO2 
 PCOD9194484
Probable space group: C 2/M
;
_chemical_formula_sum "Si O2"
_cell_formula_units_Z 48
_cell_length_a 15.529512
_cell_length_b 7.998394
_cell_length_c 20.095598
_cell_angle_alpha 90.000000
_cell_angle_beta 77.545459
_cell_angle_gamma 90.000000
_cell_volume 2437.357850
_symmetry_space_group_name_H-M "C 2/M"
_symmetry_group_IT_number 12
_symmetry_cell_setting 'monoclinic'
loop_
_space_group_symop_operation_xyz
x,y,z
-x,y,-z
-x,-y,-z
x,-y,z
1/2+x,1/2+y,z
1/2-x,1/2+y,-z
1/2-x,1/2-y,-z
1/2+x,1/2-y,z
loop_
_atom_site_type_symbol
_atom_site_label
_atom_site_fract_x
_atom_site_fract_y
_atom_site_fract_z
Si Si1 0.875951 0.297803 0.930726
Si Si2 0.950361 0.295386 0.576037
Si Si3 0.744776 0.200091 0.423560
Si Si4 0.425950 0.200148 0.325834
Si Si5 0.551369 0.799345 0.827500
Si Si6 0.815175 0.800738 0.084017
O O1 0.876295 0.500000 0.928509
O O2 0.784886 0.238512 0.911426
O O3 0.963457 0.235766 0.879364
O O4 0.869747 0.248116 0.008934
O O5 0.951104 0.500000 0.576322
O O6 0.849021 0.240993 0.589659
O O7 0.000000 0.244254 0.500000
O O8 0.003959 0.236090 0.631444
O O9 0.750000 0.250000 0.500000
O O10 0.828662 0.266495 0.369955
O O11 0.746249 0.000000 0.419765
O O12 0.439099 0.266462 0.249100
O O13 0.437621 0.000000 0.321167
O O14 0.635761 0.762864 0.858991
O O15 0.542778 0.000000 0.825010
O O16 0.811463 0.000000 0.088274
#
# Coordination Sequence:
#
# PCOD9194484 Si02
#       6
#     8   8   8   8   8   8
#     4   9  19  36  56  79 108 146 188 221 262 324
#     4   9  17  33  57  79 102 138 179 216 260 322
#     4  11  21  35  58  83 107 137 176 223 272 322
#     4  10  21  38  56  78 108 143 184 224 269 321
#     4  10  21  36  55  77 108 148 183 220 267 326
#     4  10  20  34  56  84 111 140 180 230 273 313
#
# _framework density 19.693456000000001
#
# number of rings (size 3 to 8) (size 9 to 14) (size 15 to 20)
#    0.000    2.167    1.667    1.500    0.000    5.333 
#    0.000    5.833    0.000    0.000    0.000    0.000 
#    0.000    0.000    0.000    0.000    0.000    0.000 
#
# Total GULP energy -134010.528005 kJ/mol
# GULP energy per Si atom -5583.772000 kJ/mol
# Density = 1.964863 g / cm^3
# Si number density = 19.693456 Si / 1000 Ang^3
#
#
#
# Elastic Constant Matrix: (Units=GPa)
#
#
# Indices 1 2 3 4 5 6 
#
# 1 114.3542 -0.9109 66.4741 0.0000 30.3131 0.0000
# 2 -0.9109 14.6658 4.2258 0.0000 3.2943 0.0000
# 3 66.4741 4.2258 140.2725 0.0000 33.2444 0.0000
# 4 0.0000 0.0000 0.0000 17.5509 0.0000 -0.2333
# 5 30.3131 3.2943 33.2444 0.0000 25.5578 0.0000
# 6 0.0000 0.0000 0.0000 -0.2333 0.0000 25.9728
#
#
#
# Elastic Compliance Matrix: (Units=1/GPa)
#
#
# Indices 1 2 3 4 5 6 
#
# 1 0.014442 0.004869 -0.004022 0.000000 -0.012524 0.000000
# 2 0.004869 0.071861 -0.001313 0.000000 -0.013330 0.000000
# 3 -0.004022 -0.001313 0.011426 0.000000 -0.009923 0.000000
# 4 0.000000 0.000000 0.000000 0.056984 0.000000 0.000512
# 5 -0.012524 -0.013330 -0.009923 0.000000 0.068607 0.000000
# 6 0.000000 0.000000 0.000000 0.000512 0.000000 0.038506
#
#
# Mechanical properties :
#
#
# Convention : Reuss Voigt Hill
#
# Bulk Modulus (GPa) = 10.33097 45.43005 27.88051
# Shear Modulus (GPa) = 16.94777 27.11654 22.03215
#
# Velocity S-wave (km/s) = 2.93674 3.71473 3.34841
# Velocity P-wave (km/s) = 4.09348 6.44342 5.39788
#
# Compressibility (1/GPa) = 0.09679636
#
# Stress axis : x y z
#
# Youngs Moduli (GPa) = 69.24426 13.91582 87.51668
#
# Poissons Ratio (x) = -0.06776 0.35201
# Poissons Ratio (y) = -0.33717 0.11493
# Poissons Ratio (z) = 0.27851 0.01827
#
# Static dielectric constant tensor:
#      x y z
#    x 1.688450 0.000000 0.011130 
#    y 0.000000 1.711230 0.000000 
#    z 0.011130 0.000000 1.657870 
# 
# From -- ./inp_files/267723.got.cif
#   From: 2010.05.17/outbox.cif.g08.bks.cpg/sg12_134_cif.got.tgz:267723.got - 2010.06.03 13:09:07.
