data_PCOD9194512
_publ_section_title
;
Structure prediction by ZEFSAII (Michael W. Deem and Ramdas Pophale) SiO2 
 PCOD9194512
Probable space group: C 2/M
;
_chemical_formula_sum "Si O2"
_cell_formula_units_Z 40
_cell_length_a 5.283490
_cell_length_b 29.496222
_cell_length_c 14.602825
_cell_angle_alpha 90.000000
_cell_angle_beta 95.084168
_cell_angle_gamma 90.000000
_cell_volume 2266.794245
_symmetry_space_group_name_H-M "C 2/M"
_symmetry_group_IT_number 12
_symmetry_cell_setting 'monoclinic'
loop_
_space_group_symop_operation_xyz
x,y,z
-x,y,-z
-x,-y,-z
x,-y,z
1/2+x,1/2+y,z
1/2-x,1/2+y,-z
1/2-x,1/2-y,-z
1/2+x,1/2-y,z
loop_
_atom_site_type_symbol
_atom_site_label
_atom_site_fract_x
_atom_site_fract_y
_atom_site_fract_z
Si Si1 0.603645 0.366061 0.163404
Si Si2 0.114148 0.602271 0.248470
Si Si3 0.767549 0.231571 0.896213
Si Si4 0.737762 0.053454 0.439556
Si Si5 0.848359 0.551119 0.088901
O O1 0.338469 0.369734 0.207082
O O2 0.644506 0.320085 0.108774
O O3 0.640165 0.410159 0.100209
O O4 0.846660 0.370759 0.239370
O O5 0.198385 0.583554 0.348521
O O6 0.044436 0.560318 0.178626
O O7 0.482096 0.239097 0.852417
O O8 0.750000 0.250000 0.000000
O O9 0.500000 0.059423 0.500000
O O10 0.000000 0.064037 0.500000
O O11 0.747121 0.000000 0.414082
O O12 0.748362 0.500000 0.088482
O O13 0.000000 0.558275 0.000000
#
# Coordination Sequence:
#
# PCOD9194512 Si02
#       5
#     8   8   8   8   8
#     4  10  22  36  56  79 113 152 191 236 284 343
#     4  10  21  37  55  78 118 148 196 232 282 331
#     4  10  21  34  55  79 107 144 189 239 298 340
#     4  10  20  34  56  84 114 152 197 241 291 339
#     4   9  21  35  52  75 111 160 199 226 263 326
#
# _framework density 17.646065
#
# number of rings (size 3 to 8) (size 9 to 14) (size 15 to 20)
#    1.200    1.000    0.000    3.000    2.800    4.000 
#    0.000    2.000    0.000    0.000    0.000    0.000 
#    0.000   56.000    0.000    0.000    0.000    0.000 
#
# Total GULP energy -111383.836363 kJ/mol
# GULP energy per Si atom -5569.191818 kJ/mol
# Density = 1.760590 g / cm^3
# Si number density = 17.646065 Si / 1000 Ang^3
#
#
#
# Elastic Constant Matrix: (Units=GPa)
#
#
# Indices 1 2 3 4 5 6 
#
# 1 106.0785 11.6998 11.5638 0.0000 1.9249 0.0000
# 2 11.6998 78.5212 22.3219 0.0000 -6.3151 0.0000
# 3 11.5638 22.3219 70.6150 0.0000 14.7753 0.0000
# 4 0.0000 0.0000 0.0000 -6.1630 0.0000 23.3072
# 5 1.9249 -6.3151 14.7753 0.0000 20.7641 0.0000
# 6 0.0000 0.0000 0.0000 23.3072 0.0000 -2.8774
#
#
#
# Elastic Compliance Matrix: (Units=1/GPa)
#
#
# Indices 1 2 3 4 5 6 
#
# 1 0.009686 -0.001159 -0.001126 0.000000 -0.000450 0.000000
# 2 -0.001159 0.015610 -0.006768 0.000000 0.009671 0.000000
# 3 -0.001126 -0.006768 0.019849 0.000000 -0.016078 0.000000
# 4 0.000000 0.000000 0.000000 0.005476 0.000000 0.044353
# 5 -0.000450 0.009671 -0.016078 0.000000 0.062584 0.000000
# 6 0.000000 0.000000 0.000000 0.044353 0.000000 0.011728
#
#
# Mechanical properties :
#
#
# Convention : Reuss Voigt Hill
#
# Bulk Modulus (GPa) = 36.98382 38.48732 37.73557
# Shear Modulus (GPa) = 32.88351 16.32001 24.60176
#
# Velocity S-wave (km/s) = 4.32152 3.04444 3.73792
# Velocity P-wave (km/s) = 6.77531 5.84946 6.32934
#
# Compressibility (1/GPa) = 0.02703885
#
# Stress axis : x y z
#
# Youngs Moduli (GPa) = 103.24491 64.06156 50.37968
#
# Poissons Ratio (x) = 0.07427 0.05671
# Poissons Ratio (y) = 0.11970 0.34098
# Poissons Ratio (z) = 0.11621 0.43358
#
# Static dielectric constant tensor:
#      x y z
#    x 2.728710 0.000000 0.826550 
#    y 0.000000 1.603350 0.000000 
#    z 0.826550 0.000000 2.165700 
# 
# From -- ./inp_files/192162.got.cif
#   From: 2010.05.17/outbox.cif.g08.bks.cpg/sg12_97_cif.got.tgz:192162.got - 2010.06.03 13:09:07.
