data_PCOD9194690
_publ_section_title
;
Structure prediction by ZEFSAII (Michael W. Deem and Ramdas Pophale) SiO2 
 PCOD9194690
Probable space group: C 2/M
;
_chemical_formula_sum "Si O2"
_cell_formula_units_Z 64
_cell_length_a 31.837523
_cell_length_b 7.751056
_cell_length_c 11.358860
_cell_angle_alpha 90.000000
_cell_angle_beta 86.727716
_cell_angle_gamma 90.000000
_cell_volume 2798.505842
_symmetry_space_group_name_H-M "C 2/M"
_symmetry_group_IT_number 12
_symmetry_cell_setting 'monoclinic'
loop_
_space_group_symop_operation_xyz
x,y,z
-x,y,-z
-x,-y,-z
x,-y,z
1/2+x,1/2+y,z
1/2-x,1/2+y,-z
1/2-x,1/2-y,-z
1/2+x,1/2-y,z
loop_
_atom_site_type_symbol
_atom_site_label
_atom_site_fract_x
_atom_site_fract_y
_atom_site_fract_z
Si Si1 0.630991 0.700843 0.370085
Si Si2 0.643418 0.703780 0.863857
Si Si3 0.387677 0.208657 0.873669
Si Si4 0.737058 0.294514 0.865546
Si Si5 0.779268 0.205579 0.607354
Si Si6 0.518451 0.798152 0.117022
Si Si7 0.953429 0.801434 0.523142
Si Si8 0.437129 0.697933 0.256735
O O1 0.626781 0.500000 0.406972
O O2 0.637780 0.713582 0.229901
O O3 0.673102 0.775632 0.420393
O O4 0.584648 0.781562 0.397862
O O5 0.645848 0.500000 0.832927
O O6 0.690184 0.777570 0.846098
O O7 0.604465 0.777079 0.794691
O O8 0.630083 0.728148 0.000420
O O9 0.436123 0.271895 0.857451
O O10 0.385124 0.000000 0.868461
O O11 0.734770 0.500000 0.869071
O O12 0.763471 0.253383 0.742083
O O13 0.750000 0.250000 0.000000
O O14 0.750000 0.250000 0.500000
O O15 0.782893 0.000000 0.607941
O O16 0.481270 0.783059 0.215999
O O17 0.526527 0.000000 0.092805
O O18 0.500000 0.720586 0.000000
O O19 0.933988 0.805838 0.396376
O O20 0.000000 0.723378 0.500000
O O21 0.960924 0.000000 0.565902
O O22 0.440766 0.500000 0.213599
#
# Coordination Sequence:
#
# PCOD9194690 Si02
#       8
#     8   8   8   8   8   8   8   8
#     4  10  22  40  64  89 120 158 200 251 302 357
#     4  10  22  37  58  87 117 152 196 249 305 362
#     4  11  22  36  58  86 121 160 200 245 299 364
#     4  11  24  43  67  94 128 165 210 267 326 388
#     4  11  25  44  68  97 130 171 217 266 325 386
#     4  10  20  35  51  76 119 161 192 235 298 358
#     4   9  18  34  58  87 116 148 190 242 295 347
#     4  10  20  34  57  84 110 147 199 246 291 351
#
# _framework density 22.869344999999999
#
# number of rings (size 3 to 8) (size 9 to 14) (size 15 to 20)
#    0.000    1.750    1.250    2.625    1.750    7.250 
#    0.000    0.625    0.000    2.250    0.000    0.000 
#    0.000    0.000    0.000    0.000    0.000    0.000 
#
# Total GULP energy -178503.837248 kJ/mol
# GULP energy per Si atom -5578.244914 kJ/mol
# Density = 2.281729 g / cm^3
# Si number density = 22.869345 Si / 1000 Ang^3
#
#
#
# Elastic Constant Matrix: (Units=GPa)
#
#
# Indices 1 2 3 4 5 6 
#
# 1 172.1768 -0.0383 26.1384 0.0000 -1.7339 0.0000
# 2 -0.0383 38.9612 -12.6172 0.0000 -1.8191 0.0000
# 3 26.1384 -12.6172 74.4416 0.0000 -2.3216 0.0000
# 4 0.0000 0.0000 0.0000 5.4341 0.0000 -3.0053
# 5 -1.7339 -1.8191 -2.3216 0.0000 27.6197 0.0000
# 6 0.0000 0.0000 0.0000 -3.0053 0.0000 15.5735
#
#
#
# Elastic Compliance Matrix: (Units=1/GPa)
#
#
# Indices 1 2 3 4 5 6 
#
# 1 0.006155 -0.000725 -0.002280 0.000000 0.000147 0.000000
# 2 -0.000725 0.027374 0.004962 0.000000 0.002174 0.000000
# 3 -0.002280 0.004962 0.015120 0.000000 0.001455 0.000000
# 4 0.000000 0.000000 0.000000 0.206008 0.000000 0.039754
# 5 0.000147 0.002174 0.001455 0.000000 0.036481 0.000000
# 6 0.000000 0.000000 0.000000 0.039754 0.000000 0.071883
#
#
# Mechanical properties :
#
#
# Convention : Reuss Voigt Hill
#
# Bulk Modulus (GPa) = 19.02431 34.72726 26.87579
# Shear Modulus (GPa) = 13.27567 27.86524 20.57045
#
# Velocity S-wave (km/s) = 2.41197 3.49442 3.00238
# Velocity P-wave (km/s) = 4.01168 5.61243 4.87816
#
# Compressibility (1/GPa) = 0.05256433
#
# Stress axis : x y z
#
# Youngs Moduli (GPa) = 162.45943 36.53060 66.13664
#
# Poissons Ratio (x) = 0.02650 0.15077
# Poissons Ratio (y) = 0.11784 -0.32818
# Poissons Ratio (z) = 0.37035 -0.18127
#
# Static dielectric constant tensor:
#      x y z
#    x 1.951090 0.000000 -0.039860 
#    y 0.000000 1.975110 0.000000 
#    z -0.039860 0.000000 1.923350 
# 
# From -- ./inp_files/187460.got.cif
#   From: 2010.05.17/outbox.cif.g08.bks.cpg/sg12_94_cif.got.tgz:187460.got - 2010.06.03 13:09:07.
