data_PCOD9194546
_publ_section_title
;
Structure prediction by ZEFSAII (Michael W. Deem and Ramdas Pophale) SiO2 
 PCOD9194546
Probable space group: C 2/M
;
_chemical_formula_sum "Si O2"
_cell_formula_units_Z 44
_cell_length_a 21.162721
_cell_length_b 12.184183
_cell_length_c 11.447219
_cell_angle_alpha 90.000000
_cell_angle_beta 54.124863
_cell_angle_gamma 90.000000
_cell_volume 2391.727045
_symmetry_space_group_name_H-M "C 2/M"
_symmetry_group_IT_number 12
_symmetry_cell_setting 'monoclinic'
loop_
_space_group_symop_operation_xyz
x,y,z
-x,y,-z
-x,-y,-z
x,-y,z
1/2+x,1/2+y,z
1/2-x,1/2+y,-z
1/2-x,1/2-y,-z
1/2+x,1/2-y,z
loop_
_atom_site_type_symbol
_atom_site_label
_atom_site_fract_x
_atom_site_fract_y
_atom_site_fract_z
Si Si1 0.377759 0.871002 0.955655
Si Si2 0.216175 0.872663 0.218614
Si Si3 0.943600 0.247472 0.666010
Si Si4 0.727738 0.374282 0.478730
Si Si5 0.000000 0.726598 0.000000
Si Si6 0.953528 0.878282 0.262717
O O1 0.417700 0.834619 0.791917
O O2 0.368872 0.000000 0.966278
O O3 0.289963 0.825554 0.067115
O O4 0.432942 0.838872 0.004358
O O5 0.136240 0.806047 0.293572
O O6 0.242821 0.872388 0.324359
O O7 0.200800 0.000000 0.201796
O O8 0.000000 0.286146 0.500000
O O9 0.993361 0.160353 0.687310
O O10 0.756725 0.500000 0.488509
O O11 0.750000 0.250000 0.500000
O O12 0.635410 0.378760 0.600476
O O13 0.037275 0.799696 0.857650
O O14 0.977626 0.000000 0.201038
#
# Coordination Sequence:
#
# PCOD9194546 Si02
#       6
#     8   8   8   8   4   8
#     4  10  22  38  57  82 113 155 195 237 287 347
#     4  10  20  36  59  83 113 147 192 243 292 350
#     4  11  21  36  58  84 114 150 190 237 292 347
#     4  10  20  35  56  83 115 151 192 240 290 348
#     4  10  20  36  58  82 112 154 188 236 286 350
#     4  10  20  34  56  85 114 144 187 238 292 346
#
# _framework density 18.396747000000001
#
# number of rings (size 3 to 8) (size 9 to 14) (size 15 to 20)
#    0.000    1.818    1.818    2.727    0.000    1.091 
#    0.000    4.545    0.000    6.545    0.000    0.000 
#    0.000    0.000    0.000    0.000    0.000    0.000 
#
# Total GULP energy -122479.310657 kJ/mol
# GULP energy per Si atom -5567.241394 kJ/mol
# Density = 1.835488 g / cm^3
# Si number density = 18.396747 Si / 1000 Ang^3
#
#
#
# Elastic Constant Matrix: (Units=GPa)
#
#
# Indices 1 2 3 4 5 6 
#
# 1 58.2578 26.8560 46.1593 0.0000 2.5367 0.0000
# 2 26.8560 76.0484 23.5215 0.0000 1.6368 0.0000
# 3 46.1593 23.5215 122.9961 0.0000 -13.7245 0.0000
# 4 0.0000 0.0000 0.0000 12.3880 0.0000 -13.3651
# 5 2.5367 1.6368 -13.7245 0.0000 25.9259 0.0000
# 6 0.0000 0.0000 0.0000 -13.3651 0.0000 12.6810
#
#
#
# Elastic Compliance Matrix: (Units=1/GPa)
#
#
# Indices 1 2 3 4 5 6 
#
# 1 0.028918 -0.006815 -0.010434 0.000000 -0.007923 0.000000
# 2 -0.006815 0.015729 -0.000517 0.000000 -0.000600 0.000000
# 3 -0.010434 -0.000517 0.013032 0.000000 0.007953 0.000000
# 4 0.000000 0.000000 0.000000 -0.588846 0.000000 -0.620616
# 5 -0.007923 -0.000600 0.007953 0.000000 0.043594 0.000000
# 6 0.000000 0.000000 0.000000 -0.620616 0.000000 -0.575241
#
#
# Mechanical properties :
#
#
# Convention : Reuss Voigt Hill
#
# Bulk Modulus (GPa) = 45.15047 50.04176 47.59612
# Shear Modulus (GPa) = -4.90245 20.91668 8.00712
#
# Velocity S-wave (km/s) = -1.63421 3.37557 2.08852
# Velocity P-wave (km/s) = 4.58640 6.51560 5.63419
#
# Compressibility (1/GPa) = 0.02214817
#
# Stress axis : x y z
#
# Youngs Moduli (GPa) = 34.58006 63.57663 76.73236
#
# Poissons Ratio (x) = 0.43326 0.80060
# Poissons Ratio (y) = 0.23565 0.03970
# Poissons Ratio (z) = 0.36079 0.03290
#
# Static dielectric constant tensor:
#      x y z
#    x 1.619260 0.000000 -0.016300 
#    y 0.000000 1.660790 0.000000 
#    z -0.016300 0.000000 1.641250 
# 
# From -- ./inp_files/154106.got.cif
#   From: 2010.05.17/outbox.cif.g08.bks.cpg/sg12_78_cif.got.tgz:154106.got - 2010.06.03 13:09:07.
