data_PCOD9194466
_publ_section_title
;
Structure prediction by ZEFSAII (Michael W. Deem and Ramdas Pophale) SiO2 
 PCOD9194466
Probable space group: C 2/M
;
_chemical_formula_sum "Si O2"
_cell_formula_units_Z 56
_cell_length_a 22.051080
_cell_length_b 14.755172
_cell_length_c 9.568581
_cell_angle_alpha 90.000000
_cell_angle_beta 93.866537
_cell_angle_gamma 90.000000
_cell_volume 3106.218665
_symmetry_space_group_name_H-M "C 2/M"
_symmetry_group_IT_number 12
_symmetry_cell_setting 'monoclinic'
loop_
_space_group_symop_operation_xyz
x,y,z
-x,y,-z
-x,-y,-z
x,-y,z
1/2+x,1/2+y,z
1/2-x,1/2+y,-z
1/2-x,1/2-y,-z
1/2+x,1/2-y,z
loop_
_atom_site_type_symbol
_atom_site_label
_atom_site_fract_x
_atom_site_fract_y
_atom_site_fract_z
Si Si1 0.927866 0.802050 0.976849
Si Si2 0.766136 0.894452 0.767504
Si Si3 0.972235 0.000000 0.341679
Si Si4 0.124566 0.156459 0.749543
Si Si5 0.249651 0.602712 0.094217
Si Si6 0.155312 0.276169 0.249724
Si Si7 0.939690 0.000000 0.897077
Si Si8 0.813480 0.707967 0.451450
O O1 0.903831 0.735574 0.853986
O O2 0.908410 0.905843 0.933184
O O3 0.899740 0.784344 0.124159
O O4 0.000000 0.800405 0.000000
O O5 0.818899 0.826081 0.728072
O O6 0.708413 0.867573 0.662433
O O7 0.781596 0.000000 0.753403
O O8 0.754323 0.875952 0.930003
O O9 0.928553 0.913871 0.301357
O O10 0.000000 0.000000 0.500000
O O11 0.031627 0.000000 0.251671
O O12 0.184658 0.108848 0.821786
O O13 0.147747 0.217550 0.625813
O O14 0.226942 0.500000 0.103116
O O15 0.205468 0.670656 0.167577
O O16 0.151242 0.319589 0.402258
O O17 0.000000 0.000000 0.000000
O O18 0.750000 0.750000 0.500000
#
# Coordination Sequence:
#
# PCOD9194466 Si02
#       8
#     8   8   4   8   8   8   4   8
#     4  11  22  36  61  81 114 160 207 244 291 347
#     4  10  20  34  56  83 115 152 194 239 301 367
#     4  12  26  38  54  88 130 166 205 243 296 361
#     4  12  20  37  58  79 119 161 194 248 288 353
#     4  11  21  35  61  89 111 156 202 248 308 349
#     4  11  22  38  55  85 123 153 199 249 304 365
#     4  10  20  40  54  84 118 158 214 242 280 358
#     4  10  22  37  50  83 120 158 195 236 307 367
#
# _framework density 18.028351000000001
#
# number of rings (size 3 to 8) (size 9 to 14) (size 15 to 20)
#    0.000    1.143    7.857    1.286    3.000    0.571 
#    5.143    0.000    0.000    0.429    0.000    0.000 
#    0.000    5.143    0.000    0.000    0.000    0.000 
#
# Total GULP energy -156177.827918 kJ/mol
# GULP energy per Si atom -5577.779568 kJ/mol
# Density = 1.798732 g / cm^3
# Si number density = 18.028351 Si / 1000 Ang^3
#
#
#
# Elastic Constant Matrix: (Units=GPa)
#
#
# Indices 1 2 3 4 5 6 
#
# 1 59.6608 13.0752 30.5890 0.0000 8.2606 0.0000
# 2 13.0752 36.4147 16.9275 0.0000 2.4427 0.0000
# 3 30.5890 16.9275 126.6005 0.0000 14.9386 0.0000
# 4 0.0000 0.0000 0.0000 11.8704 0.0000 0.7563
# 5 8.2606 2.4427 14.9386 0.0000 39.9262 0.0000
# 6 0.0000 0.0000 0.0000 0.7563 0.0000 21.1908
#
#
#
# Elastic Compliance Matrix: (Units=1/GPa)
#
#
# Indices 1 2 3 4 5 6 
#
# 1 0.020256 -0.005298 -0.003902 0.000000 -0.002407 0.000000
# 2 -0.005298 0.030672 -0.002855 0.000000 0.000288 0.000000
# 3 -0.003902 -0.002855 0.009528 0.000000 -0.002583 0.000000
# 4 0.000000 0.000000 0.000000 0.084435 0.000000 -0.003013
# 5 -0.002407 0.000288 -0.002583 0.000000 0.026493 0.000000
# 6 0.000000 0.000000 0.000000 -0.003013 0.000000 0.047298
#
#
# Mechanical properties :
#
#
# Convention : Reuss Voigt Hill
#
# Bulk Modulus (GPa) = 27.51302 38.20658 32.85980
# Shear Modulus (GPa) = 19.61499 25.40311 22.50905
#
# Velocity S-wave (km/s) = 3.30208 3.75782 3.53730
# Velocity P-wave (km/s) = 5.46190 6.32984 5.91182
#
# Compressibility (1/GPa) = 0.03634643
#
# Stress axis : x y z
#
# Youngs Moduli (GPa) = 49.36722 32.60345 104.95222
#
# Poissons Ratio (x) = 0.17273 0.40951
# Poissons Ratio (y) = 0.26155 0.29963
# Poissons Ratio (z) = 0.19263 0.09308
#
# Static dielectric constant tensor:
#      x y z
#    x 1.592810 0.000000 0.056970 
#    y 0.000000 1.626180 0.000000 
#    z 0.056970 0.000000 1.627970 
# 
# From -- ./inp_files/86418.got.cif
#   From: 2010.05.17/outbox.cif.g08.bks.cpg/sg12_44_cif.got.tgz:86418.got - 2010.06.03 13:09:07.
