data_PCOD9194958
_publ_section_title
;
Structure prediction by ZEFSAII (Michael W. Deem and Ramdas Pophale) SiO2 
 PCOD9194958
Probable space group: C 2/M
;
_chemical_formula_sum "Si O2"
_cell_formula_units_Z 52
_cell_length_a 13.339087
_cell_length_b 16.624125
_cell_length_c 14.989464
_cell_angle_alpha 90.000000
_cell_angle_beta 46.796821
_cell_angle_gamma 90.000000
_cell_volume 2422.909613
_symmetry_space_group_name_H-M "C 2/M"
_symmetry_group_IT_number 12
_symmetry_cell_setting 'monoclinic'
loop_
_space_group_symop_operation_xyz
x,y,z
-x,y,-z
-x,-y,-z
x,-y,z
1/2+x,1/2+y,z
1/2-x,1/2+y,-z
1/2-x,1/2-y,-z
1/2+x,1/2-y,z
loop_
_atom_site_type_symbol
_atom_site_label
_atom_site_fract_x
_atom_site_fract_y
_atom_site_fract_z
Si Si1 0.890281 0.405038 0.418743
Si Si2 0.845165 0.591956 0.109746
Si Si3 0.586083 0.695926 0.855381
Si Si4 0.000000 0.719652 0.500000
Si Si5 0.136952 0.092144 0.099895
Si Si6 0.301123 0.088530 0.815950
Si Si7 0.259914 0.166831 0.331215
O O1 0.862860 0.500000 0.459312
O O2 0.779220 0.366488 0.419164
O O3 0.924561 0.342715 0.477638
O O4 0.035978 0.404946 0.277616
O O5 0.851242 0.500000 0.073743
O O6 0.729045 0.633417 0.119929
O O7 0.787151 0.595599 0.244519
O O8 0.000000 0.622118 0.000000
O O9 0.498846 0.637621 0.845902
O O10 0.727705 0.654254 0.800032
O O11 0.620365 0.772881 0.775508
O O12 0.500000 0.706649 0.000000
O O13 0.878931 0.782603 0.599691
O O14 0.101142 0.000000 0.144902
O O15 0.233547 0.091815 0.953930
O O16 0.268784 0.000000 0.797071
#
# Coordination Sequence:
#
# PCOD9194958 Si02
#       7
#     8   8   8   4   8   8   8
#     4  11  24  46  70  92 121 172 225 267 317 389
#     4  10  21  40  64  94 132 174 213 251 310 397
#     4  10  20  34  58  95 133 165 204 262 324 383
#     4  12  27  48  69  92 130 164 220 280 329 374
#     4   9  18  32  57  93 131 168 206 254 315 386
#     4   9  17  34  60  90 127 170 213 258 314 387
#     4  12  25  42  66  95 129 166 209 270 328 377
#
# _framework density 21.461798000000002
#
# number of rings (size 3 to 8) (size 9 to 14) (size 15 to 20)
#    0.000    1.692    1.538    3.000    2.154    4.308 
#    0.000    5.385    0.000    0.000    0.000    0.000 
#    0.000    0.000    0.000    0.000    0.000    0.000 
#
# Total GULP energy -144951.224367 kJ/mol
# GULP energy per Si atom -5575.047091 kJ/mol
# Density = 2.141295 g / cm^3
# Si number density = 21.461798 Si / 1000 Ang^3
#
#
#
# Elastic Constant Matrix: (Units=GPa)
#
#
# Indices 1 2 3 4 5 6 
#
# 1 102.9625 31.9007 14.6860 0.0000 14.5712 0.0000
# 2 31.9007 82.0135 13.8876 0.0000 -3.0199 0.0000
# 3 14.6860 13.8876 33.1381 0.0000 -5.4782 0.0000
# 4 0.0000 0.0000 0.0000 19.4433 0.0000 6.7668
# 5 14.5712 -3.0199 -5.4782 0.0000 27.1507 0.0000
# 6 0.0000 0.0000 0.0000 6.7668 0.0000 5.3517
#
#
#
# Elastic Compliance Matrix: (Units=1/GPa)
#
#
# Indices 1 2 3 4 5 6 
#
# 1 0.013085 -0.004503 -0.005334 0.000000 -0.008600 0.000000
# 2 -0.004503 0.014678 -0.003606 0.000000 0.003322 0.000000
# 3 -0.005334 -0.003606 0.035648 0.000000 0.009654 0.000000
# 4 0.000000 0.000000 0.000000 0.091850 0.000000 -0.116137
# 5 -0.008600 0.003322 0.009654 0.000000 0.043764 0.000000
# 6 0.000000 0.000000 0.000000 -0.116137 0.000000 0.333699
#
#
# Mechanical properties :
#
#
# Convention : Reuss Voigt Hill
#
# Bulk Modulus (GPa) = 27.37884 37.67365 32.52625
# Shear Modulus (GPa) = 8.74454 20.89847 14.82150
#
# Velocity S-wave (km/s) = 2.02072 3.12388 2.63078
# Velocity P-wave (km/s) = 4.26956 5.53204 4.94128
#
# Compressibility (1/GPa) = 0.03652455
#
# Stress axis : x y z
#
# Youngs Moduli (GPa) = 76.42169 68.13045 28.05231
#
# Poissons Ratio (x) = 0.30681 0.14962
# Poissons Ratio (y) = 0.34415 0.10116
# Poissons Ratio (z) = 0.40760 0.24570
#
# Static dielectric constant tensor:
#      x y z
#    x 1.795730 0.000000 0.017880 
#    y 0.000000 1.841210 0.000000 
#    z 0.017880 0.000000 1.788100 
# 
# From -- ./inp_files/206018.got.cif
#   From: 2010.05.17/outbox.cif.g08.bks.cpg/sg12_104_cif.got.tgz:206018.got - 2010.06.03 13:09:07.
