data_PCOD9194170
_publ_section_title
;
Structure prediction by ZEFSAII (Michael W. Deem and Ramdas Pophale) SiO2 
 PCOD9194170
Probable space group: C 2/M
;
_chemical_formula_sum "Si O2"
_cell_formula_units_Z 48
_cell_length_a 9.139912
_cell_length_b 10.763267
_cell_length_c 26.352429
_cell_angle_alpha 90.000000
_cell_angle_beta 72.831550
_cell_angle_gamma 90.000000
_cell_volume 2476.912565
_symmetry_space_group_name_H-M "C 2/M"
_symmetry_group_IT_number 12
_symmetry_cell_setting 'monoclinic'
loop_
_space_group_symop_operation_xyz
x,y,z
-x,y,-z
-x,-y,-z
x,-y,z
1/2+x,1/2+y,z
1/2-x,1/2+y,-z
1/2-x,1/2-y,-z
1/2+x,1/2-y,z
loop_
_atom_site_type_symbol
_atom_site_label
_atom_site_fract_x
_atom_site_fract_y
_atom_site_fract_z
Si Si1 0.588659 0.141350 0.942872
Si Si2 0.331154 0.640246 0.198203
Si Si3 0.113876 0.349341 0.312389
Si Si4 0.379124 0.789060 0.872043
Si Si5 0.617330 0.500000 0.562845
Si Si6 0.770305 0.000000 0.558498
Si Si7 0.320155 0.745564 0.377732
O O1 0.471911 0.142932 0.907254
O O2 0.746822 0.206929 0.911991
O O3 0.626566 0.000000 0.952496
O O4 0.500000 0.199650 0.000000
O O5 0.377702 0.500000 0.205244
O O6 0.229599 0.686207 0.255666
O O7 0.484531 0.714984 0.170025
O O8 0.218029 0.640687 0.161046
O O9 0.101132 0.500000 0.314496
O O10 0.175645 0.297238 0.359472
O O11 0.951320 0.282893 0.324090
O O12 0.445041 0.500000 0.559741
O O13 0.728308 0.500000 0.502584
O O14 0.639904 0.625382 0.592782
O O15 0.701350 0.871391 0.587312
#
# Coordination Sequence:
#
# PCOD9194170 Si02
#       7
#     8   8   8   8   4   4   8
#     4  10  20  34  55  82 113 148 186 233 283 336
#     4  10  21  37  56  82 111 151 187 238 286 339
#     4  11  23  38  61  86 119 150 197 242 297 349
#     4  10  20  36  56  80 112 148 192 232 280 338
#     4  11  24  41  63  91 123 155 195 241 294 349
#     4  11  24  41  63  91 123 155 195 241 294 349
#     4  12  22  42  62  90 118 158 192 246 292 352
#
# _framework density 19.378962999999999
#
# number of rings (size 3 to 8) (size 9 to 14) (size 15 to 20)
#    0.000    1.333    3.333    3.000    0.000    0.000 
#    0.000    0.833    3.667    8.000    0.000    0.000 
#    0.000    0.000    0.000    0.000    0.000    0.000 
#
# Total GULP energy -133843.215403 kJ/mol
# GULP energy per Si atom -5576.800642 kJ/mol
# Density = 1.933486 g / cm^3
# Si number density = 19.378963 Si / 1000 Ang^3
#
#
#
# Elastic Constant Matrix: (Units=GPa)
#
#
# Indices 1 2 3 4 5 6 
#
# 1 67.9636 15.8243 7.6232 0.0000 -8.9183 0.0000
# 2 15.8243 87.5378 39.6799 0.0000 -10.7842 0.0000
# 3 7.6232 39.6799 100.3209 0.0000 -21.4327 0.0000
# 4 0.0000 0.0000 0.0000 17.6805 0.0000 1.6186
# 5 -8.9183 -10.7842 -21.4327 0.0000 30.0223 0.0000
# 6 0.0000 0.0000 0.0000 1.6186 0.0000 8.2730
#
#
#
# Elastic Compliance Matrix: (Units=1/GPa)
#
#
# Indices 1 2 3 4 5 6 
#
# 1 0.015814 -0.002682 0.000775 0.000000 0.004288 0.000000
# 2 -0.002682 0.014415 -0.005383 0.000000 0.000539 0.000000
# 3 0.000775 -0.005383 0.013775 0.000000 0.008131 0.000000
# 4 0.000000 0.000000 0.000000 0.057591 0.000000 -0.011267
# 5 0.004288 0.000539 0.008131 0.000000 0.040580 0.000000
# 6 0.000000 0.000000 0.000000 -0.011267 0.000000 0.123080
#
#
# Mechanical properties :
#
#
# Convention : Reuss Voigt Hill
#
# Bulk Modulus (GPa) = 33.98462 42.45301 38.21882
# Shear Modulus (GPa) = 17.26272 24.04148 20.65210
#
# Velocity S-wave (km/s) = 2.98786 3.52603 3.26804
# Velocity P-wave (km/s) = 5.42937 6.20738 5.83136
#
# Compressibility (1/GPa) = 0.02942507
#
# Stress axis : x y z
#
# Youngs Moduli (GPa) = 63.23563 69.37393 72.59448
#
# Poissons Ratio (x) = 0.18605 -0.05627
# Poissons Ratio (y) = 0.16959 0.39074
# Poissons Ratio (z) = -0.04901 0.37341
#
# Static dielectric constant tensor:
#      x y z
#    x 1.644890 0.000000 -0.008320 
#    y 0.000000 1.643020 0.000000 
#    z -0.008320 0.000000 1.701310 
# 
# From -- ./inp_files/332077.got.cif
#   From: 2010.05.17/outbox.cif.g08.bks.cpg/sg12_167_cif.got.tgz:332077.got - 2010.06.03 13:09:07.
