data_PCOD9194485
_publ_section_title
;
Structure prediction by ZEFSAII (Michael W. Deem and Ramdas Pophale) SiO2 
 PCOD9194485
Probable space group: C 2/M
;
_chemical_formula_sum "Si O2"
_cell_formula_units_Z 48
_cell_length_a 19.593195
_cell_length_b 7.548779
_cell_length_c 25.523559
_cell_angle_alpha 90.000000
_cell_angle_beta 30.388927
_cell_angle_gamma 90.000000
_cell_volume 1909.675644
_symmetry_space_group_name_H-M "C 2/M"
_symmetry_group_IT_number 12
_symmetry_cell_setting 'monoclinic'
loop_
_space_group_symop_operation_xyz
x,y,z
-x,y,-z
-x,-y,-z
x,-y,z
1/2+x,1/2+y,z
1/2-x,1/2+y,-z
1/2-x,1/2-y,-z
1/2+x,1/2-y,z
loop_
_atom_site_type_symbol
_atom_site_label
_atom_site_fract_x
_atom_site_fract_y
_atom_site_fract_z
Si Si1 0.819583 0.703922 0.669968
Si Si2 0.931341 0.717088 0.432319
Si Si3 0.075724 0.705596 0.233388
Si Si4 0.576896 0.204491 0.898117
Si Si5 0.320671 0.711702 0.008430
Si Si6 0.675023 0.715077 0.662161
O O1 0.845871 0.500000 0.638404
O O2 0.715682 0.709150 0.787443
O O3 0.741553 0.780506 0.671965
O O4 0.963057 0.776490 0.592970
O O5 0.930623 0.500000 0.432100
O O6 0.780478 0.769824 0.546928
O O7 0.994977 0.782642 0.335975
O O8 0.100606 0.500000 0.229212
O O9 0.217789 0.782316 0.121121
O O10 0.972402 0.716389 0.253391
O O11 0.607612 0.000000 0.888582
O O12 0.500000 0.280428 0.000000
O O13 0.468505 0.216655 0.922744
O O14 0.331358 0.500000 0.005435
O O15 0.250000 0.750000 0.000000
O O16 0.665066 0.500000 0.670360
#
# Coordination Sequence:
#
# PCOD9194485 Si02
#       6
#     8   8   8   8   8   8
#     4  10  20  36  59  83 108 143 186 229 275 329
#     4   9  18  35  57  81 109 142 183 226 269 324
#     4  10  21  36  55  79 109 145 182 223 271 327
#     4  11  24  40  58  83 115 149 188 236 286 335
#     4  11  23  39  60  85 114 150 191 234 282 336
#     4  10  20  34  56  84 111 141 179 225 274 326
#
# _framework density 25.135158000000001
#
# number of rings (size 3 to 8) (size 9 to 14) (size 15 to 20)
#    0.000    1.833    0.000    4.000    0.000    9.333 
#    0.000    1.667    0.000    2.000    0.000    0.000 
#    0.000    0.000    0.000    0.000    0.000    0.000 
#
# Total GULP energy -134303.313365 kJ/mol
# GULP energy per Si atom -5595.971390 kJ/mol
# Density = 2.507795 g / cm^3
# Si number density = 25.135158 Si / 1000 Ang^3
#
#
#
# Elastic Constant Matrix: (Units=GPa)
#
#
# Indices 1 2 3 4 5 6 
#
# 1 73.4055 -8.9128 -5.3015 -0.0006 -6.4042 0.0011
# 2 -8.9128 72.3481 -2.1959 -0.0003 2.9927 0.0006
# 3 -5.3015 -2.1959 100.6276 -0.0004 -12.7768 0.0004
# 4 -0.0006 -0.0003 -0.0004 8.4348 0.0001 0.4657
# 5 -6.4042 2.9927 -12.7768 0.0001 48.9148 -0.0004
# 6 0.0011 0.0006 0.0004 0.4657 -0.0004 17.9718
#
#
#
# Elastic Compliance Matrix: (Units=1/GPa)
#
#
# Indices 1 2 3 4 5 6 
#
# 1 0.014077 0.001682 0.001034 0.000001 0.002010 -0.000001
# 2 0.001682 0.014062 0.000325 0.000001 -0.000555 -0.000001
# 3 0.001034 0.000325 0.010357 0.000000 0.002821 0.000000
# 4 0.000001 0.000001 0.000000 0.118726 0.000000 -0.003076
# 5 0.002010 -0.000555 0.002821 0.000000 0.021478 0.000000
# 6 -0.000001 -0.000001 0.000000 -0.003076 0.000000 0.055722
#
#
# Mechanical properties :
#
#
# Convention : Reuss Voigt Hill
#
# Bulk Modulus (GPa) = 22.43216 23.72898 23.08057
# Shear Modulus (GPa) = 20.55918 32.58371 26.57145
#
# Velocity S-wave (km/s) = 2.86308 3.60438 3.25490
# Velocity P-wave (km/s) = 4.45798 5.17524 4.82994
#
# Compressibility (1/GPa) = 0.04457886
#
# Stress axis : x y z
#
# Youngs Moduli (GPa) = 71.03660 71.11282 96.54988
#
# Poissons Ratio (x) = -0.11964 -0.09979
# Poissons Ratio (y) = -0.11952 -0.03138
# Poissons Ratio (z) = -0.07342 -0.02311
#
# Static dielectric constant tensor:
#      x y z
#    x 2.004140 0.000000 0.070820 
#    y 0.000000 1.957130 0.000000 
#    z 0.070820 0.000000 1.959560 
# 
# From -- ./inp_files/365373.got.cif
#   From: 2010.05.17/outbox.cif.g08.bks.cpg/sg12_183_cif.got.tgz:365373.got - 2010.06.03 13:09:07.
