data_PCOD9194683
_publ_section_title
;
Structure prediction by ZEFSAII (Michael W. Deem and Ramdas Pophale) SiO2 
 PCOD9194683
Probable space group: C 2/M
;
_chemical_formula_sum "Si O2"
_cell_formula_units_Z 40
_cell_length_a 9.613284
_cell_length_b 18.602177
_cell_length_c 15.291255
_cell_angle_alpha 90.000000
_cell_angle_beta 115.294501
_cell_angle_gamma 90.000000
_cell_volume 2472.330137
_symmetry_space_group_name_H-M "C 2/M"
_symmetry_group_IT_number 12
_symmetry_cell_setting 'monoclinic'
loop_
_space_group_symop_operation_xyz
x,y,z
-x,y,-z
-x,-y,-z
x,-y,z
1/2+x,1/2+y,z
1/2-x,1/2+y,-z
1/2-x,1/2-y,-z
1/2+x,1/2-y,z
loop_
_atom_site_type_symbol
_atom_site_label
_atom_site_fract_x
_atom_site_fract_y
_atom_site_fract_z
Si Si1 0.862888 0.818940 0.031619
Si Si2 0.068645 0.194889 0.750488
Si Si3 0.597241 0.584516 0.614045
Si Si4 0.627904 0.825917 0.261585
Si Si5 0.419260 0.915208 0.072421
O O1 0.928146 0.825524 0.147099
O O2 0.750000 0.750000 0.000000
O O3 0.753807 0.886034 0.979785
O O4 0.000000 0.809913 0.000000
O O5 0.023942 0.129058 0.675037
O O6 0.244400 0.210449 0.767791
O O7 0.962850 0.264529 0.711871
O O8 0.500000 0.594397 0.500000
O O9 0.608699 0.500000 0.636373
O O10 0.766798 0.620278 0.653159
O O11 0.511834 0.870781 0.170101
O O12 0.426162 0.000000 0.092006
O O13 0.500000 0.902191 0.000000
#
# Coordination Sequence:
#
# PCOD9194683 Si02
#       5
#     8   8   8   8   8
#     4  12  22  34  55  79 115 154 189 228 283 336
#     4  10  21  34  57  85 113 144 190 236 279 335
#     4   9  20  39  62  84 111 148 189 236 290 345
#     4  10  20  34  57  83 112 145 185 235 283 335
#     4  11  21  35  54  78 111 154 197 237 279 337
#
# _framework density 16.179068999999998
#
# number of rings (size 3 to 8) (size 9 to 14) (size 15 to 20)
#    1.200    0.400    4.000    2.400    0.000    2.000 
#    0.000    0.000    0.000    0.000    0.000    2.800 
#    0.000    0.000    0.000    0.000    0.000    0.000 
#
# Total GULP energy -111415.741818 kJ/mol
# GULP energy per Si atom -5570.787091 kJ/mol
# Density = 1.614224 g / cm^3
# Si number density = 16.179069 Si / 1000 Ang^3
#
#
#
# Elastic Constant Matrix: (Units=GPa)
#
#
# Indices 1 2 3 4 5 6 
#
# 1 90.4285 57.8305 32.8977 0.0000 -6.2950 0.0000
# 2 57.8305 129.8979 69.8078 0.0000 8.4190 0.0000
# 3 32.8977 69.8078 100.0018 0.0000 9.7334 0.0000
# 4 0.0000 0.0000 0.0000 29.7732 0.0000 3.7824
# 5 -6.2950 8.4190 9.7334 0.0000 22.3120 0.0000
# 6 0.0000 0.0000 0.0000 3.7824 0.0000 28.1567
#
#
#
# Elastic Compliance Matrix: (Units=1/GPa)
#
#
# Indices 1 2 3 4 5 6 
#
# 1 0.016734 -0.007348 -0.001154 0.000000 0.007997 0.000000
# 2 -0.007348 0.015566 -0.008015 0.000000 -0.004450 0.000000
# 3 -0.001154 -0.008015 0.016409 0.000000 -0.004459 0.000000
# 4 0.000000 0.000000 0.000000 0.034170 0.000000 -0.004590
# 5 0.007997 -0.004450 -0.004459 0.000000 0.050700 0.000000
# 6 0.000000 0.000000 0.000000 -0.004590 0.000000 0.036132
#
#
# Mechanical properties :
#
#
# Convention : Reuss Voigt Hill
#
# Bulk Modulus (GPa) = 63.80179 71.26670 67.53425
# Shear Modulus (GPa) = 24.04181 26.70118 25.37149
#
# Velocity S-wave (km/s) = 3.85903 4.06686 3.96431
# Velocity P-wave (km/s) = 7.70561 8.13614 7.92380
#
# Compressibility (1/GPa) = 0.01567354
#
# Stress axis : x y z
#
# Youngs Moduli (GPa) = 59.75727 64.24348 60.94319
#
# Poissons Ratio (x) = 0.47208 0.07032
# Poissons Ratio (y) = 0.43912 0.48848
# Poissons Ratio (z) = 0.06895 0.51494
#
# Static dielectric constant tensor:
#      x y z
#    x 1.540500 0.000000 0.008110 
#    y 0.000000 1.546800 0.000000 
#    z 0.008110 0.000000 1.532220 
# 
# From -- ./inp_files/195093.got.cif
#   From: 2010.05.17/outbox.cif.g08.bks.cpg/sg12_98_cif.got.tgz:195093.got - 2010.06.03 13:09:07.
