data_PCOD9194018
_publ_section_title
;
Structure prediction by ZEFSAII (Michael W. Deem and Ramdas Pophale) SiO2 
 PCOD9194018
Probable space group: C 2/M
;
_chemical_formula_sum "Si O2"
_cell_formula_units_Z 40
_cell_length_a 8.354224
_cell_length_b 28.095630
_cell_length_c 16.584537
_cell_angle_alpha 90.000000
_cell_angle_beta 155.905831
_cell_angle_gamma 90.000000
_cell_volume 1589.136492
_symmetry_space_group_name_H-M "C 2/M"
_symmetry_group_IT_number 12
_symmetry_cell_setting 'monoclinic'
loop_
_space_group_symop_operation_xyz
x,y,z
-x,y,-z
-x,-y,-z
x,-y,z
1/2+x,1/2+y,z
1/2-x,1/2+y,-z
1/2-x,1/2-y,-z
1/2+x,1/2-y,z
loop_
_atom_site_type_symbol
_atom_site_label
_atom_site_fract_x
_atom_site_fract_y
_atom_site_fract_z
Si Si1 0.382657 0.910070 0.223540
Si Si2 0.191792 0.398669 0.196213
Si Si3 0.437449 0.803343 0.290227
Si Si4 0.922692 0.054798 0.764926
Si Si5 0.261931 0.705637 0.260382
O O1 0.704314 0.906304 0.299451
O O2 0.285229 0.856745 0.211437
O O3 0.406278 0.939188 0.316868
O O4 0.000000 0.928010 0.000000
O O5 0.551623 0.413996 0.304714
O O6 0.116127 0.342190 0.150972
O O7 0.823889 0.428919 0.994710
O O8 0.176256 0.757171 0.184939
O O9 0.615223 0.794492 0.284130
O O10 0.766997 0.801861 0.511753
O O11 0.938259 0.000000 0.747934
#
# Coordination Sequence:
#
# PCOD9194018 Si02
#       5
#     8   8   8   8   8
#     4   9  19  34  50  76 105 132 169 211 257 300
#     4   9  18  33  50  76 103 130 171 214 251 301
#     4   9  18  33  50  75 103 137 174 203 248 313
#     4  10  20  34  55  77 100 135 176 212 259 307
#     4   9  18  32  52  73 102 140 171 204 254 299
#
# _framework density 25.170902999999999
#
# number of rings (size 3 to 8) (size 9 to 14) (size 15 to 20)
#    0.000    2.800    0.000    1.200    2.800    4.400 
#    3.600    3.000    0.000    3.600    0.000   21.000 
#    0.000    0.000    0.000    0.000    0.000    0.000 
#
# Total GULP energy -111596.241774 kJ/mol
# GULP energy per Si atom -5579.812089 kJ/mol
# Density = 2.511361 g / cm^3
# Si number density = 25.170903 Si / 1000 Ang^3
#
#
#
# Elastic Constant Matrix: (Units=GPa)
#
#
# Indices 1 2 3 4 5 6 
#
# 1 153.8503 44.6194 11.3983 0.0000 -1.0318 0.0000
# 2 44.6194 122.5671 -16.0601 0.0001 -0.7474 0.0000
# 3 11.3983 -16.0601 67.8589 0.0001 -14.5313 -0.0001
# 4 0.0000 0.0001 0.0001 31.4903 0.0000 -3.6553
# 5 -1.0318 -0.7474 -14.5313 0.0000 32.1262 0.0000
# 6 0.0000 0.0000 -0.0001 -3.6553 0.0000 45.7660
#
#
#
# Elastic Compliance Matrix: (Units=1/GPa)
#
#
# Indices 1 2 3 4 5 6 
#
# 1 0.007533 -0.003029 -0.002154 0.000000 -0.000803 0.000000
# 2 -0.003029 0.009681 0.003131 0.000000 0.001544 0.000000
# 3 -0.002154 0.003131 0.017539 0.000000 0.007937 0.000000
# 4 0.000000 0.000000 0.000000 0.032053 0.000000 0.002560
# 5 -0.000803 0.001544 0.007937 0.000000 0.034727 0.000000
# 6 0.000000 0.000000 0.000000 0.002560 0.000000 0.022055
#
#
# Mechanical properties :
#
#
# Convention : Reuss Voigt Hill
#
# Bulk Modulus (GPa) = 32.62944 47.13238 39.88091
# Shear Modulus (GPa) = 36.25580 42.16439 39.21010
#
# Velocity S-wave (km/s) = 3.79936 4.09727 3.95112
# Velocity P-wave (km/s) = 5.67786 6.41475 6.05752
#
# Compressibility (1/GPa) = 0.03064717
#
# Stress axis : x y z
#
# Youngs Moduli (GPa) = 132.75639 103.29262 57.01641
#
# Poissons Ratio (x) = 0.31291 0.12282
# Poissons Ratio (y) = 0.40216 -0.17850
# Poissons Ratio (z) = 0.28597 -0.32338
#
# Static dielectric constant tensor:
#      x y z
#    x 1.887330 0.000000 -0.264020 
#    y 0.000000 1.931870 0.000000 
#    z -0.264020 0.000000 1.333850 
# 
# From -- ./inp_files/121261.got.cif
#   From: 2010.05.17/outbox.cif.g08.bks.cpg/sg12_61_cif.got.tgz:121261.got - 2010.06.03 13:09:07.
