data_PCOD9194446
_publ_section_title
;
Structure prediction by ZEFSAII (Michael W. Deem and Ramdas Pophale) SiO2 
 PCOD9194446
Probable space group: C 2/M
;
_chemical_formula_sum "Si O2"
_cell_formula_units_Z 64
_cell_length_a 20.546748
_cell_length_b 8.674391
_cell_length_c 31.349784
_cell_angle_alpha 90.000000
_cell_angle_beta 143.445463
_cell_angle_gamma 90.000000
_cell_volume 3327.839243
_symmetry_space_group_name_H-M "C 2/M"
_symmetry_group_IT_number 12
_symmetry_cell_setting 'monoclinic'
loop_
_space_group_symop_operation_xyz
x,y,z
-x,y,-z
-x,-y,-z
x,-y,z
1/2+x,1/2+y,z
1/2-x,1/2+y,-z
1/2-x,1/2-y,-z
1/2+x,1/2-y,z
loop_
_atom_site_type_symbol
_atom_site_label
_atom_site_fract_x
_atom_site_fract_y
_atom_site_fract_z
Si Si1 0.659955 0.684390 0.757046
Si Si2 0.506884 0.185420 0.168655
Si Si3 0.082841 0.814590 0.399152
Si Si4 0.164793 0.315686 0.989586
Si Si5 0.116447 0.315158 0.577737
Si Si6 0.237434 0.184456 0.269777
Si Si7 0.182361 0.315416 0.863500
Si Si8 0.223233 0.183277 0.553909
O O1 0.665440 0.500000 0.762058
O O2 0.540744 0.729423 0.675860
O O3 0.747292 0.745424 0.768972
O O4 0.671997 0.752065 0.810546
O O5 0.624075 0.263959 0.231454
O O6 0.421256 0.232151 0.160945
O O7 0.518946 0.000000 0.177783
O O8 0.450797 0.221822 0.093227
O O9 0.127319 0.774449 0.469636
O O10 0.164757 0.733890 0.409353
O O11 0.093612 0.000000 0.400483
O O12 0.173590 0.500000 0.996294
O O13 0.206755 0.244789 0.055690
O O14 0.250000 0.250000 0.000000
O O15 0.107784 0.500000 0.575848
O O16 0.163150 0.259671 0.647449
O O17 0.202485 0.269727 0.586793
O O18 0.000000 0.252732 0.500000
O O19 0.241106 0.000000 0.269128
O O20 0.183634 0.500000 0.864090
O O21 0.221681 0.000000 0.559651
#
# Coordination Sequence:
#
# PCOD9194446 Si02
#       8
#     8   8   8   8   8   8   8   8
#     4  11  23  39  59  81 114 155 193 239 291 347
#     4   9  20  38  60  87 120 153 187 235 286 339
#     4   9  20  37  55  79 111 146 186 233 289 345
#     4   9  17  33  58  88 119 153 192 235 286 340
#     4  10  22  39  57  78 110 151 194 239 289 344
#     4  11  24  39  58  84 115 153 195 241 293 347
#     4  10  21  37  60  90 121 153 193 237 286 346
#     4  10  20  34  56  83 108 141 187 239 289 341
#
# _framework density 19.231698000000002
#
# number of rings (size 3 to 8) (size 9 to 14) (size 15 to 20)
#    0.000    2.125    0.000    3.375    1.750    5.750 
#    0.000    0.625    0.000    3.750    0.000    0.000 
#    0.000    0.000    0.000    0.000    0.000    0.000 
#
# Total GULP energy -178610.017384 kJ/mol
# GULP energy per Si atom -5581.563043 kJ/mol
# Density = 1.918793 g / cm^3
# Si number density = 19.231698 Si / 1000 Ang^3
#
#
#
# Elastic Constant Matrix: (Units=GPa)
#
#
# Indices 1 2 3 4 5 6 
#
# 1 83.7346 15.5305 45.2756 0.0000 -22.1905 0.0001
# 2 15.5305 21.5659 31.2902 0.0000 -4.7760 0.0000
# 3 45.2756 31.2902 85.9085 0.0000 -11.7746 0.0000
# 4 0.0000 0.0000 0.0000 26.7601 0.0000 1.2032
# 5 -22.1905 -4.7760 -11.7746 0.0000 23.8328 0.0000
# 6 0.0001 0.0000 0.0000 1.2032 0.0000 25.3362
#
#
#
# Elastic Compliance Matrix: (Units=1/GPa)
#
#
# Indices 1 2 3 4 5 6 
#
# 1 0.020745 0.002677 -0.009854 0.000000 0.014983 0.000000
# 2 0.002677 0.098785 -0.036830 0.000000 0.004093 0.000000
# 3 -0.009854 -0.036830 0.030011 0.000000 -0.001729 0.000000
# 4 0.000000 0.000000 0.000000 0.037449 0.000000 -0.001778
# 5 0.014983 0.004093 -0.001729 0.000000 0.055876 0.000000
# 6 0.000000 0.000000 0.000000 -0.001778 0.000000 0.039554
#
#
# Mechanical properties :
#
#
# Convention : Reuss Voigt Hill
#
# Bulk Modulus (GPa) = 16.25324 41.71127 28.98226
# Shear Modulus (GPa) = 12.78957 21.79334 17.29145
#
# Velocity S-wave (km/s) = 2.58161 3.36995 3.00177
# Velocity P-wave (km/s) = 4.16604 6.07273 5.20739
#
# Compressibility (1/GPa) = 0.06152620
#
# Stress axis : x y z
#
# Youngs Moduli (GPa) = 48.20415 10.12300 33.32085
#
# Poissons Ratio (x) = -0.02710 0.32836
# Poissons Ratio (y) = -0.12903 1.22720
# Poissons Ratio (z) = 0.47502 0.37283
#
# Static dielectric constant tensor:
#      x y z
#    x 1.640640 0.000000 -0.003310 
#    y 0.000000 1.640200 0.000000 
#    z -0.003310 0.000000 1.702250 
# 
# From -- ./inp_files/378500.got.cif
#   From: 2010.05.17/outbox.cif.g08.bks.cpg/sg12_190_cif.got.tgz:378500.got - 2010.06.03 13:09:07.
