data_PCOD9194100
_publ_section_title
;
Structure prediction by ZEFSAII (Michael W. Deem and Ramdas Pophale) SiO2 
 PCOD9194100
Probable space group: C 2/M
;
_chemical_formula_sum "Si O2"
_cell_formula_units_Z 48
_cell_length_a 21.033095
_cell_length_b 8.940255
_cell_length_c 34.637834
_cell_angle_alpha 90.000000
_cell_angle_beta 24.495289
_cell_angle_gamma 90.000000
_cell_volume 2700.551169
_symmetry_space_group_name_H-M "C 2/M"
_symmetry_group_IT_number 12
_symmetry_cell_setting 'monoclinic'
loop_
_space_group_symop_operation_xyz
x,y,z
-x,y,-z
-x,-y,-z
x,-y,z
1/2+x,1/2+y,z
1/2-x,1/2+y,-z
1/2-x,1/2-y,-z
1/2+x,1/2-y,z
loop_
_atom_site_type_symbol
_atom_site_label
_atom_site_fract_x
_atom_site_fract_y
_atom_site_fract_z
Si Si1 0.201973 0.679553 0.781539
Si Si2 0.096463 0.680428 0.102434
Si Si3 0.444558 0.178840 0.785537
Si Si4 0.341689 0.678266 0.392140
Si Si5 0.331849 0.821233 0.109259
Si Si6 0.520916 0.821797 0.606652
O O1 0.219281 0.500000 0.768579
O O2 0.176404 0.714731 0.840853
O O3 0.359218 0.757859 0.682233
O O4 0.053389 0.725045 0.839234
O O5 0.108701 0.500000 0.093612
O O6 0.074274 0.722760 0.159413
O O7 0.250000 0.750000 0.000000
O O8 0.591284 0.250655 0.683551
O O9 0.297696 0.235703 0.842844
O O10 0.454974 0.000000 0.777581
O O11 0.363840 0.500000 0.379498
O O12 0.435186 0.745716 0.376793
O O13 0.163377 0.710308 0.499470
O O14 0.306252 0.000000 0.119171
O O15 0.500000 0.786876 0.000000
O O16 0.512392 0.000000 0.616848
#
# Coordination Sequence:
#
# PCOD9194100 Si02
#       6
#     8   8   8   8   8   8
#     4  10  20  36  57  81 112 150 190 229 279 339
#     4  10  23  41  59  82 113 154 194 231 280 335
#     4  11  22  36  56  84 115 146 188 237 280 328
#     4  10  20  35  56  83 115 150 185 225 283 345
#     4  10  20  34  55  81 108 143 187 233 282 336
#     4  10  20  34  56  86 115 144 184 234 284 333
#
# _framework density 17.774149000000001
#
# number of rings (size 3 to 8) (size 9 to 14) (size 15 to 20)
#    0.000    1.833    1.667    2.500    0.000    5.667 
#    0.000    0.833    0.000    5.000    0.000    0.000 
#    0.000    0.000    0.000    0.000    0.000    0.000 
#
# Total GULP energy -134054.245279 kJ/mol
# GULP energy per Si atom -5585.593553 kJ/mol
# Density = 1.773369 g / cm^3
# Si number density = 17.774149 Si / 1000 Ang^3
#
#
#
# Elastic Constant Matrix: (Units=GPa)
#
#
# Indices 1 2 3 4 5 6 
#
# 1 140.0467 53.9940 95.6644 -0.0071 -1.6602 -0.0189
# 2 53.9940 44.5210 65.2098 -0.0018 2.7257 -0.0206
# 3 95.6644 65.2098 177.6777 -0.0233 1.1457 -0.0061
# 4 -0.0071 -0.0018 -0.0233 35.6163 -0.0056 -2.6162
# 5 -1.6602 2.7257 1.1457 -0.0056 32.7869 -0.0007
# 6 -0.0189 -0.0206 -0.0061 -2.6162 -0.0007 23.9846
#
#
#
# Elastic Compliance Matrix: (Units=1/GPa)
#
#
# Indices 1 2 3 4 5 6 
#
# 1 0.014159 -0.013201 -0.002791 0.000001 0.001912 -0.000001
# 2 -0.013201 0.061265 -0.015344 -0.000008 -0.005225 0.000037
# 3 -0.002791 -0.015344 0.012758 0.000006 0.000688 -0.000011
# 4 0.000001 -0.000008 0.000006 0.028304 0.000005 0.003087
# 5 0.001912 -0.005225 0.000688 0.000005 0.031007 -0.000001
# 6 -0.000001 0.000037 -0.000011 0.003087 -0.000001 0.042030
#
#
# Mechanical properties :
#
#
# Convention : Reuss Voigt Hill
#
# Bulk Modulus (GPa) = 39.19937 87.99798 63.59867
# Shear Modulus (GPa) = 19.17929 28.30272 23.74100
#
# Velocity S-wave (km/s) = 3.28846 3.99476 3.65869
# Velocity P-wave (km/s) = 6.04323 8.41985 7.32853
#
# Compressibility (1/GPa) = 0.02551062
#
# Stress axis : x y z
#
# Youngs Moduli (GPa) = 70.62564 16.32250 78.38441
#
# Poissons Ratio (x) = 0.21548 0.21876
# Poissons Ratio (y) = 0.93235 1.20270
# Poissons Ratio (z) = 0.19710 0.25045
#
# Static dielectric constant tensor:
#      x y z
#    x 1.579740 0.000000 0.003320 
#    y 0.000000 1.596930 0.000000 
#    z 0.003320 0.000000 1.607000 
# 
# From -- ./inp_files/280067.got.cif
#   From: 2010.05.17/outbox.cif.g08.bks.cpg/sg12_141_cif.got.tgz:280067.got - 2010.06.03 13:09:07.
