data_PCOD9194944
_publ_section_title
;
Structure prediction by ZEFSAII (Michael W. Deem and Ramdas Pophale) SiO2 
 PCOD9194944
Probable space group: C 2/M
;
_chemical_formula_sum "Si O2"
_cell_formula_units_Z 56
_cell_length_a 24.906957
_cell_length_b 18.515289
_cell_length_c 16.350400
_cell_angle_alpha 90.000000
_cell_angle_beta 159.567225
_cell_angle_gamma 90.000000
_cell_volume 2632.325129
_symmetry_space_group_name_H-M "C 2/M"
_symmetry_group_IT_number 12
_symmetry_cell_setting 'monoclinic'
loop_
_space_group_symop_operation_xyz
x,y,z
-x,y,-z
-x,-y,-z
x,-y,z
1/2+x,1/2+y,z
1/2-x,1/2+y,-z
1/2-x,1/2-y,-z
1/2+x,1/2-y,z
loop_
_atom_site_type_symbol
_atom_site_label
_atom_site_fract_x
_atom_site_fract_y
_atom_site_fract_z
Si Si1 0.884370 0.206811 0.233601
Si Si2 0.689877 0.233834 0.700380
Si Si3 0.439104 0.586144 0.779284
Si Si4 0.888477 0.585982 0.627078
Si Si5 0.893267 0.345411 0.927771
Si Si6 0.717731 0.917747 0.704336
Si Si7 0.562628 0.586201 0.412210
O O1 0.840473 0.215303 0.265527
O O2 0.039961 0.250092 0.432926
O O3 0.928317 0.126198 0.270674
O O4 0.750000 0.250000 0.000000
O O5 0.840199 0.263173 0.870106
O O6 0.686369 0.149850 0.718149
O O7 0.414237 0.500000 0.741687
O O8 0.279752 0.615702 0.586414
O O9 0.458107 0.609123 0.712202
O O10 0.600759 0.593144 0.056723
O O11 0.900705 0.500000 0.662779
O O12 0.884033 0.591109 0.522366
O O13 0.015983 0.625029 0.863672
O O14 0.732883 0.388306 0.683578
O O15 0.000000 0.351972 0.000000
O O16 0.700674 0.000000 0.711152
O O17 0.551911 0.500000 0.402911
#
# Coordination Sequence:
#
# PCOD9194944 Si02
#       7
#     8   8   8   8   8   8   8
#     4  10  22  43  65  84 123 168 207 267 324 371
#     4  10  24  42  61  90 122 165 212 258 326 381
#     4   9  17  32  57  89 125 164 203 251 308 363
#     4  10  20  34  58  91 129 171 204 249 309 368
#     4  11  22  38  60  96 136 170 206 252 318 388
#     4  10  21  39  61  88 123 162 214 266 312 377
#     4  10  20  37  65  96 127 170 217 259 313 381
#
# _framework density 21.273968
#
# number of rings (size 3 to 8) (size 9 to 14) (size 15 to 20)
#    0.000    2.000    1.429    1.714    2.000    3.429 
#    0.000   10.000    0.000    0.000    0.000    0.000 
#    0.000    0.000    0.000    0.000    0.000    0.000 
#
# Total GULP energy -156061.821159 kJ/mol
# GULP energy per Si atom -5573.636470 kJ/mol
# Density = 2.122555 g / cm^3
# Si number density = 21.273968 Si / 1000 Ang^3
#
#
#
# Elastic Constant Matrix: (Units=GPa)
#
#
# Indices 1 2 3 4 5 6 
#
# 1 52.0545 35.4600 20.3984 0.0000 2.3582 0.0000
# 2 35.4600 108.7992 16.4315 0.0000 4.2386 0.0000
# 3 20.3984 16.4315 117.3305 0.0000 -18.5926 0.0000
# 4 0.0000 0.0000 0.0000 16.2285 0.0000 2.1032
# 5 2.3582 4.2386 -18.5926 0.0000 26.5717 0.0000
# 6 0.0000 0.0000 0.0000 2.1032 0.0000 20.7147
#
#
#
# Elastic Compliance Matrix: (Units=1/GPa)
#
#
# Indices 1 2 3 4 5 6 
#
# 1 0.026316 -0.007801 -0.004111 0.000000 -0.003968 0.000000
# 2 -0.007801 0.011881 -0.000560 0.000000 -0.001595 0.000000
# 3 -0.004111 -0.000560 0.010559 0.000000 0.007842 0.000000
# 4 0.000000 0.000000 0.000000 0.062442 0.000000 -0.006340
# 5 -0.003968 -0.001595 0.007842 0.000000 0.043728 0.000000
# 6 0.000000 0.000000 0.000000 -0.006340 0.000000 0.048919
#
#
# Mechanical properties :
#
#
# Convention : Reuss Voigt Hill
#
# Bulk Modulus (GPa) = 42.00009 46.97378 44.48694
# Shear Modulus (GPa) = 21.12142 26.42925 23.77534
#
# Velocity S-wave (km/s) = 3.15434 3.52849 3.34665
# Velocity P-wave (km/s) = 5.74907 6.22324 5.99085
#
# Compressibility (1/GPa) = 0.02380947
#
# Stress axis : x y z
#
# Youngs Moduli (GPa) = 37.99978 84.17054 94.70670
#
# Poissons Ratio (x) = 0.65665 0.38937
# Poissons Ratio (y) = 0.29645 0.05306
# Poissons Ratio (z) = 0.15623 0.04715
#
# Static dielectric constant tensor:
#      x y z
#    x 1.914300 0.000000 -0.124740 
#    y 0.000000 1.789140 0.000000 
#    z -0.124740 0.000000 1.960380 
# 
# From -- ./inp_files/293912.got.cif
#   From: 2010.05.17/outbox.cif.g08.bks.cpg/sg12_147_cif.got.tgz:293912.got - 2010.06.03 13:09:07.
