data_PCOD9194847
_publ_section_title
;
Structure prediction by ZEFSAII (Michael W. Deem and Ramdas Pophale) SiO2 
 PCOD9194847
Probable space group: C 2/M
;
_chemical_formula_sum "Si O2"
_cell_formula_units_Z 64
_cell_length_a 14.819969
_cell_length_b 20.257404
_cell_length_c 28.918193
_cell_angle_alpha 90.000000
_cell_angle_beta 159.031558
_cell_angle_gamma 90.000000
_cell_volume 3106.760203
_symmetry_space_group_name_H-M "C 2/M"
_symmetry_group_IT_number 12
_symmetry_cell_setting 'monoclinic'
loop_
_space_group_symop_operation_xyz
x,y,z
-x,y,-z
-x,-y,-z
x,-y,z
1/2+x,1/2+y,z
1/2-x,1/2+y,-z
1/2-x,1/2-y,-z
1/2+x,1/2-y,z
loop_
_atom_site_type_symbol
_atom_site_label
_atom_site_fract_x
_atom_site_fract_y
_atom_site_fract_z
Si Si1 0.986258 0.280796 0.390895
Si Si2 0.136998 0.426303 0.444763
Si Si3 0.208634 0.216169 0.030794
Si Si4 0.711585 0.572768 0.755097
Si Si5 0.786582 0.404582 0.625998
Si Si6 0.368677 0.071850 0.122668
Si Si7 0.724317 0.290036 0.797477
Si Si8 0.338068 0.243549 0.681202
O O1 0.812211 0.243181 0.270386
O O2 0.898457 0.264846 0.400839
O O3 0.250000 0.250000 0.500000
O O4 0.988234 0.360061 0.387173
O O5 0.047165 0.500000 0.415985
O O6 0.421841 0.418161 0.600739
O O7 0.154126 0.424341 0.397578
O O8 0.205545 0.136103 0.031546
O O9 0.441559 0.234514 0.175099
O O10 0.250000 0.250000 0.000000
O O11 0.948435 0.246334 0.924881
O O12 0.736668 0.500000 0.788225
O O13 0.794893 0.633919 0.825722
O O14 0.888552 0.574938 0.794844
O O15 0.500000 0.426536 0.500000
O O16 0.789592 0.325850 0.633453
O O17 0.003566 0.426015 0.765598
O O18 0.243423 0.000000 0.056400
O O19 0.468106 0.288051 0.704429
#
# Coordination Sequence:
#
# PCOD9194847 Si02
#       8
#     8   8   8   8   8   8   8   8
#     4  12  23  40  62  94 127 164 208 257 314 381
#     4  11  22  36  56  90 137 171 199 247 316 387
#     4  11  21  40  64  87 120 163 212 263 310 362
#     4  10  20  35  58  91 127 165 204 254 309 367
#     4  11  19  32  57  95 126 163 204 253 309 381
#     4  10  20  34  57  91 127 164 206 252 315 378
#     4  12  22  41  66  89 120 166 211 263 308 368
#     4  11  25  38  64  91 123 163 217 265 310 368
#
# _framework density 20.600238000000001
#
# number of rings (size 3 to 8) (size 9 to 14) (size 15 to 20)
#    0.000    1.000    6.250    2.250    0.000    0.500 
#    0.000    1.250    0.000    6.000    0.000    0.000 
#    0.000    0.000    0.000    0.000    0.000    0.000 
#
# Total GULP energy -178648.098289 kJ/mol
# GULP energy per Si atom -5582.753072 kJ/mol
# Density = 2.055335 g / cm^3
# Si number density = 20.600238 Si / 1000 Ang^3
#
#
#
# Elastic Constant Matrix: (Units=GPa)
#
#
# Indices 1 2 3 4 5 6 
#
# 1 79.3892 28.0384 1.2078 -0.0056 9.7445 -0.0021
# 2 28.0384 180.7525 20.7006 -0.0102 -0.8330 -0.0072
# 3 1.2078 20.7006 54.7910 0.0014 2.2264 -0.0120
# 4 -0.0056 -0.0102 0.0014 14.5526 -0.0028 -5.6423
# 5 9.7445 -0.8330 2.2264 -0.0028 25.3864 0.0005
# 6 -0.0021 -0.0072 -0.0120 -5.6423 0.0005 12.5360
#
#
#
# Elastic Compliance Matrix: (Units=1/GPa)
#
#
# Indices 1 2 3 4 5 6 
#
# 1 0.014077 -0.002299 0.000784 0.000004 -0.005548 0.000004
# 2 -0.002299 0.006162 -0.002330 0.000005 0.001289 0.000003
# 3 0.000784 -0.002330 0.019198 0.000004 -0.002061 0.000019
# 4 0.000004 0.000005 0.000004 0.083243 0.000007 0.037467
# 5 -0.005548 0.001289 -0.002061 0.000007 0.041744 -0.000001
# 6 0.000004 0.000003 0.000019 0.037467 -0.000001 0.096634
#
#
# Mechanical properties :
#
#
# Convention : Reuss Voigt Hill
#
# Bulk Modulus (GPa) = 31.49923 46.09182 38.79553
# Shear Modulus (GPa) = 17.90001 28.16072 23.03036
#
# Velocity S-wave (km/s) = 2.95095 3.70132 3.34723
# Velocity P-wave (km/s) = 5.18986 6.37882 5.81481
#
# Compressibility (1/GPa) = 0.03174680
#
# Stress axis : x y z
#
# Youngs Moduli (GPa) = 71.03720 162.29047 52.08925
#
# Poissons Ratio (x) = 0.37310 -0.04082
# Poissons Ratio (y) = 0.16331 0.12135
# Poissons Ratio (z) = -0.05567 0.37809
#
# Static dielectric constant tensor:
#      x y z
#    x 1.723630 0.000000 -0.007150 
#    y 0.000000 1.763140 -0.000020 
#    z -0.007150 -0.000020 1.736900 
# 
# From -- ./inp_files/377131.got.cif
#   From: 2010.05.17/outbox.cif.g08.bks.cpg/sg12_189_cif.got.tgz:377131.got - 2010.06.03 13:09:07.
