data_PCOD9194494
_publ_section_title
;
Structure prediction by ZEFSAII (Michael W. Deem and Ramdas Pophale) SiO2 
 PCOD9194494
Probable space group: C 2/M
;
_chemical_formula_sum "Si O2"
_cell_formula_units_Z 64
_cell_length_a 30.730125
_cell_length_b 7.587366
_cell_length_c 16.779963
_cell_angle_alpha 90.000000
_cell_angle_beta 46.797083
_cell_angle_gamma 90.000000
_cell_volume 2851.900922
_symmetry_space_group_name_H-M "C 2/M"
_symmetry_group_IT_number 12
_symmetry_cell_setting 'monoclinic'
loop_
_space_group_symop_operation_xyz
x,y,z
-x,y,-z
-x,-y,-z
x,-y,z
1/2+x,1/2+y,z
1/2-x,1/2+y,-z
1/2-x,1/2-y,-z
1/2+x,1/2-y,z
loop_
_atom_site_type_symbol
_atom_site_label
_atom_site_fract_x
_atom_site_fract_y
_atom_site_fract_z
Si Si1 0.493401 0.285352 0.252415
Si Si2 0.651174 0.786382 0.301546
Si Si3 0.268746 0.288808 0.065897
Si Si4 0.697312 0.212535 0.405603
Si Si5 0.609425 0.293236 0.016135
Si Si6 0.835469 0.708613 0.219239
Si Si7 0.360806 0.793195 0.362935
Si Si8 0.028054 0.205320 0.384593
O O1 0.491561 0.500000 0.254571
O O2 0.429009 0.222645 0.304829
O O3 0.508725 0.223494 0.323103
O O4 0.546351 0.223932 0.126871
O O5 0.714782 0.725664 0.188454
O O6 0.651166 0.730425 0.394231
O O7 0.598508 0.717062 0.312386
O O8 0.648313 0.000000 0.302237
O O9 0.271220 0.500000 0.073709
O O10 0.333210 0.216264 0.009520
O O11 0.250000 0.250000 0.000000
O O12 0.764916 0.257596 0.297367
O O13 0.679666 0.281984 0.514782
O O14 0.693769 0.000000 0.412159
O O15 0.607321 0.500000 0.038868
O O16 0.625527 0.279231 0.902901
O O17 0.845659 0.500000 0.205978
O O18 0.851871 0.782387 0.285925
O O19 0.345028 0.000000 0.376445
O O20 0.000000 0.287073 0.500000
O O21 0.010167 0.000000 0.405489
#
# Coordination Sequence:
#
# PCOD9194494 Si02
#       8
#     8   8   8   8   8   8   8   8
#     4  10  22  39  60  85 115 156 202 239 281 345
#     4  10  20  34  56  84 111 147 190 227 276 342
#     4  10  20  35  55  81 112 147 187 231 280 335
#     4  10  20  39  62  85 118 155 189 234 294 359
#     4  10  21  40  60  80 116 160 196 236 286 347
#     4  11  23  38  59  90 118 147 193 247 299 345
#     4  10  23  40  60  86 117 152 191 242 301 350
#     4  10  21  37  57  84 118 152 188 237 290 335
#
# _framework density 22.441172000000002
#
# number of rings (size 3 to 8) (size 9 to 14) (size 15 to 20)
#    0.000    1.875    1.250    2.250    0.000    5.750 
#    0.000    2.500    0.000    0.000    0.000    0.000 
#    0.000    0.000    0.000    0.000    0.000    0.000 
#
# Total GULP energy -178800.965504 kJ/mol
# GULP energy per Si atom -5587.530172 kJ/mol
# Density = 2.239009 g / cm^3
# Si number density = 22.441172 Si / 1000 Ang^3
#
#
#
# Elastic Constant Matrix: (Units=GPa)
#
#
# Indices 1 2 3 4 5 6 
#
# 1 94.7035 -21.4557 22.8692 0.0003 22.3248 -0.0005
# 2 -21.4557 43.4808 -17.6536 -0.0011 0.4837 0.0055
# 3 22.8692 -17.6536 110.5362 0.0009 10.2961 0.0004
# 4 0.0003 -0.0011 0.0009 14.8455 0.0001 -3.6346
# 5 22.3248 0.4837 10.2961 0.0001 40.4893 -0.0004
# 6 -0.0005 0.0055 0.0004 -3.6346 -0.0004 21.2920
#
#
#
# Elastic Compliance Matrix: (Units=1/GPa)
#
#
# Indices 1 2 3 4 5 6 
#
# 1 0.014113 0.006575 -0.001165 0.000000 -0.007564 -0.000002
# 2 0.006575 0.027726 0.003520 0.000000 -0.004852 -0.000007
# 3 -0.001165 0.003520 0.010032 -0.000001 -0.001951 -0.000001
# 4 0.000000 0.000000 -0.000001 0.070299 0.000000 0.012000
# 5 -0.007564 -0.004852 -0.001951 0.000000 0.029423 0.000002
# 6 -0.000002 -0.000007 -0.000001 0.012000 0.000002 0.049014
#
#
# Mechanical properties :
#
#
# Convention : Reuss Voigt Hill
#
# Bulk Modulus (GPa) = 14.34083 24.02668 19.18376
# Shear Modulus (GPa) = 24.27287 32.98938 28.63113
#
# Velocity S-wave (km/s) = 3.29237 3.83827 3.57575
# Velocity P-wave (km/s) = 4.56697 5.51115 5.06113
#
# Compressibility (1/GPa) = 0.06973095
#
# Stress axis : x y z
#
# Youngs Moduli (GPa) = 70.85436 36.06687 99.68395
#
# Poissons Ratio (x) = -0.23715 0.11616
# Poissons Ratio (y) = -0.46589 -0.35085
# Poissons Ratio (z) = 0.08256 -0.12694
#
# Static dielectric constant tensor:
#      x y z
#    x 1.807590 -0.000280 0.017160 
#    y -0.000280 3.622690 0.000180 
#    z 0.017160 0.000180 1.852070 
# 
# From -- ./inp_files/249873.got.cif
#   From: 2010.05.17/outbox.cif.g08.bks.cpg/sg12_125_cif.got.tgz:249873.got - 2010.06.03 13:09:07.
