data_PCOD9194019
_publ_section_title
;
Structure prediction by ZEFSAII (Michael W. Deem and Ramdas Pophale) SiO2 
 PCOD9194019
Probable space group: C 2/M
;
_chemical_formula_sum "Si O2"
_cell_formula_units_Z 64
_cell_length_a 23.530153
_cell_length_b 17.380633
_cell_length_c 17.001600
_cell_angle_alpha 90.000000
_cell_angle_beta 32.031670
_cell_angle_gamma 90.000000
_cell_volume 3687.854463
_symmetry_space_group_name_H-M "C 2/M"
_symmetry_group_IT_number 12
_symmetry_cell_setting 'monoclinic'
loop_
_space_group_symop_operation_xyz
x,y,z
-x,y,-z
-x,-y,-z
x,-y,z
1/2+x,1/2+y,z
1/2-x,1/2+y,-z
1/2-x,1/2-y,-z
1/2+x,1/2-y,z
loop_
_atom_site_type_symbol
_atom_site_label
_atom_site_fract_x
_atom_site_fract_y
_atom_site_fract_z
Si Si1 0.670595 0.592768 0.825842
Si Si2 0.865007 0.407095 0.321081
Si Si3 0.932083 0.154533 0.895882
Si Si4 0.615667 0.093329 0.339957
Si Si5 0.628521 0.087929 0.861252
Si Si6 0.600918 0.164328 0.055077
Si Si7 0.770350 0.592137 0.954313
Si Si8 0.654792 0.406787 0.664125
O O1 0.661600 0.500000 0.838872
O O2 0.791492 0.614638 0.708049
O O3 0.648331 0.617191 0.763209
O O4 0.597505 0.624122 0.981735
O O5 0.876495 0.500000 0.307863
O O6 0.831192 0.385407 0.271403
O O7 0.769859 0.386269 0.492143
O O8 0.981919 0.372990 0.202649
O O9 0.913399 0.245184 0.918248
O O10 0.054423 0.130735 0.737766
O O11 0.848503 0.116469 0.933217
O O12 0.500000 0.122959 0.500000
O O13 0.654501 0.115679 0.207757
O O14 0.611484 0.000000 0.344789
O O15 0.664700 0.000000 0.834740
O O16 0.500000 0.084699 0.000000
O O17 0.645012 0.141389 0.917014
O O18 0.681719 0.131116 0.024965
O O19 0.774562 0.500000 0.957403
O O20 0.645146 0.500000 0.671934
#
# Coordination Sequence:
#
# PCOD9194019 Si02
#       8
#     8   8   8   8   8   8   8   8
#     4   9  18  32  51  76 104 140 182 211 244 310
#     4   9  19  34  54  81 105 132 175 224 268 302
#     4  11  22  35  49  75 111 145 172 209 262 313
#     4   8  15  27  47  75 104 128 158 212 264 294
#     4   8  15  31  52  74 101 129 166 216 265 307
#     4  11  21  33  54  79 105 136 172 218 266 318
#     4  10  20  35  56  76 100 135 180 220 255 308
#     4  10  20  34  55  77 105 142 181 217 251 310
#
# _framework density 17.354264000000001
#
# number of rings (size 3 to 8) (size 9 to 14) (size 15 to 20)
#    0.000    2.500    0.000    4.500    1.750    4.500 
#    0.000    0.000    0.000    0.750    0.000    3.500 
#    0.000    0.000    0.000    0.000    0.000    0.000 
#
# Total GULP energy -178404.020429 kJ/mol
# GULP energy per Si atom -5575.125638 kJ/mol
# Density = 1.731476 g / cm^3
# Si number density = 17.354264 Si / 1000 Ang^3
#
#
#
# Elastic Constant Matrix: (Units=GPa)
#
#
# Indices 1 2 3 4 5 6 
#
# 1 111.4754 28.3915 38.7638 0.0000 6.8590 0.0000
# 2 28.3915 40.5467 11.1441 0.0000 6.0977 0.0000
# 3 38.7638 11.1441 64.6821 0.0000 -8.8175 0.0000
# 4 0.0000 0.0000 0.0000 13.3219 0.0000 -2.2045
# 5 6.8590 6.0977 -8.8175 0.0000 8.2271 0.0000
# 6 0.0000 0.0000 0.0000 -2.2045 0.0000 7.5243
#
#
#
# Elastic Compliance Matrix: (Units=1/GPa)
#
#
# Indices 1 2 3 4 5 6 
#
# 1 0.015421 -0.004340 -0.011486 0.000000 -0.021950 0.000000
# 2 -0.004340 0.034151 -0.007308 0.000000 -0.029526 0.000000
# 3 -0.011486 -0.007308 0.030035 0.000000 0.047183 0.000000
# 4 0.000000 0.000000 0.000000 0.078889 0.000000 0.023113
# 5 -0.021950 -0.029526 0.047183 0.000000 0.212304 0.000000
# 6 0.000000 0.000000 0.000000 0.023113 0.000000 0.139675
#
#
# Mechanical properties :
#
#
# Convention : Reuss Voigt Hill
#
# Bulk Modulus (GPa) = 29.99542 41.47811 35.73676
# Shear Modulus (GPa) = 8.80506 15.04163 11.92335
#
# Velocity S-wave (km/s) = 2.25494 2.94724 2.62402
# Velocity P-wave (km/s) = 4.90931 5.96107 5.46057
#
# Compressibility (1/GPa) = 0.03333842
#
# Stress axis : x y z
#
# Youngs Moduli (GPa) = 64.84857 29.28193 33.29453
#
# Poissons Ratio (x) = 0.12708 0.38242
# Poissons Ratio (y) = 0.28143 0.24332
# Poissons Ratio (z) = 0.74485 0.21400
#
# Static dielectric constant tensor:
#      x y z
#    x 1.589940 0.000000 0.012570 
#    y 0.000000 1.582870 0.000000 
#    z 0.012570 0.000000 1.594840 
# 
# From -- ./inp_files/290074.got.cif
#   From: 2010.05.17/outbox.cif.g08.bks.cpg/sg12_146_cif.got.tgz:290074.got - 2010.06.03 13:09:07.
