data_PCOD9194293
_publ_section_title
;
Structure prediction by ZEFSAII (Michael W. Deem and Ramdas Pophale) SiO2 
 PCOD9194293
Probable space group: C 2/M
;
_chemical_formula_sum "Si O2"
_cell_formula_units_Z 64
_cell_length_a 22.832396
_cell_length_b 12.624551
_cell_length_c 9.756927
_cell_angle_alpha 90.000000
_cell_angle_beta 71.229021
_cell_angle_gamma 90.000000
_cell_volume 2662.835930
_symmetry_space_group_name_H-M "C 2/M"
_symmetry_group_IT_number 12
_symmetry_cell_setting 'monoclinic'
loop_
_space_group_symop_operation_xyz
x,y,z
-x,y,-z
-x,-y,-z
x,-y,z
1/2+x,1/2+y,z
1/2-x,1/2+y,-z
1/2-x,1/2-y,-z
1/2+x,1/2-y,z
loop_
_atom_site_type_symbol
_atom_site_label
_atom_site_fract_x
_atom_site_fract_y
_atom_site_fract_z
Si Si1 0.224795 0.630933 0.959621
Si Si2 0.854434 0.383223 0.528754
Si Si3 0.593613 0.388231 0.124334
Si Si4 0.949919 0.345185 0.228429
Si Si5 0.131648 0.164216 0.380792
Si Si6 0.452414 0.386351 0.316895
Si Si7 0.237198 0.379146 0.633332
Si Si8 0.588116 0.842345 0.042768
O O1 0.246542 0.500000 0.959770
O O2 0.152685 0.621063 0.054923
O O3 0.250000 0.750000 0.000000
O O4 0.223599 0.658159 0.797411
O O5 0.839251 0.500000 0.593779
O O6 0.913965 0.389678 0.385037
O O7 0.867321 0.291125 0.626405
O O8 0.799673 0.338741 0.470780
O O9 0.603395 0.500000 0.045137
O O10 0.637669 0.378077 0.222986
O O11 0.526033 0.388888 0.244705
O O12 0.595233 0.285109 0.032500
O O13 0.935086 0.219664 0.250396
O O14 0.023849 0.362909 0.171721
O O15 0.923821 0.381956 0.102395
O O16 0.071737 0.128543 0.510400
O O17 0.189012 0.125419 0.428385
O O18 0.428988 0.500000 0.283182
O O19 0.215680 0.500000 0.649697
#
# Coordination Sequence:
#
# PCOD9194293 Si02
#       8
#     8   8   8   8   8   8   8   8
#     4  11  24  42  64  90 125 166 208 251 301 365
#     4  10  21  38  58  81 112 149 191 247 309 362
#     4  10  20  34  55  84 119 159 197 241 301 370
#     4   9  19  35  60  91 119 149 194 254 305 358
#     4  11  20  33  55  79 109 149 198 246 291 353
#     4   9  18  32  53  83 117 152 193 243 302 361
#     4  10  20  36  58  82 110 150 197 243 298 363
#     4  10  20  37  61  89 120 156 201 248 303 361
#
# _framework density 24.034524999999999
#
# number of rings (size 3 to 8) (size 9 to 14) (size 15 to 20)
#    0.000    2.000    1.250    2.625    0.000    3.500 
#    0.000    6.250    0.000    9.750    0.000    0.000 
#    0.000    0.000    0.000    0.000    0.000    0.000 
#
# Total GULP energy -178266.890692 kJ/mol
# GULP energy per Si atom -5570.840334 kJ/mol
# Density = 2.397982 g / cm^3
# Si number density = 24.034525 Si / 1000 Ang^3
#
#
#
# Elastic Constant Matrix: (Units=GPa)
#
#
# Indices 1 2 3 4 5 6 
#
# 1 71.6465 25.6731 -0.0085 0.0000 -17.0064 0.0000
# 2 25.6731 186.2788 21.1280 0.0000 8.9991 0.0000
# 3 -0.0085 21.1280 33.5099 0.0000 2.6764 0.0000
# 4 0.0000 0.0000 0.0000 3.5996 0.0000 -11.8389
# 5 -17.0064 8.9991 2.6764 0.0000 24.0958 0.0000
# 6 0.0000 0.0000 0.0000 -11.8389 0.0000 17.8034
#
#
#
# Elastic Compliance Matrix: (Units=1/GPa)
#
#
# Indices 1 2 3 4 5 6 
#
# 1 0.018536 -0.003353 0.000983 0.000000 0.014225 0.000000
# 2 -0.003353 0.006464 -0.003728 0.000000 -0.004367 0.000000
# 3 0.000983 -0.003728 0.032313 0.000000 -0.001503 0.000000
# 4 0.000000 0.000000 0.000000 -0.234021 0.000000 -0.155620
# 5 0.014225 -0.004367 -0.001503 0.000000 0.053339 0.000000
# 6 0.000000 0.000000 0.000000 -0.155620 0.000000 -0.047316
#
#
# Mechanical properties :
#
#
# Convention : Reuss Voigt Hill
#
# Bulk Modulus (GPa) = 22.16509 42.78005 32.47257
# Shear Modulus (GPa) = -34.85530 25.40925 -4.72302
#
# Velocity S-wave (km/s) = -3.81230 3.25499 -1.40334
# Velocity P-wave (km/s) = 3.18371 5.65373 3.30368
#
# Compressibility (1/GPa) = 0.04511600
#
# Stress axis : x y z
#
# Youngs Moduli (GPa) = 53.94980 154.69753 30.94770
#
# Poissons Ratio (x) = 0.51875 -0.03042
# Poissons Ratio (y) = 0.18091 0.11537
# Poissons Ratio (z) = -0.05302 0.57668
#
# Static dielectric constant tensor:
#      x y z
#    x 1.995140 0.000000 -0.023250 
#    y 0.000000 2.049050 0.000000 
#    z -0.023250 0.000000 1.888730 
# 
# From -- ./inp_files/175237.got.cif
#   From: 2010.05.17/outbox.cif.g08.bks.cpg/sg12_88_cif.got.tgz:175237.got - 2010.06.03 13:09:07.
