data_PCOD9194586
_publ_section_title
;
Structure prediction by ZEFSAII (Michael W. Deem and Ramdas Pophale) SiO2 
 PCOD9194586
Probable space group: C 2/M
;
_chemical_formula_sum "Si O2"
_cell_formula_units_Z 58
_cell_length_a 27.084017
_cell_length_b 12.401904
_cell_length_c 9.207968
_cell_angle_alpha 90.000000
_cell_angle_beta 84.962380
_cell_angle_gamma 90.000000
_cell_volume 3080.948424
_symmetry_space_group_name_H-M "C 2/M"
_symmetry_group_IT_number 12
_symmetry_cell_setting 'monoclinic'
loop_
_space_group_symop_operation_xyz
x,y,z
-x,y,-z
-x,-y,-z
x,-y,z
1/2+x,1/2+y,z
1/2-x,1/2+y,-z
1/2-x,1/2-y,-z
1/2+x,1/2-y,z
loop_
_atom_site_type_symbol
_atom_site_label
_atom_site_fract_x
_atom_site_fract_y
_atom_site_fract_z
Si Si1 0.654048 0.873702 0.141459
Si Si2 0.558095 0.799688 0.344990
Si Si3 0.500000 0.000000 0.500000
Si Si4 0.741862 0.764680 0.270316
Si Si5 0.497381 0.374120 0.174086
Si Si6 0.339785 0.126549 0.194374
Si Si7 0.596438 0.708803 0.638005
Si Si8 0.196864 0.116265 0.522702
O O1 0.609287 0.834979 0.254635
O O2 0.704011 0.806860 0.160644
O O3 0.663610 0.000000 0.167620
O O4 0.641014 0.862580 0.975210
O O5 0.524705 0.904272 0.388695
O O6 0.532058 0.710804 0.249617
O O7 0.570186 0.746803 0.497636
O O8 0.785880 0.683381 0.215187
O O9 0.769240 0.862129 0.345833
O O10 0.709310 0.706390 0.401956
O O11 0.509327 0.500000 0.203216
O O12 0.442528 0.346170 0.245289
O O13 0.500000 0.359383 0.000000
O O14 0.376405 0.189327 0.293109
O O15 0.336305 0.000000 0.231967
O O16 0.640535 0.628616 0.585058
O O17 0.207490 0.000000 0.456263
#
# Coordination Sequence:
#
# PCOD9194586 Si02
#       8
#     8   8   2   8   8   8   8   8
#     4  11  22  39  60  88 123 165 210 259 316 376
#     4  12  24  42  65  95 126 162 213 262 320 378
#     4  12  24  44  64  96 128 160 214 274 320 376
#     4  10  20  37  56  85 120 161 200 252 302 367
#     4  11  25  45  67  93 128 166 207 260 321 386
#     4  10  23  38  60  90 125 165 206 256 315 376
#     4  11  22  40  63  89 122 157 205 254 308 371
#     4  10  20  34  56  86 115 150 198 246 300 353
#
# _framework density 18.825372999999999
#
# number of rings (size 3 to 8) (size 9 to 14) (size 15 to 20)
#    0.000    1.241    3.448    2.483    0.966    1.655 
#    0.000    0.345    0.000    5.793    0.000    0.000 
#    0.000    0.000    0.000    0.000    0.000    0.000 
#
# Total GULP energy -161655.313486 kJ/mol
# GULP energy per Si atom -5574.321155 kJ/mol
# Density = 1.878253 g / cm^3
# Si number density = 18.825373 Si / 1000 Ang^3
#
#
#
# Elastic Constant Matrix: (Units=GPa)
#
#
# Indices 1 2 3 4 5 6 
#
# 1 67.8634 43.5078 39.4509 0.0000 -2.7162 0.0000
# 2 43.5078 130.1577 48.3524 0.0000 15.6337 0.0000
# 3 39.4509 48.3524 95.9464 0.0000 -2.7311 0.0000
# 4 0.0000 0.0000 0.0000 19.5645 0.0000 0.8394
# 5 -2.7162 15.6337 -2.7311 0.0000 36.1872 0.0000
# 6 0.0000 0.0000 0.0000 0.8394 0.0000 2.0224
#
#
#
# Elastic Compliance Matrix: (Units=1/GPa)
#
#
# Indices 1 2 3 4 5 6 
#
# 1 0.021981 -0.005480 -0.006175 0.000000 0.003551 0.000000
# 2 -0.005480 0.011594 -0.003752 0.000000 -0.005703 0.000000
# 3 -0.006175 -0.003752 0.014917 0.000000 0.002283 0.000000
# 4 0.000000 0.000000 0.000000 0.052040 0.000000 -0.021600
# 5 0.003551 -0.005703 0.002283 0.000000 0.030537 0.000000
# 6 0.000000 0.000000 0.000000 -0.021600 0.000000 0.503417
#
#
# Mechanical properties :
#
#
# Convention : Reuss Voigt Hill
#
# Bulk Modulus (GPa) = 56.56842 61.84331 59.20586
# Shear Modulus (GPa) = 7.44944 22.39858 14.92401
#
# Velocity S-wave (km/s) = 1.99141 3.45310 2.81865
# Velocity P-wave (km/s) = 5.94995 6.98720 6.48933
#
# Compressibility (1/GPa) = 0.01767771
#
# Stress axis : x y z
#
# Youngs Moduli (GPa) = 45.49436 86.25505 67.03652
#
# Poissons Ratio (x) = 0.47268 0.41397
# Poissons Ratio (y) = 0.24931 0.25150
# Poissons Ratio (z) = 0.28094 0.32360
#
# Static dielectric constant tensor:
#      x y z
#    x 1.655520 0.000000 -0.002130 
#    y 0.000000 1.633600 0.000000 
#    z -0.002130 0.000000 1.631990 
# 
# From -- ./inp_files/103195.got.cif
#   From: 2010.05.17/outbox.cif.g08.bks.cpg/sg12_52_cif.got.tgz:103195.got - 2010.06.03 13:09:07.
