data_PCOD9194320
_publ_section_title
;
Structure prediction by ZEFSAII (Michael W. Deem and Ramdas Pophale) SiO2 
 PCOD9194320
Probable space group: C 2/M
;
_chemical_formula_sum "Si O2"
_cell_formula_units_Z 56
_cell_length_a 20.926860
_cell_length_b 8.822950
_cell_length_c 22.788029
_cell_angle_alpha 90.000000
_cell_angle_beta 131.918610
_cell_angle_gamma 90.000000
_cell_volume 3130.781782
_symmetry_space_group_name_H-M "C 2/M"
_symmetry_group_IT_number 12
_symmetry_cell_setting 'monoclinic'
loop_
_space_group_symop_operation_xyz
x,y,z
-x,y,-z
-x,-y,-z
x,-y,z
1/2+x,1/2+y,z
1/2-x,1/2+y,-z
1/2-x,1/2-y,-z
1/2+x,1/2-y,z
loop_
_atom_site_type_symbol
_atom_site_label
_atom_site_fract_x
_atom_site_fract_y
_atom_site_fract_z
Si Si1 0.611327 0.180625 0.916217
Si Si2 0.015720 0.681561 0.341014
Si Si3 0.449443 0.680503 0.765586
Si Si4 0.256473 0.319319 0.095640
Si Si5 0.680599 0.817938 0.748802
Si Si6 0.819959 0.819273 0.498139
Si Si7 0.250083 0.318197 0.663601
O O1 0.519664 0.259606 0.854466
O O2 0.669969 0.239479 0.898286
O O3 0.601643 0.000000 0.905254
O O4 0.666299 0.215311 0.008254
O O5 0.025315 0.500000 0.348215
O O6 0.030903 0.740465 0.284440
O O7 0.087610 0.756734 0.425850
O O8 0.919365 0.720073 0.302054
O O9 0.458231 0.500000 0.763921
O O10 0.351789 0.713865 0.723684
O O11 0.269531 0.500000 0.100901
O O12 0.265007 0.260885 0.166720
O O13 0.711250 0.775826 0.702673
O O14 0.689346 0.000000 0.760225
O O15 0.750000 0.750000 0.500000
O O16 0.795062 0.765710 0.417908
O O17 0.817978 0.000000 0.501698
O O18 0.239130 0.500000 0.648928
#
# Coordination Sequence:
#
# PCOD9194320 Si02
#       7
#     8   8   8   8   8   8   8
#     4  10  20  34  55  85 118 152 193 240 291 344
#     4  11  22  37  61  88 117 152 192 239 290 344
#     4  11  21  35  59  88 116 151 195 243 286 338
#     4  10  20  34  56  85 117 152 192 242 291 340
#     4  10  22  40  61  85 117 157 193 234 291 351
#     4  12  24  39  61  88 117 152 194 242 291 341
#     4  10  23  42  61  84 117 155 195 237 289 348
#
# _framework density 17.886906
#
# number of rings (size 3 to 8) (size 9 to 14) (size 15 to 20)
#    0.000    1.429    2.857    3.000    0.000    4.000 
#    0.000    3.571    0.000    4.286    0.000    0.000 
#    0.000    0.000    0.000    0.000    0.000    0.000 
#
# Total GULP energy -156478.305417 kJ/mol
# GULP energy per Si atom -5588.510908 kJ/mol
# Density = 1.784620 g / cm^3
# Si number density = 17.886906 Si / 1000 Ang^3
#
#
#
# Elastic Constant Matrix: (Units=GPa)
#
#
# Indices 1 2 3 4 5 6 
#
# 1 120.7962 56.2463 74.9559 0.0000 -7.7988 0.0000
# 2 56.2463 71.6637 69.1412 0.0000 2.2668 0.0000
# 3 74.9559 69.1412 159.6653 0.0000 1.0344 0.0000
# 4 0.0000 0.0000 0.0000 38.3001 0.0000 0.7924
# 5 -7.7988 2.2668 1.0344 0.0000 29.2683 0.0000
# 6 0.0000 0.0000 0.0000 0.7924 0.0000 23.0517
#
#
#
# Elastic Compliance Matrix: (Units=1/GPa)
#
#
# Indices 1 2 3 4 5 6 
#
# 1 0.014478 -0.008456 -0.003165 0.000000 0.004625 0.000000
# 2 -0.008456 0.028972 -0.008549 0.000000 -0.004195 0.000000
# 3 -0.003165 -0.008549 0.011455 0.000000 -0.000586 0.000000
# 4 0.000000 0.000000 0.000000 0.026128 0.000000 -0.000898
# 5 0.004625 -0.004195 -0.000586 0.000000 0.035745 0.000000
# 6 0.000000 0.000000 0.000000 -0.000898 0.000000 0.043412
#
#
# Mechanical properties :
#
#
# Convention : Reuss Voigt Hill
#
# Bulk Modulus (GPa) = 68.65980 83.64576 76.15278
# Shear Modulus (GPa) = 24.34458 28.24279 26.29368
#
# Velocity S-wave (km/s) = 3.69321 3.97793 3.83821
# Velocity P-wave (km/s) = 7.52697 8.24401 7.89364
#
# Compressibility (1/GPa) = 0.01456456
#
# Stress axis : x y z
#
# Youngs Moduli (GPa) = 69.06817 34.51644 87.30003
#
# Poissons Ratio (x) = 0.29188 0.27631
# Poissons Ratio (y) = 0.58406 0.74631
# Poissons Ratio (z) = 0.21861 0.29508
#
# Static dielectric constant tensor:
#      x y z
#    x 1.584030 0.000000 0.010160 
#    y 0.000000 1.600050 0.000000 
#    z 0.010160 0.000000 1.606700 
# 
# From -- ./inp_files/320253.got.cif
#   From: 2010.05.17/outbox.cif.g08.bks.cpg/sg12_161_cif.got.tgz:320253.got - 2010.06.03 13:09:07.
