data_PCOD9194178
_publ_section_title
;
Structure prediction by ZEFSAII (Michael W. Deem and Ramdas Pophale) SiO2 
 PCOD9194178
Probable space group: C 2/M
;
_chemical_formula_sum "Si O2"
_cell_formula_units_Z 64
_cell_length_a 24.586424
_cell_length_b 19.610504
_cell_length_c 20.254673
_cell_angle_alpha 90.000000
_cell_angle_beta 22.729551
_cell_angle_gamma 90.000000
_cell_volume 3773.340711
_symmetry_space_group_name_H-M "C 2/M"
_symmetry_group_IT_number 12
_symmetry_cell_setting 'monoclinic'
loop_
_space_group_symop_operation_xyz
x,y,z
-x,y,-z
-x,-y,-z
x,-y,z
1/2+x,1/2+y,z
1/2-x,1/2+y,-z
1/2-x,1/2-y,-z
1/2+x,1/2-y,z
loop_
_atom_site_type_symbol
_atom_site_label
_atom_site_fract_x
_atom_site_fract_y
_atom_site_fract_z
Si Si1 0.145786 0.779797 0.804019
Si Si2 0.181063 0.577816 0.069046
Si Si3 0.115105 0.077137 0.776249
Si Si4 0.341725 0.788585 0.701641
Si Si5 0.864218 0.576172 0.391295
Si Si6 0.873542 0.282605 0.317441
Si Si7 0.206163 0.078473 0.909901
Si Si8 0.201836 0.281344 0.983858
O O1 0.144853 0.861474 0.792599
O O2 0.259489 0.760981 0.730420
O O3 0.155733 0.743659 0.722859
O O4 0.000000 0.760816 0.000000
O O5 0.211461 0.500000 0.013770
O O6 0.257611 0.589160 0.053307
O O7 0.011026 0.583133 0.267348
O O8 0.217319 0.637236 0.977032
O O9 0.232442 0.082320 0.587843
O O10 0.122003 0.000000 0.796465
O O11 0.959584 0.087134 0.919829
O O12 0.500000 0.787985 0.500000
O O13 0.291063 0.865483 0.774275
O O14 0.295775 0.747227 0.818721
O O15 0.862816 0.500000 0.364146
O O16 0.862086 0.636337 0.340936
O O17 0.750000 0.250000 0.500000
O O18 0.035840 0.264649 0.155822
O O19 0.243507 0.000000 0.852366
O O20 0.250000 0.250000 0.000000
#
# Coordination Sequence:
#
# PCOD9194178 Si02
#       8
#     8   8   8   8   8   8   8   8
#     4  12  23  40  56  81 120 151 191 235 288 340
#     4   9  19  35  59  84 112 147 189 237 282 331
#     4  10  20  34  55  82 115 153 187 224 277 340
#     4  12  27  40  55  83 118 155 191 237 288 337
#     4   9  19  35  57  86 114 144 189 237 282 332
#     4  11  22  36  62  87 111 152 194 235 285 336
#     4  10  20  36  54  80 115 153 191 226 273 338
#     4  11  22  38  60  85 115 150 194 239 281 338
#
# _framework density 16.961098
#
# number of rings (size 3 to 8) (size 9 to 14) (size 15 to 20)
#    0.000    1.500    5.000    0.000    3.500    1.000 
#    0.000    0.000    0.000    1.500    0.000    0.000 
#    0.000    0.000    0.000    0.000    0.000    0.000 
#
# Total GULP energy -178484.351966 kJ/mol
# GULP energy per Si atom -5577.635999 kJ/mol
# Density = 1.692249 g / cm^3
# Si number density = 16.961098 Si / 1000 Ang^3
#
#
#
# Elastic Constant Matrix: (Units=GPa)
#
#
# Indices 1 2 3 4 5 6 
#
# 1 103.6811 40.9692 35.1043 -0.0040 11.8984 0.0015
# 2 40.9692 81.7822 37.3977 -0.0054 9.0443 0.0017
# 3 35.1043 37.3977 101.3459 -0.0074 14.6704 0.0028
# 4 -0.0040 -0.0054 -0.0074 24.0269 0.0002 5.3648
# 5 11.8984 9.0443 14.6704 0.0002 23.1414 0.0004
# 6 0.0015 0.0017 0.0028 5.3648 0.0004 28.5783
#
#
#
# Elastic Compliance Matrix: (Units=1/GPa)
#
#
# Indices 1 2 3 4 5 6 
#
# 1 0.012720 -0.005068 -0.002065 0.000000 -0.003250 0.000000
# 2 -0.005068 0.016866 -0.004284 0.000002 -0.001270 -0.000001
# 3 -0.002065 -0.004284 0.012956 0.000003 -0.005477 -0.000001
# 4 0.000000 0.000002 0.000003 0.043441 -0.000003 -0.008155
# 5 -0.003250 -0.001270 -0.005477 -0.000003 0.048852 0.000001
# 6 0.000000 -0.000001 -0.000001 -0.008155 0.000001 0.036522
#
#
# Mechanical properties :
#
#
# Convention : Reuss Voigt Hill
#
# Bulk Modulus (GPa) = 50.74431 57.08352 53.91391
# Shear Modulus (GPa) = 24.90502 26.70520 25.80511
#
# Velocity S-wave (km/s) = 3.83608 3.97230 3.90478
# Velocity P-wave (km/s) = 7.04299 7.40051 7.22396
#
# Compressibility (1/GPa) = 0.01970664
#
# Stress axis : x y z
#
# Youngs Moduli (GPa) = 78.61710 59.29014 77.18171
#
# Poissons Ratio (x) = 0.30050 0.15940
# Poissons Ratio (y) = 0.39845 0.33068
# Poissons Ratio (z) = 0.16236 0.25403
#
# Static dielectric constant tensor:
#      x y z
#    x 1.562510 0.000000 0.000690 
#    y 0.000000 1.604570 0.000000 
#    z 0.000690 0.000000 1.595010 
# 
# From -- ./inp_files/89134.got.cif
#   From: 2010.05.17/outbox.cif.g08.bks.cpg/sg12_45_cif.got.tgz:89134.got - 2010.06.03 13:09:07.
