data_PCOD9194689
_publ_section_title
;
Structure prediction by ZEFSAII (Michael W. Deem and Ramdas Pophale) SiO2 
 PCOD9194689
Probable space group: C 2/M
;
_chemical_formula_sum "Si O2"
_cell_formula_units_Z 50
_cell_length_a 20.956683
_cell_length_b 11.054209
_cell_length_c 14.376800
_cell_angle_alpha 90.000000
_cell_angle_beta 39.106473
_cell_angle_gamma 90.000000
_cell_volume 2100.772315
_symmetry_space_group_name_H-M "C 2/M"
_symmetry_group_IT_number 12
_symmetry_cell_setting 'monoclinic'
loop_
_space_group_symop_operation_xyz
x,y,z
-x,y,-z
-x,-y,-z
x,-y,z
1/2+x,1/2+y,z
1/2-x,1/2+y,-z
1/2-x,1/2-y,-z
1/2+x,1/2-y,z
loop_
_atom_site_type_symbol
_atom_site_label
_atom_site_fract_x
_atom_site_fract_y
_atom_site_fract_z
Si Si1 0.180724 0.635730 0.050060
Si Si2 0.354169 0.205270 0.241137
Si Si3 0.000000 0.500000 0.000000
Si Si4 0.128654 0.137731 0.430462
Si Si5 0.634383 0.688648 0.958600
Si Si6 0.436545 0.632761 0.295373
Si Si7 0.133247 0.368982 0.297614
O O1 0.224390 0.500000 0.995745
O O2 0.143554 0.673713 0.989829
O O3 0.101193 0.634321 0.225236
O O4 0.250000 0.750000 0.000000
O O5 0.242080 0.159034 0.342749
O O6 0.369657 0.263827 0.323790
O O7 0.435579 0.103585 0.129503
O O8 0.380339 0.307820 0.134441
O O9 0.056720 0.146605 0.601525
O O10 0.109837 0.247433 0.380409
O O11 0.122296 0.000000 0.399281
O O12 0.544955 0.636152 0.121614
O O13 0.744074 0.630029 0.847057
O O14 0.390195 0.500000 0.332158
O O15 0.104892 0.500000 0.370680
#
# Coordination Sequence:
#
# PCOD9194689 Si02
#       7
#     8   8   2   8   8   8   8
#     4   9  19  34  58  87 118 147 186 234 288 340
#     4  11  22  36  55  82 112 149 183 234 279 337
#     4  12  20  36  54  84 116 138 196 230 284 336
#     4  10  22  39  59  80 113 153 191 230 283 342
#     4  10  20  34  57  84 109 146 186 230 280 329
#     4  11  23  39  55  82 113 150 192 233 281 338
#     4   9  19  37  58  85 111 143 184 232 283 336
#
# _framework density 23.800768999999999
#
# number of rings (size 3 to 8) (size 9 to 14) (size 15 to 20)
#    0.000    1.920    2.400    0.960    1.120    8.320 
#    1.440    0.800    0.000    3.840    0.000    0.000 
#    0.000    0.000    0.000    0.000    0.000    0.000 
#
# Total GULP energy -139248.816256 kJ/mol
# GULP energy per Si atom -5569.952650 kJ/mol
# Density = 2.374660 g / cm^3
# Si number density = 23.800769 Si / 1000 Ang^3
#
#
#
# Elastic Constant Matrix: (Units=GPa)
#
#
# Indices 1 2 3 4 5 6 
#
# 1 45.0660 25.0213 14.3244 0.0000 -1.0980 0.0000
# 2 25.0213 193.5068 36.4668 0.0000 15.8028 0.0000
# 3 14.3244 36.4668 94.1907 0.0000 0.3824 0.0000
# 4 0.0000 0.0000 0.0000 11.3852 0.0000 22.9027
# 5 -1.0980 15.8028 0.3824 0.0000 47.2701 0.0000
# 6 0.0000 0.0000 0.0000 22.9027 0.0000 1.8904
#
#
#
# Elastic Compliance Matrix: (Units=1/GPa)
#
#
# Indices 1 2 3 4 5 6 
#
# 1 0.024633 -0.002808 -0.002665 0.000000 0.001532 0.000000
# 2 -0.002808 0.006061 -0.001911 0.000000 -0.002076 0.000000
# 3 -0.002665 -0.001911 0.011760 0.000000 0.000482 0.000000
# 4 0.000000 0.000000 0.000000 -0.003758 0.000000 0.045531
# 5 0.001532 -0.002076 0.000482 0.000000 0.021881 0.000000
# 6 0.000000 0.000000 0.000000 0.045531 0.000000 -0.022634
#
#
# Mechanical properties :
#
#
# Convention : Reuss Voigt Hill
#
# Bulk Modulus (GPa) = 36.12030 53.82094 44.97062
# Shear Modulus (GPa) = 80.72465 29.23921 54.98193
#
# Velocity S-wave (km/s) = 5.83013 3.50880 4.81155
# Velocity P-wave (km/s) = 7.78008 6.25122 7.05717
#
# Compressibility (1/GPa) = 0.02768526
#
# Stress axis : x y z
#
# Youngs Moduli (GPa) = 40.59557 165.00252 85.03436
#
# Poissons Ratio (x) = 0.46334 0.22664
# Poissons Ratio (y) = 0.11400 0.16249
# Poissons Ratio (z) = 0.10820 0.31530
#
# Static dielectric constant tensor:
#      x y z
#    x 2.004500 0.000000 -0.004640 
#    y 0.000000 1.911020 0.000000 
#    z -0.004640 0.000000 1.930700 
# 
# From -- ./inp_files/239949.got.cif
#   From: 2010.05.17/outbox.cif.g08.bks.cpg/sg12_120_cif.got.tgz:239949.got - 2010.06.03 13:09:07.
