data_PCOD9194948
_publ_section_title
;
Structure prediction by ZEFSAII (Michael W. Deem and Ramdas Pophale) SiO2 
 PCOD9194948
Probable space group: C 2/M
;
_chemical_formula_sum "Si O2"
_cell_formula_units_Z 60
_cell_length_a 17.765999
_cell_length_b 15.443346
_cell_length_c 10.943078
_cell_angle_alpha 90.000000
_cell_angle_beta 63.093938
_cell_angle_gamma 90.000000
_cell_volume 2677.401364
_symmetry_space_group_name_H-M "C 2/M"
_symmetry_group_IT_number 12
_symmetry_cell_setting 'monoclinic'
loop_
_space_group_symop_operation_xyz
x,y,z
-x,y,-z
-x,-y,-z
x,-y,z
1/2+x,1/2+y,z
1/2-x,1/2+y,-z
1/2-x,1/2-y,-z
1/2+x,1/2-y,z
loop_
_atom_site_type_symbol
_atom_site_label
_atom_site_fract_x
_atom_site_fract_y
_atom_site_fract_z
Si Si1 0.500000 0.218801 0.500000
Si Si2 0.297927 0.604014 0.528467
Si Si3 0.434354 0.724897 0.807540
Si Si4 0.854072 0.402668 0.503921
Si Si5 0.767782 0.128041 0.184372
Si Si6 0.359368 0.905016 0.940478
Si Si7 0.574382 0.600127 0.785984
Si Si8 0.726617 0.671857 0.197066
O O1 0.532657 0.268602 0.356650
O O2 0.573353 0.157994 0.499985
O O3 0.293673 0.500000 0.534068
O O4 0.203351 0.635024 0.562662
O O5 0.366421 0.625302 0.374525
O O6 0.316839 0.639493 0.647656
O O7 0.418812 0.822664 0.867875
O O8 0.498285 0.667680 0.838504
O O9 0.342747 0.680342 0.859555
O O10 0.884713 0.500000 0.453812
O O11 0.785350 0.407358 0.662089
O O12 0.713518 0.096497 0.109752
O O13 0.864049 0.103987 0.141860
O O14 0.760383 0.231541 0.191236
O O15 0.400106 0.000000 0.910708
O O16 0.305376 0.887186 0.101880
O O17 0.546730 0.500000 0.790898
#
# Coordination Sequence:
#
# PCOD9194948 Si02
#       8
#     4   8   8   8   8   8   8   8
#     4  12  21  34  61  94 132 162 192 260 324 370
#     4   9  20  37  60  92 125 164 209 250 309 382
#     4  11  24  39  60  98 128 160 206 257 321 374
#     4  10  20  34  58  92 126 161 206 255 311 369
#     4  10  20  38  65  90 123 162 215 261 308 364
#     4  11  23  43  68  90 122 169 215 260 306 366
#     4  10  22  39  65  96 129 161 202 263 322 371
#     4  11  22  40  62  88 124 169 212 252 304 375
#
# _framework density 22.409787999999999
#
# number of rings (size 3 to 8) (size 9 to 14) (size 15 to 20)
#    0.000    1.600    2.667    5.000    1.867    2.667 
#    0.000    4.333    0.000    4.800    0.000    0.000 
#    0.000    0.000    0.000    0.000    0.000    0.000 
#
# Total GULP energy -167642.540752 kJ/mol
# GULP energy per Si atom -5588.084692 kJ/mol
# Density = 2.235878 g / cm^3
# Si number density = 22.409788 Si / 1000 Ang^3
#
#
#
# Elastic Constant Matrix: (Units=GPa)
#
#
# Indices 1 2 3 4 5 6 
#
# 1 112.6834 66.7830 -0.7666 0.0000 -2.7830 0.0000
# 2 66.7830 93.2070 10.4610 0.0000 -7.4843 0.0000
# 3 -0.7666 10.4610 54.3140 0.0000 -9.7999 0.0000
# 4 0.0000 0.0000 0.0000 18.4808 0.0000 -0.9428
# 5 -2.7830 -7.4843 -9.7999 0.0000 19.4590 0.0000
# 6 0.0000 0.0000 0.0000 -0.9428 0.0000 -91.0934
#
#
#
# Elastic Compliance Matrix: (Units=1/GPa)
#
#
# Indices 1 2 3 4 5 6 
#
# 1 0.015756 -0.011630 0.002268 0.000000 -0.001078 0.000000
# 2 -0.011630 0.019768 -0.003190 0.000000 0.004333 0.000000
# 3 0.002268 -0.003190 0.020784 0.000000 0.009565 0.000000
# 4 0.000000 0.000000 0.000000 0.054082 0.000000 -0.000560
# 5 -0.001078 0.004333 0.009565 0.000000 0.057719 0.000000
# 6 0.000000 0.000000 0.000000 -0.000560 0.000000 -0.010972
#
#
# Mechanical properties :
#
#
# Convention : Reuss Voigt Hill
#
# Bulk Modulus (GPa) = 32.04762 45.90657 38.97710
# Shear Modulus (GPa) = 25.95490 1.61775 13.78632
#
# Velocity S-wave (km/s) = 3.40692 0.85057 2.48300
# Velocity P-wave (km/s) = 5.45966 4.63618 5.06468
#
# Compressibility (1/GPa) = 0.03120357
#
# Stress axis : x y z
#
# Youngs Moduli (GPa) = 63.46758 50.58702 48.11500
#
# Poissons Ratio (x) = 0.58834 -0.10912
# Poissons Ratio (y) = 0.73815 0.15347
# Poissons Ratio (z) = -0.14394 0.16135
#
# Static dielectric constant tensor:
#      x y z
#    x 1.844720 0.000000 0.002720 
#    y 0.000000 1.820500 0.000000 
#    z 0.002720 0.000000 1.856510 
# 
# From -- ./inp_files/156605.got.cif
#   From: 2010.05.17/outbox.cif.g08.bks.cpg/sg12_79_cif.got.tgz:156605.got - 2010.06.03 13:09:07.
