data_PCOD9194609
_publ_section_title
;
Structure prediction by ZEFSAII (Michael W. Deem and Ramdas Pophale) SiO2 
 PCOD9194609
Probable space group: C 2/M
;
_chemical_formula_sum "Si O2"
_cell_formula_units_Z 48
_cell_length_a 11.873189
_cell_length_b 22.875375
_cell_length_c 11.847357
_cell_angle_alpha 90.000000
_cell_angle_beta 132.173460
_cell_angle_gamma 90.000000
_cell_volume 2384.751176
_symmetry_space_group_name_H-M "C 2/M"
_symmetry_group_IT_number 12
_symmetry_cell_setting 'monoclinic'
loop_
_space_group_symop_operation_xyz
x,y,z
-x,y,-z
-x,-y,-z
x,-y,z
1/2+x,1/2+y,z
1/2-x,1/2+y,-z
1/2-x,1/2-y,-z
1/2+x,1/2-y,z
loop_
_atom_site_type_symbol
_atom_site_label
_atom_site_fract_x
_atom_site_fract_y
_atom_site_fract_z
Si Si1 0.153659 0.296704 0.626947
Si Si2 0.609456 0.626857 0.747261
Si Si3 0.963185 0.678552 0.214085
Si Si4 0.994701 0.799042 0.866481
Si Si5 0.193477 0.831220 0.566595
Si Si6 0.623288 0.064959 0.981885
O O1 0.139663 0.294711 0.754353
O O2 0.323098 0.315282 0.713796
O O3 0.139715 0.236109 0.545755
O O4 0.000000 0.332436 0.500000
O O5 0.602932 0.668747 0.851507
O O6 0.437274 0.630060 0.581010
O O7 0.705161 0.649672 0.705084
O O8 0.705525 0.571585 0.853506
O O9 0.979188 0.730004 0.132436
O O10 0.138462 0.667615 0.370384
O O11 0.904669 0.617935 0.123570
O O12 0.000000 0.815792 0.000000
O O13 0.603587 0.000000 0.919671
O O14 0.500000 0.071044 0.000000
#
# Coordination Sequence:
#
# PCOD9194609 Si02
#       6
#     8   8   8   8   8   8
#     4  11  20  33  54  87 123 149 183 217 282 351
#     4  11  20  39  56  81 122 145 186 233 280 341
#     4  11  21  36  57  83 120 151 184 234 281 335
#     4  11  23  32  54  88 119 153 184 222 286 350
#     4  10  20  34  56  87 115 152 176 228 289 334
#     4  11  24  40  58  81 110 149 197 238 279 327
#
# _framework density 20.127886
#
# number of rings (size 3 to 8) (size 9 to 14) (size 15 to 20)
#    0.000    1.167    5.000    2.500    2.333    4.000 
#    0.000    2.500    0.000    5.000    0.000    0.000 
#    0.000    0.000    0.000    0.000    0.000    0.000 
#
# Total GULP energy -133695.616447 kJ/mol
# GULP energy per Si atom -5570.650685 kJ/mol
# Density = 2.008207 g / cm^3
# Si number density = 20.127886 Si / 1000 Ang^3
#
#
#
# Elastic Constant Matrix: (Units=GPa)
#
#
# Indices 1 2 3 4 5 6 
#
# 1 100.0959 30.3426 20.0054 0.0000 10.5817 0.0000
# 2 30.3426 82.9820 38.6854 0.0000 3.8870 0.0000
# 3 20.0054 38.6854 76.2664 0.0000 8.6076 0.0000
# 4 0.0000 0.0000 0.0000 20.2124 0.0000 -0.6702
# 5 10.5817 3.8870 8.6076 0.0000 41.2181 0.0000
# 6 0.0000 0.0000 0.0000 -0.6702 0.0000 5.4209
#
#
#
# Elastic Compliance Matrix: (Units=1/GPa)
#
#
# Indices 1 2 3 4 5 6 
#
# 1 0.011544 -0.003698 -0.000878 0.000000 -0.002432 0.000000
# 2 -0.003698 0.016969 -0.007746 0.000000 0.000967 0.000000
# 3 -0.000878 -0.007746 0.017578 0.000000 -0.002715 0.000000
# 4 0.000000 0.000000 0.000000 0.049678 0.000000 0.006142
# 5 -0.002432 0.000967 -0.002715 0.000000 0.025361 0.000000
# 6 0.000000 0.000000 0.000000 0.006142 0.000000 0.185231
#
#
# Mechanical properties :
#
#
# Convention : Reuss Voigt Hill
#
# Bulk Modulus (GPa) = 46.62816 48.60123 47.61470
# Shear Modulus (GPa) = 14.78611 24.72432 19.75522
#
# Velocity S-wave (km/s) = 2.71331 3.50860 3.13626
# Velocity P-wave (km/s) = 5.74737 6.37278 6.06814
#
# Compressibility (1/GPa) = 0.02144627
#
# Stress axis : x y z
#
# Youngs Moduli (GPa) = 86.62589 58.93096 56.88942
#
# Poissons Ratio (x) = 0.21792 0.04994
# Poissons Ratio (y) = 0.32033 0.44069
# Poissons Ratio (z) = 0.07605 0.45651
#
# Static dielectric constant tensor:
#      x y z
#    x 1.738290 0.000000 0.012110 
#    y 0.000000 1.660740 0.000000 
#    z 0.012110 0.000000 1.867930 
# 
# From -- ./inp_files/134074.got.cif
#   From: 2010.05.17/outbox.cif.g08.bks.cpg/sg12_68_cif.got.tgz:134074.got - 2010.06.03 13:09:07.
