data_PCOD9194098
_publ_section_title
;
Structure prediction by ZEFSAII (Michael W. Deem and Ramdas Pophale) SiO2 
 PCOD9194098
Probable space group: C 2/M
;
_chemical_formula_sum "Si O2"
_cell_formula_units_Z 64
_cell_length_a 15.072335
_cell_length_b 13.300693
_cell_length_c 18.118968
_cell_angle_alpha 90.000000
_cell_angle_beta 50.095588
_cell_angle_gamma 90.000000
_cell_volume 2786.436615
_symmetry_space_group_name_H-M "C 2/M"
_symmetry_group_IT_number 12
_symmetry_cell_setting 'monoclinic'
loop_
_space_group_symop_operation_xyz
x,y,z
-x,y,-z
-x,-y,-z
x,-y,z
1/2+x,1/2+y,z
1/2-x,1/2+y,-z
1/2-x,1/2-y,-z
1/2+x,1/2-y,z
loop_
_atom_site_type_symbol
_atom_site_label
_atom_site_fract_x
_atom_site_fract_y
_atom_site_fract_z
Si Si1 0.626912 0.676266 0.912399
Si Si2 0.841360 0.884155 0.268417
Si Si3 0.835273 0.387675 0.046181
Si Si4 0.495368 0.106426 0.590500
Si Si5 0.759961 0.117421 0.467347
Si Si6 0.423700 0.664377 0.781279
Si Si7 0.361378 0.115591 0.860192
Si Si8 0.990530 0.829201 0.419636
O O1 0.667986 0.661858 0.806835
O O2 0.622065 0.795370 0.928488
O O3 0.726654 0.628825 0.910072
O O4 0.500000 0.634507 0.000000
O O5 0.773904 0.842784 0.375929
O O6 0.973734 0.873662 0.222193
O O7 0.807260 0.000000 0.279666
O O8 0.867145 0.500000 0.052887
O O9 0.696973 0.375555 0.124657
O O10 0.873371 0.371200 0.941544
O O11 0.500000 0.094970 0.500000
O O12 0.624091 0.114468 0.556589
O O13 0.450120 0.219170 0.617834
O O14 0.442897 0.000000 0.644975
O O15 0.853659 0.169792 0.470256
O O16 0.796730 0.000000 0.446866
O O17 0.421835 0.787688 0.789381
O O18 0.449544 0.623474 0.684784
O O19 0.397466 0.000000 0.824943
O O20 0.000000 0.864236 0.500000
#
# Coordination Sequence:
#
# PCOD9194098 Si02
#       8
#     8   8   8   8   8   8   8   8
#     4  11  21  33  52  82 112 139 181 228 274 332
#     4  10  20  34  55  81 108 141 181 231 284 327
#     4  10  21  38  58  79 109 148 184 223 277 336
#     4   9  18  33  53  76 103 139 181 223 272 329
#     4   9  19  36  56  78 107 143 186 236 284 333
#     4  10  20  37  58  81 111 145 187 231 274 333
#     4  10  21  37  58  83 112 147 185 229 279 330
#     4  10  21  35  56  83 111 148 188 231 283 337
#
# _framework density 22.968402999999999
#
# number of rings (size 3 to 8) (size 9 to 14) (size 15 to 20)
#    0.000    2.125    0.000    4.125    0.000    7.500 
#    0.000    3.125    0.000    3.750    0.000    0.000 
#    0.000    0.000    0.000    0.000    0.000    0.000 
#
# Total GULP energy -178450.106518 kJ/mol
# GULP energy per Si atom -5576.565829 kJ/mol
# Density = 2.291613 g / cm^3
# Si number density = 22.968403 Si / 1000 Ang^3
#
#
#
# Elastic Constant Matrix: (Units=GPa)
#
#
# Indices 1 2 3 4 5 6 
#
# 1 83.9986 15.6523 18.3309 0.0000 4.7683 0.0000
# 2 15.6523 110.3375 21.8334 0.0000 25.3411 0.0000
# 3 18.3309 21.8334 79.3671 0.0000 22.7188 0.0000
# 4 0.0000 0.0000 0.0000 -45.8869 0.0000 -72.7779
# 5 4.7683 25.3411 22.7188 0.0000 43.8254 0.0000
# 6 0.0000 0.0000 0.0000 -72.7779 0.0000 -83.2497
#
#
#
# Elastic Compliance Matrix: (Units=1/GPa)
#
#
# Indices 1 2 3 4 5 6 
#
# 1 0.012737 -0.001462 -0.002800 0.000000 0.000911 0.000000
# 2 -0.001462 0.010742 -0.001039 0.000000 -0.005514 0.000000
# 3 -0.002800 -0.001039 0.015586 0.000000 -0.007174 0.000000
# 4 0.000000 0.000000 0.000000 0.056381 0.000000 -0.049289
# 5 0.000911 -0.005514 -0.007174 0.000000 0.029626 0.000000
# 6 0.000000 0.000000 0.000000 -0.049289 0.000000 0.031077
#
#
# Mechanical properties :
#
#
# Convention : Reuss Voigt Hill
#
# Bulk Modulus (GPa) = 35.13452 42.81516 38.97484
# Shear Modulus (GPa) = 28.37043 -2.53647 12.91698
#
# Velocity S-wave (km/s) = 3.51835 -1.05201 2.37403
# Velocity P-wave (km/s) = 5.64226 4.14798 4.95181
#
# Compressibility (1/GPa) = 0.02846204
#
# Stress axis : x y z
#
# Youngs Moduli (GPa) = 78.51271 93.08843 64.16045
#
# Poissons Ratio (x) = 0.13609 0.17968
# Poissons Ratio (y) = 0.11478 0.06668
# Poissons Ratio (z) = 0.21987 0.09674
#
# Static dielectric constant tensor:
#      x y z
#    x 1.850940 0.000000 -0.025170 
#    y 0.000000 1.959240 0.000000 
#    z -0.025170 0.000000 1.849520 
# 
# From -- ./inp_files/270265.got.cif
#   From: 2010.05.17/outbox.cif.g08.bks.cpg/sg12_136_cif.got.tgz:270265.got - 2010.06.03 13:09:07.
