data_PCOD9194181
_publ_section_title
;
Structure prediction by ZEFSAII (Michael W. Deem and Ramdas Pophale) SiO2 
 PCOD9194181
Probable space group: C 2/M
;
_chemical_formula_sum "Si O2"
_cell_formula_units_Z 56
_cell_length_a 30.014539
_cell_length_b 7.503631
_cell_length_c 13.473270
_cell_angle_alpha 90.000000
_cell_angle_beta 124.882407
_cell_angle_gamma 90.000000
_cell_volume 2489.220904
_symmetry_space_group_name_H-M "C 2/M"
_symmetry_group_IT_number 12
_symmetry_cell_setting 'monoclinic'
loop_
_space_group_symop_operation_xyz
x,y,z
-x,y,-z
-x,-y,-z
x,-y,z
1/2+x,1/2+y,z
1/2-x,1/2+y,-z
1/2-x,1/2-y,-z
1/2+x,1/2-y,z
loop_
_atom_site_type_symbol
_atom_site_label
_atom_site_fract_x
_atom_site_fract_y
_atom_site_fract_z
Si Si1 0.702462 0.288120 0.016831
Si Si2 0.749060 0.209580 0.290334
Si Si3 0.136038 0.794290 0.516510
Si Si4 0.155893 0.283297 0.314323
Si Si5 0.059896 0.715685 0.042698
Si Si6 0.483859 0.716905 0.591825
Si Si7 0.416128 0.706097 0.152836
O O1 0.696695 0.500000 0.018195
O O2 0.718968 0.223452 0.147053
O O3 0.750000 0.250000 0.000000
O O4 0.643907 0.215173 0.907772
O O5 0.809892 0.286124 0.364842
O O6 0.710440 0.280524 0.328439
O O7 0.755371 0.000000 0.320296
O O8 0.147928 0.786849 0.414431
O O9 0.076610 0.715700 0.460928
O O10 0.132457 0.000000 0.546231
O O11 0.156822 0.500000 0.320429
O O12 0.105224 0.231540 0.180233
O O13 0.060678 0.500000 0.037622
O O14 0.073576 0.786236 0.951490
O O15 0.000000 0.771563 0.000000
O O16 0.500000 0.757163 0.500000
O O17 0.482016 0.500000 0.600603
O O18 0.531727 0.783946 0.724736
O O19 0.413157 0.500000 0.182239
#
# Coordination Sequence:
#
# PCOD9194181 Si02
#       7
#     8   8   8   8   8   8   8
#     4  11  24  39  60  88 115 149 191 238 288 340
#     4  10  21  38  59  85 115 151 190 231 284 342
#     4  10  21  35  58  86 112 149 193 234 281 337
#     4  10  20  35  54  80 117 152 185 230 283 336
#     4  10  20  34  55  82 115 157 190 223 281 341
#     4   9  19  36  58  83 111 144 185 235 283 329
#     4  10  21  37  59  86 111 144 190 237 281 331
#
# _framework density 22.496998999999999
#
# number of rings (size 3 to 8) (size 9 to 14) (size 15 to 20)
#    0.000    2.000    1.429    1.714    2.000    2.571 
#    0.000    0.000    0.000    0.857    0.000    0.000 
#    0.000    0.000    0.000    0.000    0.000    0.000 
#
# Total GULP energy -156490.067129 kJ/mol
# GULP energy per Si atom -5588.930969 kJ/mol
# Density = 2.244579 g / cm^3
# Si number density = 22.496999 Si / 1000 Ang^3
#
#
#
# Elastic Constant Matrix: (Units=GPa)
#
#
# Indices 1 2 3 4 5 6 
#
# 1 154.1031 1.3301 36.8413 0.0000 47.2471 0.0000
# 2 1.3301 58.8889 7.2470 0.0000 12.1681 0.0000
# 3 36.8413 7.2470 99.0816 0.0000 48.7558 0.0000
# 4 0.0000 0.0000 0.0000 1.2758 0.0000 -1.6490
# 5 47.2471 12.1681 48.7558 0.0000 47.4643 0.0000
# 6 0.0000 0.0000 0.0000 -1.6490 0.0000 4.0823
#
#
#
# Elastic Compliance Matrix: (Units=1/GPa)
#
#
# Indices 1 2 3 4 5 6 
#
# 1 0.009837 0.002145 0.002577 0.000000 -0.012989 0.000000
# 2 0.002145 0.018581 0.002503 0.000000 -0.009470 0.000000
# 3 0.002577 0.002503 0.021292 0.000000 -0.025078 0.000000
# 4 0.000000 0.000000 0.000000 1.640045 0.000000 0.662467
# 5 -0.012989 -0.009470 -0.025078 0.000000 0.062186 0.000000
# 6 0.000000 0.000000 0.000000 0.662467 0.000000 0.512551
#
#
# Mechanical properties :
#
#
# Convention : Reuss Voigt Hill
#
# Bulk Modulus (GPa) = 15.58612 44.76781 30.17696
# Shear Modulus (GPa) = 2.20126 28.34150 15.27138
#
# Velocity S-wave (km/s) = 0.99025 3.55320 2.60824
# Velocity P-wave (km/s) = 2.87238 6.06435 4.74483
#
# Compressibility (1/GPa) = 0.06415965
#
# Stress axis : x y z
#
# Youngs Moduli (GPa) = 101.65879 53.81744 46.96665
#
# Poissons Ratio (x) = -0.11541 -0.12103
# Poissons Ratio (y) = -0.21801 -0.11758
# Poissons Ratio (z) = -0.26197 -0.13473
#
# Static dielectric constant tensor:
#      x y z
#    x 1.797280 0.000000 0.064570 
#    y 0.000000 1.864820 0.000000 
#    z 0.064570 0.000000 1.807190 
# 
# From -- ./inp_files/249286.got.cif
#   From: 2010.05.17/outbox.cif.g08.bks.cpg/sg12_125_cif.got.tgz:249286.got - 2010.06.03 13:09:07.
