data_PCOD9194621
_publ_section_title
;
Structure prediction by ZEFSAII (Michael W. Deem and Ramdas Pophale) SiO2 
 PCOD9194621
Probable space group: C 2/M
;
_chemical_formula_sum "Si O2"
_cell_formula_units_Z 40
_cell_length_a 13.626325
_cell_length_b 22.007219
_cell_length_c 8.708549
_cell_angle_alpha 90.000000
_cell_angle_beta 129.766358
_cell_angle_gamma 90.000000
_cell_volume 2007.352117
_symmetry_space_group_name_H-M "C 2/M"
_symmetry_group_IT_number 12
_symmetry_cell_setting 'monoclinic'
loop_
_space_group_symop_operation_xyz
x,y,z
-x,y,-z
-x,-y,-z
x,-y,z
1/2+x,1/2+y,z
1/2-x,1/2+y,-z
1/2-x,1/2-y,-z
1/2+x,1/2-y,z
loop_
_atom_site_type_symbol
_atom_site_label
_atom_site_fract_x
_atom_site_fract_y
_atom_site_fract_z
Si Si1 0.358459 0.733138 0.921940
Si Si2 0.365099 0.869660 0.803073
Si Si3 0.009226 0.188553 0.325568
Si Si4 0.879705 0.689586 0.494205
Si Si5 0.109392 0.933256 0.481081
O O1 0.344803 0.804857 0.870649
O O2 0.246510 0.695174 0.733087
O O3 0.500000 0.716502 0.000000
O O4 0.379444 0.712581 0.119173
O O5 0.377636 0.856510 0.633272
O O6 0.241037 0.911621 0.692433
O O7 0.500000 0.894165 0.000000
O O8 0.000000 0.183811 0.500000
O O9 0.104906 0.245002 0.405671
O O10 0.062614 0.123262 0.329223
O O11 0.000000 0.680939 0.500000
O O12 0.000000 0.938900 0.500000
O O13 0.125361 0.000000 0.424913
#
# Coordination Sequence:
#
# PCOD9194621 Si02
#       5
#     8   8   8   8   8
#     4  11  20  34  55  86 124 156 186 243 301 358
#     4  11  21  37  60  91 122 153 195 247 302 351
#     4  10  20  34  56  87 121 150 189 240 291 355
#     4  11  22  35  56  91 127 155 191 241 307 362
#     4  10  22  40  61  86 118 158 204 246 285 346
#
# _framework density 19.926748
#
# number of rings (size 3 to 8) (size 9 to 14) (size 15 to 20)
#    0.000    1.400    6.000    1.800    0.000    6.800 
#    0.000    0.000    0.000    6.000    0.000    0.000 
#    0.000    0.800    0.000    0.000    0.000    0.000 
#
# Total GULP energy -111545.451957 kJ/mol
# GULP energy per Si atom -5577.272598 kJ/mol
# Density = 1.988139 g / cm^3
# Si number density = 19.926748 Si / 1000 Ang^3
#
#
#
# Elastic Constant Matrix: (Units=GPa)
#
#
# Indices 1 2 3 4 5 6 
#
# 1 107.0101 25.4717 41.5919 0.0000 21.4230 0.0000
# 2 25.4717 77.7508 33.5182 0.0000 9.6180 0.0000
# 3 41.5919 33.5182 159.9605 0.0000 23.4076 0.0000
# 4 0.0000 0.0000 0.0000 3.1432 0.0000 -21.5583
# 5 21.4230 9.6180 23.4076 0.0000 38.1131 0.0000
# 6 0.0000 0.0000 0.0000 -21.5583 0.0000 -23.5449
#
#
#
# Elastic Compliance Matrix: (Units=1/GPa)
#
#
# Indices 1 2 3 4 5 6 
#
# 1 0.011582 -0.002425 -0.001802 0.000000 -0.004791 0.000000
# 2 -0.002425 0.014776 -0.002329 0.000000 -0.000936 0.000000
# 3 -0.001802 -0.002329 0.007663 0.000000 -0.003105 0.000000
# 4 0.000000 0.000000 0.000000 0.043701 0.000000 -0.040014
# 5 -0.004791 -0.000936 -0.003105 0.000000 0.031074 0.000000
# 6 0.000000 0.000000 0.000000 -0.040014 0.000000 -0.005834
#
#
# Mechanical properties :
#
#
# Convention : Reuss Voigt Hill
#
# Bulk Modulus (GPa) = 47.82711 60.65390 54.24051
# Shear Modulus (GPa) = 40.63654 19.81824 30.22739
#
# Velocity S-wave (km/s) = 4.52076 3.15708 3.89900
# Velocity P-wave (km/s) = 7.16263 6.61771 6.89555
#
# Compressibility (1/GPa) = 0.02090864
#
# Stress axis : x y z
#
# Youngs Moduli (GPa) = 86.34299 67.67925 130.50532
#
# Poissons Ratio (x) = 0.16410 0.23520
# Poissons Ratio (y) = 0.20935 0.30391
# Poissons Ratio (z) = 0.15561 0.15761
#
# Static dielectric constant tensor:
#      x y z
#    x 1.869270 0.000000 -0.080820 
#    y 0.000000 1.726600 0.000000 
#    z -0.080820 0.000000 1.807750 
# 
# From -- ./inp_files/64960.got.cif
#   From: 2010.05.17/outbox.cif.g08.bks.cpg/sg12_33_cif.got.tgz:64960.got - 2010.06.03 13:09:07.
