data_PCOD9194713
_publ_section_title
;
Structure prediction by ZEFSAII (Michael W. Deem and Ramdas Pophale) SiO2 
 PCOD9194713
Probable space group: C 2/M
;
_chemical_formula_sum "Si O2"
_cell_formula_units_Z 48
_cell_length_a 11.958860
_cell_length_b 23.458311
_cell_length_c 12.049877
_cell_angle_alpha 90.000000
_cell_angle_beta 49.359764
_cell_angle_gamma 90.000000
_cell_volume 2565.101385
_symmetry_space_group_name_H-M "C 2/M"
_symmetry_group_IT_number 12
_symmetry_cell_setting 'monoclinic'
loop_
_space_group_symop_operation_xyz
x,y,z
-x,y,-z
-x,-y,-z
x,-y,z
1/2+x,1/2+y,z
1/2-x,1/2+y,-z
1/2-x,1/2-y,-z
1/2+x,1/2-y,z
loop_
_atom_site_type_symbol
_atom_site_label
_atom_site_fract_x
_atom_site_fract_y
_atom_site_fract_z
Si Si1 0.466998 0.208431 0.892101
Si Si2 0.381067 0.434039 0.489261
Si Si3 0.201822 0.639828 0.301525
Si Si4 0.034004 0.064316 0.817966
Si Si5 0.614543 0.853448 0.598957
Si Si6 0.663804 0.671298 0.000429
O O1 0.580021 0.188596 0.723446
O O2 0.430058 0.275019 0.899405
O O3 0.500000 0.199498 0.000000
O O4 0.316671 0.173481 0.966799
O O5 0.500000 0.410634 0.500000
O O6 0.348869 0.500000 0.539704
O O7 0.459996 0.433518 0.318943
O O8 0.229430 0.399628 0.571958
O O9 0.302539 0.584000 0.251076
O O10 0.182598 0.666973 0.436338
O O11 0.045790 0.626041 0.343602
O O12 0.289274 0.679335 0.158409
O O13 0.921287 0.112181 0.932092
O O14 0.999257 0.000000 0.874579
#
# Coordination Sequence:
#
# PCOD9194713 Si02
#       6
#     8   8   8   8   8   8
#     4  10  21  37  58  81 112 152 188 230 279 328
#     4   9  19  35  55  79 114 151 185 232 278 326
#     4   9  18  35  55  82 115 144 179 236 279 326
#     4  10  20  34  57  85 112 146 185 229 284 338
#     4   9  19  35  58  82 111 147 192 224 275 338
#     4  10  21  37  57  83 117 146 182 235 282 329
#
# _framework density 18.712710000000001
#
# number of rings (size 3 to 8) (size 9 to 14) (size 15 to 20)
#    0.000    2.500    0.000    1.500    2.333    2.000 
#    0.000   13.333    3.667    1.000    0.000    0.000 
#    0.000    0.000    0.000    0.000    0.000    0.000 
#
# Total GULP energy -133654.695438 kJ/mol
# GULP energy per Si atom -5568.945643 kJ/mol
# Density = 1.867012 g / cm^3
# Si number density = 18.712710 Si / 1000 Ang^3
#
#
#
# Elastic Constant Matrix: (Units=GPa)
#
#
# Indices 1 2 3 4 5 6 
#
# 1 59.1830 18.4336 38.7340 0.0000 16.4699 0.0000
# 2 18.4336 78.6665 71.1319 0.0000 1.4357 0.0000
# 3 38.7340 71.1319 118.5741 0.0000 9.2901 0.0000
# 4 0.0000 0.0000 0.0000 24.5619 0.0000 -1.2830
# 5 16.4699 1.4357 9.2901 0.0000 28.8027 0.0000
# 6 0.0000 0.0000 0.0000 -1.2830 0.0000 20.6295
#
#
#
# Elastic Compliance Matrix: (Units=1/GPa)
#
#
# Indices 1 2 3 4 5 6 
#
# 1 0.025078 0.002001 -0.008475 0.000000 -0.011706 0.000000
# 2 0.002001 0.028420 -0.017956 0.000000 0.003231 0.000000
# 3 -0.008475 -0.017956 0.022082 0.000000 -0.001381 0.000000
# 4 0.000000 0.000000 0.000000 0.040846 0.000000 0.002540
# 5 -0.011706 0.003231 -0.001381 0.000000 0.041697 0.000000
# 6 0.000000 0.000000 0.000000 0.002540 0.000000 0.048632
#
#
# Mechanical properties :
#
#
# Convention : Reuss Voigt Hill
#
# Bulk Modulus (GPa) = 37.42586 57.00251 47.21418
# Shear Modulus (GPa) = 18.90202 23.34045 21.12124
#
# Velocity S-wave (km/s) = 3.18168 3.53555 3.36327
# Velocity P-wave (km/s) = 5.79147 6.86985 6.35358
#
# Compressibility (1/GPa) = 0.02671949
#
# Stress axis : x y z
#
# Youngs Moduli (GPa) = 39.87543 35.18654 45.28638
#
# Poissons Ratio (x) = -0.07039 0.38381
# Poissons Ratio (y) = -0.07977 0.81314
# Poissons Ratio (z) = 0.33795 0.63179
#
# Static dielectric constant tensor:
#      x y z
#    x 1.679450 0.000000 0.005230 
#    y 0.000000 1.625750 0.000000 
#    z 0.005230 0.000000 1.682800 
# 
# From -- ./inp_files/134089.got.cif
#   From: 2010.05.17/outbox.cif.g08.bks.cpg/sg12_68_cif.got.tgz:134089.got - 2010.06.03 13:09:07.
