data_PCOD9194449
_publ_section_title
;
Structure prediction by ZEFSAII (Michael W. Deem and Ramdas Pophale) SiO2 
 PCOD9194449
Probable space group: C 2/M
;
_chemical_formula_sum "Si O2"
_cell_formula_units_Z 56
_cell_length_a 19.544222
_cell_length_b 8.955068
_cell_length_c 16.625599
_cell_angle_alpha 90.000000
_cell_angle_beta 94.608316
_cell_angle_gamma 90.000000
_cell_volume 2900.402876
_symmetry_space_group_name_H-M "C 2/M"
_symmetry_group_IT_number 12
_symmetry_cell_setting 'monoclinic'
loop_
_space_group_symop_operation_xyz
x,y,z
-x,y,-z
-x,-y,-z
x,-y,z
1/2+x,1/2+y,z
1/2-x,1/2+y,-z
1/2-x,1/2-y,-z
1/2+x,1/2-y,z
loop_
_atom_site_type_symbol
_atom_site_label
_atom_site_fract_x
_atom_site_fract_y
_atom_site_fract_z
Si Si1 0.148113 0.322945 0.308996
Si Si2 0.681638 0.320933 0.030597
Si Si3 0.244721 0.821039 0.198838
Si Si4 0.675654 0.822963 0.494566
Si Si5 0.555371 0.678968 0.573416
Si Si6 0.993231 0.179469 0.741891
Si Si7 0.618232 0.319559 0.864639
O O1 0.152849 0.500000 0.298235
O O2 0.215448 0.246758 0.277780
O O3 0.143377 0.291295 0.403652
O O4 0.079953 0.257897 0.261901
O O5 0.686515 0.500000 0.028710
O O6 0.687415 0.280680 0.124760
O O7 0.750000 0.250000 0.000000
O O8 0.623605 0.279427 0.960091
O O9 0.317046 0.753516 0.175678
O O10 0.250268 0.000000 0.204338
O O11 0.750000 0.750000 0.500000
O O12 0.626659 0.755293 0.557604
O O13 0.681324 0.000000 0.505005
O O14 0.500000 0.722680 0.500000
O O15 0.563727 0.500000 0.570181
O O16 0.528006 0.716359 0.659248
O O17 0.046984 0.222540 0.816219
O O18 0.983068 0.000000 0.743858
O O19 0.625023 0.500000 0.858075
#
# Coordination Sequence:
#
# PCOD9194449 Si02
#       7
#     8   8   8   8   8   8   8
#     4  11  24  40  56  78 111 147 183 225 274 324
#     4   8  15  30  52  79 109 142 179 222 269 320
#     4  10  20  34  56  83 111 145 185 226 273 324
#     4  11  25  41  59  82 110 144 183 227 273 323
#     4  10  20  37  60  83 110 144 181 221 268 324
#     4  10  21  37  58  82 110 146 183 222 271 327
#     4   9  18  34  57  84 113 143 181 226 272 325
#
# _framework density 19.307663999999999
#
# number of rings (size 3 to 8) (size 9 to 14) (size 15 to 20)
#    0.000    2.143    1.429    1.286    2.000    3.714 
#    0.000    0.714    0.000    4.286    0.000    0.000 
#    0.000    0.000    0.000    0.000    0.000    0.000 
#
# Total GULP energy -156216.821521 kJ/mol
# GULP energy per Si atom -5579.172197 kJ/mol
# Density = 1.926372 g / cm^3
# Si number density = 19.307664 Si / 1000 Ang^3
#
#
#
# Elastic Constant Matrix: (Units=GPa)
#
#
# Indices 1 2 3 4 5 6 
#
# 1 75.6627 19.4696 -4.5204 0.0000 11.0736 0.0000
# 2 19.4696 8.0252 12.7074 0.0000 1.3885 0.0000
# 3 -4.5204 12.7074 19.1958 0.0000 7.9890 0.0000
# 4 0.0000 0.0000 0.0000 16.3850 0.0000 -2.2189
# 5 11.0736 1.3885 7.9890 0.0000 37.5538 0.0000
# 6 0.0000 0.0000 0.0000 -2.2189 0.0000 31.5881
#
#
#
# Elastic Compliance Matrix: (Units=1/GPa)
#
#
# Indices 1 2 3 4 5 6 
#
# 1 0.001318 0.037938 -0.026396 0.000000 0.003824 0.000000
# 2 0.037938 -0.110456 0.093268 0.000000 -0.026944 0.000000
# 3 -0.026396 0.093268 -0.019384 0.000000 0.008459 0.000000
# 4 0.000000 0.000000 0.000000 0.061618 0.000000 0.004328
# 5 0.003824 -0.026944 0.008459 0.000000 0.024698 0.000000
# 6 0.000000 0.000000 0.000000 0.004328 0.000000 0.031962
#
#
# Mechanical properties :
#
#
# Convention : Reuss Voigt Hill
#
# Bulk Modulus (GPa) = 12.33064 17.57744 14.95404
# Shear Modulus (GPa) = -25.92899 22.12053 -1.90423
#
# Velocity S-wave (km/s) = -3.66859 3.38847 -0.99418
# Velocity P-wave (km/s) = 3.39771 4.94294 2.53852
#
# Compressibility (1/GPa) = 0.08109882
#
# Stress axis : x y z
#
# Youngs Moduli (GPa) = 758.94908 -9.05339 -51.58785
#
# Poissons Ratio (x) = 0.34347 -1.36171
# Poissons Ratio (y) = -28.79315 4.81152
# Poissons Ratio (z) = 20.03317 0.84440
#
# Static dielectric constant tensor:
#      x y z
#    x 1.641690 0.000000 0.039470 
#    y 0.000000 1.640850 0.000000 
#    z 0.039470 0.000000 1.713200 
# 
# From -- ./inp_files/230934.got.cif
#   From: 2010.05.17/outbox.cif.g08.bks.cpg/sg12_116_cif.got.tgz:230934.got - 2010.06.03 13:09:07.
