data_PCOD9194265
_publ_section_title
;
Structure prediction by ZEFSAII (Michael W. Deem and Ramdas Pophale) SiO2 
 PCOD9194265
Probable space group: C 2/M
;
_chemical_formula_sum "Si O2"
_cell_formula_units_Z 56
_cell_length_a 20.971089
_cell_length_b 11.865194
_cell_length_c 13.915887
_cell_angle_alpha 90.000000
_cell_angle_beta 123.345303
_cell_angle_gamma 90.000000
_cell_volume 2892.591810
_symmetry_space_group_name_H-M "C 2/M"
_symmetry_group_IT_number 12
_symmetry_cell_setting 'monoclinic'
loop_
_space_group_symop_operation_xyz
x,y,z
-x,y,-z
-x,-y,-z
x,-y,z
1/2+x,1/2+y,z
1/2-x,1/2+y,-z
1/2-x,1/2-y,-z
1/2+x,1/2-y,z
loop_
_atom_site_type_symbol
_atom_site_label
_atom_site_fract_x
_atom_site_fract_y
_atom_site_fract_z
Si Si1 0.306933 0.872962 0.292232
Si Si2 0.657314 0.377539 0.876586
Si Si3 0.196245 0.267931 0.078512
Si Si4 0.576812 0.868584 0.125616
Si Si5 0.049423 0.371353 0.318143
Si Si6 0.947314 0.215833 0.369957
Si Si7 0.225709 0.373054 0.520712
O O1 0.251641 0.830683 0.162659
O O2 0.379600 0.791671 0.358250
O O3 0.261587 0.868821 0.354711
O O4 0.333130 0.000000 0.297414
O O5 0.648915 0.500000 0.914794
O O6 0.743096 0.361271 0.906249
O O7 0.597559 0.365491 0.740111
O O8 0.649263 0.279303 0.949013
O O9 0.142828 0.308382 0.120225
O O10 0.558359 0.825448 0.217052
O O11 0.599202 0.000000 0.156116
O O12 0.500000 0.863597 0.000000
O O13 0.018701 0.500000 0.287833
O O14 0.134974 0.377142 0.429302
O O15 0.998798 0.295425 0.345129
O O16 0.000000 0.169595 0.500000
O O17 0.254135 0.500000 0.509837
O O18 0.250000 0.250000 0.500000
#
# Coordination Sequence:
#
# PCOD9194265 Si02
#       7
#     8   8   8   8   8   8   8
#     4  10  20  34  58  86 113 147 187 239 290 341
#     4  10  22  38  58  84 114 150 191 237 290 349
#     4  10  20  37  60  84 113 149 187 234 288 349
#     4  10  20  34  55  84 114 148 188 233 286 341
#     4  10  20  34  56  82 114 149 187 239 288 340
#     4  11  21  36  58  84 115 150 193 239 292 342
#     4  10  20  35  54  80 113 149 191 237 288 345
#
# _framework density 19.3598
#
# number of rings (size 3 to 8) (size 9 to 14) (size 15 to 20)
#    0.000    1.857    1.429    3.000    0.000    0.857 
#    0.000    7.857    0.000    9.429    0.000    0.000 
#    0.000    0.000    0.000    0.000    0.000    0.000 
#
# Total GULP energy -156075.867209 kJ/mol
# GULP energy per Si atom -5574.138115 kJ/mol
# Density = 1.931574 g / cm^3
# Si number density = 19.359800 Si / 1000 Ang^3
#
#
#
# Elastic Constant Matrix: (Units=GPa)
#
#
# Indices 1 2 3 4 5 6 
#
# 1 64.2519 19.2636 8.8406 0.0000 -11.5078 0.0000
# 2 19.2636 80.1661 10.4404 0.0000 1.5860 0.0000
# 3 8.8406 10.4404 100.8839 0.0000 -8.4345 0.0000
# 4 0.0000 0.0000 0.0000 15.6380 0.0000 -9.1611
# 5 -11.5078 1.5860 -8.4345 0.0000 28.5981 0.0000
# 6 0.0000 0.0000 0.0000 -9.1611 0.0000 6.7313
#
#
#
# Elastic Compliance Matrix: (Units=1/GPa)
#
#
# Indices 1 2 3 4 5 6 
#
# 1 0.018316 -0.004482 -0.000517 0.000000 0.007466 0.000000
# 2 -0.004482 0.013776 -0.001279 0.000000 -0.002945 0.000000
# 3 -0.000517 -0.001279 0.010333 0.000000 0.002911 0.000000
# 4 0.000000 0.000000 0.000000 0.315463 0.000000 0.429338
# 5 0.007466 -0.002945 0.002911 0.000000 0.038993 0.000000
# 6 0.000000 0.000000 0.000000 0.429338 0.000000 0.732880
#
#
# Mechanical properties :
#
#
# Convention : Reuss Voigt Hill
#
# Bulk Modulus (GPa) = 33.47885 35.82123 34.65004
# Shear Modulus (GPa) = 4.33925 23.97731 14.15828
#
# Velocity S-wave (km/s) = 1.49874 3.52307 2.70723
# Velocity P-wave (km/s) = 4.50838 5.92388 5.26393
#
# Compressibility (1/GPa) = 0.02986961
#
# Stress axis : x y z
#
# Youngs Moduli (GPa) = 54.59782 72.59078 96.77350
#
# Poissons Ratio (x) = 0.32532 0.05003
# Poissons Ratio (y) = 0.24468 0.12378
# Poissons Ratio (z) = 0.02823 0.09285
#
# Static dielectric constant tensor:
#      x y z
#    x 1.647500 0.000000 -0.019240 
#    y 0.000000 1.666090 0.000000 
#    z -0.019240 0.000000 1.714580 
# 
# From -- ./inp_files/223931.got.cif
#   From: 2010.05.17/outbox.cif.g08.bks.cpg/sg12_112_cif.got.tgz:223931.got - 2010.06.03 13:09:07.
