data_PCOD9194475
_publ_section_title
;
Structure prediction by ZEFSAII (Michael W. Deem and Ramdas Pophale) SiO2 
 PCOD9194475
Probable space group: C 2/M
;
_chemical_formula_sum "Si O2"
_cell_formula_units_Z 56
_cell_length_a 29.253000
_cell_length_b 9.218675
_cell_length_c 19.696395
_cell_angle_alpha 90.000000
_cell_angle_beta 36.223876
_cell_angle_gamma 90.000000
_cell_volume 3138.849093
_symmetry_space_group_name_H-M "C 2/M"
_symmetry_group_IT_number 12
_symmetry_cell_setting 'monoclinic'
loop_
_space_group_symop_operation_xyz
x,y,z
-x,y,-z
-x,-y,-z
x,-y,z
1/2+x,1/2+y,z
1/2-x,1/2+y,-z
1/2-x,1/2-y,-z
1/2+x,1/2-y,z
loop_
_atom_site_type_symbol
_atom_site_label
_atom_site_fract_x
_atom_site_fract_y
_atom_site_fract_z
Si Si1 0.074188 0.668829 0.539960
Si Si2 0.598554 0.174375 0.266765
Si Si3 0.965749 0.669205 0.252237
Si Si4 0.251255 0.172962 0.832436
Si Si5 0.694173 0.825473 0.621155
Si Si6 0.380848 0.672931 0.901391
Si Si7 0.767061 0.172989 0.678004
O O1 0.089381 0.500000 0.504113
O O2 0.063277 0.678057 0.634705
O O3 0.146114 0.765376 0.432878
O O4 0.990469 0.712010 0.610438
O O5 0.661741 0.209532 0.247621
O O6 0.622069 0.250559 0.168314
O O7 0.599787 0.000000 0.254369
O O8 0.985438 0.500000 0.216396
O O9 0.894292 0.712511 0.290410
O O10 0.041389 0.767242 0.156547
O O11 0.231552 0.257055 0.787792
O O12 0.247691 0.000000 0.825000
O O13 0.192764 0.207408 0.963722
O O14 0.750000 0.750000 0.500000
O O15 0.721151 0.786601 0.664443
O O16 0.700860 0.000000 0.605391
O O17 0.385024 0.500000 0.887592
O O18 0.768212 0.000000 0.681725
#
# Coordination Sequence:
#
# PCOD9194475 Si02
#       7
#     8   8   8   8   8   8   8
#     4   9  17  32  54  78 105 139 176 215 263 320
#     4   9  19  36  58  80 104 141 183 218 261 321
#     4   9  18  34  56  80 107 141 177 215 265 323
#     4  10  22  39  55  74 107 149 184 215 261 322
#     4  10  20  35  56  82 108 138 178 218 264 320
#     4  10  20  34  56  84 108 135 178 228 269 306
#     4  11  23  35  52  80 111 140 176 223 269 312
#
# _framework density 17.840935000000002
#
# number of rings (size 3 to 8) (size 9 to 14) (size 15 to 20)
#    0.000    2.286    1.429    2.143    0.000    5.714 
#    0.000    3.571    0.000    4.286    0.000    0.000 
#    0.000    0.000    0.000    0.000    0.000    0.000 
#
# Total GULP energy -156279.350521 kJ/mol
# GULP energy per Si atom -5581.405376 kJ/mol
# Density = 1.780033 g / cm^3
# Si number density = 17.840935 Si / 1000 Ang^3
#
#
#
# Elastic Constant Matrix: (Units=GPa)
#
#
# Indices 1 2 3 4 5 6 
#
# 1 98.4398 23.1860 13.4058 -0.0020 -2.5494 0.0000
# 2 23.1860 15.6439 5.1933 -0.0088 1.8728 0.0061
# 3 13.4058 5.1933 10.5703 -0.0040 -2.4683 0.0015
# 4 -0.0020 -0.0088 -0.0040 31.7697 0.0032 0.8490
# 5 -2.5494 1.8728 -2.4683 0.0032 20.2257 -0.0021
# 6 0.0000 0.0061 0.0015 0.8490 -0.0021 23.5272
#
#
#
# Elastic Compliance Matrix: (Units=1/GPa)
#
#
# Indices 1 2 3 4 5 6 
#
# 1 0.016721 -0.021894 -0.009763 -0.000007 0.002943 0.000007
# 2 -0.021894 0.107982 -0.029094 0.000027 -0.016309 -0.000028
# 3 -0.009763 -0.029094 0.125190 0.000005 0.016741 0.000001
# 4 -0.000007 0.000027 0.000005 0.031507 -0.000008 -0.001137
# 5 0.002943 -0.016309 0.016741 -0.000008 0.053366 0.000008
# 6 0.000007 -0.000028 0.000001 -0.001137 0.000008 0.042545
#
#
# Mechanical properties :
#
#
# Convention : Reuss Voigt Hill
#
# Bulk Modulus (GPa) = 7.78861 23.13601 15.46231
# Shear Modulus (GPa) = 9.23175 20.62910 14.93042
#
# Velocity S-wave (km/s) = 2.27722 3.40410 2.89600
# Velocity P-wave (km/s) = 3.35996 5.33354 4.45735
#
# Compressibility (1/GPa) = 0.12839258
#
# Stress axis : x y z
#
# Youngs Moduli (GPa) = 59.80517 9.26079 7.98787
#
# Poissons Ratio (x) = 0.20275 0.07798
# Poissons Ratio (y) = 1.30936 0.23240
# Poissons Ratio (z) = 0.58385 0.26943
#
# Static dielectric constant tensor:
#      x y z
#    x 1.619390 0.000000 -0.008860 
#    y 0.000000 1.591440 0.000000 
#    z -0.008860 0.000000 1.593200 
# 
# From -- ./inp_files/287326.got.cif
#   From: 2010.05.17/outbox.cif.g08.bks.cpg/sg12_144_cif.got.tgz:287326.got - 2010.06.03 13:09:07.
