data_PCOD9194046
_publ_section_title
;
Structure prediction by ZEFSAII (Michael W. Deem and Ramdas Pophale) SiO2 
 PCOD9194046
Probable space group: C 2/M
;
_chemical_formula_sum "Si O2"
_cell_formula_units_Z 64
_cell_length_a 18.623866
_cell_length_b 9.106824
_cell_length_c 23.147843
_cell_angle_alpha 90.000000
_cell_angle_beta 114.517570
_cell_angle_gamma 90.000000
_cell_volume 3571.983966
_symmetry_space_group_name_H-M "C 2/M"
_symmetry_group_IT_number 12
_symmetry_cell_setting 'monoclinic'
loop_
_space_group_symop_operation_xyz
x,y,z
-x,y,-z
-x,-y,-z
x,-y,z
1/2+x,1/2+y,z
1/2-x,1/2+y,-z
1/2-x,1/2-y,-z
1/2+x,1/2-y,z
loop_
_atom_site_type_symbol
_atom_site_label
_atom_site_fract_x
_atom_site_fract_y
_atom_site_fract_z
Si Si1 0.415264 0.323769 0.499119
Si Si2 0.788817 0.675642 0.750482
Si Si3 0.102944 0.823309 0.876065
Si Si4 0.271654 0.823215 0.878065
Si Si5 0.086193 0.823247 0.005182
Si Si6 0.724367 0.174321 0.618328
Si Si7 0.898437 0.175113 0.626795
Si Si8 0.462242 0.824990 0.758945
O O1 0.500000 0.290122 0.500000
O O2 0.403245 0.500000 0.492404
O O3 0.346521 0.246246 0.440451
O O4 0.413328 0.281043 0.565836
O O5 0.777862 0.500000 0.740983
O O6 0.771177 0.718137 0.810336
O O7 0.735485 0.756390 0.685396
O O8 0.880167 0.708347 0.765237
O O9 0.189250 0.783251 0.880906
O O10 0.034902 0.747426 0.816252
O O11 0.094519 0.000000 0.868500
O O12 0.094723 0.783452 0.940664
O O13 0.344818 0.749901 0.934833
O O14 0.280087 0.000000 0.883824
O O15 0.092801 0.000000 0.011982
O O16 0.000000 0.780455 0.000000
O O17 0.807086 0.203055 0.612771
O O18 0.713963 0.000000 0.618960
O O19 0.950811 0.259302 0.691193
O O20 0.912390 0.000000 0.637045
O O21 0.471048 0.000000 0.759530
#
# Coordination Sequence:
#
# PCOD9194046 Si02
#       8
#     8   8   8   8   8   8   8   8
#     4  10  21  36  54  76 104 139 174 209 255 310
#     4   9  19  36  55  76 103 135 174 215 254 303
#     4  10  21  36  53  76 108 141 171 208 258 312
#     4  10  21  36  55  78 104 138 176 213 255 304
#     4  10  21  36  55  79 106 137 172 213 261 308
#     4  10  20  34  55  80 104 134 172 215 260 303
#     4   9  19  36  56  77 103 137 174 211 256 308
#     4  10  20  34  55  80 103 133 174 217 257 299
#
# _framework density 17.917214000000001
#
# number of rings (size 3 to 8) (size 9 to 14) (size 15 to 20)
#    0.000    2.250    0.000    2.250    0.000    4.500 
#    0.000    5.000    0.000    0.000    0.000    0.000 
#    0.000    0.000    0.000    0.000    0.000    0.000 
#
# Total GULP energy -178702.307530 kJ/mol
# GULP energy per Si atom -5584.447110 kJ/mol
# Density = 1.787643 g / cm^3
# Si number density = 17.917214 Si / 1000 Ang^3
#
#
#
# Elastic Constant Matrix: (Units=GPa)
#
#
# Indices 1 2 3 4 5 6 
#
# 1 109.0552 41.7989 99.8870 0.0000 -36.5338 0.0000
# 2 41.7989 22.2588 51.8624 0.0000 -17.4308 0.0000
# 3 99.8870 51.8624 178.1197 0.0000 -43.7237 0.0000
# 4 0.0000 0.0000 0.0000 37.7966 0.0000 10.1733
# 5 -36.5338 -17.4308 -43.7237 0.0000 -10.7140 0.0000
# 6 0.0000 0.0000 0.0000 10.1733 0.0000 22.1236
#
#
#
# Elastic Compliance Matrix: (Units=1/GPa)
#
#
# Indices 1 2 3 4 5 6 
#
# 1 0.032256 -0.060461 -0.001668 0.000000 -0.004820 0.000000
# 2 -0.060461 0.235455 -0.039003 0.000000 -0.017729 0.000000
# 3 -0.001668 -0.039003 0.017424 0.000000 -0.001964 0.000000
# 4 0.000000 0.000000 0.000000 0.030195 0.000000 -0.013885
# 5 -0.004820 -0.017729 -0.001964 0.000000 -0.040041 0.000000
# 6 0.000000 0.000000 0.000000 -0.013885 0.000000 0.051585
#
#
# Mechanical properties :
#
#
# Convention : Reuss Voigt Hill
#
# Bulk Modulus (GPa) = 12.06684 77.39224 44.72954
# Shear Modulus (GPa) = 8.98052 17.56694 13.27373
#
# Velocity S-wave (km/s) = 2.24123 3.13461 2.72478
# Velocity P-wave (km/s) = 3.66700 7.50927 5.90915
#
# Compressibility (1/GPa) = 0.08287176
#
# Stress axis : x y z
#
# Youngs Moduli (GPa) = 31.00177 4.24709 57.39357
#
# Poissons Ratio (x) = 0.25678 0.09572
# Poissons Ratio (y) = 1.87440 2.23851
# Poissons Ratio (z) = 0.05170 0.16565
#
# Static dielectric constant tensor:
#      x y z
#    x 1.597890 0.000000 -0.019990 
#    y 0.000000 1.594850 0.000000 
#    z -0.019990 0.000000 1.573140 
# 
# From -- ./inp_files/320070.got.cif
#   From: 2010.05.17/outbox.cif.g08.bks.cpg/sg12_161_cif.got.tgz:320070.got - 2010.06.03 13:09:07.
