data_PCOD9194927
_publ_section_title
;
Structure prediction by ZEFSAII (Michael W. Deem and Ramdas Pophale) SiO2 
 PCOD9194927
Probable space group: C 2/M
;
_chemical_formula_sum "Si O2"
_cell_formula_units_Z 48
_cell_length_a 15.013130
_cell_length_b 15.864979
_cell_length_c 11.753293
_cell_angle_alpha 90.000000
_cell_angle_beta 107.784672
_cell_angle_gamma 90.000000
_cell_volume 2665.652710
_symmetry_space_group_name_H-M "C 2/M"
_symmetry_group_IT_number 12
_symmetry_cell_setting 'monoclinic'
loop_
_space_group_symop_operation_xyz
x,y,z
-x,y,-z
-x,-y,-z
x,-y,z
1/2+x,1/2+y,z
1/2-x,1/2+y,-z
1/2-x,1/2-y,-z
1/2+x,1/2-y,z
loop_
_atom_site_type_symbol
_atom_site_label
_atom_site_fract_x
_atom_site_fract_y
_atom_site_fract_z
Si Si1 0.158998 0.095394 0.496703
Si Si2 0.229414 0.324522 0.255568
Si Si3 0.925545 0.260293 0.630471
Si Si4 0.607354 0.099160 0.010800
Si Si5 0.853029 0.405559 0.439254
Si Si6 0.629485 0.812278 0.782813
O O1 0.205407 0.120611 0.635239
O O2 0.089094 0.169244 0.432089
O O3 0.246296 0.098301 0.442371
O O4 0.121910 0.000000 0.483868
O O5 0.154924 0.276597 0.307240
O O6 0.293306 0.257338 0.215776
O O7 0.172072 0.379370 0.143327
O O8 0.906855 0.333043 0.529485
O O9 0.026809 0.272873 0.723649
O O10 0.636995 0.150811 0.911366
O O11 0.611414 0.000000 0.987104
O O12 0.500000 0.120184 0.000000
O O13 0.887453 0.500000 0.478302
O O14 0.859564 0.384222 0.309245
#
# Coordination Sequence:
#
# PCOD9194927 Si02
#       6
#     8   8   8   8   8   8
#     4  10  20  38  62  88 123 162 195 244 297 349
#     4  11  21  41  60  86 121 158 198 245 292 354
#     4  11  21  38  59  89 127 155 193 245 298 356
#     4  11  24  41  60  88 119 154 199 248 302 355
#     4  10  20  34  58  90 120 153 194 243 303 355
#     4  12  22  37  63  86 119 158 199 241 297 353
#
# _framework density 18.006845999999999
#
# number of rings (size 3 to 8) (size 9 to 14) (size 15 to 20)
#    0.000    1.167    5.000    3.000    0.000    2.667 
#    0.000    2.500    0.000    0.000    0.000    2.333 
#    0.000    0.000    0.000    0.000    0.000    0.000 
#
# Total GULP energy -134128.778898 kJ/mol
# GULP energy per Si atom -5588.699121 kJ/mol
# Density = 1.796586 g / cm^3
# Si number density = 18.006846 Si / 1000 Ang^3
#
#
#
# Elastic Constant Matrix: (Units=GPa)
#
#
# Indices 1 2 3 4 5 6 
#
# 1 32.2895 30.7704 1.5337 0.0000 -12.7771 0.0000
# 2 30.7704 115.9755 30.7094 0.0000 -8.5390 0.0000
# 3 1.5337 30.7094 85.3988 0.0000 -11.6973 0.0000
# 4 0.0000 0.0000 0.0000 20.7187 0.0000 -9.5085
# 5 -12.7771 -8.5390 -11.6973 0.0000 25.1878 0.0000
# 6 0.0000 0.0000 0.0000 -9.5085 0.0000 8.3713
#
#
#
# Elastic Compliance Matrix: (Units=1/GPa)
#
#
# Indices 1 2 3 4 5 6 
#
# 1 0.055293 -0.014819 0.007999 0.000000 0.026739 0.000000
# 2 -0.014819 0.013575 -0.005355 0.000000 -0.005403 0.000000
# 3 0.007999 -0.005355 0.014736 0.000000 0.009086 0.000000
# 4 0.000000 0.000000 0.000000 0.100821 0.000000 0.114517
# 5 0.026739 -0.005403 0.009086 0.000000 0.055654 0.000000
# 6 0.000000 0.000000 0.000000 0.114517 0.000000 0.249529
#
#
# Mechanical properties :
#
#
# Convention : Reuss Voigt Hill
#
# Bulk Modulus (GPa) = 16.87711 39.96563 28.42137
# Shear Modulus (GPa) = 9.36836 22.23224 15.80030
#
# Velocity S-wave (km/s) = 2.28341 3.51758 2.96541
# Velocity P-wave (km/s) = 4.04288 6.22420 5.24812
#
# Compressibility (1/GPa) = 0.05925183
#
# Stress axis : x y z
#
# Youngs Moduli (GPa) = 18.08545 73.66675 67.85934
#
# Poissons Ratio (x) = 1.09170 -0.54278
# Poissons Ratio (y) = 0.26802 0.36341
# Poissons Ratio (z) = -0.14466 0.39451
#
# Static dielectric constant tensor:
#      x y z
#    x 1.625670 0.000000 -0.010190 
#    y 0.000000 1.609240 0.000000 
#    z -0.010190 0.000000 1.587700 
# 
# From -- ./inp_files/142735.got.cif
#   From: 2010.05.17/outbox.cif.g08.bks.cpg/sg12_72_cif.got.tgz:142735.got - 2010.06.03 13:09:07.
