data_PCOD9194432
_publ_section_title
;
Structure prediction by ZEFSAII (Michael W. Deem and Ramdas Pophale) SiO2 
 PCOD9194432
Probable space group: C 2/M
;
_chemical_formula_sum "Si O2"
_cell_formula_units_Z 56
_cell_length_a 25.502535
_cell_length_b 18.910573
_cell_length_c 5.402204
_cell_angle_alpha 90.000000
_cell_angle_beta 82.084999
_cell_angle_gamma 90.000000
_cell_volume 2580.488077
_symmetry_space_group_name_H-M "C 2/M"
_symmetry_group_IT_number 12
_symmetry_cell_setting 'monoclinic'
loop_
_space_group_symop_operation_xyz
x,y,z
-x,y,-z
-x,-y,-z
x,-y,z
1/2+x,1/2+y,z
1/2-x,1/2+y,-z
1/2-x,1/2-y,-z
1/2+x,1/2-y,z
loop_
_atom_site_type_symbol
_atom_site_label
_atom_site_fract_x
_atom_site_fract_y
_atom_site_fract_z
Si Si1 0.263960 0.422677 0.473938
Si Si2 0.026760 0.914839 0.729840
Si Si3 0.631370 0.422337 0.912748
Si Si4 0.939302 0.414484 0.543751
Si Si5 0.623815 0.914834 0.907888
Si Si6 0.794371 0.662036 0.842236
Si Si7 0.187172 0.815280 0.172453
O O1 0.257244 0.500000 0.599242
O O2 0.311300 0.430676 0.245129
O O3 0.211786 0.397666 0.362894
O O4 0.285572 0.361883 0.635428
O O5 0.089095 0.904144 0.729219
O O6 0.000000 0.886075 0.500000
O O7 0.019250 0.000000 0.729561
O O8 0.000000 0.888577 0.000000
O O9 0.616294 0.500000 0.031056
O O10 0.637662 0.359728 0.103967
O O11 0.941287 0.500000 0.524107
O O12 0.911994 0.399178 0.824852
O O13 0.000000 0.388700 0.500000
O O14 0.905787 0.391814 0.323943
O O15 0.677541 0.873196 0.940017
O O16 0.632341 0.000000 0.893406
O O17 0.823352 0.734493 0.750292
O O18 0.733640 0.685444 0.934058
#
# Coordination Sequence:
#
# PCOD9194432 Si02
#       7
#     8   8   8   8   8   8   8
#     4  10  20  34  56  82 111 144 184 236 283 338
#     4   9  18  31  52  81 112 142 181 238 292 335
#     4   9  19  34  53  82 109 141 190 234 283 338
#     4   9  18  34  57  86 117 148 187 236 290 343
#     4  10  20  34  57  88 116 148 190 241 288 334
#     4  10  22  37  52  81 113 147 193 230 282 343
#     4  10  21  37  56  75 110 155 189 226 284 348
#
# _framework density 21.701322000000001
#
# number of rings (size 3 to 8) (size 9 to 14) (size 15 to 20)
#    0.000    2.429    0.000    1.714    4.000    3.429 
#    0.000    0.000    0.000    2.571    0.000    0.000 
#    0.000    0.000    0.000    0.000    0.000    0.000 
#
# Total GULP energy -156155.630895 kJ/mol
# GULP energy per Si atom -5576.986818 kJ/mol
# Density = 2.165193 g / cm^3
# Si number density = 21.701322 Si / 1000 Ang^3
#
#
#
# Elastic Constant Matrix: (Units=GPa)
#
#
# Indices 1 2 3 4 5 6 
#
# 1 80.5249 20.7329 38.6871 0.0000 24.7000 0.0000
# 2 20.7329 87.4534 27.5478 0.0000 19.9343 0.0000
# 3 38.6871 27.5478 121.1750 0.0000 34.2746 0.0000
# 4 0.0000 0.0000 0.0000 -5.9314 0.0000 55.6842
# 5 24.7000 19.9343 34.2746 0.0000 38.9502 0.0000
# 6 0.0000 0.0000 0.0000 55.6842 0.0000 -417.9591
#
#
#
# Elastic Compliance Matrix: (Units=1/GPa)
#
#
# Indices 1 2 3 4 5 6 
#
# 1 0.016341 -0.001336 -0.002897 0.000000 -0.007130 0.000000
# 2 -0.001336 0.013241 -0.001207 0.000000 -0.004867 0.000000
# 3 -0.002897 -0.001207 0.011659 0.000000 -0.007805 0.000000
# 4 0.000000 0.000000 0.000000 0.672332 0.000000 0.089574
# 5 -0.007130 -0.004867 -0.007805 0.000000 0.039554 0.000000
# 6 0.000000 0.000000 0.000000 0.089574 0.000000 0.009541
#
#
# Mechanical properties :
#
#
# Convention : Reuss Voigt Hill
#
# Bulk Modulus (GPa) = 32.93619 51.45433 42.19526
# Shear Modulus (GPa) = 6.38024 -63.50902 -28.56439
#
# Velocity S-wave (km/s) = 1.71651 -5.41559 -3.63195
# Velocity P-wave (km/s) = 4.37476 3.91702 1.37758
#
# Compressibility (1/GPa) = 0.03036174
#
# Stress axis : x y z
#
# Youngs Moduli (GPa) = 61.19483 75.52246 85.76727
#
# Poissons Ratio (x) = 0.10093 0.24845
# Poissons Ratio (y) = 0.08178 0.10351
# Poissons Ratio (z) = 0.17727 0.09114
#
# Static dielectric constant tensor:
#      x y z
#    x 1.849650 0.000000 -0.047610 
#    y 0.000000 1.839160 0.000000 
#    z -0.047610 0.000000 1.825310 
# 
# From -- ./inp_files/25662.got.cif
#   From: 2010.05.17/outbox.cif.g08.bks.cpg/sg12_13_cif.got.tgz:25662.got - 2010.06.03 13:09:07.
