data_PCOD9194610
_publ_section_title
;
Structure prediction by ZEFSAII (Michael W. Deem and Ramdas Pophale) SiO2 
 PCOD9194610
Probable space group: C 2/M
;
_chemical_formula_sum "Si O2"
_cell_formula_units_Z 64
_cell_length_a 22.036702
_cell_length_b 24.850611
_cell_length_c 12.019477
_cell_angle_alpha 90.000000
_cell_angle_beta 31.322259
_cell_angle_gamma 90.000000
_cell_volume 3421.748963
_symmetry_space_group_name_H-M "C 2/M"
_symmetry_group_IT_number 12
_symmetry_cell_setting 'monoclinic'
loop_
_space_group_symop_operation_xyz
x,y,z
-x,y,-z
-x,-y,-z
x,-y,z
1/2+x,1/2+y,z
1/2-x,1/2+y,-z
1/2-x,1/2-y,-z
1/2+x,1/2-y,z
loop_
_atom_site_type_symbol
_atom_site_label
_atom_site_fract_x
_atom_site_fract_y
_atom_site_fract_z
Si Si1 0.245467 0.330322 0.459445
Si Si2 0.376417 0.331432 0.015624
Si Si3 0.318543 0.059142 0.507960
Si Si4 0.093729 0.762754 0.632518
Si Si5 0.120899 0.227037 0.331550
Si Si6 0.047682 0.438885 0.299544
Si Si7 0.193903 0.331503 0.100856
Si Si8 0.431638 0.442015 0.989881
O O1 0.209963 0.392029 0.528547
O O2 0.129811 0.294362 0.627170
O O3 0.324727 0.305395 0.430833
O O4 0.318780 0.326021 0.228258
O O5 0.461213 0.281717 0.857125
O O6 0.279045 0.338463 0.073932
O O7 0.452543 0.386328 0.895316
O O8 0.436652 0.068772 0.392043
O O9 0.207056 0.057985 0.765958
O O10 0.324336 0.000000 0.446603
O O11 0.127651 0.760876 0.450521
O O12 0.114629 0.281703 0.267450
O O13 0.000000 0.196380 0.500000
O O14 0.228877 0.192740 0.119106
O O15 0.095479 0.500000 0.203609
O O16 0.131416 0.386843 0.165261
O O17 0.000000 0.439350 0.500000
O O18 0.461062 0.500000 0.891707
O O19 0.500000 0.439507 0.000000
#
# Coordination Sequence:
#
# PCOD9194610 Si02
#       8
#     8   8   8   8   8   8   8   8
#     4  10  21  35  55  84 115 145 180 230 283 341
#     4  11  19  34  54  81 112 145 179 231 278 335
#     4   9  18  33  54  80 112 145 180 229 284 337
#     4  11  22  36  54  80 117 149 187 227 280 333
#     4  11  23  39  55  81 112 152 196 233 274 340
#     4  10  20  34  56  87 116 144 186 240 294 341
#     4  11  23  35  59  81 111 151 191 235 286 336
#     4   9  17  29  49  79 111 142 175 216 274 335
#
# _framework density 18.703886000000001
#
# number of rings (size 3 to 8) (size 9 to 14) (size 15 to 20)
#    0.000    1.750    2.500    3.750    1.750    1.500 
#    0.000    0.000    0.000    1.875    0.000    1.750 
#    0.000    0.000    0.000    0.000    0.000    0.000 
#
# Total GULP energy -178445.263930 kJ/mol
# GULP energy per Si atom -5576.414498 kJ/mol
# Density = 1.866132 g / cm^3
# Si number density = 18.703886 Si / 1000 Ang^3
#
#
#
# Elastic Constant Matrix: (Units=GPa)
#
#
# Indices 1 2 3 4 5 6 
#
# 1 63.3975 20.6175 18.1449 -0.0002 -8.4839 -0.0003
# 2 20.6175 132.5498 42.7035 -0.0012 -12.1449 -0.0014
# 3 18.1449 42.7035 66.0166 -0.0011 -16.9753 -0.0012
# 4 -0.0002 -0.0012 -0.0011 19.1636 0.0012 -9.8101
# 5 -8.4839 -12.1449 -16.9753 0.0012 13.4643 0.0011
# 6 -0.0003 -0.0014 -0.0012 -9.8101 0.0011 10.4312
#
#
#
# Elastic Compliance Matrix: (Units=1/GPa)
#
#
# Indices 1 2 3 4 5 6 
#
# 1 0.017814 -0.001427 -0.002098 -0.000002 0.007292 -0.000002
# 2 -0.001427 0.009658 -0.005692 0.000001 0.000637 0.000001
# 3 -0.002098 -0.005692 0.026259 -0.000002 0.026650 -0.000002
# 4 -0.000002 0.000001 -0.000002 0.100629 -0.000019 0.094638
# 5 0.007292 0.000637 0.026650 -0.000019 0.113040 -0.000026
# 6 -0.000002 0.000001 -0.000002 0.094638 -0.000026 0.184870
#
#
# Mechanical properties :
#
#
# Convention : Reuss Voigt Hill
#
# Bulk Modulus (GPa) = 28.33028 47.21066 37.77047
# Shear Modulus (GPa) = 10.36338 20.64500 15.50419
#
# Velocity S-wave (km/s) = 2.35644 3.32592 2.88224
# Velocity P-wave (km/s) = 4.75219 6.32811 5.59590
#
# Compressibility (1/GPa) = 0.03529792
#
# Stress axis : x y z
#
# Youngs Moduli (GPa) = 56.13602 103.53794 38.08249
#
# Poissons Ratio (x) = 0.14772 0.07990
# Poissons Ratio (y) = 0.08009 0.21675
# Poissons Ratio (z) = 0.11778 0.58930
#
# Static dielectric constant tensor:
#      x y z
#    x 1.645440 0.000000 -0.037120 
#    y 0.000000 1.704380 0.000000 
#    z -0.037120 0.000000 1.668360 
# 
# From -- ./inp_files/170579.got.cif
#   From: 2010.05.17/outbox.cif.g08.bks.cpg/sg12_86_cif.got.tgz:170579.got - 2010.06.03 13:09:07.
