data_PCOD9194464
_publ_section_title
;
Structure prediction by ZEFSAII (Michael W. Deem and Ramdas Pophale) SiO2 
 PCOD9194464
Probable space group: C 2/M
;
_chemical_formula_sum "Si O2"
_cell_formula_units_Z 40
_cell_length_a 11.284417
_cell_length_b 14.350322
_cell_length_c 11.916650
_cell_angle_alpha 90.000000
_cell_angle_beta 112.288492
_cell_angle_gamma 90.000000
_cell_volume 1785.545443
_symmetry_space_group_name_H-M "C 2/M"
_symmetry_group_IT_number 12
_symmetry_cell_setting 'monoclinic'
loop_
_space_group_symop_operation_xyz
x,y,z
-x,y,-z
-x,-y,-z
x,-y,z
1/2+x,1/2+y,z
1/2-x,1/2+y,-z
1/2-x,1/2-y,-z
1/2+x,1/2-y,z
loop_
_atom_site_type_symbol
_atom_site_label
_atom_site_fract_x
_atom_site_fract_y
_atom_site_fract_z
Si Si1 0.250188 0.728262 0.683037
Si Si2 0.911637 0.361367 0.071837
Si Si3 0.862817 0.838096 0.960947
Si Si4 0.767962 0.106192 0.482167
Si Si5 0.025099 0.600288 0.660289
O O1 0.322517 0.707310 0.825780
O O2 0.224659 0.831886 0.628027
O O3 0.314681 0.668952 0.604040
O O4 0.111774 0.684215 0.654041
O O5 0.762644 0.390753 0.036755
O O6 0.985869 0.388790 0.210089
O O7 0.893734 0.249978 0.052048
O O8 0.000000 0.391896 0.000000
O O9 0.000000 0.888490 0.000000
O O10 0.614321 0.099375 0.441538
O O11 0.817899 0.000000 0.495201
O O12 0.089784 0.500000 0.662592
#
# Coordination Sequence:
#
# PCOD9194464 Si02
#       5
#     8   8   8   8   8
#     4  10  20  34  56  83 114 152 191 235 296 354
#     4   9  17  30  51  81 113 145 190 242 286 335
#     4   9  17  31  51  79 116 156 193 231 290 359
#     4  10  20  35  58  87 114 144 192 247 294 347
#     4  10  20  35  58  87 115 146 191 245 297 349
#
# _framework density 22.402118999999999
#
# number of rings (size 3 to 8) (size 9 to 14) (size 15 to 20)
#    0.000    2.400    0.000    3.600    0.000    2.000 
#    0.000    1.000    0.000   26.400    0.000    2.800 
#    0.000    3.200    0.000    0.000    0.000    0.000 
#
# Total GULP energy -111488.121535 kJ/mol
# GULP energy per Si atom -5574.406077 kJ/mol
# Density = 2.235113 g / cm^3
# Si number density = 22.402119 Si / 1000 Ang^3
#
#
#
# Elastic Constant Matrix: (Units=GPa)
#
#
# Indices 1 2 3 4 5 6 
#
# 1 106.8329 3.4983 25.3733 0.0000 -12.7955 0.0000
# 2 3.4983 117.8303 22.7072 0.0000 -14.3335 0.0000
# 3 25.3733 22.7072 122.4453 0.0000 -16.7770 0.0000
# 4 0.0000 0.0000 0.0000 -110.9299 0.0000 111.9435
# 5 -12.7955 -14.3335 -16.7770 0.0000 27.3544 0.0000
# 6 0.0000 0.0000 0.0000 111.9435 0.0000 -99.1798
#
#
#
# Elastic Compliance Matrix: (Units=1/GPa)
#
#
# Indices 1 2 3 4 5 6 
#
# 1 0.010221 0.000506 -0.001660 0.000000 0.004028 0.000000
# 2 0.000506 0.009234 -0.001225 0.000000 0.004324 0.000000
# 3 -0.001660 -0.001225 0.009328 0.000000 0.004303 0.000000
# 4 0.000000 0.000000 0.000000 0.064852 0.000000 0.073198
# 5 0.004028 0.004324 0.004303 0.000000 0.043346 0.000000
# 6 0.000000 0.000000 0.000000 0.073198 0.000000 0.072535
#
#
# Mechanical properties :
#
#
# Convention : Reuss Voigt Hill
#
# Bulk Modulus (GPa) = 41.62295 50.02959 45.82627
# Shear Modulus (GPa) = 22.49418 -16.84909 2.82255
#
# Velocity S-wave (km/s) = 3.17221 -2.74546 1.12369
# Velocity P-wave (km/s) = 5.66016 3.51155 4.71001
#
# Compressibility (1/GPa) = 0.02402521
#
# Stress axis : x y z
#
# Youngs Moduli (GPa) = 97.84237 108.29784 107.20936
#
# Poissons Ratio (x) = -0.05485 0.17796
# Poissons Ratio (y) = -0.04955 0.13132
# Poissons Ratio (z) = 0.16241 0.13265
#
# Static dielectric constant tensor:
#      x y z
#    x 1.905980 0.000000 -0.029230 
#    y 0.000000 1.903940 0.000000 
#    z -0.029230 0.000000 1.869320 
# 
# From -- ./inp_files/129814.got.cif
#   From: 2010.05.17/outbox.cif.g08.bks.cpg/sg12_65_cif.got.tgz:129814.got - 2010.06.03 13:09:07.
