data_PCOD9194179
_publ_section_title
;
Structure prediction by ZEFSAII (Michael W. Deem and Ramdas Pophale) SiO2 
 PCOD9194179
Probable space group: C 2/M
;
_chemical_formula_sum "Si O2"
_cell_formula_units_Z 64
_cell_length_a 15.803224
_cell_length_b 7.791202
_cell_length_c 24.769340
_cell_angle_alpha 90.000000
_cell_angle_beta 89.187409
_cell_angle_gamma 90.000000
_cell_volume 3049.445784
_symmetry_space_group_name_H-M "C 2/M"
_symmetry_group_IT_number 12
_symmetry_cell_setting 'monoclinic'
loop_
_space_group_symop_operation_xyz
x,y,z
-x,y,-z
-x,-y,-z
x,-y,z
1/2+x,1/2+y,z
1/2-x,1/2+y,-z
1/2-x,1/2-y,-z
1/2+x,1/2-y,z
loop_
_atom_site_type_symbol
_atom_site_label
_atom_site_fract_x
_atom_site_fract_y
_atom_site_fract_z
Si Si1 0.470317 0.792869 0.941017
Si Si2 0.778926 0.293116 0.939120
Si Si3 0.627611 0.293788 0.864623
Si Si4 0.957920 0.792739 0.673279
Si Si5 0.116761 0.789719 0.741809
Si Si6 0.772205 0.703598 0.665965
Si Si7 0.295961 0.196592 0.444781
Si Si8 0.017827 0.196916 0.558437
O O1 0.375110 0.730857 0.929587
O O2 0.541267 0.744797 0.897155
O O3 0.467050 0.000000 0.943316
O O4 0.500000 0.731414 0.000000
O O5 0.780540 0.500000 0.934628
O O6 0.708101 0.227673 0.898041
O O7 0.750000 0.250000 0.000000
O O8 0.635813 0.500000 0.862144
O O9 0.624330 0.230217 0.803260
O O10 0.863443 0.743285 0.689606
O O11 0.030433 0.733633 0.713500
O O12 0.976976 0.725520 0.612497
O O13 0.963799 0.000000 0.671079
O O14 0.196021 0.734818 0.704574
O O15 0.116934 0.000000 0.742324
O O16 0.763287 0.500000 0.659585
O O17 0.763573 0.783121 0.606571
O O18 0.250000 0.250000 0.500000
O O19 0.381373 0.302512 0.434410
O O20 0.322426 0.000000 0.449367
O O21 0.000000 0.277127 0.500000
O O22 0.986073 0.000000 0.555523
#
# Coordination Sequence:
#
# PCOD9194179 Si02
#       8
#     8   8   8   8   8   8   8   8
#     4  10  20  35  55  82 118 153 185 237 303 348
#     4  10  20  34  55  82 115 153 193 238 291 347
#     4  10  21  37  59  86 113 153 204 242 278 347
#     4  10  20  38  61  85 118 158 194 240 300 355
#     4   9  20  40  61  82 118 160 195 237 296 353
#     4  11  22  40  64  89 118 157 200 245 298 354
#     4  12  24  38  59  88 122 156 198 247 298 357
#     4  10  20  36  59  86 118 156 196 242 302 357
#
# _framework density 20.987421000000001
#
# number of rings (size 3 to 8) (size 9 to 14) (size 15 to 20)
#    0.000    1.750    2.500    2.250    0.000    3.500 
#    0.000    3.125    0.000    0.000    0.000    0.000 
#    0.000    0.000    0.000    0.000    0.000    0.000 
#
# Total GULP energy -178818.154704 kJ/mol
# GULP energy per Si atom -5588.067335 kJ/mol
# Density = 2.093965 g / cm^3
# Si number density = 20.987421 Si / 1000 Ang^3
#
#
#
# Elastic Constant Matrix: (Units=GPa)
#
#
# Indices 1 2 3 4 5 6 
#
# 1 183.6866 1.3107 86.5001 0.0000 12.4846 0.0000
# 2 1.3107 36.9777 12.1451 0.0000 2.6935 0.0000
# 3 86.5001 12.1451 168.0290 0.0000 10.6114 0.0000
# 4 0.0000 0.0000 0.0000 6.4505 0.0000 3.5801
# 5 12.4846 2.6935 10.6114 0.0000 30.9764 0.0000
# 6 0.0000 0.0000 0.0000 3.5801 0.0000 17.8360
#
#
#
# Elastic Compliance Matrix: (Units=1/GPa)
#
#
# Indices 1 2 3 4 5 6 
#
# 1 0.007314 0.001095 -0.003733 0.000000 -0.001764 0.000000
# 2 0.001095 0.027959 -0.002456 0.000000 -0.002031 0.000000
# 3 -0.003733 -0.002456 0.008118 0.000000 -0.001063 0.000000
# 4 0.000000 0.000000 0.000000 0.174462 0.000000 -0.035019
# 5 -0.001764 -0.002031 -0.001063 0.000000 0.033534 0.000000
# 6 0.000000 0.000000 0.000000 -0.035019 0.000000 0.063095
#
#
# Mechanical properties :
#
#
# Convention : Reuss Voigt Hill
#
# Bulk Modulus (GPa) = 30.11797 65.40056 47.75927
# Shear Modulus (GPa) = 14.89255 30.30175 22.59715
#
# Velocity S-wave (km/s) = 2.66671 3.80387 3.28487
# Velocity P-wave (km/s) = 4.88502 7.10788 6.09858
#
# Compressibility (1/GPa) = 0.03320277
#
# Stress axis : x y z
#
# Youngs Moduli (GPa) = 136.72319 35.76634 123.18726
#
# Poissons Ratio (x) = -0.03918 0.45985
# Poissons Ratio (y) = -0.14976 0.30261
# Poissons Ratio (z) = 0.51038 0.08786
#
# Static dielectric constant tensor:
#      x y z
#    x 1.766410 0.000000 0.022100 
#    y 0.000000 1.859770 0.000000 
#    z 0.022100 0.000000 1.731870 
# 
# From -- ./inp_files/338912.got.cif
#   From: 2010.05.17/outbox.cif.g08.bks.cpg/sg12_170_cif.got.tgz:338912.got - 2010.06.03 13:09:07.
