data_PCOD9194628
_publ_section_title
;
Structure prediction by ZEFSAII (Michael W. Deem and Ramdas Pophale) SiO2 
 PCOD9194628
Probable space group: C 2/M
;
_chemical_formula_sum "Si O2"
_cell_formula_units_Z 56
_cell_length_a 15.819738
_cell_length_b 31.621448
_cell_length_c 12.337220
_cell_angle_alpha 90.000000
_cell_angle_beta 28.275884
_cell_angle_gamma 90.000000
_cell_volume 2923.599256
_symmetry_space_group_name_H-M "C 2/M"
_symmetry_group_IT_number 12
_symmetry_cell_setting 'monoclinic'
loop_
_space_group_symop_operation_xyz
x,y,z
-x,y,-z
-x,-y,-z
x,-y,z
1/2+x,1/2+y,z
1/2-x,1/2+y,-z
1/2-x,1/2-y,-z
1/2+x,1/2-y,z
loop_
_atom_site_type_symbol
_atom_site_label
_atom_site_fract_x
_atom_site_fract_y
_atom_site_fract_z
Si Si1 0.503437 0.451442 0.126860
Si Si2 0.279638 0.773221 0.134868
Si Si3 0.228684 0.814556 0.979544
Si Si4 0.420383 0.045559 0.711232
Si Si5 0.702506 0.213314 0.641277
Si Si6 0.383276 0.636871 0.316406
Si Si7 0.442095 0.866879 0.441361
O O1 0.440284 0.500000 0.213979
O O2 0.399313 0.413958 0.305351
O O3 0.500000 0.443683 0.000000
O O4 0.708611 0.449330 0.934753
O O5 0.267000 0.726218 0.101515
O O6 0.222534 0.775754 0.323860
O O7 0.180400 0.801553 0.156906
O O8 0.488689 0.785790 0.893723
O O9 0.424963 0.833879 0.761855
O O10 0.083883 0.846179 0.093723
O O11 0.500000 0.043333 0.500000
O O12 0.510063 0.086863 0.660097
O O13 0.456854 0.000000 0.722787
O O14 0.750000 0.250000 0.500000
O O15 0.777841 0.167641 0.518704
O O16 0.263844 0.643553 0.343695
O O17 0.500000 0.867428 0.500000
#
# Coordination Sequence:
#
# PCOD9194628 Si02
#       7
#     8   8   8   8   8   8   8
#     4  10  20  34  56  87 124 161 201 250 310 378
#     4  10  24  42  62  85 126 160 209 261 303 362
#     4  11  23  41  60  89 117 162 207 251 304 363
#     4   9  17  32  51  78 117 157 194 239 298 364
#     4  11  23  41  63  91 120 164 208 254 310 365
#     4  12  24  37  59  87 121 161 207 248 305 373
#     4  11  23  34  55  86 120 160 201 248 300 362
#
# _framework density 19.154471999999998
#
# number of rings (size 3 to 8) (size 9 to 14) (size 15 to 20)
#    0.000    1.429    4.286    1.714    2.000    2.286 
#    0.000    0.000    0.000    0.000    0.000    5.000 
#    0.000    0.000    0.000    0.000    0.000    0.000 
#
# Total GULP energy -156166.901912 kJ/mol
# GULP energy per Si atom -5577.389354 kJ/mol
# Density = 1.911088 g / cm^3
# Si number density = 19.154472 Si / 1000 Ang^3
#
#
#
# Elastic Constant Matrix: (Units=GPa)
#
#
# Indices 1 2 3 4 5 6 
#
# 1 108.9682 43.9852 24.7656 0.0005 5.0064 -0.0005
# 2 43.9852 134.5559 34.2385 0.0003 15.1124 -0.0003
# 3 24.7656 34.2385 63.8354 0.0021 -1.4613 -0.0024
# 4 0.0005 0.0003 0.0021 -5.4815 -0.0011 36.8227
# 5 5.0064 15.1124 -1.4613 -0.0011 35.0059 0.0013
# 6 -0.0005 -0.0003 -0.0024 36.8227 0.0013 -28.4827
#
#
#
# Elastic Compliance Matrix: (Units=1/GPa)
#
#
# Indices 1 2 3 4 5 6 
#
# 1 0.010966 -0.002835 -0.002744 0.000000 -0.000459 0.000000
# 2 -0.002835 0.009910 -0.004308 0.000000 -0.004053 0.000000
# 3 -0.002744 -0.004308 0.019111 0.000000 0.003050 -0.000001
# 4 0.000000 0.000000 0.000000 0.023740 0.000000 0.030691
# 5 -0.000459 -0.004053 0.003050 0.000000 0.030509 0.000001
# 6 0.000000 0.000000 -0.000001 0.030691 0.000001 0.004569
#
#
# Mechanical properties :
#
#
# Convention : Reuss Voigt Hill
#
# Bulk Modulus (GPa) = 49.47641 57.03753 53.25697
# Shear Modulus (GPa) = 39.89896 13.83303 26.86600
#
# Velocity S-wave (km/s) = 4.56895 2.69026 3.74919
# Velocity P-wave (km/s) = 7.32940 6.28429 6.82687
#
# Compressibility (1/GPa) = 0.02021165
#
# Stress axis : x y z
#
# Youngs Moduli (GPa) = 91.19006 100.90861 52.32697
#
# Poissons Ratio (x) = 0.28606 0.14361
# Poissons Ratio (y) = 0.25851 0.22544
# Poissons Ratio (z) = 0.25027 0.43474
#
# Static dielectric constant tensor:
#      x y z
#    x 1.691260 0.000000 -0.023930 
#    y 0.000000 1.730960 0.000000 
#    z -0.023930 0.000000 1.681210 
# 
# From -- ./inp_files/150392.got.cif
#   From: 2010.05.17/outbox.cif.g08.bks.cpg/sg12_76_cif.got.tgz:150392.got - 2010.06.03 13:09:07.
