data_PCOD9194063
_publ_section_title
;
Structure prediction by ZEFSAII (Michael W. Deem and Ramdas Pophale) SiO2 
 PCOD9194063
Probable space group: C 2/M
;
_chemical_formula_sum "Si O2"
_cell_formula_units_Z 56
_cell_length_a 9.020092
_cell_length_b 10.251829
_cell_length_c 32.690244
_cell_angle_alpha 90.000000
_cell_angle_beta 112.238544
_cell_angle_gamma 90.000000
_cell_volume 2798.088375
_symmetry_space_group_name_H-M "C 2/M"
_symmetry_group_IT_number 12
_symmetry_cell_setting 'monoclinic'
loop_
_space_group_symop_operation_xyz
x,y,z
-x,y,-z
-x,-y,-z
x,-y,z
1/2+x,1/2+y,z
1/2-x,1/2+y,-z
1/2-x,1/2-y,-z
1/2+x,1/2-y,z
loop_
_atom_site_type_symbol
_atom_site_label
_atom_site_fract_x
_atom_site_fract_y
_atom_site_fract_z
Si Si1 0.093890 0.650710 0.905099
Si Si2 0.281115 0.654402 0.541709
Si Si3 0.048632 0.645611 0.192256
Si Si4 0.855861 0.353129 0.953078
Si Si5 0.137009 0.707691 0.746285
Si Si6 0.947516 0.652841 0.406953
Si Si7 0.676954 0.356139 0.314185
O O1 0.152231 0.500000 0.908063
O O2 0.223486 0.742235 0.940106
O O3 0.047397 0.707228 0.855620
O O4 0.937088 0.650017 0.916920
O O5 0.318010 0.500000 0.535900
O O6 0.250000 0.750000 0.500000
O O7 0.128740 0.651770 0.555753
O O8 0.419874 0.734337 0.580030
O O9 0.079137 0.500000 0.180917
O O10 0.220347 0.704158 0.220903
O O11 0.941568 0.643190 0.222003
O O12 0.791781 0.500000 0.953866
O O13 0.000000 0.332254 0.000000
O O14 0.229276 0.636702 0.719197
O O15 0.983788 0.775360 0.709145
O O16 0.998028 0.500000 0.403545
O O17 0.806380 0.689613 0.360729
O O18 0.627355 0.500000 0.322487
#
# Coordination Sequence:
#
# PCOD9194063 Si02
#       7
#     8   8   8   8   8   8   8
#     4  10  21  36  55  80 110 144 182 225 274 327
#     4  11  23  39  60  86 114 147 186 226 273 327
#     4  10  20  35  53  77 109 141 178 224 270 320
#     4  10  21  37  56  80 109 141 181 227 274 327
#     4  10  20  34  55  80 106 141 181 220 269 322
#     4  10  22  39  58  83 115 147 183 229 274 322
#     4  10  20  36  56  79 108 142 181 223 269 319
#
# _framework density 20.013663999999999
#
# number of rings (size 3 to 8) (size 9 to 14) (size 15 to 20)
#    0.000    1.857    0.000    3.857    0.000    3.714 
#    0.000    7.143    0.000    0.000    0.000    0.000 
#    0.000    0.000    0.000    0.000    0.000    0.000 
#
# Total GULP energy -156034.738875 kJ/mol
# GULP energy per Si atom -5572.669246 kJ/mol
# Density = 1.996811 g / cm^3
# Si number density = 20.013664 Si / 1000 Ang^3
#
#
#
# Elastic Constant Matrix: (Units=GPa)
#
#
# Indices 1 2 3 4 5 6 
#
# 1 62.2191 39.9107 -1.5589 0.0000 7.1301 0.0000
# 2 39.9107 98.9182 19.0078 0.0000 27.0617 0.0000
# 3 -1.5589 19.0078 75.0837 0.0000 8.4582 0.0000
# 4 0.0000 0.0000 0.0000 27.0297 0.0000 2.9187
# 5 7.1301 27.0617 8.4582 0.0000 31.8651 0.0000
# 6 0.0000 0.0000 0.0000 2.9187 0.0000 5.7705
#
#
#
# Elastic Compliance Matrix: (Units=1/GPa)
#
#
# Indices 1 2 3 4 5 6 
#
# 1 0.022493 -0.010459 0.002764 0.000000 0.003116 0.000000
# 2 -0.010459 0.018374 -0.003478 0.000000 -0.012340 0.000000
# 3 0.002764 -0.003478 0.014425 0.000000 -0.001493 0.000000
# 4 0.000000 0.000000 0.000000 0.039134 0.000000 -0.019793
# 5 0.003116 -0.012340 -0.001493 0.000000 0.041562 0.000000
# 6 0.000000 0.000000 0.000000 -0.019793 0.000000 0.183308
#
#
# Mechanical properties :
#
#
# Convention : Reuss Voigt Hill
#
# Bulk Modulus (GPa) = 30.35392 38.99334 34.67363
# Shear Modulus (GPa) = 14.17945 24.85715 19.51830
#
# Velocity S-wave (km/s) = 2.66463 3.52804 3.12628
# Velocity P-wave (km/s) = 4.96654 6.01014 5.51309
#
# Compressibility (1/GPa) = 0.03294467
#
# Stress axis : x y z
#
# Youngs Moduli (GPa) = 44.45770 54.42585 69.32581
#
# Poissons Ratio (x) = 0.56923 -0.19160
# Poissons Ratio (y) = 0.46497 0.24114
# Poissons Ratio (z) = -0.12287 0.18931
#
# Static dielectric constant tensor:
#      x y z
#    x 1.681510 0.000000 0.003180 
#    y 0.000000 1.710020 0.000000 
#    z 0.003180 0.000000 1.784830 
# 
# From -- ./inp_files/372024.got.cif
#   From: 2010.05.17/outbox.cif.g08.bks.cpg/sg12_187_cif.got.tgz:372024.got - 2010.06.03 13:09:07.
