data_PCOD9194285
_publ_section_title
;
Structure prediction by ZEFSAII (Michael W. Deem and Ramdas Pophale) SiO2 
 PCOD9194285
Probable space group: C 2/M
;
_chemical_formula_sum "Si O2"
_cell_formula_units_Z 50
_cell_length_a 24.781890
_cell_length_b 7.434731
_cell_length_c 12.581190
_cell_angle_alpha 90.000000
_cell_angle_beta 66.383669
_cell_angle_gamma 90.000000
_cell_volume 2123.903207
_symmetry_space_group_name_H-M "C 2/M"
_symmetry_group_IT_number 12
_symmetry_cell_setting 'monoclinic'
loop_
_space_group_symop_operation_xyz
x,y,z
-x,y,-z
-x,-y,-z
x,-y,z
1/2+x,1/2+y,z
1/2-x,1/2+y,-z
1/2-x,1/2-y,-z
1/2+x,1/2-y,z
loop_
_atom_site_type_symbol
_atom_site_label
_atom_site_fract_x
_atom_site_fract_y
_atom_site_fract_z
Si Si1 0.668239 0.797755 0.968878
Si Si2 0.500000 0.500000 0.500000
Si Si3 0.472742 0.779565 0.325713
Si Si4 0.839815 0.715510 0.370425
Si Si5 0.542922 0.219608 0.059539
Si Si6 0.721775 0.210806 0.368111
Si Si7 0.701337 0.707786 0.158499
O O1 0.608079 0.712214 0.980701
O O2 0.662736 0.805374 0.101922
O O3 0.672439 0.000000 0.921497
O O4 0.732186 0.715175 0.900529
O O5 0.485344 0.659652 0.419839
O O6 0.408045 0.734323 0.326225
O O7 0.519065 0.735661 0.195068
O O8 0.473831 0.000000 0.344024
O O9 0.839635 0.500000 0.371154
O O10 0.792615 0.762415 0.315746
O O11 0.807185 0.786772 0.502293
O O12 0.546064 0.000000 0.054550
O O13 0.500000 0.276601 0.000000
O O14 0.688129 0.284471 0.292450
O O15 0.711383 0.000000 0.375692
O O16 0.701666 0.500000 0.125819
#
# Coordination Sequence:
#
# PCOD9194285 Si02
#       7
#     8   2   8   8   8   8   8
#     4   9  19  36  57  83 117 150 200 249 296 370
#     4  12  26  44  66  94 128 168 230 266 324 378
#     4  10  23  44  68  93 130 173 215 270 328 385
#     4   9  20  38  58  85 117 155 201 250 307 377
#     4   9  19  38  66  95 121 166 215 261 319 387
#     4  10  20  34  57  86 119 153 198 247 307 372
#     4  10  20  34  55  84 117 156 195 242 307 365
#
# _framework density 23.541561000000002
#
# number of rings (size 3 to 8) (size 9 to 14) (size 15 to 20)
#    0.000    2.400    0.000    1.200    3.360    2.560 
#    4.320    5.200    0.000    0.000    0.000    0.000 
#    0.000    0.000    0.000    0.000    0.000    0.000 
#
# Total GULP energy -139199.030393 kJ/mol
# GULP energy per Si atom -5567.961216 kJ/mol
# Density = 2.348798 g / cm^3
# Si number density = 23.541561 Si / 1000 Ang^3
#
#
#
# Elastic Constant Matrix: (Units=GPa)
#
#
# Indices 1 2 3 4 5 6 
#
# 1 72.0897 -0.6340 -7.3099 0.0000 -3.4675 0.0000
# 2 -0.6340 112.2151 2.7785 0.0000 3.9003 0.0000
# 3 -7.3099 2.7785 26.4472 0.0000 13.2017 0.0000
# 4 0.0000 0.0000 0.0000 12.3194 0.0000 13.3869
# 5 -3.4675 3.9003 13.2017 0.0000 41.7139 0.0000
# 6 0.0000 0.0000 0.0000 13.3869 0.0000 17.9137
#
#
#
# Elastic Compliance Matrix: (Units=1/GPa)
#
#
# Indices 1 2 3 4 5 6 
#
# 1 0.014272 -0.000015 0.003982 0.000000 -0.000073 0.000000
# 2 -0.000015 0.008949 -0.000625 0.000000 -0.000640 0.000000
# 3 0.003982 -0.000625 0.046060 0.000000 -0.014188 0.000000
# 4 0.000000 0.000000 0.000000 0.431903 0.000000 -0.322761
# 5 -0.000073 -0.000640 -0.014188 0.000000 0.028517 0.000000
# 6 0.000000 0.000000 0.000000 -0.322761 0.000000 0.297023
#
#
# Mechanical properties :
#
#
# Convention : Reuss Voigt Hill
#
# Bulk Modulus (GPa) = 13.16397 22.26903 17.71650
# Shear Modulus (GPa) = 5.91464 28.78388 17.34926
#
# Velocity S-wave (km/s) = 1.58678 3.50048 2.71765
# Velocity P-wave (km/s) = 2.99351 5.08112 4.17007
#
# Compressibility (1/GPa) = 0.07596492
#
# Stress axis : x y z
#
# Youngs Moduli (GPa) = 70.06820 111.74312 21.71101
#
# Poissons Ratio (x) = 0.00173 -0.08646
# Poissons Ratio (y) = 0.00108 0.01357
# Poissons Ratio (z) = -0.27905 0.06982
#
# Static dielectric constant tensor:
#      x y z
#    x 1.900980 0.000000 -0.008910 
#    y 0.000000 1.899570 0.000000 
#    z -0.008910 0.000000 1.942050 
# 
# From -- ./inp_files/180559.got.cif
#   From: 2010.05.17/outbox.cif.g08.bks.cpg/sg12_91_cif.got.tgz:180559.got - 2010.06.03 13:09:07.
