data_PCOD9194985
_publ_section_title
;
Structure prediction by ZEFSAII (Michael W. Deem and Ramdas Pophale) SiO2 
 PCOD9194985
Probable space group: C 2/M
;
_chemical_formula_sum "Si O2"
_cell_formula_units_Z 36
_cell_length_a 11.099439
_cell_length_b 28.993618
_cell_length_c 7.282268
_cell_angle_alpha 90.000000
_cell_angle_beta 44.333840
_cell_angle_gamma 90.000000
_cell_volume 1637.745926
_symmetry_space_group_name_H-M "C 2/M"
_symmetry_group_IT_number 12
_symmetry_cell_setting 'monoclinic'
loop_
_space_group_symop_operation_xyz
x,y,z
-x,y,-z
-x,-y,-z
x,-y,z
1/2+x,1/2+y,z
1/2-x,1/2+y,-z
1/2-x,1/2-y,-z
1/2+x,1/2-y,z
loop_
_atom_site_type_symbol
_atom_site_label
_atom_site_fract_x
_atom_site_fract_y
_atom_site_fract_z
Si Si1 0.659310 0.450129 0.461634
Si Si2 0.207631 0.745769 0.761669
Si Si3 0.302726 0.844220 0.692176
Si Si4 0.799889 0.351947 0.261572
Si Si5 0.500000 0.591145 0.000000
O O1 0.500000 0.454942 0.500000
O O2 0.752494 0.500000 0.362789
O O3 0.749267 0.404472 0.283346
O O4 0.591564 0.438436 0.740924
O O5 0.250000 0.750000 0.500000
O O6 0.287780 0.790889 0.769364
O O7 0.273452 0.694908 0.749935
O O8 0.000000 0.748814 0.000000
O O9 0.500000 0.860458 0.500000
O O10 0.268710 0.845544 0.511631
O O11 0.148632 0.876659 0.931914
O O12 0.000000 0.348959 0.000000
#
# Coordination Sequence:
#
# PCOD9194985 Si02
#       5
#     8   8   8   8   4
#     4  10  22  39  62  85 111 157 202 243 307 357
#     4   9  17  34  53  79 121 157 192 244 294 354
#     4  10  20  34  59  87 116 159 196 232 300 360
#     4   9  20  36  55  82 119 148 191 251 293 349
#     4  10  21  40  62  86 128 150 191 260 292 348
#
# _framework density 21.981431000000001
#
# number of rings (size 3 to 8) (size 9 to 14) (size 15 to 20)
#    0.000    2.444    1.111    0.333    3.111    1.333 
#    0.000   10.000    0.000    3.333    0.000    0.000 
#    0.000    0.000    0.000    0.000    0.000    0.000 
#
# Total GULP energy -100259.931461 kJ/mol
# GULP energy per Si atom -5569.996192 kJ/mol
# Density = 2.193140 g / cm^3
# Si number density = 21.981431 Si / 1000 Ang^3
#
#
#
# Elastic Constant Matrix: (Units=GPa)
#
#
# Indices 1 2 3 4 5 6 
#
# 1 32.2945 18.3078 -1.2528 0.0000 -0.2841 0.0000
# 2 18.3078 185.1206 13.7841 0.0000 -13.9875 0.0000
# 3 -1.2528 13.7841 78.7557 0.0000 -4.2194 0.0000
# 4 0.0000 0.0000 0.0000 32.0414 0.0000 -10.6686
# 5 -0.2841 -13.9875 -4.2194 0.0000 40.9251 0.0000
# 6 0.0000 0.0000 0.0000 -10.6686 0.0000 7.2730
#
#
#
# Elastic Compliance Matrix: (Units=1/GPa)
#
#
# Indices 1 2 3 4 5 6 
#
# 1 0.032926 -0.003398 0.001075 0.000000 -0.000822 0.000000
# 2 -0.003398 0.005956 -0.000994 0.000000 0.001910 0.000000
# 3 0.001075 -0.000994 0.012942 0.000000 0.001002 0.000000
# 4 0.000000 0.000000 0.000000 0.061006 0.000000 0.089488
# 5 -0.000822 0.001910 0.001002 0.000000 0.025185 0.000000
# 6 0.000000 0.000000 0.000000 0.089488 0.000000 0.268763
#
#
# Mechanical properties :
#
#
# Convention : Reuss Voigt Hill
#
# Bulk Modulus (GPa) = 22.12959 39.76099 30.94529
# Shear Modulus (GPa) = 11.66921 33.73669 22.70295
#
# Velocity S-wave (km/s) = 2.30655 3.92188 3.21724
# Velocity P-wave (km/s) = 4.14522 6.21578 5.28293
#
# Compressibility (1/GPa) = 0.04518837
#
# Stress axis : x y z
#
# Youngs Moduli (GPa) = 30.37113 167.88958 77.26611
#
# Poissons Ratio (x) = 0.57056 -0.08302
# Poissons Ratio (y) = 0.10321 0.07682
# Poissons Ratio (z) = -0.03263 0.16692
#
# Static dielectric constant tensor:
#      x y z
#    x 1.802870 0.000000 0.020500 
#    y 0.000000 1.990750 0.000000 
#    z 0.020500 0.000000 1.819140 
# 
# From -- ./inp_files/51843.got.cif
#   From: 2010.05.17/outbox.cif.g08.bks.cpg/sg12_26_cif.got.tgz:51843.got - 2010.06.03 13:09:07.
