data_PCOD9194486
_publ_section_title
;
Structure prediction by ZEFSAII (Michael W. Deem and Ramdas Pophale) SiO2 
 PCOD9194486
Probable space group: C 2/M
;
_chemical_formula_sum "Si O2"
_cell_formula_units_Z 36
_cell_length_a 23.084694
_cell_length_b 13.153576
_cell_length_c 6.214828
_cell_angle_alpha 90.000000
_cell_angle_beta 101.488342
_cell_angle_gamma 90.000000
_cell_volume 1849.301619
_symmetry_space_group_name_H-M "C 2/M"
_symmetry_group_IT_number 12
_symmetry_cell_setting 'monoclinic'
loop_
_space_group_symop_operation_xyz
x,y,z
-x,y,-z
-x,-y,-z
x,-y,z
1/2+x,1/2+y,z
1/2-x,1/2+y,-z
1/2-x,1/2-y,-z
1/2+x,1/2-y,z
loop_
_atom_site_type_symbol
_atom_site_label
_atom_site_fract_x
_atom_site_fract_y
_atom_site_fract_z
Si Si1 0.579499 0.382284 0.892492
Si Si2 0.500000 0.257600 0.500000
Si Si3 0.312631 0.297680 0.276806
Si Si4 0.690665 0.118336 0.062052
Si Si5 0.897016 0.731734 0.713107
O O1 0.565806 0.500000 0.910611
O O2 0.536317 0.328171 0.691200
O O3 0.644853 0.367030 0.839850
O O4 0.578922 0.320173 0.113373
O O5 0.450699 0.197389 0.599515
O O6 0.248706 0.348617 0.239644
O O7 0.345890 0.278726 0.524359
O O8 0.308123 0.190241 0.147348
O O9 0.633053 0.148078 0.157868
O O10 0.692179 0.000000 0.011718
#
# Coordination Sequence:
#
# PCOD9194486 Si02
#       5
#     8   4   8   8   8
#     4  10  20  34  56  84 111 142 178 218 270 327
#     4  10  21  36  53  76 114 148 177 222 267 312
#     4   9  20  37  55  82 115 140 171 223 274 320
#     4  10  20  36  58  81 107 143 182 219 267 323
#     4  10  21  36  54  79 111 144 181 222 266 316
#
# _framework density 19.466808
#
# number of rings (size 3 to 8) (size 9 to 14) (size 15 to 20)
#    0.000    2.222    0.000    2.333    0.000    7.111 
#    0.000    0.556    0.000   17.333    0.000    0.000 
#    0.000    0.000    0.000    0.000    0.000    0.000 
#
# Total GULP energy -100502.418056 kJ/mol
# GULP energy per Si atom -5583.467670 kJ/mol
# Density = 1.942250 g / cm^3
# Si number density = 19.466808 Si / 1000 Ang^3
#
#
#
# Elastic Constant Matrix: (Units=GPa)
#
#
# Indices 1 2 3 4 5 6 
#
# 1 106.0521 29.3521 12.4956 0.0000 -9.0441 0.0000
# 2 29.3521 91.9936 21.4562 0.0000 -2.6767 0.0000
# 3 12.4956 21.4562 89.2144 0.0000 15.7071 0.0000
# 4 0.0000 0.0000 0.0000 4.0406 0.0000 2.6812
# 5 -9.0441 -2.6767 15.7071 0.0000 33.2168 0.0000
# 6 0.0000 0.0000 0.0000 2.6812 0.0000 2.8592
#
#
#
# Elastic Compliance Matrix: (Units=1/GPa)
#
#
# Indices 1 2 3 4 5 6 
#
# 1 0.010703 -0.003001 -0.001361 0.000000 0.003316 0.000000
# 2 -0.003001 0.012542 -0.002869 0.000000 0.001550 0.000000
# 3 -0.001361 -0.002869 0.013303 0.000000 -0.006892 0.000000
# 4 0.000000 0.000000 0.000000 0.655173 0.000000 -0.614390
# 5 0.003316 0.001550 -0.006892 0.000000 0.034392 0.000000
# 6 0.000000 0.000000 0.000000 -0.614390 0.000000 0.925899
#
#
# Mechanical properties :
#
#
# Convention : Reuss Voigt Hill
#
# Bulk Modulus (GPa) = 45.27782 45.98532 45.63157
# Shear Modulus (GPa) = 2.98715 22.95372 12.97043
#
# Velocity S-wave (km/s) = 1.24009 3.43756 2.58405
# Velocity P-wave (km/s) = 5.03586 6.27929 5.69163
#
# Compressibility (1/GPa) = 0.02208587
#
# Stress axis : x y z
#
# Youngs Moduli (GPa) = 93.43092 79.73136 75.17056
#
# Poissons Ratio (x) = 0.23928 0.10232
# Poissons Ratio (y) = 0.28039 0.21566
# Poissons Ratio (z) = 0.12718 0.22875
#
# Static dielectric constant tensor:
#      x y z
#    x 1.732460 0.000000 -0.026410 
#    y 0.000000 1.611650 0.000000 
#    z -0.026410 0.000000 1.680020 
# 
# From -- ./inp_files/23606.got.cif
#   From: 2010.05.17/outbox.cif.g08.bks.cpg/sg12_12_cif.got.tgz:23606.got - 2010.06.03 13:09:07.
