data_PCOD9194225
_publ_section_title
;
Structure prediction by ZEFSAII (Michael W. Deem and Ramdas Pophale) SiO2 
 PCOD9194225
Probable space group: C 2/M
;
_chemical_formula_sum "Si O2"
_cell_formula_units_Z 64
_cell_length_a 20.875021
_cell_length_b 8.066400
_cell_length_c 30.273700
_cell_angle_alpha 90.000000
_cell_angle_beta 141.328740
_cell_angle_gamma 90.000000
_cell_volume 3185.288123
_symmetry_space_group_name_H-M "C 2/M"
_symmetry_group_IT_number 12
_symmetry_cell_setting 'monoclinic'
loop_
_space_group_symop_operation_xyz
x,y,z
-x,y,-z
-x,-y,-z
x,-y,z
1/2+x,1/2+y,z
1/2-x,1/2+y,-z
1/2-x,1/2-y,-z
1/2+x,1/2-y,z
loop_
_atom_site_type_symbol
_atom_site_label
_atom_site_fract_x
_atom_site_fract_y
_atom_site_fract_z
Si Si1 0.072425 0.699922 0.080171
Si Si2 0.115070 0.799464 0.549672
Si Si3 0.211511 0.801149 0.840606
Si Si4 0.573071 0.197747 0.688845
Si Si5 0.768592 0.300973 0.301136
Si Si6 0.173419 0.201054 0.919471
Si Si7 0.855403 0.802084 0.534135
Si Si8 0.041564 0.196039 0.160496
O O1 0.073907 0.500000 0.086694
O O2 0.186930 0.759966 0.130170
O O3 0.030824 0.777733 0.102479
O O4 0.000000 0.737492 0.000000
O O5 0.189798 0.738450 0.628080
O O6 0.140591 0.739624 0.514261
O O7 0.000000 0.746295 0.500000
O O8 0.117283 0.000000 0.551044
O O9 0.113969 0.759791 0.757970
O O10 0.205659 0.740419 0.887912
O O11 0.220956 0.000000 0.847995
O O12 0.650927 0.262691 0.692478
O O13 0.457383 0.245251 0.614514
O O14 0.579633 0.000000 0.692527
O O15 0.764878 0.500000 0.293732
O O16 0.653546 0.233943 0.232848
O O17 0.058848 0.262988 0.869187
O O18 0.171707 0.000000 0.917517
O O19 0.250000 0.250000 0.000000
O O20 0.750000 0.750000 0.500000
O O21 0.858947 0.000000 0.534447
O O22 0.044620 0.000000 0.171805
#
# Coordination Sequence:
#
# PCOD9194225 Si02
#       8
#     8   8   8   8   8   8   8   8
#     4  10  20  34  55  83 114 148 191 240 286 343
#     4  10  21  38  61  88 118 155 198 241 290 348
#     4  10  21  37  58  85 117 157 199 240 296 357
#     4  11  22  38  61  89 122 157 197 246 298 354
#     4  10  21  36  58  88 121 154 196 246 295 351
#     4  10  22  40  61  84 117 156 197 243 298 358
#     4  11  24  42  63  90 125 160 199 246 296 354
#     4  10  21  38  57  83 115 149 189 238 291 344
#
# _framework density 20.092374
#
# number of rings (size 3 to 8) (size 9 to 14) (size 15 to 20)
#    0.000    1.750    2.500    1.500    0.000    5.500 
#    0.000    1.250    0.000    0.000    0.000    0.000 
#    0.000    0.000    0.000    0.000    0.000    0.000 
#
# Total GULP energy -178764.224292 kJ/mol
# GULP energy per Si atom -5586.382009 kJ/mol
# Density = 2.004664 g / cm^3
# Si number density = 20.092374 Si / 1000 Ang^3
#
#
#
# Elastic Constant Matrix: (Units=GPa)
#
#
# Indices 1 2 3 4 5 6 
#
# 1 101.6047 4.3969 14.3751 -0.0004 0.4779 -0.0011
# 2 4.3969 10.9592 -6.2827 -0.0009 3.9993 -0.0023
# 3 14.3751 -6.2827 84.6905 0.0000 -1.9702 -0.0001
# 4 -0.0004 -0.0009 0.0000 15.8019 0.0000 -16.0943
# 5 0.4779 3.9993 -1.9702 0.0000 37.3122 -0.0001
# 6 -0.0011 -0.0023 -0.0001 -16.0943 -0.0001 9.0718
#
#
#
# Elastic Compliance Matrix: (Units=1/GPa)
#
#
# Indices 1 2 3 4 5 6 
#
# 1 0.010386 -0.005535 -0.002165 0.000000 0.000346 0.000000
# 2 -0.005535 0.102011 0.008265 -0.000039 -0.010427 -0.000044
# 3 -0.002165 0.008265 0.012784 -0.000003 -0.000183 -0.000003
# 4 0.000000 -0.000039 -0.000003 -0.078426 0.000003 -0.139135
# 5 0.000346 -0.010427 -0.000183 0.000003 0.027904 0.000004
# 6 0.000000 -0.000044 -0.000003 -0.139135 0.000004 -0.136608
#
#
# Mechanical properties :
#
#
# Convention : Reuss Voigt Hill
#
# Bulk Modulus (GPa) = 7.91703 24.69256 16.30480
# Shear Modulus (GPa) = -238.39248 24.75486 -106.81881
#
# Velocity S-wave (km/s) = -10.90439 3.51387 -7.29927
# Velocity P-wave (km/s) = 12.43351 5.36463 7.93136
#
# Compressibility (1/GPa) = 0.12630995
#
# Stress axis : x y z
#
# Youngs Moduli (GPa) = 96.28038 9.80287 78.22219
#
# Poissons Ratio (x) = 0.05426 0.16939
# Poissons Ratio (y) = 0.53289 -0.64647
# Poissons Ratio (z) = 0.20849 -0.08102
#
# Static dielectric constant tensor:
#      x y z
#    x 1.697500 0.000000 0.011670 
#    y 0.000000 1.721990 0.000000 
#    z 0.011670 0.000000 1.689860 
# 
# From -- ./inp_files/378315.got.cif
#   From: 2010.05.17/outbox.cif.g08.bks.cpg/sg12_190_cif.got.tgz:378315.got - 2010.06.03 13:09:07.
