data_PCOD9194547
_publ_section_title
;
Structure prediction by ZEFSAII (Michael W. Deem and Ramdas Pophale) SiO2 
 PCOD9194547
Probable space group: C 2/M
;
_chemical_formula_sum "Si O2"
_cell_formula_units_Z 56
_cell_length_a 25.093318
_cell_length_b 8.361836
_cell_length_c 13.943389
_cell_angle_alpha 90.000000
_cell_angle_beta 56.056947
_cell_angle_gamma 90.000000
_cell_volume 2427.130531
_symmetry_space_group_name_H-M "C 2/M"
_symmetry_group_IT_number 12
_symmetry_cell_setting 'monoclinic'
loop_
_space_group_symop_operation_xyz
x,y,z
-x,y,-z
-x,-y,-z
x,-y,z
1/2+x,1/2+y,z
1/2-x,1/2+y,-z
1/2-x,1/2-y,-z
1/2+x,1/2-y,z
loop_
_atom_site_type_symbol
_atom_site_label
_atom_site_fract_x
_atom_site_fract_y
_atom_site_fract_z
Si Si1 0.184522 0.683854 0.448943
Si Si2 0.253968 0.691535 0.189872
Si Si3 0.895282 0.690959 0.308000
Si Si4 0.071318 0.817300 0.450951
Si Si5 0.965031 0.688942 0.846475
Si Si6 0.144806 0.178373 0.175155
Si Si7 0.396195 0.311337 0.092724
O O1 0.205247 0.500000 0.439899
O O2 0.228827 0.755357 0.319690
O O3 0.166625 0.757065 0.570992
O O4 0.113573 0.699698 0.472529
O O5 0.244482 0.500000 0.201770
O O6 0.213066 0.755594 0.141872
O O7 0.328737 0.727524 0.108421
O O8 0.892695 0.500000 0.325849
O O9 0.893658 0.725307 0.197085
O O10 0.967094 0.749621 0.265076
O O11 0.107162 0.828779 0.313741
O O12 0.000000 0.761197 0.500000
O O13 0.069068 0.000000 0.493331
O O14 0.971239 0.500000 0.852520
O O15 0.903212 0.725182 0.844010
O O16 0.951787 0.764617 0.963434
O O17 0.152147 0.000000 0.126859
O O18 0.398247 0.500000 0.109097
#
# Coordination Sequence:
#
# PCOD9194547 Si02
#       7
#     8   8   8   8   8   8   8
#     4   9  18  34  56  80 109 144 181 223 270 328
#     4   9  20  39  59  83 115 149 186 226 275 333
#     4  10  22  39  59  85 114 146 186 230 280 334
#     4   9  17  29  47  76 113 146 177 220 273 326
#     4  11  23  39  59  83 113 149 187 230 281 333
#     4  10  20  34  56  85 114 146 185 229 277 330
#     4  11  24  40  59  82 110 148 192 236 278 325
#
# _framework density 23.072514000000002
#
# number of rings (size 3 to 8) (size 9 to 14) (size 15 to 20)
#    0.000    2.143    0.000    2.571    0.000    6.571 
#    0.000    0.000    0.000    0.000    0.000    0.000 
#    0.000    0.000    0.000    0.000    0.000    0.000 
#
# Total GULP energy -156296.397719 kJ/mol
# GULP energy per Si atom -5582.014204 kJ/mol
# Density = 2.302000 g / cm^3
# Si number density = 23.072514 Si / 1000 Ang^3
#
#
#
# Elastic Constant Matrix: (Units=GPa)
#
#
# Indices 1 2 3 4 5 6 
#
# 1 43.7799 3.9490 1.2240 0.0000 -4.3593 0.0000
# 2 3.9490 18.6981 4.6695 0.0000 -7.0889 -0.0001
# 3 1.2240 4.6695 106.7766 0.0000 -7.6781 0.0000
# 4 0.0000 0.0000 0.0000 21.0959 0.0000 3.2858
# 5 -4.3593 -7.0889 -7.6781 0.0000 29.0929 0.0000
# 6 0.0000 -0.0001 0.0000 3.2858 0.0000 24.9040
#
#
#
# Elastic Compliance Matrix: (Units=1/GPa)
#
#
# Indices 1 2 3 4 5 6 
#
# 1 0.023455 -0.004005 0.000091 0.000000 0.002563 0.000000
# 2 -0.004005 0.059869 -0.001597 0.000000 0.013566 0.000000
# 3 0.000091 -0.001597 0.009589 0.000000 0.002155 0.000000
# 4 0.000000 0.000000 0.000000 0.048397 0.000000 -0.006385
# 5 0.002563 0.013566 0.002155 0.000000 0.038631 0.000000
# 6 0.000000 0.000000 0.000000 -0.006385 0.000000 0.040997
#
#
# Mechanical properties :
#
#
# Convention : Reuss Voigt Hill
#
# Bulk Modulus (GPa) = 12.21125 20.99329 16.60227
# Shear Modulus (GPa) = 19.28582 25.64602 22.46592
#
# Velocity S-wave (km/s) = 2.89429 3.33759 3.12382
# Velocity P-wave (km/s) = 4.05873 4.89605 4.49692
#
# Compressibility (1/GPa) = 0.08189173
#
# Stress axis : x y z
#
# Youngs Moduli (GPa) = 42.63409 16.70309 104.28489
#
# Poissons Ratio (x) = 0.06689 -0.00944
# Poissons Ratio (y) = 0.17074 0.16652
# Poissons Ratio (z) = -0.00386 0.02667
#
# Static dielectric constant tensor:
#      x y z
#    x 1.889010 0.000000 -0.000130 
#    y 0.000000 1.831990 0.000000 
#    z -0.000130 0.000000 1.920510 
# 
# From -- ./inp_files/238247.got.cif
#   From: 2010.05.17/outbox.cif.g08.bks.cpg/sg12_120_cif.got.tgz:238247.got - 2010.06.03 13:09:07.
