data_PCOD9194804
_publ_section_title
;
Structure prediction by ZEFSAII (Michael W. Deem and Ramdas Pophale) SiO2 
 PCOD9194804
Probable space group: C 2/M
;
_chemical_formula_sum "Si O2"
_cell_formula_units_Z 56
_cell_length_a 35.149264
_cell_length_b 8.838968
_cell_length_c 22.682342
_cell_angle_alpha 90.000000
_cell_angle_beta 26.294085
_cell_angle_gamma 90.000000
_cell_volume 3121.680674
_symmetry_space_group_name_H-M "C 2/M"
_symmetry_group_IT_number 12
_symmetry_cell_setting 'monoclinic'
loop_
_space_group_symop_operation_xyz
x,y,z
-x,y,-z
-x,-y,-z
x,-y,z
1/2+x,1/2+y,z
1/2-x,1/2+y,-z
1/2-x,1/2-y,-z
1/2+x,1/2-y,z
loop_
_atom_site_type_symbol
_atom_site_label
_atom_site_fract_x
_atom_site_fract_y
_atom_site_fract_z
Si Si1 0.558353 0.319499 0.616461
Si Si2 0.822117 0.181619 0.106628
Si Si3 0.757005 0.180249 0.897981
Si Si4 0.683059 0.180305 0.639895
Si Si5 0.111862 0.680524 0.196986
Si Si6 0.480743 0.318822 0.191643
Si Si7 0.744595 0.818960 0.341560
O O1 0.566361 0.500000 0.598988
O O2 0.478747 0.258461 0.689284
O O3 0.538215 0.286978 0.713301
O O4 0.647098 0.239868 0.476659
O O5 0.765427 0.260736 0.135422
O O6 0.789934 0.217961 0.216730
O O7 0.816096 0.000000 0.106767
O O8 0.921734 0.223938 0.959018
O O9 0.839109 0.258761 0.813601
O O10 0.768231 0.000000 0.883016
O O11 0.675781 0.217193 0.053418
O O12 0.750000 0.250000 0.500000
O O13 0.588956 0.233518 0.750786
O O14 0.707778 0.242452 0.669630
O O15 0.690404 0.000000 0.628497
O O16 0.102152 0.500000 0.213202
O O17 0.471274 0.500000 0.196013
O O18 0.745649 0.000000 0.347891
#
# Coordination Sequence:
#
# PCOD9194804 Si02
#       7
#     8   8   8   8   8   8   8
#     4  11  21  36  61  89 119 153 195 245 293 345
#     4  10  22  41  62  86 119 159 195 237 292 354
#     4  10  20  34  57  88 121 155 193 243 294 343
#     4  12  24  39  61  88 119 153 196 246 293 344
#     4  10  20  34  57  88 121 155 197 243 289 345
#     4  10  21  38  62  88 117 153 196 241 291 347
#     4  11  24  41  62  86 119 158 196 237 293 356
#
# _framework density 17.939053999999999
#
# number of rings (size 3 to 8) (size 9 to 14) (size 15 to 20)
#    0.000    1.429    2.857    3.000    0.000    4.000 
#    0.000    3.571    0.000    4.286    0.000    0.000 
#    0.000    0.000    0.000    0.000    0.000    0.000 
#
# Total GULP energy -156511.533491 kJ/mol
# GULP energy per Si atom -5589.697625 kJ/mol
# Density = 1.789822 g / cm^3
# Si number density = 17.939054 Si / 1000 Ang^3
#
#
#
# Elastic Constant Matrix: (Units=GPa)
#
#
# Indices 1 2 3 4 5 6 
#
# 1 143.0611 62.3469 60.7477 0.0029 -10.4939 -0.0017
# 2 62.3469 63.9144 48.3181 0.0063 -0.2729 -0.0025
# 3 60.7477 48.3181 101.0592 0.0075 -2.1562 -0.0019
# 4 0.0029 0.0063 0.0075 26.7464 -0.0009 -4.4095
# 5 -10.4939 -0.2729 -2.1562 -0.0009 31.7770 0.0003
# 6 -0.0017 -0.0025 -0.0019 -4.4095 0.0003 35.9181
#
#
#
# Elastic Compliance Matrix: (Units=1/GPa)
#
#
# Indices 1 2 3 4 5 6 
#
# 1 0.013101 -0.010765 -0.002641 0.000002 0.004055 0.000000
# 2 -0.010765 0.033359 -0.009562 -0.000004 -0.003917 0.000001
# 3 -0.002641 -0.009562 0.016058 -0.000002 0.000135 0.000000
# 4 0.000002 -0.000004 -0.000002 0.038161 0.000001 0.004685
# 5 0.004055 -0.003917 0.000135 0.000001 0.032784 0.000000
# 6 0.000000 0.000001 0.000000 0.004685 0.000000 0.028416
#
#
# Mechanical properties :
#
#
# Convention : Reuss Voigt Hill
#
# Bulk Modulus (GPa) = 60.31333 72.31777 66.31555
# Shear Modulus (GPa) = 23.43659 27.99645 25.71652
#
# Velocity S-wave (km/s) = 3.61841 3.95478 3.79033
# Velocity P-wave (km/s) = 7.15203 7.82651 7.49686
#
# Compressibility (1/GPa) = 0.01658008
#
# Stress axis : x y z
#
# Youngs Moduli (GPa) = 76.33280 29.97686 62.27573
#
# Poissons Ratio (x) = 0.32270 0.16449
# Poissons Ratio (y) = 0.82173 0.59549
# Poissons Ratio (z) = 0.20162 0.28664
#
# Static dielectric constant tensor:
#      x y z
#    x 1.585310 0.000000 0.002170 
#    y 0.000000 1.595600 0.000000 
#    z 0.002170 0.000000 1.594740 
# 
# From -- ./inp_files/281592.got.cif
#   From: 2010.05.17/outbox.cif.g08.bks.cpg/sg12_141_cif.got.tgz:281592.got - 2010.06.03 13:09:07.
