data_PCOD9194820
_publ_section_title
;
Structure prediction by ZEFSAII (Michael W. Deem and Ramdas Pophale) SiO2 
 PCOD9194820
Probable space group: C 2/M
;
_chemical_formula_sum "Si O2"
_cell_formula_units_Z 64
_cell_length_a 15.307088
_cell_length_b 8.756643
_cell_length_c 31.774888
_cell_angle_alpha 90.000000
_cell_angle_beta 127.878139
_cell_angle_gamma 90.000000
_cell_volume 3361.758268
_symmetry_space_group_name_H-M "C 2/M"
_symmetry_group_IT_number 12
_symmetry_cell_setting 'monoclinic'
loop_
_space_group_symop_operation_xyz
x,y,z
-x,y,-z
-x,-y,-z
x,-y,z
1/2+x,1/2+y,z
1/2-x,1/2+y,-z
1/2-x,1/2-y,-z
1/2+x,1/2-y,z
loop_
_atom_site_type_symbol
_atom_site_label
_atom_site_fract_x
_atom_site_fract_y
_atom_site_fract_z
Si Si1 0.261028 0.820219 0.326355
Si Si2 0.618893 0.173908 0.556610
Si Si3 0.820875 0.315919 0.866364
Si Si4 0.294520 0.825874 0.555229
Si Si5 0.673776 0.317063 0.743229
Si Si6 0.431697 0.184537 0.671706
Si Si7 0.760704 0.182463 0.936086
Si Si8 0.575690 0.184210 0.948847
O O1 0.366847 0.806245 0.389242
O O2 0.282114 0.735666 0.289085
O O3 0.156441 0.754350 0.321464
O O4 0.244270 0.000000 0.313624
O O5 0.500000 0.180961 0.500000
O O6 0.693364 0.302510 0.557459
O O7 0.662510 0.000000 0.560825
O O8 0.819679 0.500000 0.868573
O O9 0.758935 0.271955 0.805263
O O10 0.761162 0.249876 0.889724
O O11 0.949334 0.266847 0.905446
O O12 0.250000 0.750000 0.500000
O O13 0.395455 0.764670 0.613528
O O14 0.319483 0.000000 0.552465
O O15 0.661719 0.500000 0.740194
O O16 0.555057 0.240561 0.716360
O O17 0.424701 0.000000 0.670989
O O18 0.653312 0.226023 0.932117
O O19 0.765872 0.000000 0.935878
O O20 0.866273 0.245320 0.993037
O O21 0.578222 0.000000 0.953711
#
# Coordination Sequence:
#
# PCOD9194820 Si02
#       8
#     8   8   8   8   8   8   8   8
#     4  10  21  39  61  85 115 150 191 239 293 351
#     4   9  19  35  55  80 110 142 176 222 281 344
#     4  10  22  39  57  81 114 154 196 236 284 342
#     4  10  21  35  54  81 110 141 179 225 280 343
#     4  11  24  40  60  86 116 155 202 247 295 349
#     4  10  22  41  61  82 113 152 193 238 292 351
#     4  10  20  34  57  89 119 150 191 238 285 334
#     4   9  19  37  58  81 116 158 191 227 285 345
#
# _framework density 19.037655999999998
#
# number of rings (size 3 to 8) (size 9 to 14) (size 15 to 20)
#    0.000    2.125    0.000    2.250    1.750    6.750 
#    0.000    1.250    0.000    0.000    0.000    0.000 
#    0.000    0.000    0.000    0.000    0.000    0.000 
#
# Total GULP energy -178558.318726 kJ/mol
# GULP energy per Si atom -5579.947460 kJ/mol
# Density = 1.899433 g / cm^3
# Si number density = 19.037656 Si / 1000 Ang^3
#
#
#
# Elastic Constant Matrix: (Units=GPa)
#
#
# Indices 1 2 3 4 5 6 
#
# 1 61.3640 14.4237 45.7621 0.0000 -14.4351 0.0000
# 2 14.4237 27.7441 31.3086 0.0000 -3.3613 0.0000
# 3 45.7621 31.3086 116.1693 0.0000 -24.6502 0.0000
# 4 0.0000 0.0000 0.0000 27.3820 0.0000 -4.9304
# 5 -14.4351 -3.3613 -24.6502 0.0000 26.0438 0.0000
# 6 0.0000 0.0000 0.0000 -4.9304 0.0000 32.4854
#
#
#
# Elastic Compliance Matrix: (Units=1/GPa)
#
#
# Indices 1 2 3 4 5 6 
#
# 1 0.023902 -0.003607 -0.007172 0.000000 0.005995 0.000000
# 2 -0.003607 0.053768 -0.015043 0.000000 -0.009298 0.000000
# 3 -0.007172 -0.015043 0.017809 0.000000 0.010939 0.000000
# 4 0.000000 0.000000 0.000000 0.037546 0.000000 0.005699
# 5 0.005995 -0.009298 0.010939 0.000000 0.050874 0.000000
# 6 0.000000 0.000000 0.000000 0.005699 0.000000 0.031648
#
#
# Mechanical properties :
#
#
# Convention : Reuss Voigt Hill
#
# Bulk Modulus (GPa) = 22.81242 43.14068 32.97655
# Shear Modulus (GPa) = 17.74293 24.76778 21.25536
#
# Velocity S-wave (km/s) = 3.05617 3.61084 3.34502
# Velocity P-wave (km/s) = 4.94594 6.33199 5.68139
#
# Compressibility (1/GPa) = 0.04383577
#
# Stress axis : x y z
#
# Youngs Moduli (GPa) = 41.83669 18.59839 56.15263
#
# Poissons Ratio (x) = 0.06709 0.40270
# Poissons Ratio (y) = 0.15091 0.84470
# Poissons Ratio (z) = 0.30003 0.27977
#
# Static dielectric constant tensor:
#      x y z
#    x 1.652720 0.000000 -0.000520 
#    y 0.000000 1.655930 0.000000 
#    z -0.000520 0.000000 1.667250 
# 
# From -- ./inp_files/375550.got.cif
#   From: 2010.05.17/outbox.cif.g08.bks.cpg/sg12_188_cif.got.tgz:375550.got - 2010.06.03 13:09:07.
