data_PCOD9194675
_publ_section_title
;
Structure prediction by ZEFSAII (Michael W. Deem and Ramdas Pophale) SiO2 
 PCOD9194675
Probable space group: C 2/M
;
_chemical_formula_sum "Si O2"
_cell_formula_units_Z 64
_cell_length_a 10.314891
_cell_length_b 13.962982
_cell_length_c 19.791997
_cell_angle_alpha 90.000000
_cell_angle_beta 69.576765
_cell_angle_gamma 90.000000
_cell_volume 2671.389232
_symmetry_space_group_name_H-M "C 2/M"
_symmetry_group_IT_number 12
_symmetry_cell_setting 'monoclinic'
loop_
_space_group_symop_operation_xyz
x,y,z
-x,y,-z
-x,-y,-z
x,-y,z
1/2+x,1/2+y,z
1/2-x,1/2+y,-z
1/2-x,1/2-y,-z
1/2+x,1/2-y,z
loop_
_atom_site_type_symbol
_atom_site_label
_atom_site_fract_x
_atom_site_fract_y
_atom_site_fract_z
Si Si1 0.891649 0.384555 0.760263
Si Si2 0.581709 0.152811 0.925199
Si Si3 0.025942 0.112438 0.256918
Si Si4 0.923867 0.671581 0.609038
Si Si5 0.620587 0.263876 0.124684
Si Si6 0.506629 0.392251 0.590804
Si Si7 0.671193 0.893352 0.761239
Si Si8 0.209427 0.359866 0.505422
O O1 0.880004 0.500000 0.770368
O O2 0.849453 0.354500 0.692726
O O3 0.833601 0.325624 0.834816
O O4 0.053561 0.351435 0.735733
O O5 0.470831 0.233746 0.922442
O O6 0.735957 0.183906 0.918437
O O7 0.607436 0.103586 0.848140
O O8 0.500000 0.102002 0.000000
O O9 0.018027 0.170638 0.189408
O O10 0.177364 0.147075 0.256823
O O11 0.938867 0.121981 0.340985
O O12 0.031249 0.000000 0.238742
O O13 0.853273 0.623137 0.557329
O O14 0.934598 0.787515 0.593177
O O15 0.081573 0.629161 0.579595
O O16 0.440657 0.500000 0.604477
O O17 0.638171 0.402962 0.517592
O O18 0.691169 0.000000 0.732680
O O19 0.250000 0.250000 0.500000
#
# Coordination Sequence:
#
# PCOD9194675 Si02
#       8
#     8   8   8   8   8   8   8   8
#     4  10  20  35  57  84 110 147 191 235 288 342
#     4  10  20  34  57  82 113 155 190 226 284 344
#     4   9  17  32  55  83 110 144 185 233 288 337
#     4  10  20  38  57  78 110 147 189 234 289 343
#     4  10  20  37  56  84 117 148 187 241 282 338
#     4  10  20  35  57  84 110 141 186 235 287 341
#     4   8  17  33  54  82 113 140 185 239 280 330
#     4   9  21  38  54  75 108 149 186 233 282 341
#
# _framework density 23.957571999999999
#
# number of rings (size 3 to 8) (size 9 to 14) (size 15 to 20)
#    0.000    2.500    1.250    0.375    0.000    4.250 
#    0.000    8.125    0.000    3.000    0.000    0.000 
#    0.000    0.000    0.000    0.000    0.000    0.000 
#
# Total GULP energy -178146.579880 kJ/mol
# GULP energy per Si atom -5567.080621 kJ/mol
# Density = 2.390304 g / cm^3
# Si number density = 23.957572 Si / 1000 Ang^3
#
#
#
# Elastic Constant Matrix: (Units=GPa)
#
#
# Indices 1 2 3 4 5 6 
#
# 1 44.8770 -12.7061 2.8644 0.0000 0.0337 0.0000
# 2 -12.7061 102.9469 5.2976 0.0000 -4.2548 0.0000
# 3 2.8644 5.2976 97.7121 0.0000 -16.2382 0.0000
# 4 0.0000 0.0000 0.0000 -9.6960 0.0000 5.7526
# 5 0.0337 -4.2548 -16.2382 0.0000 35.4469 0.0000
# 6 0.0000 0.0000 0.0000 5.7526 0.0000 -2.3547
#
#
#
# Elastic Compliance Matrix: (Units=1/GPa)
#
#
# Indices 1 2 3 4 5 6 
#
# 1 0.023158 0.002899 -0.000846 0.000000 -0.000062 0.000000
# 2 0.002899 0.010137 -0.000469 0.000000 0.000999 0.000000
# 3 -0.000846 -0.000469 0.011122 0.000000 0.005039 0.000000
# 4 0.000000 0.000000 0.000000 0.229468 0.000000 0.560600
# 5 -0.000062 0.000999 0.005039 0.000000 0.030640 0.000000
# 6 0.000000 0.000000 0.000000 0.560600 0.000000 0.944885
#
#
# Mechanical properties :
#
#
# Convention : Reuss Voigt Hill
#
# Bulk Modulus (GPa) = 21.01469 26.27200 23.64335
# Shear Modulus (GPa) = 3.96164 21.35125 12.65645
#
# Velocity S-wave (km/s) = 1.28732 2.98855 2.30094
# Velocity P-wave (km/s) = 3.31667 4.78523 4.11696
#
# Compressibility (1/GPa) = 0.04758575
#
# Stress axis : x y z
#
# Youngs Moduli (GPa) = 43.18154 98.64855 89.91319
#
# Poissons Ratio (x) = -0.28601 0.07609
# Poissons Ratio (y) = -0.12519 0.04212
# Poissons Ratio (z) = 0.03654 0.04622
#
# Static dielectric constant tensor:
#      x y z
#    x 1.980280 0.000000 -0.030970 
#    y 0.000000 1.946950 0.000000 
#    z -0.030970 0.000000 1.944500 
# 
# From -- ./inp_files/305418.got.cif
#   From: 2010.05.17/outbox.cif.g08.bks.cpg/sg12_153_cif.got.tgz:305418.got - 2010.06.03 13:09:07.
