data_PCOD9194934
_publ_section_title
;
Structure prediction by ZEFSAII (Michael W. Deem and Ramdas Pophale) SiO2 
 PCOD9194934
Probable space group: C 2/M
;
_chemical_formula_sum "Si O2"
_cell_formula_units_Z 48
_cell_length_a 14.594029
_cell_length_b 21.390425
_cell_length_c 11.913575
_cell_angle_alpha 90.000000
_cell_angle_beta 137.287848
_cell_angle_gamma 90.000000
_cell_volume 2522.716678
_symmetry_space_group_name_H-M "C 2/M"
_symmetry_group_IT_number 12
_symmetry_cell_setting 'monoclinic'
loop_
_space_group_symop_operation_xyz
x,y,z
-x,y,-z
-x,-y,-z
x,-y,z
1/2+x,1/2+y,z
1/2-x,1/2+y,-z
1/2-x,1/2-y,-z
1/2+x,1/2-y,z
loop_
_atom_site_type_symbol
_atom_site_label
_atom_site_fract_x
_atom_site_fract_y
_atom_site_fract_z
Si Si1 0.662637 0.223931 0.768253
Si Si2 0.842967 0.292329 0.499064
Si Si3 0.307611 0.930707 0.542414
Si Si4 0.195817 0.148858 0.928196
Si Si5 0.443952 0.928623 0.063611
Si Si6 0.981220 0.927757 0.610471
O O1 0.674949 0.227980 0.645855
O O2 0.505903 0.212304 0.664663
O O3 0.700591 0.289434 0.856985
O O4 0.763306 0.171924 0.910936
O O5 0.750000 0.250000 0.500000
O O6 0.807199 0.366118 0.473884
O O7 0.438814 0.928503 0.738932
O O8 0.175995 0.928427 0.502127
O O9 0.306400 0.000000 0.484146
O O10 0.058207 0.113396 0.772546
O O11 0.314244 0.104521 0.993625
O O12 0.406523 0.000000 0.002836
O O13 0.500000 0.898687 0.000000
O O14 0.000000 0.903684 0.500000
O O15 0.030437 0.000000 0.657505
#
# Coordination Sequence:
#
# PCOD9194934 Si02
#       6
#     8   8   8   8   8   8
#     4  10  25  40  60  90 123 158 217 248 308 380
#     4  11  23  43  64  89 122 169 205 259 312 370
#     4  10  21  39  60  89 120 159 208 249 297 369
#     4  11  21  39  60  88 123 159 198 263 305 367
#     4  10  20  34  58  90 125 159 202 256 312 365
#     4  10  21  36  60  91 123 159 199 247 311 371
#
# _framework density 19.027106
#
# number of rings (size 3 to 8) (size 9 to 14) (size 15 to 20)
#    0.000    1.667    1.667    2.500    7.000    2.667 
#    0.000   10.000    0.000    2.000    0.000    0.000 
#    0.000    0.000    0.000    0.000    0.000    0.000 
#
# Total GULP energy -133834.041150 kJ/mol
# GULP energy per Si atom -5576.418381 kJ/mol
# Density = 1.898380 g / cm^3
# Si number density = 19.027106 Si / 1000 Ang^3
#
#
#
# Elastic Constant Matrix: (Units=GPa)
#
#
# Indices 1 2 3 4 5 6 
#
# 1 69.4337 28.6539 21.9810 0.0000 5.7275 0.0000
# 2 28.6539 89.1309 24.7571 0.0000 3.2289 0.0000
# 3 21.9810 24.7571 54.1656 0.0000 2.5247 0.0000
# 4 0.0000 0.0000 0.0000 10.8881 0.0000 10.1269
# 5 5.7275 3.2289 2.5247 0.0000 28.3656 0.0000
# 6 0.0000 0.0000 0.0000 10.1269 0.0000 41.4247
#
#
#
# Elastic Compliance Matrix: (Units=1/GPa)
#
#
# Indices 1 2 3 4 5 6 
#
# 1 0.018039 -0.004242 -0.005256 0.000000 -0.002692 0.000000
# 2 -0.004242 0.013874 -0.004605 0.000000 -0.000313 0.000000
# 3 -0.005256 -0.004605 0.022720 0.000000 -0.000437 0.000000
# 4 0.000000 0.000000 0.000000 0.118872 0.000000 -0.029060
# 5 -0.002692 -0.000313 -0.000437 0.000000 0.035872 0.000000
# 6 0.000000 0.000000 0.000000 -0.029060 0.000000 0.031244
#
#
# Mechanical properties :
#
#
# Convention : Reuss Voigt Hill
#
# Bulk Modulus (GPa) = 37.84095 40.39046 39.11571
# Shear Modulus (GPa) = 18.00925 25.29156 21.65041
#
# Velocity S-wave (km/s) = 3.07987 3.64983 3.37690
# Velocity P-wave (km/s) = 5.70776 6.24785 5.98390
#
# Compressibility (1/GPa) = 0.02642640
#
# Stress axis : x y z
#
# Youngs Moduli (GPa) = 55.43652 72.07965 44.01388
#
# Poissons Ratio (x) = 0.30574 0.23134
# Poissons Ratio (y) = 0.23514 0.20269
# Poissons Ratio (z) = 0.29138 0.33194
#
# Static dielectric constant tensor:
#      x y z
#    x 1.992160 0.000000 -0.008330 
#    y 0.000000 1.705710 0.000000 
#    z -0.008330 0.000000 1.680490 
# 
# From -- ./inp_files/147931.got.cif
#   From: 2010.05.17/outbox.cif.g08.bks.cpg/sg12_74_cif.got.tgz:147931.got - 2010.06.03 13:09:07.
