data_PCOD9194516
_publ_section_title
;
Structure prediction by ZEFSAII (Michael W. Deem and Ramdas Pophale) SiO2 
 PCOD9194516
Probable space group: C 2/M
;
_chemical_formula_sum "Si O2"
_cell_formula_units_Z 56
_cell_length_a 33.939260
_cell_length_b 8.776413
_cell_length_c 12.606121
_cell_angle_alpha 90.000000
_cell_angle_beta 119.722371
_cell_angle_gamma 90.000000
_cell_volume 3260.916735
_symmetry_space_group_name_H-M "C 2/M"
_symmetry_group_IT_number 12
_symmetry_cell_setting 'monoclinic'
loop_
_space_group_symop_operation_xyz
x,y,z
-x,y,-z
-x,-y,-z
x,-y,z
1/2+x,1/2+y,z
1/2-x,1/2+y,-z
1/2-x,1/2-y,-z
1/2+x,1/2-y,z
loop_
_atom_site_type_symbol
_atom_site_label
_atom_site_fract_x
_atom_site_fract_y
_atom_site_fract_z
Si Si1 0.556213 0.681694 0.251009
Si Si2 0.109386 0.318447 0.523204
Si Si3 0.548165 0.318498 0.622126
Si Si4 0.110475 0.181507 0.105106
Si Si5 0.197475 0.818608 0.549222
Si Si6 0.458418 0.181573 0.153115
Si Si7 0.801990 0.318320 0.685681
O O1 0.554953 0.500000 0.267951
O O2 0.581102 0.760029 0.383303
O O3 0.583788 0.710656 0.180013
O O4 0.505383 0.744602 0.175239
O O5 0.106776 0.500000 0.525523
O O6 0.086893 0.244079 0.596397
O O7 0.160700 0.263371 0.572860
O O8 0.500000 0.289781 0.500000
O O9 0.552609 0.500000 0.642677
O O10 0.548169 0.236805 0.735202
O O11 0.160579 0.248841 0.187127
O O12 0.112143 0.000000 0.091576
O O13 0.082411 0.259377 0.974201
O O14 0.191678 0.757474 0.421498
O O15 0.249871 0.789686 0.649109
O O16 0.189349 0.000000 0.538731
O O17 0.461799 0.000000 0.153074
O O18 0.808151 0.500000 0.683861
#
# Coordination Sequence:
#
# PCOD9194516 Si02
#       7
#     8   8   8   8   8   8   8
#     4  11  22  37  56  82 116 155 193 230 282 341
#     4  12  23  35  58  87 117 149 189 238 285 334
#     4  11  23  40  62  82 110 151 193 236 285 338
#     4  11  23  38  58  82 117 157 193 232 284 346
#     4  10  20  35  55  83 117 152 187 231 288 342
#     4  12  25  39  58  83 115 151 195 240 281 336
#     4  10  20  34  56  84 115 149 191 237 281 334
#
# _framework density 17.173083999999999
#
# number of rings (size 3 to 8) (size 9 to 14) (size 15 to 20)
#    0.000    1.000    2.857    5.143    0.000    5.714 
#    0.000    0.000    0.000    0.857    0.000    0.000 
#    0.000    0.000    0.000    0.000    0.000    0.000 
#
# Total GULP energy -156587.301712 kJ/mol
# GULP energy per Si atom -5592.403633 kJ/mol
# Density = 1.713400 g / cm^3
# Si number density = 17.173084 Si / 1000 Ang^3
#
#
#
# Elastic Constant Matrix: (Units=GPa)
#
#
# Indices 1 2 3 4 5 6 
#
# 1 80.4615 32.3923 28.9149 0.0000 20.0849 0.0000
# 2 32.3923 66.7721 35.1553 0.0000 7.9877 0.0000
# 3 28.9149 35.1553 78.8082 0.0000 18.3742 0.0000
# 4 0.0000 0.0000 0.0000 26.8454 0.0000 5.1207
# 5 20.0849 7.9877 18.3742 0.0000 21.3728 0.0000
# 6 0.0000 0.0000 0.0000 5.1207 0.0000 27.5583
#
#
#
# Elastic Compliance Matrix: (Units=1/GPa)
#
#
# Indices 1 2 3 4 5 6 
#
# 1 0.019279 -0.007418 -0.000234 0.000000 -0.015144 0.000000
# 2 -0.007418 0.022429 -0.008698 0.000000 0.006066 0.000000
# 3 -0.000234 -0.008698 0.019818 0.000000 -0.013567 0.000000
# 4 0.000000 0.000000 0.000000 0.038619 0.000000 -0.007176
# 5 -0.015144 0.006066 -0.013567 0.000000 0.070416 0.000000
# 6 0.000000 0.000000 0.000000 -0.007176 0.000000 0.037620
#
#
# Mechanical properties :
#
#
# Convention : Reuss Voigt Hill
#
# Bulk Modulus (GPa) = 34.68994 46.55189 40.62091
# Shear Modulus (GPa) = 19.96101 23.79392 21.87747
#
# Velocity S-wave (km/s) = 3.41301 3.72632 3.57310
# Velocity P-wave (km/s) = 5.98127 6.75872 6.38184
#
# Compressibility (1/GPa) = 0.02882680
#
# Stress axis : x y z
#
# Youngs Moduli (GPa) = 51.87054 44.58603 50.45928
#
# Poissons Ratio (x) = 0.33073 0.01179
# Poissons Ratio (y) = 0.38477 0.43888
# Poissons Ratio (z) = 0.01212 0.38780
#
# Static dielectric constant tensor:
#      x y z
#    x 1.576120 0.000000 0.014470 
#    y 0.000000 1.569120 0.000000 
#    z 0.014470 0.000000 1.556170 
# 
# From -- ./inp_files/187154.got.cif
#   From: 2010.05.17/outbox.cif.g08.bks.cpg/sg12_94_cif.got.tgz:187154.got - 2010.06.03 13:09:07.
