data_PCOD9194243
_publ_section_title
;
Structure prediction by ZEFSAII (Michael W. Deem and Ramdas Pophale) SiO2 
 PCOD9194243
Probable space group: C 2/M
;
_chemical_formula_sum "Si O2"
_cell_formula_units_Z 44
_cell_length_a 13.460144
_cell_length_b 9.476418
_cell_length_c 19.770512
_cell_angle_alpha 90.000000
_cell_angle_beta 136.945063
_cell_angle_gamma 90.000000
_cell_volume 1721.635795
_symmetry_space_group_name_H-M "C 2/M"
_symmetry_group_IT_number 12
_symmetry_cell_setting 'monoclinic'
loop_
_space_group_symop_operation_xyz
x,y,z
-x,y,-z
-x,-y,-z
x,-y,z
1/2+x,1/2+y,z
1/2-x,1/2+y,-z
1/2-x,1/2-y,-z
1/2+x,1/2-y,z
loop_
_atom_site_type_symbol
_atom_site_label
_atom_site_fract_x
_atom_site_fract_y
_atom_site_fract_z
Si Si1 0.581915 0.159082 0.224271
Si Si2 0.698132 0.796733 0.823304
Si Si3 0.904888 0.000000 0.246554
Si Si4 0.388271 0.657490 0.551601
Si Si5 0.385686 0.338223 0.036002
Si Si6 0.349915 0.159217 0.357557
O O1 0.446306 0.153302 0.207853
O O2 0.520821 0.247409 0.130135
O O3 0.720716 0.243238 0.321843
O O4 0.628537 0.000000 0.229315
O O5 0.700937 0.627438 0.828563
O O6 0.686412 0.848044 0.740846
O O7 0.838648 0.847436 0.934766
O O8 0.018170 0.881607 0.335233
O O9 0.356659 0.500000 0.505770
O O10 0.250000 0.750000 0.500000
O O11 0.498436 0.757494 0.565970
O O12 0.399055 0.500000 0.069333
O O13 0.250000 0.250000 0.000000
O O14 0.350360 0.000000 0.385110
#
# Coordination Sequence:
#
# PCOD9194243 Si02
#       6
#     8   8   4   8   8   8
#     4  11  24  38  57  87 122 165 209 254 305 351
#     4  10  21  38  60  81 127 155 207 253 298 354
#     4   8  20  32  62  90 114 154 196 237 304 349
#     4   9  18  36  60  92 120 151 193 237 298 373
#     4  10  20  34  55  83 116 165 211 253 302 348
#     4  11  22  38  61  90 118 157 205 248 309 365
#
# _framework density 25.557089000000001
#
# number of rings (size 3 to 8) (size 9 to 14) (size 15 to 20)
#    0.545    1.455    0.000    4.909    8.909    0.727 
#    0.000    2.727    0.000    5.455    0.000   11.455 
#    0.000    0.000    0.000    0.000    0.000    0.000 
#
# Total GULP energy -122546.955531 kJ/mol
# GULP energy per Si atom -5570.316160 kJ/mol
# Density = 2.549892 g / cm^3
# Si number density = 25.557089 Si / 1000 Ang^3
#
#
#
# Elastic Constant Matrix: (Units=GPa)
#
#
# Indices 1 2 3 4 5 6 
#
# 1 81.9168 20.3523 36.5796 0.0000 10.5429 0.0000
# 2 20.3523 308.2963 63.6016 0.0000 28.4321 0.0000
# 3 36.5796 63.6016 110.2892 0.0000 34.8104 0.0000
# 4 0.0000 0.0000 0.0000 46.6113 0.0000 -3.2127
# 5 10.5429 28.4321 34.8104 0.0000 51.9698 0.0000
# 6 0.0000 0.0000 0.0000 -3.2127 0.0000 16.0409
#
#
#
# Elastic Compliance Matrix: (Units=1/GPa)
#
#
# Indices 1 2 3 4 5 6 
#
# 1 0.014335 0.000029 -0.004880 0.000000 0.000345 0.000000
# 2 0.000029 0.003705 -0.001908 0.000000 -0.000755 0.000000
# 3 -0.004880 -0.001908 0.014131 0.000000 -0.007432 0.000000
# 4 0.000000 0.000000 0.000000 0.021754 0.000000 0.004357
# 5 0.000345 -0.000755 -0.007432 0.000000 0.024563 0.000000
# 6 0.000000 0.000000 0.000000 0.004357 0.000000 0.063213
#
#
# Mechanical properties :
#
#
# Convention : Reuss Voigt Hill
#
# Bulk Modulus (GPa) = 53.60967 82.39660 68.00314
# Shear Modulus (GPa) = 30.97164 48.25565 39.61365
#
# Velocity S-wave (km/s) = 3.48496 4.35000 3.94128
# Velocity P-wave (km/s) = 6.10043 7.58553 6.88315
#
# Compressibility (1/GPa) = 0.01865335
#
# Stress axis : x y z
#
# Youngs Moduli (GPa) = 69.75882 269.90996 70.76415
#
# Poissons Ratio (x) = -0.00771 0.34532
# Poissons Ratio (y) = -0.00199 0.13500
# Poissons Ratio (z) = 0.34041 0.51493
#
# Static dielectric constant tensor:
#      x y z
#    x 2.138350 0.000000 -0.036160 
#    y 0.000000 2.017600 0.000000 
#    z -0.036160 0.000000 2.038710 
# 
# From -- ./inp_files/377842.got.cif
#   From: 2010.05.17/outbox.cif.g08.bks.cpg/sg12_189_cif.got.tgz:377842.got - 2010.06.03 13:09:07.
