data_PCOD9194871
_publ_section_title
;
Structure prediction by ZEFSAII (Michael W. Deem and Ramdas Pophale) SiO2 
 PCOD9194871
Probable space group: C 2/M
;
_chemical_formula_sum "Si O2"
_cell_formula_units_Z 64
_cell_length_a 21.785294
_cell_length_b 14.970795
_cell_length_c 12.472196
_cell_angle_alpha 90.000000
_cell_angle_beta 54.415301
_cell_angle_gamma 90.000000
_cell_volume 3308.099725
_symmetry_space_group_name_H-M "C 2/M"
_symmetry_group_IT_number 12
_symmetry_cell_setting 'monoclinic'
loop_
_space_group_symop_operation_xyz
x,y,z
-x,y,-z
-x,-y,-z
x,-y,z
1/2+x,1/2+y,z
1/2-x,1/2+y,-z
1/2-x,1/2-y,-z
1/2+x,1/2-y,z
loop_
_atom_site_type_symbol
_atom_site_label
_atom_site_fract_x
_atom_site_fract_y
_atom_site_fract_z
Si Si1 0.578324 0.391778 0.621705
Si Si2 0.666836 0.691028 0.966982
Si Si3 0.104917 0.604256 0.847759
Si Si4 0.081314 0.894028 0.872335
Si Si5 0.772753 0.100936 0.647232
Si Si6 0.532210 0.238553 0.351843
Si Si7 0.462448 0.170968 0.875135
Si Si8 0.693027 0.327163 0.169650
O O1 0.566953 0.500000 0.613077
O O2 0.582699 0.378011 0.744488
O O3 0.658116 0.360806 0.490075
O O4 0.514516 0.327526 0.637053
O O5 0.650559 0.644741 0.870951
O O6 0.733854 0.763094 0.897744
O O7 0.587173 0.739684 0.069649
O O8 0.683890 0.635816 0.058186
O O9 0.095626 0.500000 0.826668
O O10 0.188021 0.638123 0.733321
O O11 0.043392 0.663841 0.849419
O O12 0.087563 0.609511 0.993232
O O13 0.083789 0.000000 0.886634
O O14 0.000000 0.863165 0.000000
O O15 0.797918 0.102603 0.745347
O O16 0.764644 0.000000 0.616217
O O17 0.500000 0.210802 0.500000
O O18 0.525975 0.163523 0.264394
O O19 0.619439 0.267851 0.270324
#
# Coordination Sequence:
#
# PCOD9194871 Si02
#       8
#     8   8   8   8   8   8   8   8
#     4  10  22  38  57  82 115 152 190 230 277 339
#     4  10  21  34  57  79 115 144 182 233 283 329
#     4  10  21  38  62  87 110 142 188 239 287 330
#     4  10  21  37  57  82 111 148 191 231 278 337
#     4  10  20  36  57  82 113 146 187 232 278 331
#     4  11  22  36  55  80 116 150 189 227 281 335
#     4  10  20  34  58  84 110 141 185 236 282 327
#     4  10  20  36  51  80 110 148 184 227 275 333
#
# _framework density 19.346456
#
# number of rings (size 3 to 8) (size 9 to 14) (size 15 to 20)
#    0.000    1.875    2.500    2.250    5.250    1.250 
#    2.250    1.250    0.000    1.500    0.000    0.000 
#    0.000    0.000    0.000    0.000    0.000    0.000 
#
# Total GULP energy -178150.870070 kJ/mol
# GULP energy per Si atom -5567.214690 kJ/mol
# Density = 1.930242 g / cm^3
# Si number density = 19.346456 Si / 1000 Ang^3
#
#
#
# Elastic Constant Matrix: (Units=GPa)
#
#
# Indices 1 2 3 4 5 6 
#
# 1 120.4604 29.3874 51.7684 0.0000 -7.3761 0.0000
# 2 29.3874 26.9690 19.7093 0.0000 -1.4194 0.0000
# 3 51.7684 19.7093 111.7565 0.0000 0.0611 0.0000
# 4 0.0000 0.0000 0.0000 20.5936 0.0000 1.3917
# 5 -7.3761 -1.4194 0.0611 0.0000 33.4876 0.0000
# 6 0.0000 0.0000 0.0000 1.3917 0.0000 12.6920
#
#
#
# Elastic Compliance Matrix: (Units=1/GPa)
#
#
# Indices 1 2 3 4 5 6 
#
# 1 0.012842 -0.010929 -0.004022 0.000000 0.002373 0.000000
# 2 -0.010929 0.051977 -0.004104 0.000000 -0.000197 0.000000
# 3 -0.004022 -0.004104 0.011536 0.000000 -0.001081 0.000000
# 4 0.000000 0.000000 0.000000 0.048921 0.000000 -0.005364
# 5 0.002373 -0.000197 -0.001081 0.000000 0.030378 0.000000
# 6 0.000000 0.000000 0.000000 -0.005364 0.000000 0.079378
#
#
# Mechanical properties :
#
#
# Convention : Reuss Voigt Hill
#
# Bulk Modulus (GPa) = 26.14781 51.21290 38.68035
# Shear Modulus (GPa) = 17.48920 23.90933 20.69927
#
# Velocity S-wave (km/s) = 3.00992 3.51928 3.27452
# Velocity P-wave (km/s) = 5.06205 6.56069 5.85948
#
# Compressibility (1/GPa) = 0.03824413
#
# Stress axis : x y z
#
# Youngs Moduli (GPa) = 77.87202 19.23918 86.68709
#
# Poissons Ratio (x) = 0.21026 0.34870
# Poissons Ratio (y) = 0.85103 0.35578
# Poissons Ratio (z) = 0.31324 0.07896
#
# Static dielectric constant tensor:
#      x y z
#    x 1.689630 0.000000 0.013300 
#    y 0.000000 1.684340 0.000000 
#    z 0.013300 0.000000 1.730460 
# 
# From -- ./inp_files/168462.got.cif
#   From: 2010.05.17/outbox.cif.g08.bks.cpg/sg12_85_cif.got.tgz:168462.got - 2010.06.03 13:09:07.
