data_PCOD9194769
_publ_section_title
;
Structure prediction by ZEFSAII (Michael W. Deem and Ramdas Pophale) SiO2 
 PCOD9194769
Probable space group: C 2/M
;
_chemical_formula_sum "Si O2"
_cell_formula_units_Z 48
_cell_length_a 21.648040
_cell_length_b 8.979390
_cell_length_c 12.252316
_cell_angle_alpha 90.000000
_cell_angle_beta 72.667996
_cell_angle_gamma 90.000000
_cell_volume 2273.539759
_symmetry_space_group_name_H-M "C 2/M"
_symmetry_group_IT_number 12
_symmetry_cell_setting 'monoclinic'
loop_
_space_group_symop_operation_xyz
x,y,z
-x,y,-z
-x,-y,-z
x,-y,z
1/2+x,1/2+y,z
1/2-x,1/2+y,-z
1/2-x,1/2-y,-z
1/2+x,1/2-y,z
loop_
_atom_site_type_symbol
_atom_site_label
_atom_site_fract_x
_atom_site_fract_y
_atom_site_fract_z
Si Si1 0.229470 0.176097 0.624343
Si Si2 0.923395 0.830855 0.567137
Si Si3 0.547809 0.823562 0.223292
Si Si4 0.102005 0.324154 0.644015
Si Si5 0.352622 0.673579 0.971623
Si Si6 0.749388 0.672644 0.173495
O O1 0.250000 0.250000 0.500000
O O2 0.155361 0.229179 0.678667
O O3 0.267703 0.239726 0.707819
O O4 0.234921 0.000000 0.615031
O O5 0.921806 0.753160 0.685162
O O6 0.896380 0.733124 0.482114
O O7 0.000000 0.842407 0.500000
O O8 0.896632 0.000000 0.583326
O O9 0.470531 0.801089 0.272791
O O10 0.581224 0.750424 0.100924
O O11 0.560368 0.000000 0.219122
O O12 0.116628 0.500000 0.640414
O O13 0.361278 0.500000 0.993516
O O14 0.305156 0.683265 0.890949
O O15 0.313890 0.757667 0.086464
O O16 0.759463 0.500000 0.194643
#
# Coordination Sequence:
#
# PCOD9194769 Si02
#       6
#     8   8   8   8   8   8
#     4  12  26  43  64  88 120 161 203 247 300 361
#     4   9  17  30  50  78 114 153 193 240 291 346
#     4  10  20  34  57  87 120 157 198 246 301 356
#     4  10  21  38  57  83 119 158 200 247 299 357
#     4  10  21  38  64  93 122 156 199 249 301 355
#     4  10  22  42  64  89 122 158 201 249 299 355
#
# _framework density 21.112452000000001
#
# number of rings (size 3 to 8) (size 9 to 14) (size 15 to 20)
#    0.000    1.833    0.000    4.000    2.333    6.000 
#    0.000    0.833    0.000    5.000    0.000    0.000 
#    0.000    0.000    0.000    0.000    0.000    0.000 
#
# Total GULP energy -134231.531529 kJ/mol
# GULP energy per Si atom -5592.980480 kJ/mol
# Density = 2.106440 g / cm^3
# Si number density = 21.112452 Si / 1000 Ang^3
#
#
#
# Elastic Constant Matrix: (Units=GPa)
#
#
# Indices 1 2 3 4 5 6 
#
# 1 43.0149 32.2560 20.2566 0.0000 -8.0528 0.0000
# 2 32.2560 167.9018 58.1836 0.0000 -11.2279 0.0000
# 3 20.2566 58.1836 87.9795 0.0000 -16.0373 0.0000
# 4 0.0000 0.0000 0.0000 33.9120 0.0000 -0.5422
# 5 -8.0528 -11.2279 -16.0373 0.0000 34.5200 0.0000
# 6 0.0000 0.0000 0.0000 -0.5422 0.0000 28.7474
#
#
#
# Elastic Compliance Matrix: (Units=1/GPa)
#
#
# Indices 1 2 3 4 5 6 
#
# 1 0.028551 -0.004142 -0.003131 0.000000 0.003858 0.000000
# 2 -0.004142 0.008328 -0.004628 0.000000 -0.000408 0.000000
# 3 -0.003131 -0.004628 0.016104 0.000000 0.005246 0.000000
# 4 0.000000 0.000000 0.000000 0.029497 0.000000 0.000556
# 5 0.003858 -0.000408 0.005246 0.000000 0.032173 0.000000
# 6 0.000000 0.000000 0.000000 0.000556 0.000000 0.034796
#
#
# Mechanical properties :
#
#
# Convention : Reuss Voigt Hill
#
# Bulk Modulus (GPa) = 34.26954 57.80984 46.03969
# Shear Modulus (GPa) = 27.32554 31.98254 29.65404
#
# Velocity S-wave (km/s) = 3.60152 3.89635 3.75183
# Velocity P-wave (km/s) = 5.79325 6.90532 6.37358
#
# Compressibility (1/GPa) = 0.02918043
#
# Stress axis : x y z
#
# Youngs Moduli (GPa) = 35.02564 120.07409 62.09510
#
# Poissons Ratio (x) = 0.49733 0.19442
# Poissons Ratio (y) = 0.14507 0.28740
# Poissons Ratio (z) = 0.10967 0.55575
#
# Static dielectric constant tensor:
#      x y z
#    x 1.814750 0.000000 -0.025030 
#    y 0.000000 1.708100 0.000000 
#    z -0.025030 0.000000 1.752260 
# 
# From -- ./inp_files/172914.got.cif
#   From: 2010.05.17/outbox.cif.g08.bks.cpg/sg12_87_cif.got.tgz:172914.got - 2010.06.03 13:09:07.
