data_PCOD9194740
_publ_section_title
;
Structure prediction by ZEFSAII (Michael W. Deem and Ramdas Pophale) SiO2 
 PCOD9194740
Probable space group: C 2/M
;
_chemical_formula_sum "Si O2"
_cell_formula_units_Z 56
_cell_length_a 20.897116
_cell_length_b 8.685273
_cell_length_c 18.160771
_cell_angle_alpha 90.000000
_cell_angle_beta 116.492440
_cell_angle_gamma 90.000000
_cell_volume 2950.012519
_symmetry_space_group_name_H-M "C 2/M"
_symmetry_group_IT_number 12
_symmetry_cell_setting 'monoclinic'
loop_
_space_group_symop_operation_xyz
x,y,z
-x,y,-z
-x,-y,-z
x,-y,z
1/2+x,1/2+y,z
1/2-x,1/2+y,-z
1/2-x,1/2-y,-z
1/2+x,1/2-y,z
loop_
_atom_site_type_symbol
_atom_site_label
_atom_site_fract_x
_atom_site_fract_y
_atom_site_fract_z
Si Si1 0.313326 0.685550 0.310712
Si Si2 0.655668 0.315478 0.249165
Si Si3 0.579769 0.687754 0.061011
Si Si4 0.076467 0.814436 0.504466
Si Si5 0.087765 0.185931 0.777275
Si Si6 0.829281 0.185891 0.032426
Si Si7 0.931513 0.682913 0.661402
O O1 0.304840 0.500000 0.305572
O O2 0.236335 0.762648 0.275451
O O3 0.361535 0.726668 0.406155
O O4 0.357815 0.728316 0.260436
O O5 0.652624 0.500000 0.251608
O O6 0.606821 0.263839 0.155009
O O7 0.624404 0.246875 0.307967
O O8 0.578975 0.500000 0.060601
O O9 0.500000 0.739242 0.000000
O O10 0.634146 0.736603 0.024879
O O11 0.085430 0.742121 0.429165
O O12 0.000000 0.768829 0.500000
O O13 0.075470 0.000000 0.496362
O O14 0.121756 0.231009 0.872867
O O15 0.010394 0.256932 0.723417
O O16 0.079871 0.000000 0.772019
O O17 0.825996 0.000000 0.030598
O O18 0.750000 0.250000 0.000000
O O19 0.930724 0.500000 0.662173
#
# Coordination Sequence:
#
# PCOD9194740 Si02
#       7
#     8   8   8   8   8   8   8
#     4  10  21  38  62  89 120 154 193 241 291 351
#     4  11  23  39  60  85 120 161 199 241 297 356
#     4   9  18  35  58  83 111 151 200 243 282 338
#     4  10  20  40  66  89 117 155 195 236 291 358
#     4  10  20  38  62  87 117 159 200 239 296 360
#     4  10  20  34  57  86 118 152 192 242 294 350
#     4  12  25  39  60  89 120 151 196 252 295 345
#
# _framework density 18.982970999999999
#
# number of rings (size 3 to 8) (size 9 to 14) (size 15 to 20)
#    0.000    1.714    1.429    3.429    0.000    4.857 
#    0.000    0.714    0.000    3.000    0.000    0.000 
#    0.000    0.000    0.000    0.000    0.000    0.000 
#
# Total GULP energy -156503.435065 kJ/mol
# GULP energy per Si atom -5589.408395 kJ/mol
# Density = 1.893976 g / cm^3
# Si number density = 18.982971 Si / 1000 Ang^3
#
#
#
# Elastic Constant Matrix: (Units=GPa)
#
#
# Indices 1 2 3 4 5 6 
#
# 1 74.6625 15.1968 0.5630 0.0000 -8.7135 0.0000
# 2 15.1968 22.5551 21.2429 0.0000 -3.2161 0.0000
# 3 0.5630 21.2429 80.7190 0.0000 -11.9546 0.0000
# 4 0.0000 0.0000 0.0000 4.7842 0.0000 12.7402
# 5 -8.7135 -3.2161 -11.9546 0.0000 37.0812 0.0000
# 6 0.0000 0.0000 0.0000 12.7402 0.0000 30.8225
#
#
#
# Elastic Compliance Matrix: (Units=1/GPa)
#
#
# Indices 1 2 3 4 5 6 
#
# 1 0.016883 -0.014960 0.004426 0.000000 0.004097 0.000000
# 2 -0.014960 0.072202 -0.019417 0.000000 -0.003513 0.000000
# 3 0.004426 -0.019417 0.018244 0.000000 0.005237 0.000000
# 4 0.000000 0.000000 0.000000 -2.075533 0.000000 0.857901
# 5 0.004097 -0.003513 0.005237 0.000000 0.029314 0.000000
# 6 0.000000 0.000000 0.000000 0.857901 0.000000 -0.322161
#
#
# Mechanical properties :
#
#
# Convention : Reuss Voigt Hill
#
# Bulk Modulus (GPa) = 21.08522 27.99356 24.53939
# Shear Modulus (GPa) = -2.28797 23.93317 10.82260
#
# Velocity S-wave (km/s) = -1.09904 3.55458 2.39031
# Velocity P-wave (km/s) = 3.08562 5.62365 4.53577
#
# Compressibility (1/GPa) = 0.04742658
#
# Stress axis : x y z
#
# Youngs Moduli (GPa) = 59.23040 13.85000 54.81383
#
# Poissons Ratio (x) = 0.20719 -0.24260
# Poissons Ratio (y) = 0.88607 1.06435
# Poissons Ratio (z) = -0.26215 0.26893
#
# Static dielectric constant tensor:
#      x y z
#    x 1.624550 0.000000 -0.005520 
#    y 0.000000 1.643020 0.000000 
#    z -0.005520 0.000000 1.642280 
# 
# From -- ./inp_files/281620.got.cif
#   From: 2010.05.17/outbox.cif.g08.bks.cpg/sg12_141_cif.got.tgz:281620.got - 2010.06.03 13:09:07.
