data_PCOD9194743
_publ_section_title
;
Structure prediction by ZEFSAII (Michael W. Deem and Ramdas Pophale) SiO2 
 PCOD9194743
Probable space group: C 2/M
;
_chemical_formula_sum "Si O2"
_cell_formula_units_Z 56
_cell_length_a 25.757792
_cell_length_b 8.840064
_cell_length_c 14.811938
_cell_angle_alpha 90.000000
_cell_angle_beta 121.812684
_cell_angle_gamma 90.000000
_cell_volume 2866.027782
_symmetry_space_group_name_H-M "C 2/M"
_symmetry_group_IT_number 12
_symmetry_cell_setting 'monoclinic'
loop_
_space_group_symop_operation_xyz
x,y,z
-x,y,-z
-x,-y,-z
x,-y,z
1/2+x,1/2+y,z
1/2-x,1/2+y,-z
1/2-x,1/2-y,-z
1/2+x,1/2-y,z
loop_
_atom_site_type_symbol
_atom_site_label
_atom_site_fract_x
_atom_site_fract_y
_atom_site_fract_z
Si Si1 0.458484 0.318054 0.375313
Si Si2 0.177113 0.817752 0.687498
Si Si3 0.226045 0.681797 0.070549
Si Si4 0.611631 0.680795 0.218892
Si Si5 0.508203 0.181231 0.235491
Si Si6 0.751731 0.180953 0.600916
Si Si7 0.909343 0.317713 0.992376
O O1 0.500000 0.281986 0.500000
O O2 0.459812 0.500000 0.363508
O O3 0.389152 0.273431 0.335935
O O4 0.483462 0.241215 0.307915
O O5 0.228346 0.773714 0.807464
O O6 0.197103 0.744171 0.612066
O O7 0.177578 0.000000 0.677874
O O8 0.227026 0.500000 0.065025
O O9 0.156931 0.727598 0.029630
O O10 0.250000 0.750000 0.000000
O O11 0.607232 0.500000 0.215228
O O12 0.572630 0.748024 0.265446
O O13 0.682922 0.723609 0.294351
O O14 0.585078 0.745363 0.100995
O O15 0.512514 0.000000 0.241613
O O16 0.460598 0.224218 0.112112
O O17 0.750000 0.250000 0.500000
O O18 0.748674 0.000000 0.593623
O O19 0.910782 0.500000 0.983150
#
# Coordination Sequence:
#
# PCOD9194743 Si02
#       7
#     8   8   8   8   8   8   8
#     4  10  23  42  63  89 123 161 204 254 305 362
#     4  10  21  40  64  89 121 162 201 247 306 359
#     4  10  20  34  57  86 119 158 200 245 295 355
#     4  11  24  41  63  92 124 161 204 251 304 362
#     4  11  24  40  62  91 125 165 205 250 305 362
#     4  11  25  42  64  93 123 159 202 253 308 362
#     4  10  21  39  60  88 125 161 200 250 306 360
#
# _framework density 19.539238000000001
#
# number of rings (size 3 to 8) (size 9 to 14) (size 15 to 20)
#    0.000    1.571    1.429    2.571    2.000    6.571 
#    0.000    0.000    0.000    0.000    0.000    0.000 
#    0.000    0.000    0.000    0.000    0.000    0.000 
#
# Total GULP energy -156557.536255 kJ/mol
# GULP energy per Si atom -5591.340581 kJ/mol
# Density = 1.949477 g / cm^3
# Si number density = 19.539238 Si / 1000 Ang^3
#
#
#
# Elastic Constant Matrix: (Units=GPa)
#
#
# Indices 1 2 3 4 5 6 
#
# 1 145.2021 32.3167 29.9521 0.0000 -21.4074 0.0000
# 2 32.3167 20.8045 26.0817 0.0000 -7.4057 0.0000
# 3 29.9521 26.0817 69.2359 0.0000 -20.5664 0.0000
# 4 0.0000 0.0000 0.0000 26.0959 0.0000 -14.7467
# 5 -21.4074 -7.4057 -20.5664 0.0000 40.6399 0.0000
# 6 0.0000 0.0000 0.0000 -14.7467 0.0000 33.8694
#
#
#
# Elastic Compliance Matrix: (Units=1/GPa)
#
#
# Indices 1 2 3 4 5 6 
#
# 1 0.011504 -0.022175 0.004680 0.000000 0.004387 0.000000
# 2 -0.022175 0.133853 -0.043610 0.000000 -0.009359 0.000000
# 3 0.004680 -0.043610 0.032034 0.000000 0.010730 0.000000
# 4 0.000000 0.000000 0.000000 0.050826 0.000000 0.022129
# 5 0.004387 -0.009359 0.010730 0.000000 0.030642 0.000000
# 6 0.000000 0.000000 0.000000 0.022129 0.000000 0.039160
#
#
# Mechanical properties :
#
#
# Convention : Reuss Voigt Hill
#
# Bulk Modulus (GPa) = 18.12232 45.77149 31.94691
# Shear Modulus (GPa) = 11.39933 29.91383 20.65658
#
# Velocity S-wave (km/s) = 2.41800 3.91700 3.25497
# Velocity P-wave (km/s) = 4.13408 6.62823 5.52377
#
# Compressibility (1/GPa) = 0.05518058
#
# Stress axis : x y z
#
# Youngs Moduli (GPa) = 86.92894 7.47090 31.21642
#
# Poissons Ratio (x) = 0.16566 -0.14609
# Poissons Ratio (y) = 1.92761 1.36136
# Poissons Ratio (z) = -0.40682 0.32581
#
# Static dielectric constant tensor:
#      x y z
#    x 1.667420 0.000000 0.022510 
#    y 0.000000 1.652970 0.000000 
#    z 0.022510 0.000000 1.666970 
# 
# From -- ./inp_files/239027.got.cif
#   From: 2010.05.17/outbox.cif.g08.bks.cpg/sg12_120_cif.got.tgz:239027.got - 2010.06.03 13:09:07.
