data_PCOD9194906
_publ_section_title
;
Structure prediction by ZEFSAII (Michael W. Deem and Ramdas Pophale) SiO2 
 PCOD9194906
Probable space group: C 2/M
;
_chemical_formula_sum "Si O2"
_cell_formula_units_Z 64
_cell_length_a 14.387738
_cell_length_b 11.590493
_cell_length_c 25.900764
_cell_angle_alpha 90.000000
_cell_angle_beta 44.954224
_cell_angle_gamma 90.000000
_cell_volume 3051.720487
_symmetry_space_group_name_H-M "C 2/M"
_symmetry_group_IT_number 12
_symmetry_cell_setting 'monoclinic'
loop_
_space_group_symop_operation_xyz
x,y,z
-x,y,-z
-x,-y,-z
x,-y,z
1/2+x,1/2+y,z
1/2-x,1/2+y,-z
1/2-x,1/2-y,-z
1/2+x,1/2-y,z
loop_
_atom_site_type_symbol
_atom_site_label
_atom_site_fract_x
_atom_site_fract_y
_atom_site_fract_z
Si Si1 0.863168 0.368980 0.080506
Si Si2 0.789275 0.875194 0.965386
Si Si3 0.231476 0.131846 0.575697
Si Si4 0.113885 0.133131 0.506071
Si Si5 0.800151 0.722244 0.771476
Si Si6 0.828357 0.871657 0.658135
Si Si7 0.430663 0.770817 0.281390
Si Si8 0.439059 0.379387 0.181334
O O1 0.892216 0.500000 0.087557
O O2 0.759740 0.376445 0.074407
O O3 0.791553 0.298193 0.153854
O O4 0.000000 0.325591 0.000000
O O5 0.946351 0.875317 0.905337
O O6 0.742335 0.000000 0.006382
O O7 0.750000 0.750000 0.000000
O O8 0.165114 0.130221 0.545455
O O9 0.328335 0.243704 0.536557
O O10 0.124935 0.167655 0.660789
O O11 0.282386 0.000000 0.565260
O O12 0.956044 0.142993 0.572133
O O13 0.146581 0.000000 0.474166
O O14 0.835132 0.789078 0.704841
O O15 0.701239 0.626040 0.790145
O O16 0.935076 0.685317 0.745903
O O17 0.693701 0.853616 0.679315
O O18 0.832061 0.000000 0.677807
O O19 0.459300 0.722756 0.213336
O O20 0.454157 0.500000 0.204522
#
# Coordination Sequence:
#
# PCOD9194906 Si02
#       8
#     8   8   8   8   8   8   8   8
#     4  10  20  34  58  88 116 154 203 251 298 356
#     4  10  20  37  60  87 121 158 200 251 304 364
#     4  10  20  36  62  90 120 159 207 253 303 363
#     4   9  19  38  61  87 120 160 205 250 304 363
#     4  11  21  38  62  87 119 157 201 255 305 362
#     4  10  22  39  62  90 120 159 205 252 302 362
#     4  11  22  37  61  90 120 158 204 255 303 365
#     4  10  22  39  59  86 121 159 199 250 311 366
#
# _framework density 20.971778
#
# number of rings (size 3 to 8) (size 9 to 14) (size 15 to 20)
#    0.000    1.875    2.500    1.500    0.000    2.500 
#    0.000    8.125    0.000    2.250    0.000    0.000 
#    0.000    0.000    0.000    0.000    0.000    0.000 
#
# Total GULP energy -178223.131797 kJ/mol
# GULP energy per Si atom -5569.472869 kJ/mol
# Density = 2.092404 g / cm^3
# Si number density = 20.971778 Si / 1000 Ang^3
#
#
#
# Elastic Constant Matrix: (Units=GPa)
#
#
# Indices 1 2 3 4 5 6 
#
# 1 99.5179 17.6263 10.8404 0.0000 -28.8762 0.0000
# 2 17.6263 120.2290 38.2076 0.0000 -6.8793 0.0000
# 3 10.8404 38.2076 75.2045 0.0000 -15.7617 0.0000
# 4 0.0000 0.0000 0.0000 16.7650 0.0000 -2.4390
# 5 -28.8762 -6.8793 -15.7617 0.0000 38.9211 0.0000
# 6 0.0000 0.0000 0.0000 -2.4390 0.0000 19.5802
#
#
#
# Elastic Compliance Matrix: (Units=1/GPa)
#
#
# Indices 1 2 3 4 5 6 
#
# 1 0.013086 -0.001683 0.001029 0.000000 0.009828 0.000000
# 2 -0.001683 0.010139 -0.005239 0.000000 -0.001578 0.000000
# 3 0.001029 -0.005239 0.017240 0.000000 0.006819 0.000000
# 4 0.000000 0.000000 0.000000 0.060749 0.000000 0.007567
# 5 0.009828 -0.001578 0.006819 0.000000 0.035467 0.000000
# 6 0.000000 0.000000 0.000000 0.007567 0.000000 0.052015
#
#
# Mechanical properties :
#
#
# Convention : Reuss Voigt Hill
#
# Bulk Modulus (GPa) = 34.87089 47.58888 41.22988
# Shear Modulus (GPa) = 23.80479 30.27172 27.03825
#
# Velocity S-wave (km/s) = 3.37276 3.80340 3.59453
# Velocity P-wave (km/s) = 5.64189 6.48297 6.07700
#
# Compressibility (1/GPa) = 0.02867722
#
# Stress axis : x y z
#
# Youngs Moduli (GPa) = 76.41653 98.63032 58.00573
#
# Poissons Ratio (x) = 0.16600 -0.05966
# Poissons Ratio (y) = 0.12861 0.30391
# Poissons Ratio (z) = -0.07860 0.51675
#
# Static dielectric constant tensor:
#      x y z
#    x 1.770580 0.000000 -0.011250 
#    y 0.000000 1.798420 0.000000 
#    z -0.011250 0.000000 1.780040 
# 
# From -- ./inp_files/361030.got.cif
#   From: 2010.05.17/outbox.cif.g08.bks.cpg/sg12_181_cif.got.tgz:361030.got - 2010.06.03 13:09:07.
