data_PCOD9194111
_publ_section_title
;
Structure prediction by ZEFSAII (Michael W. Deem and Ramdas Pophale) SiO2 
 PCOD9194111
Probable space group: C 2/M
;
_chemical_formula_sum "Si O2"
_cell_formula_units_Z 48
_cell_length_a 26.341548
_cell_length_b 7.702752
_cell_length_c 15.160509
_cell_angle_alpha 90.000000
_cell_angle_beta 138.959088
_cell_angle_gamma 90.000000
_cell_volume 2019.762893
_symmetry_space_group_name_H-M "C 2/M"
_symmetry_group_IT_number 12
_symmetry_cell_setting 'monoclinic'
loop_
_space_group_symop_operation_xyz
x,y,z
-x,y,-z
-x,-y,-z
x,-y,z
1/2+x,1/2+y,z
1/2-x,1/2+y,-z
1/2-x,1/2-y,-z
1/2+x,1/2-y,z
loop_
_atom_site_type_symbol
_atom_site_label
_atom_site_fract_x
_atom_site_fract_y
_atom_site_fract_z
Si Si1 0.328842 0.709836 0.235900
Si Si2 0.418792 0.709875 0.846817
Si Si3 0.580181 0.713166 0.812238
Si Si4 0.661070 0.706142 0.088400
Si Si5 0.923449 0.199114 0.521825
Si Si6 0.169135 0.302266 0.438492
O O1 0.330152 0.500000 0.239332
O O2 0.353171 0.763294 0.169844
O O3 0.245384 0.765083 0.159959
O O4 0.391299 0.775587 0.389219
O O5 0.418049 0.500000 0.834869
O O6 0.354528 0.770298 0.833618
O O7 0.396557 0.782243 0.722626
O O8 0.500000 0.754347 0.000000
O O9 0.577762 0.500000 0.813144
O O10 0.499450 0.776382 0.666489
O O11 0.600764 0.774946 0.936820
O O12 0.647971 0.500000 0.077522
O O13 0.856828 0.200792 0.508605
O O14 0.944185 0.000000 0.528129
O O15 0.176016 0.500000 0.476246
O O16 0.250000 0.250000 0.500000
#
# Coordination Sequence:
#
# PCOD9194111 Si02
#       6
#     8   8   8   8   8   8
#     4  10  20  34  56  84 112 144 183 228 275 327
#     4  10  21  39  62  86 114 151 192 234 285 343
#     4   9  18  35  58  83 110 144 186 225 269 331
#     4  10  20  34  55  81 111 147 183 223 273 332
#     4  10  20  37  60  83 109 144 187 234 281 330
#     4  12  25  40  59  84 115 151 192 238 287 339
#
# _framework density 23.765166000000001
#
# number of rings (size 3 to 8) (size 9 to 14) (size 15 to 20)
#    0.000    1.833    0.000    4.500    0.000    9.000 
#    0.000    3.333    0.000    2.000    0.000    0.000 
#    0.000    0.000    0.000    0.000    0.000    0.000 
#
# Total GULP energy -134216.428140 kJ/mol
# GULP energy per Si atom -5592.351173 kJ/mol
# Density = 2.371108 g / cm^3
# Si number density = 23.765166 Si / 1000 Ang^3
#
#
#
# Elastic Constant Matrix: (Units=GPa)
#
#
# Indices 1 2 3 4 5 6 
#
# 1 66.2641 -8.5951 -17.1510 0.0000 -9.1962 0.0000
# 2 -8.5951 44.3102 -3.9688 0.0000 -3.0692 0.0000
# 3 -17.1510 -3.9688 65.6111 0.0000 -7.7176 0.0000
# 4 0.0000 0.0000 0.0000 5.5470 0.0000 5.3801
# 5 -9.1962 -3.0692 -7.7176 0.0000 45.7611 0.0000
# 6 0.0000 0.0000 0.0000 5.3801 0.0000 19.7745
#
#
#
# Elastic Compliance Matrix: (Units=1/GPa)
#
#
# Indices 1 2 3 4 5 6 
#
# 1 0.017714 0.004254 0.005448 0.000000 0.004764 0.000000
# 2 0.004254 0.023857 0.002901 0.000000 0.002944 0.000000
# 3 0.005448 0.002901 0.017337 0.000000 0.004213 0.000000
# 4 0.000000 0.000000 0.000000 0.244903 0.000000 -0.066631
# 5 0.004764 0.002944 0.004213 0.000000 0.023718 0.000000
# 6 0.000000 0.000000 0.000000 -0.066631 0.000000 0.068699
#
#
# Mechanical properties :
#
#
# Convention : Reuss Voigt Hill
#
# Bulk Modulus (GPa) = 11.88839 12.97286 12.43063
# Shear Modulus (GPa) = 12.52948 27.94322 20.23635
#
# Velocity S-wave (km/s) = 2.29862 3.43272 2.92124
# Velocity P-wave (km/s) = 3.47249 4.60240 4.07678
#
# Compressibility (1/GPa) = 0.08411568
#
# Stress axis : x y z
#
# Youngs Moduli (GPa) = 56.45180 41.91614 57.68137
#
# Poissons Ratio (x) = -0.17832 -0.31426
# Poissons Ratio (y) = -0.24015 -0.16736
# Poissons Ratio (z) = -0.30756 -0.12162
#
# Static dielectric constant tensor:
#      x y z
#    x 1.894920 0.000000 0.022870 
#    y 0.000000 1.917380 0.000000 
#    z 0.022870 0.000000 1.898010 
# 
# From -- ./inp_files/244669.got.cif
#   From: 2010.05.17/outbox.cif.g08.bks.cpg/sg12_123_cif.got.tgz:244669.got - 2010.06.03 13:09:07.
