data_PCOD9194055
_publ_section_title
;
Structure prediction by ZEFSAII (Michael W. Deem and Ramdas Pophale) SiO2 
 PCOD9194055
Probable space group: C 2/M
;
_chemical_formula_sum "Si O2"
_cell_formula_units_Z 64
_cell_length_a 18.773766
_cell_length_b 7.653660
_cell_length_c 31.022160
_cell_angle_alpha 90.000000
_cell_angle_beta 42.516872
_cell_angle_gamma 90.000000
_cell_volume 3012.419630
_symmetry_space_group_name_H-M "C 2/M"
_symmetry_group_IT_number 12
_symmetry_cell_setting 'monoclinic'
loop_
_space_group_symop_operation_xyz
x,y,z
-x,y,-z
-x,-y,-z
x,-y,z
1/2+x,1/2+y,z
1/2-x,1/2+y,-z
1/2-x,1/2-y,-z
1/2+x,1/2-y,z
loop_
_atom_site_type_symbol
_atom_site_label
_atom_site_fract_x
_atom_site_fract_y
_atom_site_fract_z
Si Si1 0.327573 0.203094 0.300773
Si Si2 0.729139 0.210220 0.184470
Si Si3 0.870846 0.791512 0.935554
Si Si4 0.347921 0.710099 0.685505
Si Si5 0.561842 0.204802 0.190171
Si Si6 0.734750 0.706046 0.577034
Si Si7 0.584522 0.288613 0.566602
Si Si8 0.467515 0.713840 0.062618
O O1 0.243209 0.280602 0.305202
O O2 0.444771 0.282090 0.247462
O O3 0.282434 0.210594 0.369025
O O4 0.339965 0.000000 0.282341
O O5 0.682009 0.251775 0.252061
O O6 0.650561 0.278860 0.182545
O O7 0.849102 0.273593 0.126072
O O8 0.735324 0.000000 0.177398
O O9 0.902415 0.718270 0.875039
O O10 0.948896 0.728349 0.938566
O O11 0.882202 0.000000 0.927958
O O12 0.750000 0.750000 0.000000
O O13 0.352065 0.500000 0.678321
O O14 0.464885 0.775081 0.621935
O O15 0.553663 0.000000 0.205644
O O16 0.717649 0.500000 0.590017
O O17 0.650587 0.772378 0.579046
O O18 0.848806 0.735222 0.504916
O O19 0.584664 0.500000 0.567746
O O20 0.468642 0.500000 0.062488
O O21 0.500000 0.767828 0.000000
#
# Coordination Sequence:
#
# PCOD9194055 Si02
#       8
#     8   8   8   8   8   8   8   8
#     4  10  21  36  54  78 110 144 174 212 266 321
#     4  10  20  35  57  81 105 138 178 220 264 309
#     4  11  22  36  57  82 109 142 178 219 265 312
#     4  10  21  36  54  77 107 142 176 214 263 319
#     4  10  21  37  57  81 109 141 177 217 263 315
#     4  10  20  34  55  80 104 135 178 225 265 308
#     4   9  19  36  55  75 103 140 178 216 264 318
#     4   9  18  34  55  78 106 140 177 215 257 308
#
# _framework density 21.245380000000001
#
# number of rings (size 3 to 8) (size 9 to 14) (size 15 to 20)
#    0.000    2.125    0.000    3.000    0.000    5.000 
#    0.000    3.125    0.000    2.625    0.000    0.000 
#    0.000    0.000    0.000    0.000    0.000    0.000 
#
# Total GULP energy -178807.243287 kJ/mol
# GULP energy per Si atom -5587.726353 kJ/mol
# Density = 2.119702 g / cm^3
# Si number density = 21.245380 Si / 1000 Ang^3
#
#
#
# Elastic Constant Matrix: (Units=GPa)
#
#
# Indices 1 2 3 4 5 6 
#
# 1 196.9006 -3.3848 109.9017 -0.0027 -19.3198 -0.0036
# 2 -3.3848 37.8285 -17.9948 -0.0100 -11.6428 0.0069
# 3 109.9017 -17.9948 160.1600 -0.0004 -23.2013 -0.0005
# 4 -0.0027 -0.0100 -0.0004 20.8645 -0.0003 11.2415
# 5 -19.3198 -11.6428 -23.2013 -0.0003 42.0349 -0.0008
# 6 -0.0036 0.0069 -0.0005 11.2415 -0.0008 8.5155
#
#
#
# Elastic Compliance Matrix: (Units=1/GPa)
#
#
# Indices 1 2 3 4 5 6 
#
# 1 0.008386 -0.002116 -0.005999 -0.000009 -0.000043 0.000017
# 2 -0.002116 0.033261 0.006938 0.000104 0.012069 -0.000163
# 3 -0.005999 0.006938 0.011976 0.000023 0.005775 -0.000037
# 4 -0.000009 0.000104 0.000023 0.165994 0.000034 -0.219133
# 5 -0.000043 0.012069 0.005775 0.000034 0.030300 -0.000051
# 6 0.000017 -0.000163 -0.000037 -0.219133 -0.000051 0.406717
#
#
# Mechanical properties :
#
#
# Convention : Reuss Voigt Hill
#
# Bulk Modulus (GPa) = 19.50531 63.54816 41.52674
# Shear Modulus (GPa) = 7.39559 34.70744 21.05152
#
# Velocity S-wave (km/s) = 1.86778 4.04622 3.15123
# Velocity P-wave (km/s) = 3.72188 7.19762 5.72966
#
# Compressibility (1/GPa) = 0.05126808
#
# Stress axis : x y z
#
# Youngs Moduli (GPa) = 119.24149 30.06568 83.50001
#
# Poissons Ratio (x) = 0.06363 0.50089
# Poissons Ratio (y) = 0.25235 -0.57928
# Poissons Ratio (z) = 0.71529 -0.20858
#
# Static dielectric constant tensor:
#      x y z
#    x 1.760900 0.000000 -0.032990 
#    y 0.000000 1.823060 0.000000 
#    z -0.032990 0.000000 1.709630 
# 
# From -- ./inp_files/377979.got.cif
#   From: 2010.05.17/outbox.cif.g08.bks.cpg/sg12_189_cif.got.tgz:377979.got - 2010.06.03 13:09:07.
