data_PCOD9194838
_publ_section_title
;
Structure prediction by ZEFSAII (Michael W. Deem and Ramdas Pophale) SiO2 
 PCOD9194838
Probable space group: C 2/M
;
_chemical_formula_sum "Si O2"
_cell_formula_units_Z 56
_cell_length_a 14.607373
_cell_length_b 12.039909
_cell_length_c 17.107888
_cell_angle_alpha 90.000000
_cell_angle_beta 101.040410
_cell_angle_gamma 90.000000
_cell_volume 2953.103356
_symmetry_space_group_name_H-M "C 2/M"
_symmetry_group_IT_number 12
_symmetry_cell_setting 'monoclinic'
loop_
_space_group_symop_operation_xyz
x,y,z
-x,y,-z
-x,-y,-z
x,-y,z
1/2+x,1/2+y,z
1/2-x,1/2+y,-z
1/2-x,1/2-y,-z
1/2+x,1/2-y,z
loop_
_atom_site_type_symbol
_atom_site_label
_atom_site_fract_x
_atom_site_fract_y
_atom_site_fract_z
Si Si1 0.907105 0.367749 0.824400
Si Si2 0.394845 0.261528 0.976467
Si Si3 0.285815 0.370047 0.282745
Si Si4 0.581307 0.205493 0.756596
Si Si5 0.705001 0.125055 0.906190
Si Si6 0.987185 0.371476 0.583932
Si Si7 0.266697 0.866170 0.551650
O O1 0.919668 0.500000 0.814510
O O2 0.903317 0.337156 0.914463
O O3 0.811383 0.328211 0.769003
O O4 0.991988 0.306136 0.796585
O O5 0.313538 0.342456 0.931684
O O6 0.500000 0.308455 0.000000
O O7 0.354214 0.210266 0.049903
O O8 0.282316 0.500000 0.272356
O O9 0.371514 0.323519 0.248215
O O10 0.287260 0.348642 0.375619
O O11 0.662148 0.134661 0.812384
O O12 0.548584 0.171996 0.664865
O O13 0.690923 0.000000 0.932552
O O14 0.014791 0.500000 0.581104
O O15 0.877745 0.366381 0.586139
O O16 0.000000 0.318819 0.500000
O O17 0.250000 0.750000 0.500000
O O18 0.247949 0.000000 0.522708
#
# Coordination Sequence:
#
# PCOD9194838 Si02
#       7
#     8   8   8   8   8   8   8
#     4  11  21  38  63  88 117 159 204 255 309 366
#     4  11  23  40  60  87 124 159 201 255 308 376
#     4  10  22  40  61  86 123 166 205 248 314 382
#     4  12  21  37  64  90 119 154 209 262 301 363
#     4  11  24  39  60  92 121 157 206 257 311 368
#     4  10  20  34  57  90 123 157 201 255 309 361
#     4  10  20  38  62  90 126 168 211 260 317 382
#
# _framework density 18.963103
#
# number of rings (size 3 to 8) (size 9 to 14) (size 15 to 20)
#    0.000    1.286    4.286    2.571    0.000    0.857 
#    0.000    2.857    0.000    2.571    0.000    0.000 
#    0.000    0.000    0.000    0.000    0.000    0.000 
#
# Total GULP energy -155934.907846 kJ/mol
# GULP energy per Si atom -5569.103852 kJ/mol
# Density = 1.891994 g / cm^3
# Si number density = 18.963103 Si / 1000 Ang^3
#
#
#
# Elastic Constant Matrix: (Units=GPa)
#
#
# Indices 1 2 3 4 5 6 
#
# 1 85.9290 16.8317 35.7826 0.0000 8.7522 0.0000
# 2 16.8317 45.2947 26.2986 0.0000 6.8006 0.0000
# 3 35.7826 26.2986 97.7980 0.0000 16.0940 0.0000
# 4 0.0000 0.0000 0.0000 17.2225 0.0000 -9.8431
# 5 8.7522 6.8006 16.0940 0.0000 33.3270 0.0000
# 6 0.0000 0.0000 0.0000 -9.8431 0.0000 21.9926
#
#
#
# Elastic Compliance Matrix: (Units=1/GPa)
#
#
# Indices 1 2 3 4 5 6 
#
# 1 0.014027 -0.002575 -0.004259 0.000000 -0.001102 0.000000
# 2 -0.002575 0.026772 -0.005942 0.000000 -0.001918 0.000000
# 3 -0.004259 -0.005942 0.014120 0.000000 -0.004488 0.000000
# 4 0.000000 0.000000 0.000000 0.078021 0.000000 0.034919
# 5 -0.001102 -0.001918 -0.004488 0.000000 0.032854 0.000000
# 6 0.000000 0.000000 0.000000 0.034919 0.000000 0.061099
#
#
# Mechanical properties :
#
#
# Convention : Reuss Voigt Hill
#
# Bulk Modulus (GPa) = 34.04924 42.98307 38.51615
# Shear Modulus (GPa) = 19.06711 24.51567 21.79139
#
# Velocity S-wave (km/s) = 3.17438 3.59947 3.39358
# Velocity P-wave (km/s) = 5.60625 6.32383 5.97582
#
# Compressibility (1/GPa) = 0.02936923
#
# Stress axis : x y z
#
# Youngs Moduli (GPa) = 71.28864 37.35233 70.82339
#
# Poissons Ratio (x) = 0.09617 0.30162
# Poissons Ratio (y) = 0.18354 0.42081
# Poissons Ratio (z) = 0.30360 0.22193
#
# Static dielectric constant tensor:
#      x y z
#    x 1.655460 0.000000 0.007900 
#    y 0.000000 1.656110 0.000000 
#    z 0.007900 0.000000 1.732090 
# 
# From -- ./inp_files/268859.got.cif
#   From: 2010.05.17/outbox.cif.g08.bks.cpg/sg12_135_cif.got.tgz:268859.got - 2010.06.03 13:09:07.
