data_PCOD9194784
_publ_section_title
;
Structure prediction by ZEFSAII (Michael W. Deem and Ramdas Pophale) SiO2 
 PCOD9194784
Probable space group: C 2/M
;
_chemical_formula_sum "Si O2"
_cell_formula_units_Z 64
_cell_length_a 20.493073
_cell_length_b 9.002500
_cell_length_c 24.997299
_cell_angle_alpha 90.000000
_cell_angle_beta 51.603863
_cell_angle_gamma 90.000000
_cell_volume 3614.371003
_symmetry_space_group_name_H-M "C 2/M"
_symmetry_group_IT_number 12
_symmetry_cell_setting 'monoclinic'
loop_
_space_group_symop_operation_xyz
x,y,z
-x,y,-z
-x,-y,-z
x,-y,z
1/2+x,1/2+y,z
1/2-x,1/2+y,-z
1/2-x,1/2-y,-z
1/2+x,1/2-y,z
loop_
_atom_site_type_symbol
_atom_site_label
_atom_site_fract_x
_atom_site_fract_y
_atom_site_fract_z
Si Si1 0.101189 0.822475 0.796072
Si Si2 0.995700 0.679082 0.940043
Si Si3 0.053439 0.822686 0.420403
Si Si4 0.536797 0.821196 0.208550
Si Si5 0.013119 0.674099 0.650826
Si Si6 0.160685 0.322188 0.053317
Si Si7 0.290655 0.174748 0.427630
Si Si8 0.268670 0.822132 0.652223
O O1 0.195682 0.786414 0.731798
O O2 0.068204 0.752127 0.867809
O O3 0.040715 0.756962 0.781013
O O4 0.092351 0.000000 0.802308
O O5 0.002842 0.500000 0.932289
O O6 0.908016 0.721000 0.956516
O O7 0.000000 0.720534 0.000000
O O8 0.143163 0.745990 0.376997
O O9 0.000000 0.779903 0.500000
O O10 0.007352 0.769811 0.390390
O O11 0.062915 0.000000 0.415950
O O12 0.538953 0.782474 0.269837
O O13 0.617724 0.784178 0.132082
O O14 0.524115 0.000000 0.211478
O O15 0.996875 0.500000 0.647165
O O16 0.109768 0.687732 0.617712
O O17 0.169453 0.500000 0.046530
O O18 0.250000 0.250000 0.000000
O O19 0.250000 0.250000 0.500000
O O20 0.258999 0.254576 0.390451
O O21 0.269403 0.000000 0.436302
O O22 0.274675 0.000000 0.644836
#
# Coordination Sequence:
#
# PCOD9194784 Si02
#       8
#     8   8   8   8   8   8   8   8
#     4  10  20  34  57  88 116 145 185 237 284 326
#     4   9  19  37  59  81 111 151 191 228 274 335
#     4  11  25  42  59  81 112 151 192 238 290 342
#     4   9  18  36  59  82 111 150 189 227 278 336
#     4  10  21  38  60  83 111 148 188 231 284 340
#     4   9  18  33  55  81 111 145 181 223 271 325
#     4  11  22  36  59  88 115 146 186 233 282 335
#     4  11  23  39  59  84 116 151 190 234 285 342
#
# _framework density 17.707093
#
# number of rings (size 3 to 8) (size 9 to 14) (size 15 to 20)
#    0.000    2.000    1.250    3.000    0.000    8.250 
#    2.250    0.000    0.000    0.000    0.000    0.000 
#    0.000    0.000    0.000    0.000    0.000    0.000 
#
# Total GULP energy -178661.635600 kJ/mol
# GULP energy per Si atom -5583.176113 kJ/mol
# Density = 1.766679 g / cm^3
# Si number density = 17.707093 Si / 1000 Ang^3
#
#
#
# Elastic Constant Matrix: (Units=GPa)
#
#
# Indices 1 2 3 4 5 6 
#
# 1 21.6784 12.4270 13.9984 0.0000 6.1281 0.0004
# 2 12.4270 35.5197 31.3710 0.0000 -0.7290 0.0006
# 3 13.9984 31.3710 109.9518 0.0000 8.4777 0.0001
# 4 0.0000 0.0000 0.0000 29.6023 0.0000 -3.4978
# 5 6.1281 -0.7290 8.4777 0.0000 35.3875 0.0000
# 6 0.0004 0.0006 0.0001 -3.4978 0.0000 28.5795
#
#
#
# Elastic Compliance Matrix: (Units=1/GPa)
#
#
# Indices 1 2 3 4 5 6 
#
# 1 0.061900 -0.020938 -0.001067 0.000000 -0.010895 0.000000
# 2 -0.020938 0.045129 -0.010760 0.000000 0.007133 -0.000001
# 3 -0.001067 -0.010760 0.012535 0.000000 -0.003040 0.000000
# 4 0.000000 0.000000 0.000000 0.034277 0.000000 0.004195
# 5 -0.010895 0.007133 -0.003040 0.000000 0.031021 0.000000
# 6 0.000000 -0.000001 0.000000 0.004195 0.000000 0.035504
#
#
# Mechanical properties :
#
#
# Convention : Reuss Voigt Hill
#
# Bulk Modulus (GPa) = 18.50689 31.41586 24.96137
# Shear Modulus (GPa) = 16.45243 26.00407 21.22825
#
# Velocity S-wave (km/s) = 3.05149 3.83635 3.46621
# Velocity P-wave (km/s) = 4.78433 6.11587 5.49062
#
# Compressibility (1/GPa) = 0.05403393
#
# Stress axis : x y z
#
# Youngs Moduli (GPa) = 16.15505 22.15883 79.77555
#
# Poissons Ratio (x) = 0.46396 0.08510
# Poissons Ratio (y) = 0.33826 0.85840
# Poissons Ratio (z) = 0.01723 0.23843
#
# Static dielectric constant tensor:
#      x y z
#    x 1.570930 0.000000 0.001970 
#    y 0.000000 1.592350 0.000000 
#    z 0.001970 0.000000 1.604500 
# 
# From -- ./inp_files/345977.got.cif
#   From: 2010.05.17/outbox.cif.g08.bks.cpg/sg12_173_cif.got.tgz:345977.got - 2010.06.03 13:09:07.
