data_PCOD9194028
_publ_section_title
;
Structure prediction by ZEFSAII (Michael W. Deem and Ramdas Pophale) SiO2 
 PCOD9194028
Probable space group: C 2/M
;
_chemical_formula_sum "Si O2"
_cell_formula_units_Z 40
_cell_length_a 21.076294
_cell_length_b 15.698598
_cell_length_c 9.147047
_cell_angle_alpha 90.000000
_cell_angle_beta 44.515113
_cell_angle_gamma 90.000000
_cell_volume 2121.848482
_symmetry_space_group_name_H-M "C 2/M"
_symmetry_group_IT_number 12
_symmetry_cell_setting 'monoclinic'
loop_
_space_group_symop_operation_xyz
x,y,z
-x,y,-z
-x,-y,-z
x,-y,z
1/2+x,1/2+y,z
1/2-x,1/2+y,-z
1/2-x,1/2-y,-z
1/2+x,1/2-y,z
loop_
_atom_site_type_symbol
_atom_site_label
_atom_site_fract_x
_atom_site_fract_y
_atom_site_fract_z
Si Si1 0.396815 0.403104 0.500639
Si Si2 0.411058 0.349016 0.940894
Si Si3 0.791732 0.842461 0.403373
Si Si4 0.279612 0.908003 0.765338
Si Si5 0.099814 0.737257 0.299069
O O1 0.394122 0.500000 0.561201
O O2 0.493275 0.388153 0.260161
O O3 0.318847 0.388187 0.508072
O O4 0.390568 0.326950 0.628708
O O5 0.398975 0.260866 0.873014
O O6 0.384134 0.336593 0.154103
O O7 0.326995 0.405650 0.023009
O O8 0.750000 0.750000 0.500000
O O9 0.723919 0.890660 0.403859
O O10 0.327388 0.830254 0.767386
O O11 0.318953 0.000000 0.735013
O O12 0.000000 0.703848 0.500000
#
# Coordination Sequence:
#
# PCOD9194028 Si02
#       5
#     8   8   8   8   8
#     4  11  20  34  55  84 114 141 174 220 278 327
#     4   9  21  33  54  80 111 137 177 225 271 325
#     4  10  20  35  54  77 110 143 178 217 268 320
#     4  10  20  34  55  78 106 141 183 223 262 315
#     4  10  21  37  53  80 111 145 180 223 267 320
#
# _framework density 18.851486000000001
#
# number of rings (size 3 to 8) (size 9 to 14) (size 15 to 20)
#    1.200    0.800    2.000    2.400    0.000    5.600 
#    0.000    0.000    0.000    1.200    0.000    2.800 
#    0.000    0.000    0.000    0.000    0.000    0.000 
#
# Total GULP energy -111353.802598 kJ/mol
# GULP energy per Si atom -5567.690130 kJ/mol
# Density = 1.880858 g / cm^3
# Si number density = 18.851486 Si / 1000 Ang^3
#
#
#
# Elastic Constant Matrix: (Units=GPa)
#
#
# Indices 1 2 3 4 5 6 
#
# 1 50.1557 12.5997 -9.0506 0.0000 -6.2390 0.0000
# 2 12.5997 113.5920 18.3412 0.0000 -15.2517 0.0000
# 3 -9.0506 18.3412 25.0319 0.0000 4.7915 0.0000
# 4 0.0000 0.0000 0.0000 9.7478 0.0000 -3.9455
# 5 -6.2390 -15.2517 4.7915 0.0000 22.4969 0.0000
# 6 0.0000 0.0000 0.0000 -3.9455 0.0000 0.6861
#
#
#
# Elastic Compliance Matrix: (Units=1/GPa)
#
#
# Indices 1 2 3 4 5 6 
#
# 1 0.023177 -0.004233 0.011260 0.000000 0.001160 0.000000
# 2 -0.004233 0.012701 -0.012781 0.000000 0.010158 0.000000
# 3 0.011260 -0.012781 0.056760 0.000000 -0.017631 0.000000
# 4 0.000000 0.000000 0.000000 -0.077270 0.000000 -0.444364
# 5 0.001160 0.010158 -0.017631 0.000000 0.055414 0.000000
# 6 0.000000 0.000000 0.000000 -0.444364 0.000000 -1.097865
#
#
# Mechanical properties :
#
#
# Convention : Reuss Voigt Hill
#
# Bulk Modulus (GPa) = 12.32601 25.84001 19.08301
# Shear Modulus (GPa) = -5.05801 17.71211 6.32705
#
# Velocity S-wave (km/s) = -1.63979 3.06855 1.83400
# Velocity P-wave (km/s) = 1.72263 5.12753 3.82486
#
# Compressibility (1/GPa) = 0.08112923
#
# Stress axis : x y z
#
# Youngs Moduli (GPa) = 43.14541 78.73627 17.61808
#
# Poissons Ratio (x) = 0.33331 -0.19838
# Poissons Ratio (y) = 0.18264 0.22518
# Poissons Ratio (z) = -0.48581 1.00633
#
# Static dielectric constant tensor:
#      x y z
#    x 1.674800 0.000000 0.022040 
#    y 0.000000 1.635450 0.000000 
#    z 0.022040 0.000000 1.687790 
# 
# From -- ./inp_files/175611.got.cif
#   From: 2010.05.17/outbox.cif.g08.bks.cpg/sg12_88_cif.got.tgz:175611.got - 2010.06.03 13:09:07.
