data_PCOD9194739
_publ_section_title
;
Structure prediction by ZEFSAII (Michael W. Deem and Ramdas Pophale) SiO2 
 PCOD9194739
Probable space group: C 2/M
;
_chemical_formula_sum "Si O2"
_cell_formula_units_Z 64
_cell_length_a 24.113635
_cell_length_b 19.458564
_cell_length_c 9.359842
_cell_angle_alpha 90.000000
_cell_angle_beta 56.893972
_cell_angle_gamma 90.000000
_cell_volume 3678.835909
_symmetry_space_group_name_H-M "C 2/M"
_symmetry_group_IT_number 12
_symmetry_cell_setting 'monoclinic'
loop_
_space_group_symop_operation_xyz
x,y,z
-x,y,-z
-x,-y,-z
x,-y,z
1/2+x,1/2+y,z
1/2-x,1/2+y,-z
1/2-x,1/2-y,-z
1/2+x,1/2-y,z
loop_
_atom_site_type_symbol
_atom_site_label
_atom_site_fract_x
_atom_site_fract_y
_atom_site_fract_z
Si Si1 0.264234 0.420637 0.353563
Si Si2 0.335636 0.727818 0.742794
Si Si3 0.127053 0.421089 0.709815
Si Si4 0.450680 0.786446 0.199666
Si Si5 0.682380 0.292578 0.563895
Si Si6 0.042239 0.312466 0.313816
Si Si7 0.753555 0.140244 0.060445
Si Si8 0.138421 0.419960 0.028800
O O1 0.280661 0.500000 0.357915
O O2 0.188839 0.409904 0.516816
O O3 0.308044 0.366511 0.378403
O O4 0.268645 0.403439 0.179812
O O5 0.329701 0.703758 0.588520
O O6 0.404912 0.761274 0.689781
O O7 0.283867 0.790969 0.832407
O O8 0.314553 0.668260 0.882047
O O9 0.104996 0.500000 0.726496
O O10 0.070293 0.366364 0.760446
O O11 0.148926 0.410376 0.844119
O O12 0.381763 0.746159 0.283153
O O13 0.491858 0.771495 0.283922
O O14 0.500000 0.775049 0.000000
O O15 0.750000 0.250000 0.500000
O O16 0.081894 0.368367 0.164529
O O17 0.000000 0.346369 0.500000
O O18 0.703594 0.100284 0.025980
O O19 0.121834 0.500000 0.075933
#
# Coordination Sequence:
#
# PCOD9194739 Si02
#       8
#     8   8   8   8   8   8   8   8
#     4  11  23  38  60  90 123 156 200 254 313 365
#     4  10  21  36  59  86 115 156 196 253 298 354
#     4  10  21  37  56  83 122 167 204 244 293 358
#     4  12  24  37  60  91 121 160 206 256 300 362
#     4  12  22  39  65  91 118 158 207 257 307 356
#     4  11  23  39  54  82 121 154 201 245 299 357
#     4  10  20  34  57  86 118 150 200 253 301 347
#     4  10  21  36  54  80 121 166 202 236 289 363
#
# _framework density 17.396806999999999
#
# number of rings (size 3 to 8) (size 9 to 14) (size 15 to 20)
#    0.000    1.250    5.000    1.125    3.500    1.000 
#    0.000    0.625    0.000    0.375    0.000    0.875 
#    0.000    0.000    0.000    0.000    0.000    0.000 
#
# Total GULP energy -178678.745093 kJ/mol
# GULP energy per Si atom -5583.710784 kJ/mol
# Density = 1.735721 g / cm^3
# Si number density = 17.396807 Si / 1000 Ang^3
#
#
#
# Elastic Constant Matrix: (Units=GPa)
#
#
# Indices 1 2 3 4 5 6 
#
# 1 83.1892 44.4856 37.3258 0.0000 0.9607 0.0000
# 2 44.4856 76.7166 40.8721 0.0000 -4.0172 0.0000
# 3 37.3258 40.8721 111.7542 0.0000 -4.0656 0.0000
# 4 0.0000 0.0000 0.0000 25.1756 0.0000 6.2244
# 5 0.9607 -4.0172 -4.0656 0.0000 25.9508 0.0000
# 6 0.0000 0.0000 0.0000 6.2244 0.0000 17.8848
#
#
#
# Elastic Compliance Matrix: (Units=1/GPa)
#
#
# Indices 1 2 3 4 5 6 
#
# 1 0.018238 -0.009208 -0.002816 0.000000 -0.002542 0.000000
# 2 -0.009208 0.020904 -0.004465 0.000000 0.002877 0.000000
# 3 -0.002816 -0.004465 0.011566 0.000000 0.001225 0.000000
# 4 0.000000 0.000000 0.000000 0.043461 0.000000 -0.015125
# 5 -0.002542 0.002877 0.001225 0.000000 0.039266 0.000000
# 6 0.000000 0.000000 0.000000 -0.015125 0.000000 0.061178
#
#
# Mechanical properties :
#
#
# Convention : Reuss Voigt Hill
#
# Bulk Modulus (GPa) = 56.40368 57.44745 56.92556
# Shear Modulus (GPa) = 21.41316 23.73399 22.57357
#
# Velocity S-wave (km/s) = 3.51218 3.69761 3.60609
# Velocity P-wave (km/s) = 6.99567 7.16403 7.08035
#
# Compressibility (1/GPa) = 0.01772934
#
# Stress axis : x y z
#
# Youngs Moduli (GPa) = 54.83091 47.83739 86.45751
#
# Poissons Ratio (x) = 0.44050 0.24347
# Poissons Ratio (y) = 0.50490 0.38604
# Poissons Ratio (z) = 0.15441 0.21360
#
# Static dielectric constant tensor:
#      x y z
#    x 1.588640 0.000000 -0.001000 
#    y 0.000000 1.581830 0.000000 
#    z -0.001000 0.000000 1.619460 
# 
# From -- ./inp_files/89560.got.cif
#   From: 2010.05.17/outbox.cif.g08.bks.cpg/sg12_45_cif.got.tgz:89560.got - 2010.06.03 13:09:07.
