data_PCOD9194630
_publ_section_title
;
Structure prediction by ZEFSAII (Michael W. Deem and Ramdas Pophale) SiO2 
 PCOD9194630
Probable space group: C 2/M
;
_chemical_formula_sum "Si O2"
_cell_formula_units_Z 50
_cell_length_a 21.324286
_cell_length_b 9.752498
_cell_length_c 12.287096
_cell_angle_alpha 90.000000
_cell_angle_beta 65.835547
_cell_angle_gamma 90.000000
_cell_volume 2331.377739
_symmetry_space_group_name_H-M "C 2/M"
_symmetry_group_IT_number 12
_symmetry_cell_setting 'monoclinic'
loop_
_space_group_symop_operation_xyz
x,y,z
-x,y,-z
-x,-y,-z
x,-y,z
1/2+x,1/2+y,z
1/2-x,1/2+y,-z
1/2-x,1/2-y,-z
1/2+x,1/2-y,z
loop_
_atom_site_type_symbol
_atom_site_label
_atom_site_fract_x
_atom_site_fract_y
_atom_site_fract_z
Si Si1 0.644690 0.650277 0.399587
Si Si2 0.043984 0.343300 0.581923
Si Si3 0.627569 0.353279 0.806173
Si Si4 0.688150 0.660545 0.997644
Si Si5 0.212988 0.342374 0.617088
Si Si6 0.000000 0.000000 0.000000
Si Si7 0.062765 0.842471 0.230915
O O1 0.626137 0.500000 0.460127
O O2 0.613538 0.768705 0.496439
O O3 0.726371 0.656400 0.334605
O O4 0.608143 0.656374 0.308948
O O5 0.051626 0.500000 0.610295
O O6 0.000000 0.342779 0.500000
O O7 0.001497 0.252375 0.697330
O O8 0.646670 0.500000 0.737902
O O9 0.676382 0.336459 0.877250
O O10 0.645882 0.229730 0.713845
O O11 0.551988 0.382170 0.908896
O O12 0.697494 0.500000 0.022196
O O13 0.750000 0.750000 0.000000
O O14 0.615425 0.705103 0.101711
O O15 0.202440 0.500000 0.591452
O O16 0.250000 0.250000 0.500000
O O17 0.042007 0.000000 0.219200
#
# Coordination Sequence:
#
# PCOD9194630 Si02
#       7
#     8   8   8   8   8   2   8
#     4   9  18  33  52  75 109 153 188 235 300 363
#     4   9  17  29  46  72 108 146 186 233 284 345
#     4   9  20  41  64  88 122 168 215 258 312 378
#     4  10  20  34  56  88 119 155 198 255 317 376
#     4  11  23  40  62  91 119 153 203 264 323 374
#     4   8  20  44  70  84 124 182 224 256 316 368
#     4   9  17  31  50  76 110 148 194 234 287 369
#
# _framework density 21.446546000000001
#
# number of rings (size 3 to 8) (size 9 to 14) (size 15 to 20)
#    0.480    2.080    0.000    1.920    0.000    5.760 
#    2.880    3.600    0.000    0.000    0.000    0.000 
#    0.000    0.000    0.000    0.000    0.000    0.000 
#
# Total GULP energy -139276.153642 kJ/mol
# GULP energy per Si atom -5571.046146 kJ/mol
# Density = 2.139773 g / cm^3
# Si number density = 21.446546 Si / 1000 Ang^3
#
#
#
# Elastic Constant Matrix: (Units=GPa)
#
#
# Indices 1 2 3 4 5 6 
#
# 1 89.3141 27.9911 21.4570 0.0000 -9.2432 0.0000
# 2 27.9911 132.2802 61.5073 0.0000 -29.6117 0.0000
# 3 21.4570 61.5073 76.0181 0.0000 -26.5654 0.0000
# 4 0.0000 0.0000 0.0000 37.4305 0.0000 -11.7487
# 5 -9.2432 -29.6117 -26.5654 0.0000 30.3352 0.0000
# 6 0.0000 0.0000 0.0000 -11.7487 0.0000 24.9602
#
#
#
# Elastic Compliance Matrix: (Units=1/GPa)
#
#
# Indices 1 2 3 4 5 6 
#
# 1 0.012215 -0.001532 -0.002061 0.000000 0.000422 0.000000
# 2 -0.001532 0.012789 -0.008236 0.000000 0.004804 0.000000
# 3 -0.002061 -0.008236 0.025032 0.000000 0.013254 0.000000
# 4 0.000000 0.000000 0.000000 0.031348 0.000000 0.014755
# 5 0.000422 0.004804 0.013254 0.000000 0.049390 0.000000
# 6 0.000000 0.000000 0.000000 0.014755 0.000000 0.047009
#
#
# Mechanical properties :
#
#
# Convention : Reuss Voigt Hill
#
# Bulk Modulus (GPa) = 37.91061 57.72479 47.81770
# Shear Modulus (GPa) = 23.78292 30.98898 27.38595
#
# Velocity S-wave (km/s) = 3.33369 3.80536 3.57731
# Velocity P-wave (km/s) = 5.70378 6.80307 6.27754
#
# Compressibility (1/GPa) = 0.02637784
#
# Stress axis : x y z
#
# Youngs Moduli (GPa) = 81.86406 78.19095 39.94831
#
# Poissons Ratio (x) = 0.11980 0.08233
# Poissons Ratio (y) = 0.12543 0.32903
# Poissons Ratio (z) = 0.16871 0.64402
#
# Static dielectric constant tensor:
#      x y z
#    x 1.865530 0.000000 0.060240 
#    y 0.000000 1.754540 0.000000 
#    z 0.060240 0.000000 1.776300 
# 
# From -- ./inp_files/180583.got.cif
#   From: 2010.05.17/outbox.cif.g08.bks.cpg/sg12_91_cif.got.tgz:180583.got - 2010.06.03 13:09:07.
