data_PCOD9194971
_publ_section_title
;
Structure prediction by ZEFSAII (Michael W. Deem and Ramdas Pophale) SiO2 
 PCOD9194971
Probable space group: C 2/M
;
_chemical_formula_sum "Si O2"
_cell_formula_units_Z 64
_cell_length_a 23.726506
_cell_length_b 24.786149
_cell_length_c 5.291277
_cell_angle_alpha 90.000000
_cell_angle_beta 76.073527
_cell_angle_gamma 90.000000
_cell_volume 3020.271866
_symmetry_space_group_name_H-M "C 2/M"
_symmetry_group_IT_number 12
_symmetry_cell_setting 'monoclinic'
loop_
_space_group_symop_operation_xyz
x,y,z
-x,y,-z
-x,-y,-z
x,-y,z
1/2+x,1/2+y,z
1/2-x,1/2+y,-z
1/2-x,1/2-y,-z
1/2+x,1/2-y,z
loop_
_atom_site_type_symbol
_atom_site_label
_atom_site_fract_x
_atom_site_fract_y
_atom_site_fract_z
Si Si1 0.368321 0.660152 0.197337
Si Si2 0.035327 0.205775 0.210126
Si Si3 0.559212 0.169960 0.057838
Si Si4 0.837284 0.938918 0.488424
Si Si5 0.277865 0.367673 0.944406
Si Si6 0.212232 0.561526 0.333854
Si Si7 0.370068 0.155638 0.529706
Si Si8 0.805989 0.236262 0.601727
O O1 0.381354 0.601696 0.298585
O O2 0.361958 0.708397 0.403086
O O3 0.403498 0.677683 0.913434
O O4 0.301886 0.652090 0.186129
O O5 0.043977 0.269863 0.175348
O O6 0.000000 0.192731 0.500000
O O7 0.000000 0.188232 0.000000
O O8 0.587218 0.143389 0.278630
O O9 0.500000 0.146245 0.000000
O O10 0.600438 0.173412 0.766634
O O11 0.823154 0.908489 0.763916
O O12 0.774151 0.941813 0.414692
O O13 0.857804 0.000000 0.494648
O O14 0.278989 0.311933 0.796979
O O15 0.224241 0.406546 0.057330
O O16 0.192502 0.500000 0.322240
O O17 0.167149 0.602909 0.503531
O O18 0.330974 0.206461 0.670331
O O19 0.750000 0.250000 0.500000
#
# Coordination Sequence:
#
# PCOD9194971 Si02
#       8
#     8   8   8   8   8   8   8   8
#     4  10  21  36  55  87 122 158 206 256 311 377
#     4  11  23  38  63  89 122 162 204 260 314 378
#     4  11  24  43  64  93 123 163 217 266 324 387
#     4   9  19  36  59  85 122 165 215 257 300 370
#     4  10  20  34  59  84 125 166 203 250 306 377
#     4  10  23  40  59  91 123 166 219 256 306 381
#     4  12  24  40  67  92 132 171 204 267 326 374
#     4  11  23  35  55  94 134 168 198 247 323 399
#
# _framework density 21.190144
#
# number of rings (size 3 to 8) (size 9 to 14) (size 15 to 20)
#    0.000    1.500    1.250    5.250    7.000    1.500 
#    0.000    0.000    0.000    3.000    0.000    0.000 
#    0.000    0.000    0.000    0.000    0.000    0.000 
#
# Total GULP energy -178234.491585 kJ/mol
# GULP energy per Si atom -5569.827862 kJ/mol
# Density = 2.114191 g / cm^3
# Si number density = 21.190144 Si / 1000 Ang^3
#
#
#
# Elastic Constant Matrix: (Units=GPa)
#
#
# Indices 1 2 3 4 5 6 
#
# 1 49.1585 19.0786 8.3327 0.0000 4.0838 0.0000
# 2 19.0786 142.1355 23.3802 0.0000 -7.9246 0.0000
# 3 8.3327 23.3802 78.8945 0.0000 -5.1006 0.0000
# 4 0.0000 0.0000 0.0000 14.1660 0.0000 0.3418
# 5 4.0838 -7.9246 -5.1006 0.0000 28.0124 0.0000
# 6 0.0000 0.0000 0.0000 0.3418 0.0000 18.7187
#
#
#
# Elastic Compliance Matrix: (Units=1/GPa)
#
#
# Indices 1 2 3 4 5 6 
#
# 1 0.022139 -0.002927 -0.001754 0.000000 -0.004375 0.000000
# 2 -0.002927 0.007865 -0.001872 0.000000 0.002311 0.000000
# 3 -0.001754 -0.001872 0.013557 0.000000 0.002195 0.000000
# 4 0.000000 0.000000 0.000000 0.070623 0.000000 -0.001290
# 5 -0.004375 0.002311 0.002195 0.000000 0.037390 0.000000
# 6 0.000000 0.000000 0.000000 -0.001290 0.000000 0.053446
#
#
# Mechanical properties :
#
#
# Convention : Reuss Voigt Hill
#
# Bulk Modulus (GPa) = 32.83509 41.30794 37.07152
# Shear Modulus (GPa) = 21.90312 26.80588 24.35450
#
# Velocity S-wave (km/s) = 3.21853 3.56057 3.39386
# Velocity P-wave (km/s) = 5.41673 6.03654 5.73501
#
# Compressibility (1/GPa) = 0.03045522
#
# Stress axis : x y z
#
# Youngs Moduli (GPa) = 45.16893 127.14137 73.76201
#
# Poissons Ratio (x) = 0.37216 0.12936
# Poissons Ratio (y) = 0.13222 0.13810
# Poissons Ratio (z) = 0.07921 0.23805
#
# Static dielectric constant tensor:
#      x y z
#    x 2.017900 0.000000 0.043890 
#    y 0.000000 1.830600 0.000000 
#    z 0.043890 0.000000 1.898470 
# 
# From -- ./inp_files/26046.got.cif
#   From: 2010.05.17/outbox.cif.g08.bks.cpg/sg12_14_cif.got.tgz:26046.got - 2010.06.03 13:09:07.
