data_PCOD9194260
_publ_section_title
;
Structure prediction by ZEFSAII (Michael W. Deem and Ramdas Pophale) SiO2 
 PCOD9194260
Probable space group: C 2/M
;
_chemical_formula_sum "Si O2"
_cell_formula_units_Z 48
_cell_length_a 9.186306
_cell_length_b 12.778930
_cell_length_c 24.728750
_cell_angle_alpha 90.000000
_cell_angle_beta 111.777438
_cell_angle_gamma 90.000000
_cell_volume 2695.759874
_symmetry_space_group_name_H-M "C 2/M"
_symmetry_group_IT_number 12
_symmetry_cell_setting 'monoclinic'
loop_
_space_group_symop_operation_xyz
x,y,z
-x,y,-z
-x,-y,-z
x,-y,z
1/2+x,1/2+y,z
1/2-x,1/2+y,-z
1/2-x,1/2-y,-z
1/2+x,1/2-y,z
loop_
_atom_site_type_symbol
_atom_site_label
_atom_site_fract_x
_atom_site_fract_y
_atom_site_fract_z
Si Si1 0.705640 0.377521 0.200537
Si Si2 0.821942 0.889018 0.492302
Si Si3 0.568794 0.123829 0.069565
Si Si4 0.387595 0.747914 0.135703
Si Si5 0.787391 0.375586 0.337861
Si Si6 0.114426 0.258047 0.396817
O O1 0.696572 0.500000 0.184614
O O2 0.534656 0.324505 0.172291
O O3 0.823756 0.317659 0.176599
O O4 0.763043 0.369870 0.270213
O O5 0.835079 0.814831 0.545872
O O6 0.731853 0.852993 0.426067
O O7 0.000000 0.898107 0.500000
O O8 0.753505 0.000000 0.500658
O O9 0.453359 0.178743 0.096783
O O10 0.738863 0.178378 0.097144
O O11 0.581656 0.000000 0.082639
O O12 0.500000 0.137381 0.000000
O O13 0.794510 0.500000 0.353438
O O14 0.649584 0.312387 0.349554
O O15 0.943904 0.310331 0.374578
#
# Coordination Sequence:
#
# PCOD9194260 Si02
#       6
#     8   8   8   8   8   8
#     4  10  21  37  56  79 107 143 184 224 266 315
#     4  10  20  35  55  78 105 137 174 213 268 331
#     4  10  20  34  55  84 114 144 181 223 266 315
#     4  10  20  36  57  79 110 148 182 220 268 316
#     4  11  23  38  57  81 108 139 180 225 268 315
#     4  11  21  38  55  81 106 139 175 220 270 324
#
# _framework density 17.80574
#
# number of rings (size 3 to 8) (size 9 to 14) (size 15 to 20)
#    0.000    1.667    1.667    3.500    0.000    0.000 
#    0.000    2.500    0.000   16.000    0.000    0.000 
#    0.000    0.000    0.000    0.000    0.000    0.000 
#
# Total GULP energy -133712.748049 kJ/mol
# GULP energy per Si atom -5571.364502 kJ/mol
# Density = 1.776521 g / cm^3
# Si number density = 17.805740 Si / 1000 Ang^3
#
#
#
# Elastic Constant Matrix: (Units=GPa)
#
#
# Indices 1 2 3 4 5 6 
#
# 1 69.1186 31.7812 9.2285 0.0000 -3.7675 0.0000
# 2 31.7812 118.7958 39.0193 0.0000 -0.4089 0.0000
# 3 9.2285 39.0193 62.5048 0.0000 -6.1677 0.0000
# 4 0.0000 0.0000 0.0000 21.6837 0.0000 -16.7917
# 5 -3.7675 -0.4089 -6.1677 0.0000 21.7589 0.0000
# 6 0.0000 0.0000 0.0000 -16.7917 0.0000 4.2475
#
#
#
# Elastic Compliance Matrix: (Units=1/GPa)
#
#
# Indices 1 2 3 4 5 6 
#
# 1 0.016695 -0.004710 0.000774 0.000000 0.003021 0.000000
# 2 -0.004710 0.011981 -0.007039 0.000000 -0.002586 0.000000
# 3 0.000774 -0.007039 0.020862 0.000000 0.005915 0.000000
# 4 0.000000 0.000000 0.000000 -0.022372 0.000000 -0.088444
# 5 0.003021 -0.002586 0.005915 0.000000 0.048110 0.000000
# 6 0.000000 0.000000 0.000000 -0.088444 0.000000 -0.114211
#
#
# Mechanical properties :
#
#
# Convention : Reuss Voigt Hill
#
# Bulk Modulus (GPa) = 36.24849 45.60859 40.92854
# Shear Modulus (GPa) = -641.98627 20.89738 -310.54444
#
# Velocity S-wave (km/s) = -19.00876 3.42955 -13.22065
# Velocity P-wave (km/s) = 21.47965 6.43059 14.49177
#
# Compressibility (1/GPa) = 0.02758735
#
# Stress axis : x y z
#
# Youngs Moduli (GPa) = 59.89816 83.46569 47.93316
#
# Poissons Ratio (x) = 0.39313 -0.03708
# Poissons Ratio (y) = 0.28212 0.33740
# Poissons Ratio (z) = -0.04633 0.58751
#
# Static dielectric constant tensor:
#      x y z
#    x 1.596690 0.000000 -0.008910 
#    y 0.000000 1.710340 0.000000 
#    z -0.008910 0.000000 1.590040 
# 
# From -- ./inp_files/299903.got.cif
#   From: 2010.05.17/outbox.cif.g08.bks.cpg/sg12_150_cif.got.tgz:299903.got - 2010.06.03 13:09:07.
