data_PCOD9194676
_publ_section_title
;
Structure prediction by ZEFSAII (Michael W. Deem and Ramdas Pophale) SiO2 
 PCOD9194676
Probable space group: C 2/M
;
_chemical_formula_sum "Si O2"
_cell_formula_units_Z 48
_cell_length_a 8.948299
_cell_length_b 32.827345
_cell_length_c 15.903452
_cell_angle_alpha 90.000000
_cell_angle_beta 30.817669
_cell_angle_gamma 90.000000
_cell_volume 2393.307802
_symmetry_space_group_name_H-M "C 2/M"
_symmetry_group_IT_number 12
_symmetry_cell_setting 'monoclinic'
loop_
_space_group_symop_operation_xyz
x,y,z
-x,y,-z
-x,-y,-z
x,-y,z
1/2+x,1/2+y,z
1/2-x,1/2+y,-z
1/2-x,1/2-y,-z
1/2+x,1/2-y,z
loop_
_atom_site_type_symbol
_atom_site_label
_atom_site_fract_x
_atom_site_fract_y
_atom_site_fract_z
Si Si1 0.658419 0.375459 0.180584
Si Si2 0.134738 0.207023 0.298818
Si Si3 0.228472 0.956393 0.813613
Si Si4 0.647703 0.544792 0.664898
Si Si5 0.196868 0.131122 0.821625
Si Si6 0.038885 0.288682 0.693447
O O1 0.625133 0.334592 0.251266
O O2 0.509266 0.415401 0.294544
O O3 0.493346 0.369432 0.171375
O O4 0.000000 0.382940 0.000000
O O5 0.397163 0.206721 0.238694
O O6 0.134104 0.247139 0.241359
O O7 0.844325 0.212083 0.495633
O O8 0.060428 0.957074 0.805703
O O9 0.374657 0.911816 0.741833
O O10 0.392600 0.000000 0.738437
O O11 0.000000 0.956215 0.000000
O O12 0.585216 0.500000 0.657881
O O13 0.000000 0.549595 0.500000
O O14 0.382193 0.171676 0.733800
O O15 0.000000 0.132225 0.000000
#
# Coordination Sequence:
#
# PCOD9194676 Si02
#       6
#     8   8   8   8   8   8
#     4  11  23  36  57  88 122 155 195 244 298 353
#     4  10  22  38  59  83 117 148 198 240 299 353
#     4   8  15  29  50  80 112 146 188 234 282 338
#     4   9  19  35  57  87 118 155 202 246 290 348
#     4  10  20  34  57  82 114 151 195 238 289 346
#     4  10  21  39  59  84 111 156 193 246 293 356
#
# _framework density 20.055924000000001
#
# number of rings (size 3 to 8) (size 9 to 14) (size 15 to 20)
#    0.000    2.333    0.000    2.000    4.667    2.333 
#    0.000    3.333    0.000    3.000    0.000    2.333 
#    0.000    0.000    0.000    0.000    0.000    0.000 
#
# Total GULP energy -133689.740148 kJ/mol
# GULP energy per Si atom -5570.405839 kJ/mol
# Density = 2.001028 g / cm^3
# Si number density = 20.055924 Si / 1000 Ang^3
#
#
#
# Elastic Constant Matrix: (Units=GPa)
#
#
# Indices 1 2 3 4 5 6 
#
# 1 101.0447 63.0903 23.7993 0.0000 -1.8415 0.0000
# 2 63.0903 239.1541 35.9473 0.0000 -21.0755 0.0000
# 3 23.7993 35.9473 28.3591 0.0000 -4.7608 0.0000
# 4 0.0000 0.0000 0.0000 18.0742 0.0000 -0.2203
# 5 -1.8415 -21.0755 -4.7608 0.0000 27.0067 0.0000
# 6 0.0000 0.0000 0.0000 -0.2203 0.0000 32.9242
#
#
#
# Elastic Compliance Matrix: (Units=1/GPa)
#
#
# Indices 1 2 3 4 5 6 
#
# 1 0.013407 -0.002476 -0.008536 0.000000 -0.002523 0.000000
# 2 -0.002476 0.005864 -0.004756 0.000000 0.003569 0.000000
# 3 -0.008536 -0.004756 0.049189 0.000000 0.004378 0.000000
# 4 0.000000 0.000000 0.000000 0.055332 0.000000 0.000370
# 5 -0.002523 0.003569 0.004378 0.000000 0.040413 0.000000
# 6 0.000000 0.000000 0.000000 0.000370 0.000000 0.030375
#
#
# Mechanical properties :
#
#
# Convention : Reuss Voigt Hill
#
# Bulk Modulus (GPa) = 27.08293 68.24796 47.66545
# Shear Modulus (GPa) = 20.97093 31.98242 26.47667
#
# Velocity S-wave (km/s) = 3.23712 3.99765 3.63732
# Velocity P-wave (km/s) = 5.24451 7.44386 6.43879
#
# Compressibility (1/GPa) = 0.03692363
#
# Stress axis : x y z
#
# Youngs Moduli (GPa) = 74.58630 170.53209 20.32965
#
# Poissons Ratio (x) = 0.42226 0.17354
# Poissons Ratio (y) = 0.18469 0.09669
# Poissons Ratio (z) = 0.63670 0.81103
#
# Static dielectric constant tensor:
#      x y z
#    x 1.697850 0.000000 0.020330 
#    y 0.000000 1.772490 0.000000 
#    z 0.020330 0.000000 1.741620 
# 
# From -- ./inp_files/123499.got.cif
#   From: 2010.05.17/outbox.cif.g08.bks.cpg/sg12_62_cif.got.tgz:123499.got - 2010.06.03 13:09:07.
