data_PCOD9194570
_publ_section_title
;
Structure prediction by ZEFSAII (Michael W. Deem and Ramdas Pophale) SiO2 
 PCOD9194570
Probable space group: C 2/M
;
_chemical_formula_sum "Si O2"
_cell_formula_units_Z 48
_cell_length_a 10.467354
_cell_length_b 28.256936
_cell_length_c 7.236687
_cell_angle_alpha 90.000000
_cell_angle_beta 75.936521
_cell_angle_gamma 90.000000
_cell_volume 2076.278644
_symmetry_space_group_name_H-M "C 2/M"
_symmetry_group_IT_number 12
_symmetry_cell_setting 'monoclinic'
loop_
_space_group_symop_operation_xyz
x,y,z
-x,y,-z
-x,-y,-z
x,-y,z
1/2+x,1/2+y,z
1/2-x,1/2+y,-z
1/2-x,1/2-y,-z
1/2+x,1/2-y,z
loop_
_atom_site_type_symbol
_atom_site_label
_atom_site_fract_x
_atom_site_fract_y
_atom_site_fract_z
Si Si1 0.150927 0.550211 0.722241
Si Si2 0.864911 0.573738 0.845737
Si Si3 0.833596 0.869489 0.502058
Si Si4 0.919397 0.945538 0.218071
Si Si5 0.377649 0.827875 0.692878
Si Si6 0.351706 0.730768 0.621353
O O1 0.208356 0.500000 0.645782
O O2 0.236898 0.592324 0.619832
O O3 0.999628 0.553777 0.715776
O O4 0.150290 0.554446 0.943536
O O5 0.735085 0.558992 0.780950
O O6 0.890553 0.630439 0.836541
O O7 0.941994 0.902040 0.354010
O O8 0.754768 0.843078 0.366511
O O9 0.842210 0.825952 0.646548
O O10 0.948705 0.000000 0.267995
O O11 0.000000 0.937728 0.000000
O O12 0.500000 0.830911 0.500000
O O13 0.354543 0.773946 0.768199
O O14 0.500000 0.733529 0.500000
O O15 0.250000 0.750000 0.500000
#
# Coordination Sequence:
#
# PCOD9194570 Si02
#       6
#     8   8   8   8   8   8
#     4  11  21  34  55  87 126 156 190 245 303 352
#     4  10  20  35  56  83 119 154 194 241 301 354
#     4  10  20  34  56  86 112 152 200 243 292 357
#     4  10  21  37  56  79 115 160 203 240 287 353
#     4   9  16  34  57  81 109 147 192 243 296 356
#     4   9  19  35  60  87 117 150 198 250 307 353
#
# _framework density 23.118285
#
# number of rings (size 3 to 8) (size 9 to 14) (size 15 to 20)
#    0.000    2.167    1.667    2.500    0.000    1.333 
#    0.000    3.333    0.000   14.000    0.000    0.000 
#    0.000    0.000    0.000    0.000    0.000    0.000 
#
# Total GULP energy -133635.480977 kJ/mol
# GULP energy per Si atom -5568.145041 kJ/mol
# Density = 2.306567 g / cm^3
# Si number density = 23.118285 Si / 1000 Ang^3
#
#
#
# Elastic Constant Matrix: (Units=GPa)
#
#
# Indices 1 2 3 4 5 6 
#
# 1 60.8694 17.2673 6.1449 0.0000 -2.0229 0.0000
# 2 17.2673 268.5044 48.1309 0.0000 -14.8597 0.0000
# 3 6.1449 48.1309 67.3934 0.0000 -6.4367 0.0000
# 4 0.0000 0.0000 0.0000 324.8593 0.0000 -106.4524
# 5 -2.0229 -14.8597 -6.4367 0.0000 23.7053 0.0000
# 6 0.0000 0.0000 0.0000 -106.4524 0.0000 58.0466
#
#
#
# Elastic Compliance Matrix: (Units=1/GPa)
#
#
# Indices 1 2 3 4 5 6 
#
# 1 0.016788 -0.000895 -0.000830 0.000000 0.000646 0.000000
# 2 -0.000895 0.004404 -0.002882 0.000000 0.001902 0.000000
# 3 -0.000830 -0.002882 0.017240 0.000000 0.002804 0.000000
# 4 0.000000 0.000000 0.000000 0.007714 0.000000 0.014147
# 5 0.000646 0.001902 0.002804 0.000000 0.044193 0.000000
# 6 0.000000 0.000000 0.000000 0.014147 0.000000 0.043171
#
#
# Mechanical properties :
#
#
# Convention : Reuss Voigt Hill
#
# Bulk Modulus (GPa) = 34.22541 59.98372 47.10456
# Shear Modulus (GPa) = 32.79496 103.00384 67.89940
#
# Velocity S-wave (km/s) = 3.77048 6.68220 5.42533
# Velocity P-wave (km/s) = 5.81309 9.24871 7.72433
#
# Compressibility (1/GPa) = 0.02921806
#
# Stress axis : x y z
#
# Youngs Moduli (GPa) = 59.56711 227.08085 58.00524
#
# Poissons Ratio (x) = 0.20326 0.04813
# Poissons Ratio (y) = 0.05332 0.16716
# Poissons Ratio (z) = 0.04942 0.65440
#
# Static dielectric constant tensor:
#      x y z
#    x 1.944820 0.000000 0.017680 
#    y 0.000000 2.042370 0.000000 
#    z 0.017680 0.000000 1.852080 
# 
# From -- ./inp_files/52435.got.cif
#   From: 2010.05.17/outbox.cif.g08.bks.cpg/sg12_27_cif.got.tgz:52435.got - 2010.06.03 13:09:07.
