data_PCOD9194616
_publ_section_title
;
Structure prediction by ZEFSAII (Michael W. Deem and Ramdas Pophale) SiO2 
 PCOD9194616
Probable space group: C 2/M
;
_chemical_formula_sum "Si O2"
_cell_formula_units_Z 48
_cell_length_a 18.818081
_cell_length_b 15.061379
_cell_length_c 19.467627
_cell_angle_alpha 90.000000
_cell_angle_beta 26.209908
_cell_angle_gamma 90.000000
_cell_volume 2436.924898
_symmetry_space_group_name_H-M "C 2/M"
_symmetry_group_IT_number 12
_symmetry_cell_setting 'monoclinic'
loop_
_space_group_symop_operation_xyz
x,y,z
-x,y,-z
-x,-y,-z
x,-y,z
1/2+x,1/2+y,z
1/2-x,1/2+y,-z
1/2-x,1/2-y,-z
1/2+x,1/2-y,z
loop_
_atom_site_type_symbol
_atom_site_label
_atom_site_fract_x
_atom_site_fract_y
_atom_site_fract_z
Si Si1 0.350866 0.000000 0.940570
Si Si2 0.845553 0.000000 0.401576
Si Si3 0.160183 0.355851 0.821693
Si Si4 0.478600 0.698539 0.911040
Si Si5 0.715833 0.000000 0.658475
Si Si6 0.201040 0.161190 0.159053
Si Si7 0.127228 0.817077 0.635885
Si Si8 0.590318 0.500000 0.062001
O O1 0.291971 0.913977 0.035130
O O2 0.271932 0.000000 0.933320
O O3 0.542627 0.000000 0.771365
O O4 0.771850 0.092384 0.444221
O O5 0.000448 0.000000 0.215385
O O6 0.847452 0.000000 0.483273
O O7 0.211444 0.414355 0.712304
O O8 0.293827 0.359871 0.764660
O O9 0.101935 0.256228 0.850927
O O10 0.000000 0.392858 0.000000
O O11 0.550063 0.711110 0.773611
O O12 0.455320 0.591690 0.937304
O O13 0.307835 0.749281 0.060923
O O14 0.022855 0.168218 0.284570
O O15 0.250000 0.750000 0.500000
#
# Coordination Sequence:
#
# PCOD9194616 Si02
#       8
#     4   4   8   8   4   8   8   4
#     4  12  19  34  63  86 120 145 187 233 301 340
#     4  10  22  37  52  82 114 149 184 228 292 342
#     4  10  20  34  56  87 119 151 186 239 290 346
#     4  10  20  37  57  83 109 155 196 232 289 335
#     4  12  20  33  58  90 118 152 188 225 292 362
#     4  11  21  37  59  85 116 149 192 238 295 347
#     4  11  22  37  57  79 115 151 191 243 287 338
#     4  10  22  37  57  81 118 155 193 244 282 330
#
# _framework density 19.696954999999999
#
# number of rings (size 3 to 8) (size 9 to 14) (size 15 to 20)
#    0.000    1.333    6.667    2.250    0.000    0.000 
#    0.000    7.917    0.000    0.000    0.000    3.500 
#    0.000    0.000    0.000    0.000    0.000    0.000 
#
# Total GULP energy -133717.460106 kJ/mol
# GULP energy per Si atom -5571.560838 kJ/mol
# Density = 1.965212 g / cm^3
# Si number density = 19.696955 Si / 1000 Ang^3
#
#
#
# Elastic Constant Matrix: (Units=GPa)
#
#
# Indices 1 2 3 4 5 6 
#
# 1 68.5017 0.3251 2.7905 -0.0018 1.4463 0.0004
# 2 0.3251 110.1716 19.2082 0.0031 -2.5664 -0.0006
# 3 2.7905 19.2082 47.1515 -0.0008 8.5180 0.0004
# 4 -0.0018 0.0031 -0.0008 25.3341 0.0009 4.7421
# 5 1.4463 -2.5664 8.5180 0.0009 23.3074 -0.0006
# 6 0.0004 -0.0006 0.0004 4.7421 -0.0006 23.2847
#
#
#
# Elastic Compliance Matrix: (Units=1/GPa)
#
#
# Indices 1 2 3 4 5 6 
#
# 1 0.014643 0.000080 -0.000789 0.000001 -0.000612 0.000000
# 2 0.000080 0.009934 -0.004548 -0.000002 0.002751 0.000001
# 3 -0.000789 -0.004548 0.024829 0.000002 -0.009526 -0.000001
# 4 0.000001 -0.000002 0.000002 0.041037 -0.000003 -0.008357
# 5 -0.000612 0.002751 -0.009526 -0.000003 0.046727 0.000002
# 6 0.000000 0.000001 -0.000001 -0.008357 0.000002 0.044649
#
#
# Mechanical properties :
#
#
# Convention : Reuss Voigt Hill
#
# Bulk Modulus (GPa) = 25.71288 30.05248 27.88268
# Shear Modulus (GPa) = 24.35515 27.95199 26.15357
#
# Velocity S-wave (km/s) = 3.52020 3.77118 3.64785
# Velocity P-wave (km/s) = 5.44104 5.85261 5.65057
#
# Compressibility (1/GPa) = 0.03889102
#
# Stress axis : x y z
#
# Youngs Moduli (GPa) = 68.29278 100.66844 40.27599
#
# Poissons Ratio (x) = -0.00806 0.03177
# Poissons Ratio (y) = -0.00547 0.18319
# Poissons Ratio (z) = 0.05386 0.45788
#
# Static dielectric constant tensor:
#      x y z
#    x 1.705550 0.000000 -0.000740 
#    y 0.000000 1.745250 0.000000 
#    z -0.000740 0.000000 1.695330 
# 
# From -- ./inp_files/278085.got.cif
#   From: 2010.05.17/outbox.cif.g08.bks.cpg/sg12_140_cif.got.tgz:278085.got - 2010.06.03 13:09:07.
