data_PCOD9194887
_publ_section_title
;
Structure prediction by ZEFSAII (Michael W. Deem and Ramdas Pophale) SiO2 
 PCOD9194887
Probable space group: C 2/M
;
_chemical_formula_sum "Si O2"
_cell_formula_units_Z 50
_cell_length_a 27.393307
_cell_length_b 10.526860
_cell_length_c 9.940279
_cell_angle_alpha 90.000000
_cell_angle_beta 57.461251
_cell_angle_gamma 90.000000
_cell_volume 2416.483437
_symmetry_space_group_name_H-M "C 2/M"
_symmetry_group_IT_number 12
_symmetry_cell_setting 'monoclinic'
loop_
_space_group_symop_operation_xyz
x,y,z
-x,y,-z
-x,-y,-z
x,-y,z
1/2+x,1/2+y,z
1/2-x,1/2+y,-z
1/2-x,1/2-y,-z
1/2+x,1/2-y,z
loop_
_atom_site_type_symbol
_atom_site_label
_atom_site_fract_x
_atom_site_fract_y
_atom_site_fract_z
Si Si1 0.632566 0.853705 0.787226
Si Si2 0.831064 0.862476 0.907831
Si Si3 0.557367 0.289709 0.111090
Si Si4 0.722633 0.642527 0.714427
Si Si5 0.054103 0.352667 0.637242
Si Si6 0.834947 0.351411 0.691115
Si Si7 0.500000 0.500000 0.000000
O O1 0.685290 0.753416 0.703530
O O2 0.590209 0.840648 0.722554
O O3 0.652320 0.000000 0.765320
O O4 0.594031 0.816376 0.974662
O O5 0.898004 0.851480 0.851403
O O6 0.817257 0.745148 0.833133
O O7 0.818950 0.000000 0.861808
O O8 0.798133 0.858495 0.098866
O O9 0.502393 0.231728 0.267726
O O10 0.534774 0.389747 0.035044
O O11 0.711109 0.500000 0.676586
O O12 0.791143 0.662077 0.629773
O O13 0.037421 0.500000 0.646937
O O14 0.100138 0.321552 0.453050
O O15 0.832067 0.500000 0.735718
#
# Coordination Sequence:
#
# PCOD9194887 Si02
#       7
#     8   8   8   8   8   8   2
#     4  10  20  34  58  86 113 142 185 234 282 331
#     4  10  21  37  56  84 111 140 186 238 278 329
#     4  11  21  36  60  86 112 146 184 227 283 335
#     4   9  20  37  60  82 110 145 189 236 283 330
#     4  10  21  37  56  80 116 149 186 230 278 335
#     4  10  22  40  57  79 111 156 191 227 277 333
#     4  12  20  36  62  86 120 144 186 228 282 344
#
# _framework density 20.691223999999998
#
# number of rings (size 3 to 8) (size 9 to 14) (size 15 to 20)
#    0.000    1.920    2.400    0.960    1.120    6.400 
#    1.440    2.400    0.000    0.000    0.000    0.000 
#    0.000    0.000    0.000    0.000    0.000    0.000 
#
# Total GULP energy -139361.053573 kJ/mol
# GULP energy per Si atom -5574.442143 kJ/mol
# Density = 2.064413 g / cm^3
# Si number density = 20.691224 Si / 1000 Ang^3
#
#
#
# Elastic Constant Matrix: (Units=GPa)
#
#
# Indices 1 2 3 4 5 6 
#
# 1 64.1054 39.7440 3.5965 0.0000 -21.2218 0.0000
# 2 39.7440 101.4527 24.6893 0.0000 1.7280 0.0000
# 3 3.5965 24.6893 43.0888 0.0000 -5.2827 0.0000
# 4 0.0000 0.0000 0.0000 4.6439 0.0000 8.2758
# 5 -21.2218 1.7280 -5.2827 0.0000 24.5762 0.0000
# 6 0.0000 0.0000 0.0000 8.2758 0.0000 26.1775
#
#
#
# Elastic Compliance Matrix: (Units=1/GPa)
#
#
# Indices 1 2 3 4 5 6 
#
# 1 0.039194 -0.018976 0.012237 0.000000 0.037809 0.000000
# 2 -0.018976 0.020767 -0.012842 0.000000 -0.020607 0.000000
# 3 0.012237 -0.012842 0.031789 0.000000 0.018303 0.000000
# 4 0.000000 0.000000 0.000000 0.493205 0.000000 -0.155923
# 5 0.037809 -0.020607 0.018303 0.000000 0.078722 0.000000
# 6 0.000000 0.000000 0.000000 -0.155923 0.000000 0.087494
#
#
# Mechanical properties :
#
#
# Convention : Reuss Voigt Hill
#
# Bulk Modulus (GPa) = 19.01567 38.30072 28.65819
# Shear Modulus (GPa) = 6.18918 20.45398 13.32158
#
# Velocity S-wave (km/s) = 1.73139 3.14751 2.54013
# Velocity P-wave (km/s) = 3.63416 5.63559 4.74167
#
# Compressibility (1/GPa) = 0.05258821
#
# Stress axis : x y z
#
# Youngs Moduli (GPa) = 25.51395 48.15364 31.45783
#
# Poissons Ratio (x) = 0.91378 -0.38496
# Poissons Ratio (y) = 0.48416 0.40397
# Poissons Ratio (z) = -0.31222 0.61837
#
# Static dielectric constant tensor:
#      x y z
#    x 1.726150 0.000000 -0.025190 
#    y 0.000000 1.719320 0.000000 
#    z -0.025190 0.000000 1.771970 
# 
# From -- ./inp_files/180558.got.cif
#   From: 2010.05.17/outbox.cif.g08.bks.cpg/sg12_91_cif.got.tgz:180558.got - 2010.06.03 13:09:07.
