data_PCOD9194422
_publ_section_title
;
Structure prediction by ZEFSAII (Michael W. Deem and Ramdas Pophale) SiO2 
 PCOD9194422
Probable space group: C 2/M
;
_chemical_formula_sum "Si O2"
_cell_formula_units_Z 60
_cell_length_a 22.932282
_cell_length_b 22.600272
_cell_length_c 6.821144
_cell_angle_alpha 90.000000
_cell_angle_beta 105.975526
_cell_angle_gamma 90.000000
_cell_volume 3398.700895
_symmetry_space_group_name_H-M "C 2/M"
_symmetry_group_IT_number 12
_symmetry_cell_setting 'monoclinic'
loop_
_space_group_symop_operation_xyz
x,y,z
-x,y,-z
-x,-y,-z
x,-y,z
1/2+x,1/2+y,z
1/2-x,1/2+y,-z
1/2-x,1/2-y,-z
1/2+x,1/2-y,z
loop_
_atom_site_type_symbol
_atom_site_label
_atom_site_fract_x
_atom_site_fract_y
_atom_site_fract_z
Si Si1 0.738876 0.166044 0.069297
Si Si2 0.507312 0.350719 0.279190
Si Si3 0.143681 0.858604 0.258629
Si Si4 0.209334 0.270055 0.652435
Si Si5 0.301689 0.568553 0.353623
Si Si6 0.632212 0.218956 0.232017
Si Si7 0.102479 0.066859 0.881095
Si Si8 0.500000 0.242640 0.000000
O O1 0.789721 0.211359 0.208788
O O2 0.756429 0.101072 0.160565
O O3 0.677123 0.184802 0.126654
O O4 0.730857 0.180670 0.830696
O O5 0.500000 0.343156 0.500000
O O6 0.575881 0.364780 0.284304
O O7 0.537372 0.403029 0.822631
O O8 0.486697 0.289481 0.161091
O O9 0.190371 0.888455 0.452404
O O10 0.146081 0.789022 0.218965
O O11 0.144605 0.894607 0.060187
O O12 0.250000 0.250000 0.500000
O O13 0.149511 0.290376 0.478205
O O14 0.286177 0.500000 0.384071
O O15 0.366572 0.567450 0.302743
O O16 0.561723 0.209259 0.114291
O O17 0.099770 0.000000 0.950213
#
# Coordination Sequence:
#
# PCOD9194422 Si02
#       8
#     8   8   8   8   8   8   8   4
#     4  10  21  34  56  79 106 139 178 225 275 322
#     4  11  20  33  50  68  98 145 183 225 261 307
#     4  11  21  35  53  74 105 139 185 225 269 308
#     4   9  19  32  53  82 100 135 175 221 263 326
#     4  11  24  37  53  77 106 143 185 226 264 317
#     4  10  20  34  56  82 105 139 174 221 273 328
#     4  11  23  34  48  68  99 144 192 230 260 303
#     4  10  22  36  51  80 111 134 174 224 274 322
#
# _framework density 17.653804000000001
#
# number of rings (size 3 to 8) (size 9 to 14) (size 15 to 20)
#    0.000    1.600    5.333    0.400    5.600    4.000 
#    0.000    0.000    0.000    0.000    0.000    0.467 
#    0.000    1.067    0.000    0.000    0.000    0.000 
#
# Total GULP energy -167199.524490 kJ/mol
# GULP energy per Si atom -5573.317483 kJ/mol
# Density = 1.761362 g / cm^3
# Si number density = 17.653804 Si / 1000 Ang^3
#
#
#
# Elastic Constant Matrix: (Units=GPa)
#
#
# Indices 1 2 3 4 5 6 
#
# 1 66.8642 24.8165 21.5200 0.0000 15.8310 0.0000
# 2 24.8165 56.6378 9.3521 0.0000 6.3061 0.0000
# 3 21.5200 9.3521 113.4077 0.0000 9.7358 0.0000
# 4 0.0000 0.0000 0.0000 13.8515 0.0000 -1.6660
# 5 15.8310 6.3061 9.7358 0.0000 28.6884 0.0000
# 6 0.0000 0.0000 0.0000 -1.6660 0.0000 19.6820
#
#
#
# Elastic Compliance Matrix: (Units=1/GPa)
#
#
# Indices 1 2 3 4 5 6 
#
# 1 0.020724 -0.007672 -0.002537 0.000000 -0.008889 0.000000
# 2 -0.007672 0.021095 -0.000257 0.000000 -0.000316 0.000000
# 3 -0.002537 -0.000257 0.009471 0.000000 -0.001758 0.000000
# 4 0.000000 0.000000 0.000000 0.072937 0.000000 0.006174
# 5 -0.008889 -0.000316 -0.001758 0.000000 0.040428 0.000000
# 6 0.000000 0.000000 0.000000 0.006174 0.000000 0.051330
#
#
# Mechanical properties :
#
#
# Convention : Reuss Voigt Hill
#
# Bulk Modulus (GPa) = 32.93835 38.69853 35.81844
# Shear Modulus (GPa) = 20.23988 24.52579 22.38283
#
# Velocity S-wave (km/s) = 3.38966 3.73133 3.56459
# Velocity P-wave (km/s) = 5.83251 6.36648 6.10534
#
# Compressibility (1/GPa) = 0.03035975
#
# Stress axis : x y z
#
# Youngs Moduli (GPa) = 48.25294 47.40414 105.58324
#
# Poissons Ratio (x) = 0.36368 0.26785
# Poissons Ratio (y) = 0.37019 0.02710
# Poissons Ratio (z) = 0.12241 0.01217
#
# Static dielectric constant tensor:
#      x y z
#    x 1.676940 0.000000 0.018270 
#    y 0.000000 1.596950 0.000000 
#    z 0.018270 0.000000 1.651760 
# 
# From -- ./inp_files/29541.got.cif
#   From: 2010.05.17/outbox.cif.g08.bks.cpg/sg12_15_cif.got.tgz:29541.got - 2010.06.03 13:09:07.
