data_PCOD9194865
_publ_section_title
;
Structure prediction by ZEFSAII (Michael W. Deem and Ramdas Pophale) SiO2 
 PCOD9194865
Probable space group: C 2/M
;
_chemical_formula_sum "Si O2"
_cell_formula_units_Z 58
_cell_length_a 25.777121
_cell_length_b 12.893257
_cell_length_c 17.132690
_cell_angle_alpha 90.000000
_cell_angle_beta 149.066785
_cell_angle_gamma 90.000000
_cell_volume 2926.970429
_symmetry_space_group_name_H-M "C 2/M"
_symmetry_group_IT_number 12
_symmetry_cell_setting 'monoclinic'
loop_
_space_group_symop_operation_xyz
x,y,z
-x,y,-z
-x,-y,-z
x,-y,z
1/2+x,1/2+y,z
1/2-x,1/2+y,-z
1/2-x,1/2-y,-z
1/2+x,1/2-y,z
loop_
_atom_site_type_symbol
_atom_site_label
_atom_site_fract_x
_atom_site_fract_y
_atom_site_fract_z
Si Si1 0.209410 0.621405 0.327227
Si Si2 0.570225 0.809222 0.280394
Si Si3 0.246122 0.311968 0.822795
Si Si4 0.562707 0.616774 0.847143
Si Si5 0.575599 0.698037 0.690900
Si Si6 0.500000 0.500000 0.500000
Si Si7 0.625961 0.886293 0.055382
Si Si8 0.366545 0.212459 0.470442
O O1 0.231076 0.500000 0.369683
O O2 0.164344 0.677397 0.344539
O O3 0.127491 0.626085 0.151107
O O4 0.305598 0.684742 0.420037
O O5 0.521703 0.694026 0.226154
O O6 0.600213 0.842608 0.406674
O O7 0.481149 0.874352 0.124605
O O8 0.155444 0.282351 0.763666
O O9 0.301552 0.201725 0.882642
O O10 0.202714 0.344610 0.682426
O O11 0.335413 0.382145 0.970580
O O12 0.523891 0.500000 0.787854
O O13 0.593575 0.663890 0.803428
O O14 0.567022 0.593117 0.629453
O O15 0.465386 0.750526 0.552330
O O16 0.668241 0.000000 0.094248
#
# Coordination Sequence:
#
# PCOD9194865 Si02
#       8
#     8   8   8   8   8   2   8   8
#     4  10  20  34  58  82 108 140 179 227 282 325
#     4  10  20  35  53  77 107 141 180 225 270 315
#     4  10  20  36  56  82 112 144 178 218 265 324
#     4  10  22  38  57  79 109 147 186 219 261 321
#     4  11  21  34  56  85 113 137 171 226 277 322
#     4  12  20  28  60  88 114 130 172 224 288 320
#     4   9  19  33  56  83 110 136 173 224 283 330
#     4  10  21  34  52  78 113 147 177 218 266 318
#
# _framework density 19.815712000000001
#
# number of rings (size 3 to 8) (size 9 to 14) (size 15 to 20)
#    0.000    1.931    2.069    1.655    1.931    1.655 
#    0.000    1.379    0.000   19.862    0.000    0.000 
#    0.000    0.000    0.000    0.000    0.000    0.000 
#
# Total GULP energy -161464.756426 kJ/mol
# GULP energy per Si atom -5567.750222 kJ/mol
# Density = 1.977061 g / cm^3
# Si number density = 19.815712 Si / 1000 Ang^3
#
#
#
# Elastic Constant Matrix: (Units=GPa)
#
#
# Indices 1 2 3 4 5 6 
#
# 1 60.2538 23.1343 -2.5449 0.0000 9.4964 0.0000
# 2 23.1343 36.6640 -3.8882 0.0000 -6.7450 0.0000
# 3 -2.5449 -3.8882 81.4362 0.0000 -18.1129 0.0000
# 4 0.0000 0.0000 0.0000 9.9955 0.0000 -12.3855
# 5 9.4964 -6.7450 -18.1129 0.0000 34.7210 0.0000
# 6 0.0000 0.0000 0.0000 -12.3855 0.0000 5.7040
#
#
#
# Elastic Compliance Matrix: (Units=1/GPa)
#
#
# Indices 1 2 3 4 5 6 
#
# 1 0.025524 -0.018614 -0.002769 0.000000 -0.012042 0.000000
# 2 -0.018614 0.042484 0.004994 0.000000 0.015950 0.000000
# 3 -0.002769 0.004994 0.014498 0.000000 0.009291 0.000000
# 4 0.000000 0.000000 0.000000 -0.059178 0.000000 -0.128498
# 5 -0.012042 0.015950 0.009291 0.000000 0.040040 0.000000
# 6 0.000000 0.000000 0.000000 -0.128498 0.000000 -0.103702
#
#
# Mechanical properties :
#
#
# Convention : Reuss Voigt Hill
#
# Bulk Modulus (GPa) = 20.10989 23.52849 21.81919
# Shear Modulus (GPa) = 554.27936 20.86095 287.57016
#
# Velocity S-wave (km/s) = 16.74289 3.24813 12.05974
# Velocity P-wave (km/s) = 19.59429 5.09574 14.31612
#
# Compressibility (1/GPa) = 0.04972677
#
# Stress axis : x y z
#
# Youngs Moduli (GPa) = 39.17826 23.53828 68.97553
#
# Poissons Ratio (x) = 0.43815 0.19102
# Poissons Ratio (y) = 0.72928 -0.34448
# Poissons Ratio (z) = 0.10850 -0.11755
#
# Static dielectric constant tensor:
#      x y z
#    x 1.712470 0.000000 -0.028210 
#    y 0.000000 1.656760 0.000000 
#    z -0.028210 0.000000 1.760430 
# 
# From -- ./inp_files/293295.got.cif
#   From: 2010.05.17/outbox.cif.g08.bks.cpg/sg12_147_cif.got.tgz:293295.got - 2010.06.03 13:09:07.
