data_PCOD9194425
_publ_section_title
;
Structure prediction by ZEFSAII (Michael W. Deem and Ramdas Pophale) SiO2 
 PCOD9194425
Probable space group: C 2/M
;
_chemical_formula_sum "Si O2"
_cell_formula_units_Z 52
_cell_length_a 15.405592
_cell_length_b 18.871552
_cell_length_c 18.490290
_cell_angle_alpha 90.000000
_cell_angle_beta 150.010600
_cell_angle_gamma 90.000000
_cell_volume 2686.955926
_symmetry_space_group_name_H-M "C 2/M"
_symmetry_group_IT_number 12
_symmetry_cell_setting 'monoclinic'
loop_
_space_group_symop_operation_xyz
x,y,z
-x,y,-z
-x,-y,-z
x,-y,z
1/2+x,1/2+y,z
1/2-x,1/2+y,-z
1/2-x,1/2-y,-z
1/2+x,1/2-y,z
loop_
_atom_site_type_symbol
_atom_site_label
_atom_site_fract_x
_atom_site_fract_y
_atom_site_fract_z
Si Si1 0.500000 0.319675 0.500000
Si Si2 0.289581 0.822043 0.483326
Si Si3 0.315201 0.717256 0.749401
Si Si4 0.385652 0.815131 0.989490
Si Si5 0.626877 0.916640 0.891145
Si Si6 0.218631 0.918697 0.555390
Si Si7 0.807262 0.680444 0.195534
O O1 0.651686 0.270306 0.639909
O O2 0.590773 0.369050 0.507318
O O3 0.250000 0.750000 0.500000
O O4 0.216308 0.818246 0.350075
O O5 0.216850 0.889011 0.473427
O O6 0.497072 0.828667 0.635345
O O7 0.485845 0.764990 0.871418
O O8 0.313788 0.670301 0.821006
O O9 0.334444 0.880003 0.003705
O O10 0.500000 0.834138 0.000000
O O11 0.231830 0.761311 0.857513
O O12 0.417013 0.911013 0.727457
O O13 0.712186 0.871889 0.886943
O O14 0.670773 0.000000 0.920727
O O15 0.168608 0.000000 0.525136
#
# Coordination Sequence:
#
# PCOD9194425 Si02
#       7
#     4   8   8   8   8   8   8
#     4  12  17  32  56  76 111 140 180 218 267 320
#     4  11  18  33  56  80 111 139 181 226 266 316
#     4  11  19  33  57  86 108 137 184 229 268 310
#     4  10  21  35  56  81 108 138 183 228 271 320
#     4  10  20  36  54  77 112 148 181 217 273 331
#     4  10  21  33  51  81 114 148 176 216 272 328
#     4  10  20  34  56  82 106 142 183 225 266 319
#
# _framework density 19.352754999999998
#
# number of rings (size 3 to 8) (size 9 to 14) (size 15 to 20)
#    0.000    1.538    4.615    1.615    0.000    0.308 
#    0.000    0.769    0.000   15.231    0.000    0.000 
#    0.000    0.000    0.000    0.000    0.000    0.000 
#
# Total GULP energy -145112.192001 kJ/mol
# GULP energy per Si atom -5581.238154 kJ/mol
# Density = 1.930871 g / cm^3
# Si number density = 19.352755 Si / 1000 Ang^3
#
#
#
# Elastic Constant Matrix: (Units=GPa)
#
#
# Indices 1 2 3 4 5 6 
#
# 1 108.7493 50.4944 14.5385 0.0142 -31.2783 0.0080
# 2 50.4944 41.5171 5.6541 0.0099 -17.2271 0.0025
# 3 14.5385 5.6541 48.9906 0.0122 -18.5798 0.0103
# 4 0.0142 0.0099 0.0122 7.8125 -0.0006 -14.4854
# 5 -31.2783 -17.2271 -18.5798 -0.0006 34.9607 -0.0005
# 6 0.0080 0.0025 0.0103 -14.4854 -0.0005 5.9853
#
#
#
# Elastic Compliance Matrix: (Units=1/GPa)
#
#
# Indices 1 2 3 4 5 6 
#
# 1 0.023024 -0.024558 -0.000971 0.000012 0.007981 0.000011
# 2 -0.024558 0.056762 0.003772 0.000007 0.008003 0.000021
# 3 -0.000971 0.003772 0.025851 0.000035 0.014728 0.000042
# 4 0.000012 0.000007 0.000035 -0.036705 0.000031 -0.088831
# 5 0.007981 0.008003 0.014728 0.000031 0.047515 0.000041
# 6 0.000011 0.000021 0.000042 -0.088831 0.000041 -0.047909
#
#
# Mechanical properties :
#
#
# Convention : Reuss Voigt Hill
#
# Bulk Modulus (GPa) = 16.09759 37.84789 26.97274
# Shear Modulus (GPa) = 37.66244 18.32303 27.99274
#
# Velocity S-wave (km/s) = 4.41625 3.08034 3.80734
# Velocity P-wave (km/s) = 5.86007 5.67896 5.77023
#
# Compressibility (1/GPa) = 0.06212109
#
# Stress axis : x y z
#
# Youngs Moduli (GPa) = 43.43367 17.61751 38.68393
#
# Poissons Ratio (x) = 0.43265 0.03757
# Poissons Ratio (y) = 1.06664 -0.14591
# Poissons Ratio (z) = 0.04219 -0.06645
#
# Static dielectric constant tensor:
#      x y z
#    x 1.757900 -0.000010 0.017320 
#    y -0.000010 1.649410 -0.000010 
#    z 0.017320 -0.000010 1.740190 
# 
# From -- ./inp_files/272231.got.cif
#   From: 2010.05.17/outbox.cif.g08.bks.cpg/sg12_137_cif.got.tgz:272231.got - 2010.06.03 13:09:07.
