data_PCOD9194521
_publ_section_title
;
Structure prediction by ZEFSAII (Michael W. Deem and Ramdas Pophale) SiO2 
 PCOD9194521
Probable space group: C 2/M
;
_chemical_formula_sum "Si O2"
_cell_formula_units_Z 64
_cell_length_a 29.872420
_cell_length_b 9.422020
_cell_length_c 16.968332
_cell_angle_alpha 90.000000
_cell_angle_beta 41.103161
_cell_angle_gamma 90.000000
_cell_volume 3139.745104
_symmetry_space_group_name_H-M "C 2/M"
_symmetry_group_IT_number 12
_symmetry_cell_setting 'monoclinic'
loop_
_space_group_symop_operation_xyz
x,y,z
-x,y,-z
-x,-y,-z
x,-y,z
1/2+x,1/2+y,z
1/2-x,1/2+y,-z
1/2-x,1/2-y,-z
1/2+x,1/2-y,z
loop_
_atom_site_type_symbol
_atom_site_label
_atom_site_fract_x
_atom_site_fract_y
_atom_site_fract_z
Si Si1 0.293983 0.664852 0.190376
Si Si2 0.151490 0.341899 0.130826
Si Si3 0.656755 0.165262 0.454350
Si Si4 0.536161 0.335653 0.213575
Si Si5 0.919063 0.670018 0.284819
Si Si6 0.954869 0.834987 0.486932
Si Si7 0.078654 0.831097 0.875533
Si Si8 0.277040 0.657911 0.849848
O O1 0.292315 0.500000 0.165661
O O2 0.237274 0.678883 0.334490
O O3 0.369038 0.696725 0.122655
O O4 0.265643 0.767820 0.161650
O O5 0.122026 0.500000 0.180568
O O6 0.106463 0.243997 0.134230
O O7 0.163767 0.259323 0.196066
O O8 0.223840 0.358119 0.992196
O O9 0.632424 0.202659 0.574709
O O10 0.613781 0.254089 0.447370
O O11 0.638851 0.000000 0.466032
O O12 0.543399 0.500000 0.179835
O O13 0.488988 0.247345 0.217306
O O14 0.500010 0.330990 0.347294
O O15 0.926655 0.500000 0.269070
O O16 0.898800 0.739120 0.229209
O O17 0.000000 0.778558 0.500000
O O18 0.939959 0.000000 0.523533
O O19 0.083268 0.000000 0.851640
O O20 0.000000 0.799349 0.000000
O O21 0.300933 0.500000 0.797378
#
# Coordination Sequence:
#
# PCOD9194521 Si02
#       8
#     8   8   8   8   8   8   8   8
#     4  10  22  40  61  87 120 156 195 246 301 355
#     4  10  21  37  56  82 116 156 199 242 292 347
#     4   9  20  38  58  84 116 154 196 240 296 352
#     4  10  20  34  56  84 115 155 196 238 293 349
#     4  10  21  39  61  86 118 153 196 247 295 351
#     4   9  19  34  52  80 116 152 193 241 288 339
#     4  10  23  42  63  90 119 153 195 242 301 362
#     4  10  22  38  56  82 116 154 198 242 290 349
#
# _framework density 20.383818999999999
#
# number of rings (size 3 to 8) (size 9 to 14) (size 15 to 20)
#    0.000    2.250    0.000    1.500    3.500    4.500 
#    0.000    0.000    0.000    0.000    0.000    0.000 
#    0.000    0.000    0.000    0.000    0.000    0.000 
#
# Total GULP energy -178658.649735 kJ/mol
# GULP energy per Si atom -5583.082804 kJ/mol
# Density = 2.033742 g / cm^3
# Si number density = 20.383819 Si / 1000 Ang^3
#
#
#
# Elastic Constant Matrix: (Units=GPa)
#
#
# Indices 1 2 3 4 5 6 
#
# 1 53.2932 31.0508 0.3443 0.0019 12.4851 -0.0009
# 2 31.0508 82.8877 17.2731 0.0035 10.9592 -0.0012
# 3 0.3443 17.2731 41.1944 0.0040 -3.8798 -0.0007
# 4 0.0019 0.0035 0.0040 9.5646 -0.0018 -1.9026
# 5 12.4851 10.9592 -3.8798 -0.0018 29.0899 0.0005
# 6 -0.0009 -0.0012 -0.0007 -1.9026 0.0005 32.4158
#
#
#
# Elastic Compliance Matrix: (Units=1/GPa)
#
#
# Indices 1 2 3 4 5 6 
#
# 1 0.025893 -0.009386 0.003044 -0.000004 -0.007171 0.000000
# 2 -0.009386 0.017662 -0.007671 -0.000002 -0.003648 0.000000
# 3 0.003044 -0.007671 0.027967 -0.000009 0.005313 0.000000
# 4 -0.000004 -0.000002 -0.000009 0.105787 0.000008 0.006209
# 5 -0.007171 -0.003648 0.005313 0.000008 0.039537 0.000000
# 6 0.000000 0.000000 0.000000 0.006209 0.000000 0.031214
#
#
# Mechanical properties :
#
#
# Convention : Reuss Voigt Hill
#
# Bulk Modulus (GPa) = 22.99104 30.52351 26.75728
# Shear Modulus (GPa) = 17.20677 22.79454 20.00065
#
# Velocity S-wave (km/s) = 2.90856 3.34768 3.13581
# Velocity P-wave (km/s) = 4.75217 5.47261 5.12507
#
# Compressibility (1/GPa) = 0.04349521
#
# Stress axis : x y z
#
# Youngs Moduli (GPa) = 38.62025 56.62006 35.75702
#
# Poissons Ratio (x) = 0.53144 -0.10884
# Poissons Ratio (y) = 0.36249 0.27428
# Poissons Ratio (z) = -0.11755 0.43432
#
# Static dielectric constant tensor:
#      x y z
#    x 1.690190 0.000000 0.004030 
#    y 0.000000 1.721150 0.000000 
#    z 0.004030 0.000000 1.780220 
# 
# From -- ./inp_files/295658.got.cif
#   From: 2010.05.17/outbox.cif.g08.bks.cpg/sg12_148_cif.got.tgz:295658.got - 2010.06.03 13:09:07.
