data_PCOD9194298
_publ_section_title
;
Structure prediction by ZEFSAII (Michael W. Deem and Ramdas Pophale) SiO2 
 PCOD9194298
Probable space group: C 2/M
;
_chemical_formula_sum "Si O2"
_cell_formula_units_Z 40
_cell_length_a 9.184582
_cell_length_b 25.224592
_cell_length_c 7.771008
_cell_angle_alpha 90.000000
_cell_angle_beta 97.857913
_cell_angle_gamma 90.000000
_cell_volume 1783.461255
_symmetry_space_group_name_H-M "C 2/M"
_symmetry_group_IT_number 12
_symmetry_cell_setting 'monoclinic'
loop_
_space_group_symop_operation_xyz
x,y,z
-x,y,-z
-x,-y,-z
x,-y,z
1/2+x,1/2+y,z
1/2-x,1/2+y,-z
1/2-x,1/2-y,-z
1/2+x,1/2-y,z
loop_
_atom_site_type_symbol
_atom_site_label
_atom_site_fract_x
_atom_site_fract_y
_atom_site_fract_z
Si Si1 0.175470 0.197543 0.557751
Si Si2 0.935133 0.556108 0.679807
Si Si3 0.663893 0.582885 0.453452
Si Si4 0.638981 0.850573 0.106888
Si Si5 0.827063 0.059867 0.940018
O O1 0.250000 0.250000 0.500000
O O2 0.211318 0.144431 0.456302
O O3 0.247135 0.183186 0.756872
O O4 0.000000 0.203758 0.500000
O O5 0.984889 0.500000 0.763438
O O6 0.762261 0.555666 0.613312
O O7 0.955379 0.608275 0.791433
O O8 0.000000 0.560994 0.500000
O O9 0.500000 0.580283 0.500000
O O10 0.688763 0.560289 0.269194
O O11 0.500000 0.819281 0.000000
O O12 0.737253 0.891532 0.009281
O O13 0.789882 0.000000 0.997008
O O14 0.000000 0.068505 0.000000
#
# Coordination Sequence:
#
# PCOD9194298 Si02
#       5
#     8   8   8   8   8
#     4  10  23  45  69  91 120 164 214 264 322 388
#     4  10  20  34  55  84 121 168 214 253 300 366
#     4  10  21  38  59  86 123 167 215 260 306 372
#     4  11  24  41  62  95 133 166 207 267 325 375
#     4  11  22  36  59  93 134 176 215 262 319 375
#
# _framework density 22.428297000000001
#
# number of rings (size 3 to 8) (size 9 to 14) (size 15 to 20)
#    0.000    1.600    0.000    6.000    0.000   11.200 
#    0.000    5.000    0.000    0.600    0.000    0.000 
#    0.000    0.000    0.000    0.000    0.000    0.000 
#
# Total GULP energy -111567.762256 kJ/mol
# GULP energy per Si atom -5578.388113 kJ/mol
# Density = 2.237725 g / cm^3
# Si number density = 22.428297 Si / 1000 Ang^3
#
#
#
# Elastic Constant Matrix: (Units=GPa)
#
#
# Indices 1 2 3 4 5 6 
#
# 1 127.7925 50.4470 51.3044 0.0000 36.6953 0.0000
# 2 50.4470 120.3711 26.5260 0.0000 3.4036 0.0000
# 3 51.3044 26.5260 97.2404 0.0000 19.8851 0.0000
# 4 0.0000 0.0000 0.0000 27.9678 0.0000 -26.0379
# 5 36.6953 3.4036 19.8851 0.0000 53.2320 0.0000
# 6 0.0000 0.0000 0.0000 -26.0379 0.0000 10.3053
#
#
#
# Elastic Compliance Matrix: (Units=1/GPa)
#
#
# Indices 1 2 3 4 5 6 
#
# 1 0.013459 -0.004468 -0.004378 0.000000 -0.007357 0.000000
# 2 -0.004468 0.010329 -0.001034 0.000000 0.002806 0.000000
# 3 -0.004378 -0.001034 0.013258 0.000000 -0.001869 0.000000
# 4 0.000000 0.000000 0.000000 -0.026441 0.000000 -0.066806
# 5 -0.007357 0.002806 -0.001869 0.000000 0.024376 0.000000
# 6 0.000000 0.000000 0.000000 -0.066806 0.000000 -0.071758
#
#
# Mechanical properties :
#
#
# Convention : Reuss Voigt Hill
#
# Bulk Modulus (GPa) = 57.85038 66.88431 62.36734
# Shear Modulus (GPa) = -444.19357 32.77614 -205.70871
#
# Velocity S-wave (km/s) = -14.08831 3.82694 -9.58736
# Velocity P-wave (km/s) = 15.45287 7.02947 9.73082
#
# Compressibility (1/GPa) = 0.01728597
#
# Stress axis : x y z
#
# Youngs Moduli (GPa) = 74.30011 96.81833 75.42781
#
# Poissons Ratio (x) = 0.43257 0.33021
# Poissons Ratio (y) = 0.33196 0.07800
# Poissons Ratio (z) = 0.32527 0.10011
#
# Static dielectric constant tensor:
#      x y z
#    x 1.912850 0.000000 0.063520 
#    y 0.000000 1.817470 0.000000 
#    z 0.063520 0.000000 1.889160 
# 
# From -- ./inp_files/39429.got.cif
#   From: 2010.05.17/outbox.cif.g08.bks.cpg/sg12_20_cif.got.tgz:39429.got - 2010.06.03 13:09:07.
