data_PCOD9194183
_publ_section_title
;
Structure prediction by ZEFSAII (Michael W. Deem and Ramdas Pophale) SiO2 
 PCOD9194183
Probable space group: C 2/M
;
_chemical_formula_sum "Si O2"
_cell_formula_units_Z 48
_cell_length_a 19.472831
_cell_length_b 11.653156
_cell_length_c 13.437376
_cell_angle_alpha 90.000000
_cell_angle_beta 136.725015
_cell_angle_gamma 90.000000
_cell_volume 2090.234107
_symmetry_space_group_name_H-M "C 2/M"
_symmetry_group_IT_number 12
_symmetry_cell_setting 'monoclinic'
loop_
_space_group_symop_operation_xyz
x,y,z
-x,y,-z
-x,-y,-z
x,-y,z
1/2+x,1/2+y,z
1/2-x,1/2+y,-z
1/2-x,1/2-y,-z
1/2+x,1/2-y,z
loop_
_atom_site_type_symbol
_atom_site_label
_atom_site_fract_x
_atom_site_fract_y
_atom_site_fract_z
Si Si1 0.321108 0.824165 0.375078
Si Si2 0.680363 0.867275 0.411107
Si Si3 0.052781 0.874868 0.448981
Si Si4 0.885060 0.296062 0.231954
Si Si5 0.106883 0.252613 0.140711
Si Si6 0.697681 0.875151 0.053024
O O1 0.359014 0.878709 0.517035
O O2 0.343405 0.687812 0.417106
O O3 0.379858 0.854520 0.335857
O O4 0.201256 0.835619 0.240325
O O5 0.750000 0.750000 0.500000
O O6 0.610061 0.822749 0.247668
O O7 0.715371 0.000000 0.424579
O O8 0.000000 0.885506 0.500000
O O9 0.980179 0.786430 0.316996
O O10 0.061020 0.000000 0.411347
O O11 0.788114 0.213566 0.137620
O O12 0.866372 0.371140 0.115655
O O13 0.132042 0.339013 0.077450
O O14 0.000000 0.199793 0.000000
O O15 0.742464 0.000000 0.115158
#
# Coordination Sequence:
#
# PCOD9194183 Si02
#       6
#     8   8   8   8   8   8
#     4   9  20  37  59  88 117 152 194 255 310 365
#     4  10  22  40  63  89 119 159 206 255 306 359
#     4   9  17  32  56  82 112 149 196 248 300 356
#     4   9  19  35  55  84 115 150 193 244 307 366
#     4  10  22  39  60  86 117 159 207 251 294 354
#     4  10  20  34  55  82 116 151 193 244 296 357
#
# _framework density 22.963936
#
# number of rings (size 3 to 8) (size 9 to 14) (size 15 to 20)
#    0.000    2.500    0.000    1.000    2.333    8.667 
#    0.000    0.000    0.000   12.000    0.000    0.000 
#    0.000    0.000    0.000    0.000    0.000    0.000 
#
# Total GULP energy -133657.140588 kJ/mol
# GULP energy per Si atom -5569.047524 kJ/mol
# Density = 2.291167 g / cm^3
# Si number density = 22.963936 Si / 1000 Ang^3
#
#
#
# Elastic Constant Matrix: (Units=GPa)
#
#
# Indices 1 2 3 4 5 6 
#
# 1 72.4762 1.5398 48.2261 0.0000 -24.4653 0.0000
# 2 1.5398 79.9385 12.0953 0.0000 2.5314 0.0000
# 3 48.2261 12.0953 121.5675 0.0000 -4.0250 0.0000
# 4 0.0000 0.0000 0.0000 6.9303 0.0000 -4.1566
# 5 -24.4653 2.5314 -4.0250 0.0000 52.8707 0.0000
# 6 0.0000 0.0000 0.0000 -4.1566 0.0000 9.3465
#
#
#
# Elastic Compliance Matrix: (Units=1/GPa)
#
#
# Indices 1 2 3 4 5 6 
#
# 1 0.023053 0.000583 -0.008873 0.000000 0.009964 0.000000
# 2 0.000583 0.012742 -0.001514 0.000000 -0.000456 0.000000
# 3 -0.008873 -0.001514 0.011793 0.000000 -0.003136 0.000000
# 4 0.000000 0.000000 0.000000 0.196783 0.000000 0.087514
# 5 0.009964 -0.000456 -0.003136 0.000000 0.023308 0.000000
# 6 0.000000 0.000000 0.000000 0.087514 0.000000 0.145912
#
#
# Mechanical properties :
#
#
# Convention : Reuss Voigt Hill
#
# Bulk Modulus (GPa) = 35.74114 44.18941 39.96528
# Shear Modulus (GPa) = 11.29878 27.97089 19.63483
#
# Velocity S-wave (km/s) = 2.22056 3.49382 2.92726
# Velocity P-wave (km/s) = 4.70875 5.96326 5.37275
#
# Compressibility (1/GPa) = 0.02797896
#
# Stress axis : x y z
#
# Youngs Moduli (GPa) = 43.37793 78.48119 84.79754
#
# Poissons Ratio (x) = -0.04576 0.75244
# Poissons Ratio (y) = -0.02529 0.12839
# Poissons Ratio (z) = 0.38491 0.11883
#
# Static dielectric constant tensor:
#      x y z
#    x 1.953100 0.000000 0.011820 
#    y 0.000000 1.882030 0.000000 
#    z 0.011820 0.000000 1.917900 
# 
# From -- ./inp_files/232866.got.cif
#   From: 2010.05.17/outbox.cif.g08.bks.cpg/sg12_117_cif.got.tgz:232866.got - 2010.06.03 13:09:07.
