data_PCOD9194043
_publ_section_title
;
Structure prediction by ZEFSAII (Michael W. Deem and Ramdas Pophale) SiO2 
 PCOD9194043
Probable space group: C 2/M
;
_chemical_formula_sum "Si O2"
_cell_formula_units_Z 32
_cell_length_a 7.388639
_cell_length_b 28.340529
_cell_length_c 8.130466
_cell_angle_alpha 90.000000
_cell_angle_beta 56.755458
_cell_angle_gamma 90.000000
_cell_volume 1423.868450
_symmetry_space_group_name_H-M "C 2/M"
_symmetry_group_IT_number 12
_symmetry_cell_setting 'monoclinic'
loop_
_space_group_symop_operation_xyz
x,y,z
-x,y,-z
-x,-y,-z
x,-y,z
1/2+x,1/2+y,z
1/2-x,1/2+y,-z
1/2-x,1/2-y,-z
1/2+x,1/2-y,z
loop_
_atom_site_type_symbol
_atom_site_label
_atom_site_fract_x
_atom_site_fract_y
_atom_site_fract_z
Si Si1 0.568976 0.500000 0.780666
Si Si2 0.309066 0.687734 0.379867
Si Si3 0.278161 0.224280 0.212836
Si Si4 0.851850 0.500000 0.230425
Si Si5 0.786412 0.082654 0.488046
O O1 0.385318 0.500000 0.731718
O O2 0.686458 0.548065 0.679774
O O3 0.500000 0.500000 0.000000
O O4 0.231919 0.719810 0.265649
O O5 0.569494 0.697358 0.244152
O O6 0.222608 0.706836 0.598301
O O7 0.246912 0.633328 0.426979
O O8 0.500000 0.217731 0.000000
O O9 0.868347 0.549080 0.322841
O O10 0.000000 0.500000 0.000000
O O11 0.000000 0.089879 0.500000
#
# Coordination Sequence:
#
# PCOD9194043 Si02
#       5
#     4   8   8   4   8
#     4   9  19  35  58  80 108 139 177 223 286 331
#     4  10  20  36  56  78 116 147 188 230 276 323
#     4  10  20  34  55  79 110 150 193 229 273 323
#     4   9  19  35  64  84 106 141 191 222 273 346
#     4   9  17  36  56  77 110 152 174 220 281 336
#
# _framework density 22.473986
#
# number of rings (size 3 to 8) (size 9 to 14) (size 15 to 20)
#    0.000    2.500    2.500    2.250    0.000    2.000 
#    0.000    2.500   16.500    0.000    0.000    0.000 
#    0.000    0.000    0.000    0.000    0.000    0.000 
#
# Total GULP energy -89092.735086 kJ/mol
# GULP energy per Si atom -5568.295943 kJ/mol
# Density = 2.242283 g / cm^3
# Si number density = 22.473986 Si / 1000 Ang^3
#
#
#
# Elastic Constant Matrix: (Units=GPa)
#
#
# Indices 1 2 3 4 5 6 
#
# 1 85.6793 15.6726 16.0456 0.0000 -21.5331 0.0000
# 2 15.6726 227.2544 70.3569 0.0000 -5.7593 0.0000
# 3 16.0456 70.3569 177.2869 0.0000 -6.0237 0.0000
# 4 0.0000 0.0000 0.0000 -9.5417 0.0000 1.7526
# 5 -21.5331 -5.7593 -6.0237 0.0000 24.6579 0.0000
# 6 0.0000 0.0000 0.0000 1.7526 0.0000 6.0709
#
#
#
# Elastic Compliance Matrix: (Units=1/GPa)
#
#
# Indices 1 2 3 4 5 6 
#
# 1 0.015150 -0.000489 -0.000738 0.000000 0.012936 0.000000
# 2 -0.000489 0.005044 -0.001948 0.000000 0.000276 0.000000
# 3 -0.000738 -0.001948 0.006497 0.000000 0.000488 0.000000
# 4 0.000000 0.000000 0.000000 -0.099526 0.000000 0.028732
# 5 0.012936 0.000276 0.000488 0.000000 0.052035 0.000000
# 6 0.000000 0.000000 0.000000 0.028732 0.000000 0.156425
#
#
# Mechanical properties :
#
#
# Convention : Reuss Voigt Hill
#
# Bulk Modulus (GPa) = 49.15906 77.15234 63.15570
# Shear Modulus (GPa) = 33.61229 30.11380 31.86304
#
# Velocity S-wave (km/s) = 3.87151 3.66449 3.76942
# Velocity P-wave (km/s) = 6.47348 7.23248 6.86348
#
# Compressibility (1/GPa) = 0.02034213
#
# Stress axis : x y z
#
# Youngs Moduli (GPa) = 66.00666 198.24766 153.91526
#
# Poissons Ratio (x) = 0.09686 0.11355
# Poissons Ratio (y) = 0.03225 0.29986
# Poissons Ratio (z) = 0.04870 0.38623
#
# Static dielectric constant tensor:
#      x y z
#    x 1.951020 0.000000 -0.036160 
#    y 0.000000 1.855290 0.000000 
#    z -0.036160 0.000000 1.778660 
# 
# From -- ./inp_files/40090.got.cif
#   From: 2010.05.17/outbox.cif.g08.bks.cpg/sg12_21_cif.got.tgz:40090.got - 2010.06.03 13:09:07.
