data_PCOD9194163
_publ_section_title
;
Structure prediction by ZEFSAII (Michael W. Deem and Ramdas Pophale) SiO2 
 PCOD9194163
Probable space group: C 2/M
;
_chemical_formula_sum "Si O2"
_cell_formula_units_Z 56
_cell_length_a 9.937825
_cell_length_b 21.816623
_cell_length_c 11.181976
_cell_angle_alpha 90.000000
_cell_angle_beta 73.226731
_cell_angle_gamma 90.000000
_cell_volume 2321.215457
_symmetry_space_group_name_H-M "C 2/M"
_symmetry_group_IT_number 12
_symmetry_cell_setting 'monoclinic'
loop_
_space_group_symop_operation_xyz
x,y,z
-x,y,-z
-x,-y,-z
x,-y,z
1/2+x,1/2+y,z
1/2-x,1/2+y,-z
1/2-x,1/2-y,-z
1/2+x,1/2-y,z
loop_
_atom_site_type_symbol
_atom_site_label
_atom_site_fract_x
_atom_site_fract_y
_atom_site_fract_z
Si Si1 0.679849 0.897396 0.674064
Si Si2 0.919310 0.069682 0.130218
Si Si3 0.014217 0.928669 0.361957
Si Si4 0.112149 0.400047 0.186448
Si Si5 0.156222 0.655609 0.437246
Si Si6 0.319601 0.247347 0.275117
Si Si7 0.618282 0.232932 0.115638
O O1 0.818801 0.922685 0.698433
O O2 0.542121 0.927928 0.766015
O O3 0.684505 0.897552 0.528208
O O4 0.666892 0.823481 0.692891
O O5 0.758225 0.066894 0.129053
O O6 0.942696 0.095879 0.258205
O O7 0.974501 0.000000 0.126743
O O8 0.000000 0.101740 0.000000
O O9 0.000000 0.900503 0.500000
O O10 0.969342 0.000000 0.384344
O O11 0.135720 0.376281 0.315474
O O12 0.103115 0.340228 0.105512
O O13 0.280716 0.705403 0.390905
O O14 0.000000 0.683783 0.500000
O O15 0.460999 0.260785 0.161118
O O16 0.181473 0.252511 0.229433
O O17 0.750000 0.250000 0.000000
#
# Coordination Sequence:
#
# PCOD9194163 Si02
#       7
#     8   8   8   8   8   8   8
#     4  10  20  34  55  82 112 143 182 234 285 334
#     4  10  22  41  62  84 112 149 193 237 284 345
#     4  10  22  39  59  87 117 143 184 242 294 339
#     4   9  20  36  55  80 109 148 189 227 276 341
#     4   9  18  34  53  79 115 148 186 230 276 339
#     4  10  21  34  51  77 107 145 189 226 274 335
#     4  10  21  36  51  74 109 144 185 232 276 331
#
# _framework density 24.125291000000001
#
# number of rings (size 3 to 8) (size 9 to 14) (size 15 to 20)
#    0.000    2.286    0.000    2.571    0.000    8.000 
#    0.000    2.143    0.000    7.714    0.000    0.000 
#    0.000    0.000    0.000    0.000    0.000    0.000 
#
# Total GULP energy -156024.184093 kJ/mol
# GULP energy per Si atom -5572.292289 kJ/mol
# Density = 2.407038 g / cm^3
# Si number density = 24.125291 Si / 1000 Ang^3
#
#
#
# Elastic Constant Matrix: (Units=GPa)
#
#
# Indices 1 2 3 4 5 6 
#
# 1 145.0184 5.9828 18.4171 0.0000 -24.7416 0.0000
# 2 5.9828 53.9529 15.4117 0.0000 -8.9764 0.0000
# 3 18.4171 15.4117 80.8373 0.0000 -22.8290 0.0000
# 4 0.0000 0.0000 0.0000 -3.2504 0.0000 10.1775
# 5 -24.7416 -8.9764 -22.8290 0.0000 42.4189 0.0000
# 6 0.0000 0.0000 0.0000 10.1775 0.0000 -8.7734
#
#
#
# Elastic Compliance Matrix: (Units=1/GPa)
#
#
# Indices 1 2 3 4 5 6 
#
# 1 0.007680 0.000006 -0.000573 0.000000 0.004173 0.000000
# 2 0.000006 0.019833 -0.003062 0.000000 0.002553 0.000000
# 3 -0.000573 -0.003062 0.015103 0.000000 0.007146 0.000000
# 4 0.000000 0.000000 0.000000 0.116877 0.000000 0.135583
# 5 0.004173 0.002553 0.007146 0.000000 0.030394 0.000000
# 6 0.000000 0.000000 0.000000 0.135583 0.000000 0.043302
#
#
# Mechanical properties :
#
#
# Convention : Reuss Voigt Hill
#
# Bulk Modulus (GPa) = 28.28056 39.93689 34.10873
# Shear Modulus (GPa) = 19.82298 22.07882 20.95090
#
# Velocity S-wave (km/s) = 2.86959 3.02846 2.95009
# Velocity P-wave (km/s) = 4.76730 5.36830 5.07670
#
# Compressibility (1/GPa) = 0.03535998
#
# Stress axis : x y z
#
# Youngs Moduli (GPa) = 130.20774 50.42022 66.21280
#
# Poissons Ratio (x) = -0.00031 0.03791
# Poissons Ratio (y) = -0.00080 0.20272
# Poissons Ratio (z) = 0.07454 0.15437
#
# Static dielectric constant tensor:
#      x y z
#    x 1.964930 0.000000 -0.020090 
#    y 0.000000 1.933620 0.000000 
#    z -0.020090 0.000000 2.062580 
# 
# From -- ./inp_files/124232.got.cif
#   From: 2010.05.17/outbox.cif.g08.bks.cpg/sg12_63_cif.got.tgz:124232.got - 2010.06.03 13:09:07.
