data_PCOD9194886
_publ_section_title
;
Structure prediction by ZEFSAII (Michael W. Deem and Ramdas Pophale) SiO2 
 PCOD9194886
Probable space group: C 2/M
;
_chemical_formula_sum "Si O2"
_cell_formula_units_Z 64
_cell_length_a 21.503899
_cell_length_b 19.115377
_cell_length_c 18.544744
_cell_angle_alpha 90.000000
_cell_angle_beta 28.017491
_cell_angle_gamma 90.000000
_cell_volume 3580.795069
_symmetry_space_group_name_H-M "C 2/M"
_symmetry_group_IT_number 12
_symmetry_cell_setting 'monoclinic'
loop_
_space_group_symop_operation_xyz
x,y,z
-x,y,-z
-x,-y,-z
x,-y,z
1/2+x,1/2+y,z
1/2-x,1/2+y,-z
1/2-x,1/2-y,-z
1/2+x,1/2-y,z
loop_
_atom_site_type_symbol
_atom_site_label
_atom_site_fract_x
_atom_site_fract_y
_atom_site_fract_z
Si Si1 0.377196 0.786896 0.672152
Si Si2 0.298807 0.367154 0.754724
Si Si3 0.585467 0.334519 0.982160
Si Si4 0.695659 0.081686 0.712133
Si Si5 0.361253 0.416632 0.934346
Si Si6 0.858701 0.304758 0.857611
Si Si7 0.476585 0.416443 0.370562
Si Si8 0.960483 0.318681 0.902999
O O1 0.500000 0.813641 0.500000
O O2 0.341856 0.708846 0.681966
O O3 0.241166 0.829381 0.803612
O O4 0.404741 0.782822 0.730394
O O5 0.238340 0.411771 0.751957
O O6 0.426477 0.398469 0.662810
O O7 0.181395 0.353311 0.932122
O O8 0.500000 0.350531 0.000000
O O9 0.574566 0.390168 0.057274
O O10 0.544006 0.257996 0.055809
O O11 0.574231 0.132392 0.818672
O O12 0.826695 0.107255 0.535615
O O13 0.666469 0.000000 0.725727
O O14 0.346979 0.500000 0.946451
O O15 0.452998 0.391771 0.774260
O O16 0.221254 0.377183 0.070155
O O17 0.965962 0.311246 0.810945
O O18 0.750000 0.250000 0.000000
O O19 0.468689 0.500000 0.374986
#
# Coordination Sequence:
#
# PCOD9194886 Si02
#       8
#     8   8   8   8   8   8   8   8
#     4  10  20  34  58  86 113 137 185 242 280 326
#     4  11  19  33  58  78 109 153 195 223 269 333
#     4  10  21  38  58  81 111 144 182 233 286 329
#     4  11  24  36  49  82 124 152 182 230 283 333
#     4  10  20  36  61  84 105 141 194 235 269 332
#     4  11  18  38  62  84 112 151 188 229 278 334
#     4  10  20  35  53  77 113 151 189 231 274 327
#     4  11  21  36  58  81 113 151 186 232 277 332
#
# _framework density 17.873125000000002
#
# number of rings (size 3 to 8) (size 9 to 14) (size 15 to 20)
#    0.000    1.500    5.000    3.375    0.000    3.250 
#    2.250    0.625    0.000    6.000    0.000    0.000 
#    0.000    0.000    0.000    0.000    0.000    0.000 
#
# Total GULP energy -178584.675874 kJ/mol
# GULP energy per Si atom -5580.771121 kJ/mol
# Density = 1.783245 g / cm^3
# Si number density = 17.873125 Si / 1000 Ang^3
#
#
#
# Elastic Constant Matrix: (Units=GPa)
#
#
# Indices 1 2 3 4 5 6 
#
# 1 102.9241 19.3663 25.4795 0.0002 3.7106 0.0001
# 2 19.3663 56.4728 21.8430 0.0000 -1.7761 0.0005
# 3 25.4795 21.8430 78.0553 0.0004 -0.3885 0.0002
# 4 0.0002 0.0000 0.0004 16.2445 0.0003 1.7847
# 5 3.7106 -1.7761 -0.3885 0.0003 28.0058 -0.0005
# 6 0.0001 0.0005 0.0002 1.7847 -0.0005 21.5293
#
#
#
# Elastic Compliance Matrix: (Units=1/GPa)
#
#
# Indices 1 2 3 4 5 6 
#
# 1 0.010990 -0.002726 -0.002833 0.000000 -0.001668 0.000000
# 2 -0.002726 0.020572 -0.004859 0.000000 0.001598 0.000000
# 3 -0.002833 -0.004859 0.015097 0.000000 0.000277 0.000000
# 4 0.000000 0.000000 0.000000 0.062125 -0.000001 -0.005150
# 5 -0.001668 0.001598 0.000277 -0.000001 0.036033 0.000001
# 6 0.000000 0.000000 0.000000 -0.005150 0.000001 0.046875
#
#
# Mechanical properties :
#
#
# Convention : Reuss Voigt Hill
#
# Bulk Modulus (GPa) = 38.72378 41.20333 39.96356
# Shear Modulus (GPa) = 22.61043 24.54015 23.57529
#
# Velocity S-wave (km/s) = 3.56061 3.70945 3.63579
# Velocity P-wave (km/s) = 6.21425 6.43816 6.32720
#
# Compressibility (1/GPa) = 0.02582392
#
# Stress axis : x y z
#
# Youngs Moduli (GPa) = 90.98987 48.60957 66.23647
#
# Poissons Ratio (x) = 0.13249 0.18766
# Poissons Ratio (y) = 0.24800 0.32186
# Poissons Ratio (z) = 0.25778 0.23621
#
# Static dielectric constant tensor:
#      x y z
#    x 1.615210 0.000000 0.023310 
#    y 0.000000 1.607140 0.000000 
#    z 0.023310 0.000000 1.641420 
# 
# From -- ./inp_files/285203.got.cif
#   From: 2010.05.17/outbox.cif.g08.bks.cpg/sg12_143_cif.got.tgz:285203.got - 2010.06.03 13:09:07.
