data_PCOD9194152
_publ_section_title
;
Structure prediction by ZEFSAII (Michael W. Deem and Ramdas Pophale) SiO2 
 PCOD9194152
Probable space group: C 2/M
;
_chemical_formula_sum "Si O2"
_cell_formula_units_Z 58
_cell_length_a 29.269413
_cell_length_b 9.965722
_cell_length_c 12.367966
_cell_angle_alpha 90.000000
_cell_angle_beta 76.098770
_cell_angle_gamma 90.000000
_cell_volume 3501.959826
_symmetry_space_group_name_H-M "C 2/M"
_symmetry_group_IT_number 12
_symmetry_cell_setting 'monoclinic'
loop_
_space_group_symop_operation_xyz
x,y,z
-x,y,-z
-x,-y,-z
x,-y,z
1/2+x,1/2+y,z
1/2-x,1/2+y,-z
1/2-x,1/2-y,-z
1/2+x,1/2-y,z
loop_
_atom_site_type_symbol
_atom_site_label
_atom_site_fract_x
_atom_site_fract_y
_atom_site_fract_z
Si Si1 0.609181 0.155002 0.291337
Si Si2 0.214066 0.345945 0.159243
Si Si3 0.000000 0.500000 0.000000
Si Si4 0.612689 0.654800 0.903978
Si Si5 0.450318 0.228021 0.883609
Si Si6 0.952572 0.160417 0.261848
Si Si7 0.700268 0.156779 0.907626
Si Si8 0.444211 0.341536 0.509525
O O1 0.664823 0.179812 0.246774
O O2 0.584947 0.175291 0.188206
O O3 0.584956 0.254349 0.389551
O O4 0.602130 0.000000 0.327627
O O5 0.229357 0.500000 0.173439
O O6 0.254000 0.236854 0.160742
O O7 0.203722 0.339611 0.036386
O O8 0.969293 0.615387 0.953580
O O9 0.628895 0.500000 0.885724
O O10 0.583868 0.692959 0.812537
O O11 0.654637 0.759158 0.898924
O O12 0.577190 0.666804 0.025553
O O13 0.496324 0.284116 0.797387
O O14 0.936550 0.204036 0.390059
O O15 0.956678 0.000000 0.263674
O O16 0.698560 0.000000 0.876598
O O17 0.500000 0.327692 0.500000
O O18 0.432758 0.500000 0.526599
#
# Coordination Sequence:
#
# PCOD9194152 Si02
#       8
#     8   8   2   8   8   8   8   8
#     4  11  22  36  55  80 111 144 182 224 272 321
#     4   9  19  36  54  76 111 144 175 220 272 331
#     4  12  24  32  50  78 124 152 186 220 278 324
#     4  11  22  34  55  81 111 147 183 221 272 333
#     4  12  21  34  52  79 112 152 184 219 270 324
#     4  10  21  38  54  75 108 146 191 228 265 318
#     4  10  20  34  55  82 111 139 176 223 275 331
#     4  10  21  37  56  77 106 146 188 233 270 309
#
# _framework density 16.562155000000001
#
# number of rings (size 3 to 8) (size 9 to 14) (size 15 to 20)
#    0.000    1.517    4.828    0.828    0.966    3.034 
#    1.241    0.000    0.000    0.828    0.000    0.000 
#    0.000    0.000    0.000    0.000    0.000    0.000 
#
# Total GULP energy -161534.713363 kJ/mol
# GULP energy per Si atom -5570.162530 kJ/mol
# Density = 1.652446 g / cm^3
# Si number density = 16.562155 Si / 1000 Ang^3
#
#
#
# Elastic Constant Matrix: (Units=GPa)
#
#
# Indices 1 2 3 4 5 6 
#
# 1 76.1072 64.4718 34.1174 0.0000 -11.6263 0.0000
# 2 64.4718 96.4966 54.4243 0.0000 -10.7087 0.0000
# 3 34.1174 54.4243 79.8995 0.0000 -9.1569 0.0000
# 4 0.0000 0.0000 0.0000 14.4259 0.0000 11.3357
# 5 -11.6263 -10.7087 -9.1569 0.0000 17.8464 0.0000
# 6 0.0000 0.0000 0.0000 11.3357 0.0000 27.3966
#
#
#
# Elastic Compliance Matrix: (Units=1/GPa)
#
#
# Indices 1 2 3 4 5 6 
#
# 1 0.031609 -0.021266 0.002003 0.000000 0.008860 0.000000
# 2 -0.021266 0.031479 -0.012521 0.000000 -0.001389 0.000000
# 3 0.002003 -0.012521 0.020694 0.000000 0.004410 0.000000
# 4 0.000000 0.000000 0.000000 0.102715 0.000000 -0.042500
# 5 0.008860 -0.001389 0.004410 0.000000 0.063235 0.000000
# 6 0.000000 0.000000 0.000000 -0.042500 0.000000 0.054086
#
#
# Mechanical properties :
#
#
# Convention : Reuss Voigt Hill
#
# Bulk Modulus (GPa) = 49.46500 62.05893 55.76196
# Shear Modulus (GPa) = 13.36460 18.56643 15.96551
#
# Velocity S-wave (km/s) = 2.84374 3.35179 3.10816
# Velocity P-wave (km/s) = 6.38072 7.24783 6.82805
#
# Compressibility (1/GPa) = 0.02021631
#
# Stress axis : x y z
#
# Youngs Moduli (GPa) = 31.63628 31.76746 48.32241
#
# Poissons Ratio (x) = 0.67556 -0.09681
# Poissons Ratio (y) = 0.67277 0.60503
# Poissons Ratio (z) = -0.06338 0.39775
#
# Static dielectric constant tensor:
#      x y z
#    x 1.545290 0.000000 0.003650 
#    y 0.000000 1.553850 0.000000 
#    z 0.003650 0.000000 1.551110 
# 
# From -- ./inp_files/186598.got.cif
#   From: 2010.05.17/outbox.cif.g08.bks.cpg/sg12_94_cif.got.tgz:186598.got - 2010.06.03 13:09:07.
