data_PCOD9194813
_publ_section_title
;
Structure prediction by ZEFSAII (Michael W. Deem and Ramdas Pophale) SiO2 
 PCOD9194813
Probable space group: C 2/M
;
_chemical_formula_sum "Si O2"
_cell_formula_units_Z 44
_cell_length_a 14.031993
_cell_length_b 16.633095
_cell_length_c 9.836089
_cell_angle_alpha 90.000000
_cell_angle_beta 60.351302
_cell_angle_gamma 90.000000
_cell_volume 1995.133824
_symmetry_space_group_name_H-M "C 2/M"
_symmetry_group_IT_number 12
_symmetry_cell_setting 'monoclinic'
loop_
_space_group_symop_operation_xyz
x,y,z
-x,y,-z
-x,-y,-z
x,-y,z
1/2+x,1/2+y,z
1/2-x,1/2+y,-z
1/2-x,1/2-y,-z
1/2+x,1/2-y,z
loop_
_atom_site_type_symbol
_atom_site_label
_atom_site_fract_x
_atom_site_fract_y
_atom_site_fract_z
Si Si1 0.596293 0.724489 0.824998
Si Si2 0.335419 0.833235 0.719800
Si Si3 0.110268 0.500000 0.330354
Si Si4 0.311390 0.835526 0.432787
Si Si5 0.794525 0.000000 0.431085
Si Si6 0.458893 0.500000 0.685493
Si Si7 0.047970 0.828660 0.313690
O O1 0.704113 0.678587 0.802851
O O2 0.625238 0.813527 0.748770
O O3 0.548668 0.679967 0.726371
O O4 0.500000 0.725726 0.000000
O O5 0.373981 0.841455 0.533137
O O6 0.379494 0.750727 0.750097
O O7 0.378228 0.915374 0.755849
O O8 0.219580 0.500000 0.348931
O O9 0.000000 0.500000 0.500000
O O10 0.250000 0.750000 0.500000
O O11 0.242070 0.917198 0.468779
O O12 0.924565 0.000000 0.317337
O O13 0.500000 0.500000 0.500000
O O14 0.398765 0.415696 0.750097
O O15 0.000000 0.828453 0.500000
#
# Coordination Sequence:
#
# PCOD9194813 Si02
#       7
#     8   8   4   8   4   4   8
#     4  11  24  40  62  89 123 167 208 251 312 367
#     4  10  21  38  64  90 124 159 205 258 301 362
#     4  10  20  34  60  99 118 149 207 258 299 354
#     4   9  18  35  62  86 118 157 201 254 304 354
#     4  10  20  34  57  88 125 156 207 256 300 357
#     4  10  22  32  58  99 120 149 203 255 303 362
#     4  11  21  38  64  91 122 157 203 255 307 364
#
# _framework density 22.053659
#
# number of rings (size 3 to 8) (size 9 to 14) (size 15 to 20)
#    0.000    1.818    1.818    3.818   10.182    0.727 
#    0.000    2.273    0.000    0.000    0.000    0.000 
#    0.000    0.000    0.000    0.000    0.000    0.000 
#
# Total GULP energy -122672.765359 kJ/mol
# GULP energy per Si atom -5576.034789 kJ/mol
# Density = 2.200346 g / cm^3
# Si number density = 22.053659 Si / 1000 Ang^3
#
#
#
# Elastic Constant Matrix: (Units=GPa)
#
#
# Indices 1 2 3 4 5 6 
#
# 1 74.1590 41.3594 12.1584 0.0000 -17.2546 0.0000
# 2 41.3594 240.6497 36.5977 0.0000 -18.5125 0.0000
# 3 12.1584 36.5977 76.1067 0.0000 -17.4212 0.0000
# 4 0.0000 0.0000 0.0000 5.3968 0.0000 -9.5293
# 5 -17.2546 -18.5125 -17.4212 0.0000 17.6946 0.0000
# 6 0.0000 0.0000 0.0000 -9.5293 0.0000 27.6825
#
#
#
# Elastic Compliance Matrix: (Units=1/GPa)
#
#
# Indices 1 2 3 4 5 6 
#
# 1 0.018491 -0.002128 0.002178 0.000000 0.017948 0.000000
# 2 -0.002128 0.004884 -0.001696 0.000000 0.001364 0.000000
# 3 0.002178 -0.001696 0.017669 0.000000 0.017745 0.000000
# 4 0.000000 0.000000 0.000000 0.472470 0.000000 0.162640
# 5 0.017948 0.001364 0.017745 0.000000 0.092915 0.000000
# 6 0.000000 0.000000 0.000000 0.162640 0.000000 0.092110
#
#
# Mechanical properties :
#
#
# Convention : Reuss Voigt Hill
#
# Bulk Modulus (GPa) = 26.48975 63.46071 44.97523
# Shear Modulus (GPa) = 6.99872 30.20811 18.60341
#
# Velocity S-wave (km/s) = 1.78336 3.70504 2.90755
# Velocity P-wave (km/s) = 4.03461 6.86594 5.63113
#
# Compressibility (1/GPa) = 0.03775045
#
# Stress axis : x y z
#
# Youngs Moduli (GPa) = 54.08179 204.74417 56.59553
#
# Poissons Ratio (x) = 0.43578 -0.12327
# Poissons Ratio (y) = 0.11511 0.09601
# Poissons Ratio (z) = -0.11779 0.34732
#
# Static dielectric constant tensor:
#      x y z
#    x 1.949990 0.000000 -0.039320 
#    y 0.000000 1.942490 0.000000 
#    z -0.039320 0.000000 1.858440 
# 
# From -- ./inp_files/145372.got.cif
#   From: 2010.05.17/outbox.cif.g08.bks.cpg/sg12_73_cif.got.tgz:145372.got - 2010.06.03 13:09:07.
