data_PCOD9194415
_publ_section_title
;
Structure prediction by ZEFSAII (Michael W. Deem and Ramdas Pophale) SiO2 
 PCOD9194415
Probable space group: C 2/M
;
_chemical_formula_sum "Si O2"
_cell_formula_units_Z 64
_cell_length_a 19.385324
_cell_length_b 13.293468
_cell_length_c 12.390108
_cell_angle_alpha 90.000000
_cell_angle_beta 101.425481
_cell_angle_gamma 90.000000
_cell_volume 3129.635026
_symmetry_space_group_name_H-M "C 2/M"
_symmetry_group_IT_number 12
_symmetry_cell_setting 'monoclinic'
loop_
_space_group_symop_operation_xyz
x,y,z
-x,y,-z
-x,-y,-z
x,-y,z
1/2+x,1/2+y,z
1/2-x,1/2+y,-z
1/2-x,1/2-y,-z
1/2+x,1/2-y,z
loop_
_atom_site_type_symbol
_atom_site_label
_atom_site_fract_x
_atom_site_fract_y
_atom_site_fract_z
Si Si1 0.207007 0.116843 0.031054
Si Si2 0.361296 0.189045 0.057752
Si Si3 0.505581 0.318427 0.626301
Si Si4 0.656531 0.385715 0.673829
Si Si5 0.095641 0.615982 0.148659
Si Si6 0.148865 0.117114 0.410784
Si Si7 0.462504 0.114499 0.265182
Si Si8 0.281582 0.261946 0.744942
O O1 0.154217 0.192084 0.953149
O O2 0.210630 0.158810 0.154880
O O3 0.189311 0.000000 0.019560
O O4 0.285713 0.137343 0.011433
O O5 0.411221 0.158537 0.974158
O O6 0.393439 0.147014 0.177455
O O7 0.500000 0.348593 0.500000
O O8 0.576648 0.370451 0.690384
O O9 0.429805 0.348343 0.649902
O O10 0.519776 0.199622 0.642530
O O11 0.679649 0.500000 0.705485
O O12 0.654909 0.373163 0.542278
O O13 0.709862 0.300808 0.730458
O O14 0.116980 0.500000 0.147621
O O15 0.155936 0.681621 0.222761
O O16 0.025621 0.620131 0.197952
O O17 0.206038 0.181419 0.363785
O O18 0.157005 0.000000 0.387182
O O19 0.456656 0.000000 0.303007
#
# Coordination Sequence:
#
# PCOD9194415 Si02
#       8
#     8   8   8   8   8   8   8   8
#     4  10  21  37  56  81 115 149 182 228 286 345
#     4  10  21  36  57  81 112 148 188 233 278 340
#     4  10  21  39  59  84 118 154 195 240 288 344
#     4  10  21  36  58  85 114 151 199 247 285 337
#     4  10  20  34  56  81 111 147 185 234 284 337
#     4  10  20  37  58  81 114 157 197 238 291 343
#     4  11  21  36  58  84 113 147 190 237 288 342
#     4  11  20  35  57  85 116 147 190 238 291 343
#
# _framework density 20.449669
#
# number of rings (size 3 to 8) (size 9 to 14) (size 15 to 20)
#    0.000    1.750    1.250    3.750    0.000    2.750 
#    0.000    6.250    0.000    2.250    0.000    0.000 
#    0.000    0.000    0.000    0.000    0.000    0.000 
#
# Total GULP energy -178740.993042 kJ/mol
# GULP energy per Si atom -5585.656033 kJ/mol
# Density = 2.040312 g / cm^3
# Si number density = 20.449669 Si / 1000 Ang^3
#
#
#
# Elastic Constant Matrix: (Units=GPa)
#
#
# Indices 1 2 3 4 5 6 
#
# 1 48.5467 18.8513 -4.4799 0.0000 -5.2250 0.0000
# 2 18.8513 136.2997 5.4354 0.0000 5.1851 0.0000
# 3 -4.4799 5.4354 24.9303 0.0000 1.6817 0.0000
# 4 0.0000 0.0000 0.0000 23.3441 0.0000 -2.1830
# 5 -5.2250 5.1851 1.6817 0.0000 21.4839 0.0000
# 6 0.0000 0.0000 0.0000 -2.1830 0.0000 26.0467
#
#
#
# Elastic Compliance Matrix: (Units=1/GPa)
#
#
# Indices 1 2 3 4 5 6 
#
# 1 0.023075 -0.003605 0.004519 0.000000 0.006128 0.000000
# 2 -0.003605 0.008024 -0.002219 0.000000 -0.002640 0.000000
# 3 0.004519 -0.002219 0.041517 0.000000 -0.001615 0.000000
# 4 0.000000 0.000000 0.000000 0.043176 0.000000 0.003619
# 5 0.006128 -0.002640 -0.001615 0.000000 0.048800 0.000000
# 6 0.000000 0.000000 0.000000 0.003619 0.000000 0.038696
#
#
# Mechanical properties :
#
#
# Convention : Reuss Voigt Hill
#
# Bulk Modulus (GPa) = 14.28446 27.71003 20.99725
# Shear Modulus (GPa) = 21.81184 26.83960 24.32572
#
# Velocity S-wave (km/s) = 3.26944 3.62673 3.45271
# Velocity P-wave (km/s) = 4.61007 5.57830 5.11713
#
# Compressibility (1/GPa) = 0.07000612
#
# Stress axis : x y z
#
# Youngs Moduli (GPa) = 43.33672 124.62205 24.08674
#
# Poissons Ratio (x) = 0.44924 -0.10885
# Poissons Ratio (y) = 0.15622 0.05345
# Poissons Ratio (z) = -0.19584 0.27656
#
# Static dielectric constant tensor:
#      x y z
#    x 1.735880 0.000000 0.001540 
#    y 0.000000 1.709350 0.000000 
#    z 0.001540 0.000000 1.745410 
# 
# From -- ./inp_files/232493.got.cif
#   From: 2010.05.17/outbox.cif.g08.bks.cpg/sg12_117_cif.got.tgz:232493.got - 2010.06.03 13:09:07.
