data_PCOD9194834
_publ_section_title
;
Structure prediction by ZEFSAII (Michael W. Deem and Ramdas Pophale) SiO2 
 PCOD9194834
Probable space group: C 2/M
;
_chemical_formula_sum "Si O2"
_cell_formula_units_Z 56
_cell_length_a 10.975530
_cell_length_b 17.014389
_cell_length_c 14.745079
_cell_angle_alpha 90.000000
_cell_angle_beta 114.181316
_cell_angle_gamma 90.000000
_cell_volume 2511.913132
_symmetry_space_group_name_H-M "C 2/M"
_symmetry_group_IT_number 12
_symmetry_cell_setting 'monoclinic'
loop_
_space_group_symop_operation_xyz
x,y,z
-x,y,-z
-x,-y,-z
x,-y,z
1/2+x,1/2+y,z
1/2-x,1/2+y,-z
1/2-x,1/2-y,-z
1/2+x,1/2-y,z
loop_
_atom_site_type_symbol
_atom_site_label
_atom_site_fract_x
_atom_site_fract_y
_atom_site_fract_z
Si Si1 0.216738 0.241258 0.865152
Si Si2 0.499509 0.165322 0.093339
Si Si3 0.578842 0.590561 0.611574
Si Si4 0.464747 0.589095 0.197813
Si Si5 0.137247 0.658875 0.309551
Si Si6 0.648499 0.086995 0.511331
Si Si7 0.290241 0.324516 0.718105
O O1 0.377087 0.225358 0.898008
O O2 0.189993 0.289857 0.763239
O O3 0.140138 0.292848 0.919193
O O4 0.146437 0.155812 0.852190
O O5 0.549788 0.123910 0.200845
O O6 0.500000 0.116435 0.000000
O O7 0.500000 0.620481 0.500000
O O8 0.616249 0.500000 0.603699
O O9 0.505564 0.589992 0.684855
O O10 0.710082 0.640147 0.667663
O O11 0.426155 0.500000 0.161364
O O12 0.606976 0.615995 0.201799
O O13 0.130996 0.627627 0.408786
O O14 0.122056 0.752222 0.294681
O O15 0.500000 0.077189 0.500000
O O16 0.719669 0.137070 0.610599
O O17 0.711782 0.000000 0.520997
#
# Coordination Sequence:
#
# PCOD9194834 Si02
#       7
#     8   8   8   8   8   8   8
#     4  11  21  43  67 103 134 174 225 285 342 399
#     4  11  23  41  69 103 130 174 234 295 343 396
#     4  10  20  34  57  89 128 174 222 271 332 400
#     4  11  21  38  63  94 133 177 218 269 332 405
#     4  11  21  38  61  88 129 168 226 279 329 383
#     4  11  24  38  55  86 131 178 214 262 335 408
#     4  11  22  38  63  95 135 173 225 265 332 402
#
# _framework density 22.293766000000002
#
# number of rings (size 3 to 8) (size 9 to 14) (size 15 to 20)
#    0.000    1.143    5.714    3.429    0.000    1.714 
#    0.000    0.000    0.000    5.143    0.000    0.000 
#    0.000    0.000    0.000    0.000    0.000    0.000 
#
# Total GULP energy -155985.697101 kJ/mol
# GULP energy per Si atom -5570.917754 kJ/mol
# Density = 2.224302 g / cm^3
# Si number density = 22.293766 Si / 1000 Ang^3
#
#
#
# Elastic Constant Matrix: (Units=GPa)
#
#
# Indices 1 2 3 4 5 6 
#
# 1 101.6279 19.7083 15.9388 0.0000 -7.8088 0.0000
# 2 19.7083 75.0461 15.9114 0.0000 -14.4242 0.0000
# 3 15.9388 15.9114 58.5704 0.0000 -21.0750 0.0000
# 4 0.0000 0.0000 0.0000 14.4570 0.0000 3.0138
# 5 -7.8088 -14.4242 -21.0750 0.0000 41.6516 0.0000
# 6 0.0000 0.0000 0.0000 3.0138 0.0000 21.2722
#
#
#
# Elastic Compliance Matrix: (Units=1/GPa)
#
#
# Indices 1 2 3 4 5 6 
#
# 1 0.010644 -0.002307 -0.002249 0.000000 0.000059 0.000000
# 2 -0.002307 0.015098 -0.002137 0.000000 0.003715 0.000000
# 3 -0.002249 -0.002137 0.021821 0.000000 0.009879 0.000000
# 4 0.000000 0.000000 0.000000 0.071275 0.000000 -0.010098
# 5 0.000059 0.003715 0.009879 0.000000 0.030305 0.000000
# 6 0.000000 0.000000 0.000000 -0.010098 0.000000 0.048440
#
#
# Mechanical properties :
#
#
# Convention : Reuss Voigt Hill
#
# Bulk Modulus (GPa) = 29.25936 37.59572 33.42754
# Shear Modulus (GPa) = 22.48579 27.72190 25.10384
#
# Velocity S-wave (km/s) = 3.17931 3.53013 3.35930
# Velocity P-wave (km/s) = 5.16046 5.78931 5.48391
#
# Compressibility (1/GPa) = 0.03417710
#
# Stress axis : x y z
#
# Youngs Moduli (GPa) = 93.94554 66.23325 45.82787
#
# Poissons Ratio (x) = 0.15282 0.10305
# Poissons Ratio (y) = 0.21676 0.09794
# Poissons Ratio (z) = 0.21126 0.14155
#
# Static dielectric constant tensor:
#      x y z
#    x 1.927600 0.000000 -0.051110 
#    y 0.000000 1.866770 0.000000 
#    z -0.051110 0.000000 2.078030 
# 
# From -- ./inp_files/206238.got.cif
#   From: 2010.05.17/outbox.cif.g08.bks.cpg/sg12_104_cif.got.tgz:206238.got - 2010.06.03 13:09:07.
