data_PCOD9194907
_publ_section_title
;
Structure prediction by ZEFSAII (Michael W. Deem and Ramdas Pophale) SiO2 
 PCOD9194907
Probable space group: C 2/M
;
_chemical_formula_sum "Si O2"
_cell_formula_units_Z 50
_cell_length_a 19.093311
_cell_length_b 7.503029
_cell_length_c 19.542147
_cell_angle_alpha 90.000000
_cell_angle_beta 131.789326
_cell_angle_gamma 90.000000
_cell_volume 2087.354150
_symmetry_space_group_name_H-M "C 2/M"
_symmetry_group_IT_number 12
_symmetry_cell_setting 'monoclinic'
loop_
_space_group_symop_operation_xyz
x,y,z
-x,y,-z
-x,-y,-z
x,-y,z
1/2+x,1/2+y,z
1/2-x,1/2+y,-z
1/2-x,1/2-y,-z
1/2+x,1/2-y,z
loop_
_atom_site_type_symbol
_atom_site_label
_atom_site_fract_x
_atom_site_fract_y
_atom_site_fract_z
Si Si1 0.000000 0.000000 0.500000
Si Si2 0.297695 0.714111 0.958160
Si Si3 0.289495 0.718258 0.804530
Si Si4 0.770226 0.285375 0.383987
Si Si5 0.564001 0.794382 0.289233
Si Si6 0.469155 0.214143 0.579195
Si Si7 0.993382 0.797588 0.895454
O O1 0.031810 0.158567 0.574804
O O2 0.301409 0.500000 0.956929
O O3 0.404681 0.784911 0.028331
O O4 0.250000 0.750000 0.000000
O O5 0.253540 0.772443 0.856359
O O6 0.288006 0.500000 0.801242
O O7 0.240643 0.775137 0.701942
O O8 0.398657 0.777621 0.867211
O O9 0.769595 0.500000 0.383677
O O10 0.676850 0.223099 0.362211
O O11 0.864584 0.231841 0.484410
O O12 0.525147 0.742335 0.337367
O O13 0.526592 0.696335 0.198576
O O14 0.539359 0.000000 0.262663
O O15 0.483276 0.000000 0.578778
O O16 0.999395 0.000000 0.924497
#
# Coordination Sequence:
#
# PCOD9194907 Si02
#       7
#     2   8   8   8   8   8   8
#     4  12  26  40  64  78 120 176 198 242 284 362
#     4  10  20  35  53  79 110 144 186 234 286 349
#     4   8  15  32  58  82 104 141 187 236 290 337
#     4   9  18  35  61  87 114 143 187 247 296 348
#     4  10  20  34  58  88 118 145 185 244 293 344
#     4  10  23  41  58  88 121 157 204 241 288 349
#     4   9  18  34  57  81 107 143 192 238 283 343
#
# _framework density 23.953768
#
# number of rings (size 3 to 8) (size 9 to 14) (size 15 to 20)
#    0.000    2.560    0.000    2.640    3.360    2.560 
#    2.880    3.200    0.000    4.800    0.000    0.000 
#    0.000    0.000    0.000    0.000    0.000    0.000 
#
# Total GULP energy -139342.062224 kJ/mol
# GULP energy per Si atom -5573.682489 kJ/mol
# Density = 2.389925 g / cm^3
# Si number density = 23.953768 Si / 1000 Ang^3
#
#
#
# Elastic Constant Matrix: (Units=GPa)
#
#
# Indices 1 2 3 4 5 6 
#
# 1 61.9844 16.3548 47.3010 0.0000 -32.1073 0.0000
# 2 16.3548 63.8895 22.4995 0.0000 -12.3544 0.0000
# 3 47.3010 22.4995 86.2739 0.0000 -44.2842 0.0000
# 4 0.0000 0.0000 0.0000 1.0452 0.0000 -3.5170
# 5 -32.1073 -12.3544 -44.2842 0.0000 49.8582 0.0000
# 6 0.0000 0.0000 0.0000 -3.5170 0.0000 165.5369
#
#
#
# Elastic Compliance Matrix: (Units=1/GPa)
#
#
# Indices 1 2 3 4 5 6 
#
# 1 0.029811 -0.001946 -0.011451 0.000000 0.008544 0.000000
# 2 -0.001946 0.017369 -0.003486 0.000000 -0.000046 0.000000
# 3 -0.011451 -0.003486 0.026742 0.000000 0.015514 0.000000
# 4 0.000000 0.000000 0.000000 1.030467 0.000000 0.021893
# 5 0.008544 -0.000046 0.015514 0.000000 0.039327 0.000000
# 6 0.000000 0.000000 0.000000 0.021893 0.000000 0.006506
#
#
# Mechanical properties :
#
#
# Convention : Reuss Voigt Hill
#
# Bulk Modulus (GPa) = 24.90367 42.71763 33.81065
# Shear Modulus (GPa) = 4.17581 51.68755 27.93168
#
# Velocity S-wave (km/s) = 1.32176 4.65026 3.41848
# Velocity P-wave (km/s) = 3.57051 6.83413 5.45224
#
# Compressibility (1/GPa) = 0.04015472
#
# Stress axis : x y z
#
# Youngs Moduli (GPa) = 33.54492 57.57359 37.39488
#
# Poissons Ratio (x) = 0.11206 0.42820
# Poissons Ratio (y) = 0.06529 0.13037
# Poissons Ratio (z) = 0.38412 0.20071
#
# Static dielectric constant tensor:
#      x y z
#    x 1.977050 0.000000 0.023410 
#    y 0.000000 1.907960 0.000000 
#    z 0.023410 0.000000 1.922700 
# 
# From -- ./inp_files/274534.got.cif
#   From: 2010.05.17/outbox.cif.g08.bks.cpg/sg12_138_cif.got.tgz:274534.got - 2010.06.03 13:09:07.
