data_PCOD9194498
_publ_section_title
;
Structure prediction by ZEFSAII (Michael W. Deem and Ramdas Pophale) SiO2 
 PCOD9194498
Probable space group: C 2/M
;
_chemical_formula_sum "Si O2"
_cell_formula_units_Z 48
_cell_length_a 29.589830
_cell_length_b 7.628897
_cell_length_c 8.533169
_cell_angle_alpha 90.000000
_cell_angle_beta 88.353388
_cell_angle_gamma 90.000000
_cell_volume 1925.463089
_symmetry_space_group_name_H-M "C 2/M"
_symmetry_group_IT_number 12
_symmetry_cell_setting 'monoclinic'
loop_
_space_group_symop_operation_xyz
x,y,z
-x,y,-z
-x,-y,-z
x,-y,z
1/2+x,1/2+y,z
1/2-x,1/2+y,-z
1/2-x,1/2-y,-z
1/2+x,1/2-y,z
loop_
_atom_site_type_symbol
_atom_site_label
_atom_site_fract_x
_atom_site_fract_y
_atom_site_fract_z
Si Si1 0.356640 0.214095 0.842039
Si Si2 0.478606 0.714289 0.165033
Si Si3 0.777034 0.696366 0.650839
Si Si4 0.306875 0.203419 0.160671
Si Si5 0.890802 0.212376 0.342491
Si Si6 0.440103 0.296112 0.647402
O O1 0.322551 0.283616 0.709769
O O2 0.406249 0.281958 0.798188
O O3 0.358471 0.000000 0.843667
O O4 0.334173 0.270457 0.007462
O O5 0.479647 0.500000 0.164528
O O6 0.427361 0.764765 0.206398
O O7 0.511720 0.774601 0.302009
O O8 0.500000 0.774303 0.000000
O O9 0.791006 0.500000 0.618887
O O10 0.750000 0.750000 0.500000
O O11 0.739914 0.704747 0.792969
O O12 0.341704 0.220013 0.301860
O O13 0.296094 0.000000 0.137022
O O14 0.912760 0.277859 0.502492
O O15 0.887489 0.000000 0.347364
O O16 0.447733 0.500000 0.607597
#
# Coordination Sequence:
#
# PCOD9194498 Si02
#       6
#     8   8   8   8   8   8
#     4  10  23  40  57  80 112 147 183 228 278 329
#     4   9  17  31  53  81 112 146 185 229 275 325
#     4  11  23  40  61  85 113 146 184 226 275 329
#     4  11  23  39  58  82 112 146 186 230 276 326
#     4  10  20  35  56  83 114 147 185 229 278 330
#     4  10  20  34  56  84 112 145 185 229 276 329
#
# _framework density 24.929069999999999
#
# number of rings (size 3 to 8) (size 9 to 14) (size 15 to 20)
#    0.000    1.833    0.000    4.000    0.000    9.333 
#    0.000    0.833    0.000    5.000    0.000    0.000 
#    0.000    0.000    0.000    0.000    0.000    0.000 
#
# Total GULP energy -134264.751793 kJ/mol
# GULP energy per Si atom -5594.364658 kJ/mol
# Density = 2.487233 g / cm^3
# Si number density = 24.929070 Si / 1000 Ang^3
#
#
#
# Elastic Constant Matrix: (Units=GPa)
#
#
# Indices 1 2 3 4 5 6 
#
# 1 112.4766 -11.6900 -8.7629 0.0000 2.5079 0.0000
# 2 -11.6900 52.9777 -2.5177 0.0000 3.5892 0.0000
# 3 -8.7629 -2.5177 67.7405 0.0000 -0.8888 0.0000
# 4 0.0000 0.0000 0.0000 18.9790 0.0000 -2.1321
# 5 2.5079 3.5892 -0.8888 0.0000 44.3614 0.0000
# 6 0.0000 0.0000 0.0000 -2.1321 0.0000 5.7337
#
#
#
# Elastic Compliance Matrix: (Units=1/GPa)
#
#
# Indices 1 2 3 4 5 6 
#
# 1 0.009227 0.002141 0.001264 0.000000 -0.000670 0.000000
# 2 0.002141 0.019509 0.000980 0.000000 -0.001680 0.000000
# 3 0.001264 0.000980 0.014964 0.000000 0.000149 0.000000
# 4 0.000000 0.000000 0.000000 0.054987 0.000000 0.020448
# 5 -0.000670 -0.001680 0.000149 0.000000 0.022719 0.000000
# 6 0.000000 0.000000 0.000000 0.020448 0.000000 0.182012
#
#
# Mechanical properties :
#
#
# Convention : Reuss Voigt Hill
#
# Bulk Modulus (GPa) = 19.05802 20.80596 19.93199
# Shear Modulus (GPa) = 16.01864 30.89250 23.45557
#
# Velocity S-wave (km/s) = 2.53764 3.52407 3.07072
# Velocity P-wave (km/s) = 4.03084 4.99229 4.53710
#
# Compressibility (1/GPa) = 0.05247134
#
# Stress axis : x y z
#
# Youngs Moduli (GPa) = 108.38068 51.25895 66.82637
#
# Poissons Ratio (x) = -0.10977 -0.08449
# Poissons Ratio (y) = -0.23209 -0.06549
# Poissons Ratio (z) = -0.13703 -0.05024
#
# Static dielectric constant tensor:
#      x y z
#    x 1.922320 0.000000 0.036390 
#    y 0.000000 1.888240 0.000000 
#    z 0.036390 0.000000 2.062940 
# 
# From -- ./inp_files/108574.got.cif
#   From: 2010.05.17/outbox.cif.g08.bks.cpg/sg12_55_cif.got.tgz:108574.got - 2010.06.03 13:09:07.
