data_PCOD9194615
_publ_section_title
;
Structure prediction by ZEFSAII (Michael W. Deem and Ramdas Pophale) SiO2 
 PCOD9194615
Probable space group: C 2/M
;
_chemical_formula_sum "Si O2"
_cell_formula_units_Z 64
_cell_length_a 24.258750
_cell_length_b 13.004544
_cell_length_c 12.207073
_cell_angle_alpha 90.000000
_cell_angle_beta 111.182680
_cell_angle_gamma 90.000000
_cell_volume 3590.812754
_symmetry_space_group_name_H-M "C 2/M"
_symmetry_group_IT_number 12
_symmetry_cell_setting 'monoclinic'
loop_
_space_group_symop_operation_xyz
x,y,z
-x,y,-z
-x,-y,-z
x,-y,z
1/2+x,1/2+y,z
1/2-x,1/2+y,-z
1/2-x,1/2-y,-z
1/2+x,1/2-y,z
loop_
_atom_site_type_symbol
_atom_site_label
_atom_site_fract_x
_atom_site_fract_y
_atom_site_fract_z
Si Si1 0.147179 0.880561 0.568317
Si Si2 0.235802 0.620705 0.790555
Si Si3 0.561139 0.380303 0.106210
Si Si4 0.500964 0.120528 0.632514
Si Si5 0.604283 0.758341 0.334577
Si Si6 0.618374 0.242475 0.752061
Si Si7 0.343382 0.381256 0.018390
Si Si8 0.231152 0.285445 0.365926
O O1 0.126534 0.821538 0.443834
O O2 0.118469 0.821535 0.650241
O O3 0.218434 0.866450 0.631736
O O4 0.131894 0.000000 0.553545
O O5 0.237891 0.500000 0.765006
O O6 0.169602 0.659428 0.763658
O O7 0.277383 0.637469 0.926061
O O8 0.261873 0.689577 0.711403
O O9 0.559188 0.500000 0.141107
O O10 0.573124 0.306033 0.216144
O O11 0.613627 0.370961 0.055413
O O12 0.500000 0.357711 0.000000
O O13 0.500000 0.132399 0.500000
O O14 0.440919 0.163984 0.641159
O O15 0.555959 0.186203 0.716338
O O16 0.508184 0.000000 0.662031
O O17 0.662482 0.813669 0.326607
O O18 0.636638 0.305035 0.872776
O O19 0.347380 0.500000 0.059320
O O20 0.250000 0.250000 0.500000
#
# Coordination Sequence:
#
# PCOD9194615 Si02
#       8
#     8   8   8   8   8   8   8   8
#     4  10  21  36  57  87 120 150 184 240 301 351
#     4  10  20  36  60  89 117 153 200 242 287 344
#     4  10  20  34  56  87 118 156 199 238 286 344
#     4  11  24  42  61  84 115 153 199 240 280 344
#     4  11  20  39  61  85 116 153 192 241 292 344
#     4  11  21  39  58  85 120 157 194 240 288 342
#     4  10  20  35  59  88 118 154 195 239 288 345
#     4   9  20  34  55  87 116 150 189 236 295 341
#
# _framework density 17.823263000000001
#
# number of rings (size 3 to 8) (size 9 to 14) (size 15 to 20)
#    0.000    1.750    2.500    2.250    0.000    2.500 
#    0.000    2.500    0.000    4.875    0.000    0.000 
#    0.000    0.000    0.000    0.000    0.000    0.000 
#
# Total GULP energy -178613.491913 kJ/mol
# GULP energy per Si atom -5581.671622 kJ/mol
# Density = 1.778270 g / cm^3
# Si number density = 17.823263 Si / 1000 Ang^3
#
#
#
# Elastic Constant Matrix: (Units=GPa)
#
#
# Indices 1 2 3 4 5 6 
#
# 1 101.8465 40.9425 14.9265 0.0000 7.8655 0.0000
# 2 40.9425 76.1405 34.0304 0.0000 -1.2460 0.0000
# 3 14.9265 34.0304 71.0805 0.0000 -0.6485 0.0000
# 4 0.0000 0.0000 0.0000 25.8842 0.0000 9.1590
# 5 7.8655 -1.2460 -0.6485 0.0000 22.9458 0.0000
# 6 0.0000 0.0000 0.0000 9.1590 0.0000 8.1509
#
#
#
# Elastic Compliance Matrix: (Units=1/GPa)
#
#
# Indices 1 2 3 4 5 6 
#
# 1 0.013080 -0.007462 0.000782 0.000000 -0.004867 0.000000
# 2 -0.007462 0.020977 -0.008444 0.000000 0.003458 0.000000
# 3 0.000782 -0.008444 0.017945 0.000000 -0.000219 0.000000
# 4 0.000000 0.000000 0.000000 0.064134 0.000000 -0.072066
# 5 -0.004867 0.003458 -0.000219 0.000000 0.045431 0.000000
# 6 0.000000 0.000000 0.000000 -0.072066 0.000000 0.203665
#
#
# Mechanical properties :
#
#
# Convention : Reuss Voigt Hill
#
# Bulk Modulus (GPa) = 45.97292 47.65180 46.81236
# Shear Modulus (GPa) = 12.41517 22.00739 17.21128
#
# Velocity S-wave (km/s) = 2.64213 3.51772 3.11088
# Velocity P-wave (km/s) = 5.92938 6.57974 6.26301
#
# Compressibility (1/GPa) = 0.02175194
#
# Stress axis : x y z
#
# Youngs Moduli (GPa) = 76.45342 47.67128 55.72507
#
# Poissons Ratio (x) = 0.35574 -0.04355
# Poissons Ratio (y) = 0.57052 0.47056
# Poissons Ratio (z) = -0.05975 0.40255
#
# Static dielectric constant tensor:
#      x y z
#    x 1.630000 0.000000 0.010380 
#    y 0.000000 1.575830 0.000000 
#    z 0.010380 0.000000 1.589400 
# 
# From -- ./inp_files/175294.got.cif
#   From: 2010.05.17/outbox.cif.g08.bks.cpg/sg12_88_cif.got.tgz:175294.got - 2010.06.03 13:09:07.
