data_PCOD9194068
_publ_section_title
;
Structure prediction by ZEFSAII (Michael W. Deem and Ramdas Pophale) SiO2 
 PCOD9194068
Probable space group: C 2/M
;
_chemical_formula_sum "Si O2"
_cell_formula_units_Z 64
_cell_length_a 31.525601
_cell_length_b 8.987259
_cell_length_c 17.945797
_cell_angle_alpha 90.000000
_cell_angle_beta 41.943120
_cell_angle_gamma 90.000000
_cell_volume 3398.481946
_symmetry_space_group_name_H-M "C 2/M"
_symmetry_group_IT_number 12
_symmetry_cell_setting 'monoclinic'
loop_
_space_group_symop_operation_xyz
x,y,z
-x,y,-z
-x,-y,-z
x,-y,z
1/2+x,1/2+y,z
1/2-x,1/2+y,-z
1/2-x,1/2-y,-z
1/2+x,1/2-y,z
loop_
_atom_site_type_symbol
_atom_site_label
_atom_site_fract_x
_atom_site_fract_y
_atom_site_fract_z
Si Si1 0.863526 0.323439 0.569677
Si Si2 0.405577 0.177913 0.682953
Si Si3 0.075572 0.824820 0.107075
Si Si4 0.488622 0.820604 0.100276
Si Si5 0.649775 0.178190 0.657443
Si Si6 0.011699 0.174948 0.632350
Si Si7 0.181856 0.179047 0.077117
Si Si8 0.223087 0.176287 0.423146
O O1 0.863874 0.500000 0.558912
O O2 0.880745 0.290550 0.632729
O O3 0.919917 0.247718 0.449469
O O4 0.798647 0.255098 0.624102
O O5 0.474346 0.240290 0.615520
O O6 0.360147 0.259850 0.800423
O O7 0.405215 0.000000 0.694137
O O8 0.144183 0.778729 0.050397
O O9 0.045051 0.737015 0.079055
O O10 0.028185 0.807372 0.239707
O O11 0.078191 0.000000 0.085562
O O12 0.419944 0.773177 0.223792
O O13 0.488337 0.000000 0.101318
O O14 0.500000 0.772102 0.000000
O O15 0.703918 0.203373 0.649405
O O16 0.678581 0.258850 0.547387
O O17 0.647564 0.000000 0.645524
O O18 0.016132 0.000000 0.609882
O O19 0.184448 0.000000 0.075662
O O20 0.250000 0.250000 0.000000
O O21 0.213300 0.000000 0.430746
#
# Coordination Sequence:
#
# PCOD9194068 Si02
#       8
#     8   8   8   8   8   8   8   8
#     4  11  22  34  50  78 114 148 182 222 274 332
#     4  10  21  36  53  77 112 148 184 225 274 330
#     4   9  20  37  56  82 111 140 181 226 274 331
#     4  10  21  37  57  82 112 143 183 232 281 333
#     4   9  19  37  57  77 107 143 181 230 282 336
#     4  10  20  34  55  81 110 144 185 230 274 328
#     4  10  21  39  61  83 110 145 188 235 280 332
#     4  10  20  34  55  80 107 143 186 230 277 335
#
# _framework density 18.831938000000001
#
# number of rings (size 3 to 8) (size 9 to 14) (size 15 to 20)
#    0.000    2.125    0.000    3.750    0.000    9.750 
#    2.250    0.000    0.000    0.000    0.000    0.000 
#    0.000    0.000    0.000    0.000    0.000    0.000 
#
# Total GULP energy -178604.182769 kJ/mol
# GULP energy per Si atom -5581.380712 kJ/mol
# Density = 1.878908 g / cm^3
# Si number density = 18.831938 Si / 1000 Ang^3
#
#
#
# Elastic Constant Matrix: (Units=GPa)
#
#
# Indices 1 2 3 4 5 6 
#
# 1 152.2077 56.8606 32.6757 0.0021 -11.0464 -0.0007
# 2 56.8606 45.0647 10.6448 0.0139 2.2126 -0.0082
# 3 32.6757 10.6448 42.3067 0.0142 -12.9195 -0.0075
# 4 0.0021 0.0139 0.0142 15.8373 -0.0057 3.3737
# 5 -11.0464 2.2126 -12.9195 -0.0057 22.0164 0.0026
# 6 -0.0007 -0.0082 -0.0075 3.3737 0.0026 35.5522
#
#
#
# Elastic Compliance Matrix: (Units=1/GPa)
#
#
# Indices 1 2 3 4 5 6 
#
# 1 0.014694 -0.017661 -0.005009 0.000022 0.006208 -0.000007
# 2 -0.017661 0.045778 -0.002422 -0.000044 -0.014883 0.000015
# 3 -0.005009 -0.002422 0.033409 -0.000022 0.017335 0.000007
# 4 0.000022 -0.000044 -0.000022 0.064445 0.000020 -0.006115
# 5 0.006208 -0.014883 0.017335 0.000020 0.060204 -0.000006
# 6 -0.000007 0.000015 0.000007 -0.006115 -0.000006 0.028708
#
#
# Mechanical properties :
#
#
# Convention : Reuss Voigt Hill
#
# Bulk Modulus (GPa) = 22.88621 48.88240 35.88430
# Shear Modulus (GPa) = 16.02629 23.97436 20.00033
#
# Velocity S-wave (km/s) = 2.92038 3.57188 3.26244
# Velocity P-wave (km/s) = 4.85291 6.55932 5.76955
#
# Compressibility (1/GPa) = 0.04369444
#
# Stress axis : x y z
#
# Youngs Moduli (GPa) = 68.05649 21.84476 29.93206
#
# Poissons Ratio (x) = 0.38581 0.14994
# Poissons Ratio (y) = 1.20197 0.07250
# Poissons Ratio (z) = 0.34091 0.05291
#
# Static dielectric constant tensor:
#      x y z
#    x 1.661400 0.000000 0.013240 
#    y 0.000000 1.624080 0.000000 
#    z 0.013240 0.000000 1.604780 
# 
# From -- ./inp_files/295660.got.cif
#   From: 2010.05.17/outbox.cif.g08.bks.cpg/sg12_148_cif.got.tgz:295660.got - 2010.06.03 13:09:07.
