data_PCOD9194578
_publ_section_title
;
Structure prediction by ZEFSAII (Michael W. Deem and Ramdas Pophale) SiO2 
 PCOD9194578
Probable space group: C 2/M
;
_chemical_formula_sum "Si O2"
_cell_formula_units_Z 58
_cell_length_a 26.431726
_cell_length_b 9.497217
_cell_length_c 24.292239
_cell_angle_alpha 90.000000
_cell_angle_beta 149.845750
_cell_angle_gamma 90.000000
_cell_volume 3063.220525
_symmetry_space_group_name_H-M "C 2/M"
_symmetry_group_IT_number 12
_symmetry_cell_setting 'monoclinic'
loop_
_space_group_symop_operation_xyz
x,y,z
-x,y,-z
-x,-y,-z
x,-y,z
1/2+x,1/2+y,z
1/2-x,1/2+y,-z
1/2-x,1/2-y,-z
1/2+x,1/2-y,z
loop_
_atom_site_type_symbol
_atom_site_label
_atom_site_fract_x
_atom_site_fract_y
_atom_site_fract_z
Si Si1 0.304914 0.834560 0.393282
Si Si2 0.871185 0.837823 0.175649
Si Si3 0.811456 0.172135 0.605916
Si Si4 0.521553 0.830990 0.814700
Si Si5 0.239695 0.661491 0.769442
Si Si6 0.967906 0.756764 0.379597
Si Si7 0.663764 0.836001 0.046012
Si Si8 0.500000 0.500000 0.500000
O O1 0.241938 0.786935 0.386647
O O2 0.272557 0.774164 0.303428
O O3 0.423233 0.814272 0.515334
O O4 0.286980 0.000000 0.371721
O O5 0.898516 0.726431 0.154640
O O6 0.760022 0.818132 0.096174
O O7 0.945249 0.812826 0.297164
O O8 0.880462 0.000000 0.164987
O O9 0.750000 0.250000 0.500000
O O10 0.922225 0.239238 0.711060
O O11 0.811839 0.000000 0.600433
O O12 0.506071 0.000000 0.793919
O O13 0.566493 0.803829 0.917749
O O14 0.272552 0.500000 0.797169
O O15 0.313810 0.745794 0.879037
O O16 0.128417 0.666005 0.692280
O O17 0.973205 0.879786 0.428887
O O18 0.661306 0.000000 0.059255
#
# Coordination Sequence:
#
# PCOD9194578 Si02
#       8
#     8   8   8   8   8   8   8   2
#     4  10  21  37  56  80 112 148 189 236 283 330
#     4  10  20  34  56  86 114 149 192 232 281 336
#     4  11  24  43  63  85 112 148 191 237 281 332
#     4  11  23  41  59  83 115 151 189 237 285 335
#     4  10  20  34  57  87 115 147 186 230 284 340
#     4  11  20  33  54  84 120 154 186 227 280 339
#     4   9  21  38  59  84 117 149 186 231 283 340
#     4  12  20  32  50  84 124 158 190 216 282 340
#
# _framework density 18.934321000000001
#
# number of rings (size 3 to 8) (size 9 to 14) (size 15 to 20)
#    0.000    1.655    2.069    2.483    0.966    6.069 
#    2.483    0.690    0.000    4.138    0.000    0.000 
#    0.000    0.000    0.000    0.000    0.000    0.000 
#
# Total GULP energy -161542.728981 kJ/mol
# GULP energy per Si atom -5570.438930 kJ/mol
# Density = 1.889123 g / cm^3
# Si number density = 18.934321 Si / 1000 Ang^3
#
#
#
# Elastic Constant Matrix: (Units=GPa)
#
#
# Indices 1 2 3 4 5 6 
#
# 1 35.8299 36.2954 19.5808 0.0000 -13.4693 0.0000
# 2 36.2954 69.6555 42.1283 0.0000 -13.5977 0.0000
# 3 19.5808 42.1283 104.7935 0.0000 -21.3256 0.0000
# 4 0.0000 0.0000 0.0000 -136.3185 0.0000 -138.6813
# 5 -13.4693 -13.5977 -21.3256 0.0000 17.1998 0.0000
# 6 0.0000 0.0000 0.0000 -138.6813 0.0000 -76.3326
#
#
#
# Elastic Compliance Matrix: (Units=1/GPa)
#
#
# Indices 1 2 3 4 5 6 
#
# 1 0.076112 -0.037066 0.009156 0.000000 0.041653 0.000000
# 2 -0.037066 0.037753 -0.010813 0.000000 -0.012587 0.000000
# 3 0.009156 -0.010813 0.015913 0.000000 0.018352 0.000000
# 4 0.000000 0.000000 0.000000 0.008648 0.000000 -0.015711
# 5 0.041653 -0.012587 0.018352 0.000000 0.103563 0.000000
# 6 0.000000 0.000000 0.000000 -0.015711 0.000000 0.015443
#
#
# Mechanical properties :
#
#
# Convention : Reuss Voigt Hill
#
# Bulk Modulus (GPa) = 19.10869 45.14309 32.12589
# Shear Modulus (GPa) = 14.19157 -31.60531 -8.70687
#
# Velocity S-wave (km/s) = 2.74070 -4.09003 -2.14673
# Velocity P-wave (km/s) = 4.48656 1.26067 3.29534
#
# Compressibility (1/GPa) = 0.05233222
#
# Stress axis : x y z
#
# Youngs Moduli (GPa) = 13.13856 26.48807 62.84025
#
# Poissons Ratio (x) = 0.98180 -0.57535
# Poissons Ratio (y) = 0.48699 0.67947
# Poissons Ratio (z) = -0.12029 0.28641
#
# Static dielectric constant tensor:
#      x y z
#    x 1.677550 0.000000 -0.003740 
#    y 0.000000 1.643430 0.000000 
#    z -0.003740 0.000000 1.663180 
# 
# From -- ./inp_files/351481.got.cif
#   From: 2010.05.17/outbox.cif.g08.bks.cpg/sg12_176_cif.got.tgz:351481.got - 2010.06.03 13:09:07.
