data_PCOD9194107
_publ_section_title
;
Structure prediction by ZEFSAII (Michael W. Deem and Ramdas Pophale) SiO2 
 PCOD9194107
Probable space group: C 2/M
;
_chemical_formula_sum "Si O2"
_cell_formula_units_Z 64
_cell_length_a 14.938043
_cell_length_b 7.662846
_cell_length_c 24.122528
_cell_angle_alpha 90.000000
_cell_angle_beta 110.831200
_cell_angle_gamma 90.000000
_cell_volume 2580.758378
_symmetry_space_group_name_H-M "C 2/M"
_symmetry_group_IT_number 12
_symmetry_cell_setting 'monoclinic'
loop_
_space_group_symop_operation_xyz
x,y,z
-x,y,-z
-x,-y,-z
x,-y,z
1/2+x,1/2+y,z
1/2-x,1/2+y,-z
1/2-x,1/2-y,-z
1/2+x,1/2-y,z
loop_
_atom_site_type_symbol
_atom_site_label
_atom_site_fract_x
_atom_site_fract_y
_atom_site_fract_z
Si Si1 0.325378 0.708793 0.606262
Si Si2 0.691952 0.801486 0.769721
Si Si3 0.836300 0.714442 0.353328
Si Si4 0.402332 0.196394 0.956887
Si Si5 0.519089 0.702291 0.137956
Si Si6 0.303953 0.794828 0.107036
Si Si7 0.026532 0.708097 0.445419
Si Si8 0.024822 0.212224 0.265986
O O1 0.324026 0.500000 0.605641
O O2 0.222003 0.766642 0.604781
O O3 0.369707 0.762425 0.557672
O O4 0.397350 0.764196 0.671554
O O5 0.713971 0.723469 0.714367
O O6 0.712226 0.720269 0.834090
O O7 0.576295 0.800314 0.743136
O O8 0.730307 0.000000 0.779143
O O9 0.834776 0.500000 0.349475
O O10 0.945027 0.774704 0.385175
O O11 0.423943 0.195996 0.896187
O O12 0.297532 0.271927 0.945421
O O13 0.400098 0.000000 0.979414
O O14 0.500000 0.285633 0.000000
O O15 0.544295 0.500000 0.136425
O O16 0.403445 0.719472 0.106092
O O17 0.545657 0.755596 0.206366
O O18 0.177034 0.500000 0.883152
O O19 0.014469 0.500000 0.445496
O O20 0.000000 0.778007 0.500000
O O21 0.013872 0.000000 0.265442
#
# Coordination Sequence:
#
# PCOD9194107 Si02
#       8
#     8   8   8   8   8   8   8   8
#     4  10  20  34  55  81 110 145 184 227 280 338
#     4   9  17  32  57  82 111 148 185 222 276 345
#     4   9  18  33  54  79 110 147 182 223 280 336
#     4  11  25  43  61  84 117 157 201 244 288 345
#     4  10  21  38  61  88 120 154 191 241 294 348
#     4  10  21  37  61  90 118 152 194 239 293 354
#     4  10  21  38  57  77 108 150 193 235 278 330
#     4   9  18  32  54  83 115 143 178 228 282 337
#
# _framework density 24.798912999999999
#
# number of rings (size 3 to 8) (size 9 to 14) (size 15 to 20)
#    0.000    2.250    1.250    1.125    1.750    3.250 
#    0.000    1.250    0.000    0.000    0.000    0.000 
#    0.000    0.000    0.000    0.000    0.000    0.000 
#
# Total GULP energy -178749.059200 kJ/mol
# GULP energy per Si atom -5585.908100 kJ/mol
# Density = 2.474247 g / cm^3
# Si number density = 24.798913 Si / 1000 Ang^3
#
#
#
# Elastic Constant Matrix: (Units=GPa)
#
#
# Indices 1 2 3 4 5 6 
#
# 1 99.5425 -2.0730 15.0076 0.0000 -8.1842 0.0000
# 2 -2.0730 48.1676 1.8592 0.0000 3.6167 0.0000
# 3 15.0076 1.8592 32.0532 0.0000 -7.5129 0.0000
# 4 0.0000 0.0000 0.0000 10.1316 0.0000 -5.6052
# 5 -8.1842 3.6167 -7.5129 0.0000 34.7441 0.0000
# 6 0.0000 0.0000 0.0000 -5.6052 0.0000 10.1331
#
#
#
# Elastic Compliance Matrix: (Units=1/GPa)
#
#
# Indices 1 2 3 4 5 6 
#
# 1 0.010901 0.000543 -0.004789 0.000000 0.001476 0.000000
# 2 0.000543 0.021052 -0.002064 0.000000 -0.002510 0.000000
# 3 -0.004789 -0.002064 0.035127 0.000000 0.006682 0.000000
# 4 0.000000 0.000000 0.000000 0.142226 0.000000 0.078673
# 5 0.001476 -0.002510 0.006682 0.000000 0.030836 0.000000
# 6 0.000000 0.000000 0.000000 0.078673 0.000000 0.142205
#
#
# Mechanical properties :
#
#
# Convention : Reuss Voigt Hill
#
# Bulk Modulus (GPa) = 18.36221 23.26121 20.81171
# Shear Modulus (GPa) = 12.10304 21.99972 17.05138
#
# Velocity S-wave (km/s) = 2.21158 2.98169 2.62503
# Velocity P-wave (km/s) = 3.73389 4.61024 4.19501
#
# Compressibility (1/GPa) = 0.05445967
#
# Stress axis : x y z
#
# Youngs Moduli (GPa) = 91.73750 47.50066 28.46851
#
# Poissons Ratio (x) = -0.02580 0.13635
# Poissons Ratio (y) = -0.04983 0.05875
# Poissons Ratio (z) = 0.43937 0.09803
#
# Static dielectric constant tensor:
#      x y z
#    x 1.943500 0.000000 -0.013910 
#    y 0.000000 1.937160 0.000000 
#    z -0.013910 0.000000 2.042680 
# 
# From -- ./inp_files/359936.got.cif
#   From: 2010.05.17/outbox.cif.g08.bks.cpg/sg12_180_cif.got.tgz:359936.got - 2010.06.03 13:09:07.
