data_PCOD9194136
_publ_section_title
;
Structure prediction by ZEFSAII (Michael W. Deem and Ramdas Pophale) SiO2 
 PCOD9194136
Probable space group: C 2/M
;
_chemical_formula_sum "Si O2"
_cell_formula_units_Z 64
_cell_length_a 20.805107
_cell_length_b 7.925882
_cell_length_c 23.660004
_cell_angle_alpha 90.000000
_cell_angle_beta 43.848330
_cell_angle_gamma 90.000000
_cell_volume 2702.775653
_symmetry_space_group_name_H-M "C 2/M"
_symmetry_group_IT_number 12
_symmetry_cell_setting 'monoclinic'
loop_
_space_group_symop_operation_xyz
x,y,z
-x,y,-z
-x,-y,-z
x,-y,z
1/2+x,1/2+y,z
1/2-x,1/2+y,-z
1/2-x,1/2-y,-z
1/2+x,1/2-y,z
loop_
_atom_site_type_symbol
_atom_site_label
_atom_site_fract_x
_atom_site_fract_y
_atom_site_fract_z
Si Si1 0.511393 0.303733 0.817705
Si Si2 0.948396 0.696094 0.978639
Si Si3 0.370143 0.695918 0.419201
Si Si4 0.263344 0.698268 0.149469
Si Si5 0.306316 0.699411 0.694800
Si Si6 0.938310 0.305575 0.754724
Si Si7 0.212371 0.203126 0.643091
Si Si8 0.488178 0.293298 0.442847
O O1 0.504941 0.500000 0.806582
O O2 0.445923 0.201043 0.817459
O O3 0.616354 0.249888 0.736166
O O4 0.480576 0.281483 0.901096
O O5 0.974720 0.500000 0.956681
O O6 0.841411 0.711884 0.063652
O O7 0.000000 0.772444 0.000000
O O8 0.346168 0.500000 0.441859
O O9 0.471750 0.706703 0.324697
O O10 0.300859 0.765684 0.413998
O O11 0.401367 0.770827 0.460430
O O12 0.267788 0.500000 0.133810
O O13 0.266994 0.720588 0.215251
O O14 0.161503 0.764342 0.198293
O O15 0.301979 0.500000 0.705330
O O16 0.287804 0.733745 0.640256
O O17 0.410529 0.757167 0.644961
O O18 0.947088 0.500000 0.730306
O O19 0.218573 0.000000 0.636260
O O20 0.500000 0.240170 0.500000
O O21 0.482532 0.500000 0.445694
#
# Coordination Sequence:
#
# PCOD9194136 Si02
#       8
#     8   8   8   8   8   8   8   8
#     4  10  21  37  57  79 108 148 188 226 275 332
#     4  11  24  39  55  77 106 142 185 234 282 325
#     4   9  17  34  58  81 109 148 189 225 270 330
#     4  11  23  37  56  80 109 145 183 226 280 336
#     4  11  21  34  57  85 112 143 185 236 278 325
#     4  10  20  34  55  82 109 140 180 230 278 323
#     4   9  19  34  55  81 111 149 187 227 275 330
#     4   9  18  34  58  86 113 144 185 229 274 329
#
# _framework density 23.679361
#
# number of rings (size 3 to 8) (size 9 to 14) (size 15 to 20)
#    0.000    2.000    1.250    3.375    0.000    7.500 
#    0.000    0.625    0.000    3.375    0.000    0.000 
#    0.000    0.000    0.000    0.000    0.000    0.000 
#
# Total GULP energy -178752.994882 kJ/mol
# GULP energy per Si atom -5586.031090 kJ/mol
# Density = 2.362547 g / cm^3
# Si number density = 23.679361 Si / 1000 Ang^3
#
#
#
# Elastic Constant Matrix: (Units=GPa)
#
#
# Indices 1 2 3 4 5 6 
#
# 1 150.6580 5.7141 23.5635 0.0003 9.2441 -0.0002
# 2 5.7141 45.6392 9.2746 0.0007 1.8493 -0.0006
# 3 23.5635 9.2746 74.3599 0.0000 17.7201 -0.0001
# 4 0.0003 0.0007 0.0000 30.6575 0.0001 11.3132
# 5 9.2441 1.8493 17.7201 0.0001 39.5813 0.0001
# 6 -0.0002 -0.0006 -0.0001 11.3132 0.0001 30.9863
#
#
#
# Elastic Compliance Matrix: (Units=1/GPa)
#
#
# Indices 1 2 3 4 5 6 
#
# 1 0.007011 -0.000443 -0.001994 0.000000 -0.000724 0.000000
# 2 -0.000443 0.022511 -0.002733 -0.000001 0.000275 0.000001
# 3 -0.001994 -0.002733 0.015985 0.000000 -0.006563 0.000000
# 4 0.000000 -0.000001 0.000000 0.037697 0.000000 -0.013763
# 5 -0.000724 0.000275 -0.006563 0.000000 0.028359 0.000000
# 6 0.000000 0.000001 0.000000 -0.013763 0.000000 0.037297
#
#
# Mechanical properties :
#
#
# Convention : Reuss Voigt Hill
#
# Bulk Modulus (GPa) = 28.43619 38.64015 33.53817
# Shear Modulus (GPa) = 29.25324 35.71867 32.48596
#
# Velocity S-wave (km/s) = 3.51862 3.88807 3.70795
# Velocity P-wave (km/s) = 5.34252 6.04231 5.70316
#
# Compressibility (1/GPa) = 0.03516645
#
# Stress axis : x y z
#
# Youngs Moduli (GPa) = 142.64082 44.42339 62.55994
#
# Poissons Ratio (x) = 0.01969 0.12473
# Poissons Ratio (y) = 0.06322 0.17096
# Poissons Ratio (z) = 0.28439 0.12140
#
# Static dielectric constant tensor:
#      x y z
#    x 1.964020 0.000000 0.019860 
#    y 0.000000 1.824260 0.000000 
#    z 0.019860 0.000000 1.941900 
# 
# From -- ./inp_files/345950.got.cif
#   From: 2010.05.17/outbox.cif.g08.bks.cpg/sg12_173_cif.got.tgz:345950.got - 2010.06.03 13:09:07.
