data_PCOD9194374
_publ_section_title
;
Structure prediction by ZEFSAII (Michael W. Deem and Ramdas Pophale) SiO2 
 PCOD9194374
Probable space group: C 2/M
;
_chemical_formula_sum "Si O2"
_cell_formula_units_Z 64
_cell_length_a 8.886820
_cell_length_b 27.409924
_cell_length_c 19.770596
_cell_angle_alpha 90.000000
_cell_angle_beta 41.151680
_cell_angle_gamma 90.000000
_cell_volume 3169.100123
_symmetry_space_group_name_H-M "C 2/M"
_symmetry_group_IT_number 12
_symmetry_cell_setting 'monoclinic'
loop_
_space_group_symop_operation_xyz
x,y,z
-x,y,-z
-x,-y,-z
x,-y,z
1/2+x,1/2+y,z
1/2-x,1/2+y,-z
1/2-x,1/2-y,-z
1/2+x,1/2-y,z
loop_
_atom_site_type_symbol
_atom_site_label
_atom_site_fract_x
_atom_site_fract_y
_atom_site_fract_z
Si Si1 0.127488 0.149978 0.388013
Si Si2 0.646825 0.942195 0.385343
Si Si3 0.612968 0.140944 0.032717
Si Si4 0.619666 0.886514 0.258381
Si Si5 0.980456 0.196999 0.164086
Si Si6 0.414746 0.555403 0.682069
Si Si7 0.129690 0.555592 0.119622
Si Si8 0.282931 0.703672 0.773236
O O1 0.395843 0.143605 0.312704
O O2 0.050104 0.096912 0.385913
O O3 0.099066 0.188370 0.336777
O O4 0.000000 0.162749 0.500000
O O5 0.500000 0.926259 0.500000
O O6 0.573087 0.915631 0.342738
O O7 0.912684 0.933844 0.314808
O O8 0.613336 0.000000 0.388308
O O9 0.718833 0.094841 0.035421
O O10 0.412600 0.163321 0.146369
O O11 0.500000 0.125411 0.000000
O O12 0.790800 0.183931 0.955175
O O13 0.676747 0.923623 0.178377
O O14 0.821151 0.849300 0.205497
O O15 0.051295 0.202496 0.218413
O O16 0.845528 0.244895 0.187331
O O17 0.468321 0.500000 0.640217
O O18 0.148643 0.555839 0.792746
O O19 0.207748 0.500000 0.084213
#
# Coordination Sequence:
#
# PCOD9194374 Si02
#       8
#     8   8   8   8   8   8   8   8
#     4  11  22  39  63  90 128 169 208 257 313 378
#     4  10  20  34  55  87 124 166 218 265 313 373
#     4  10  22  41  67  95 122 165 209 261 317 378
#     4  11  22  38  59  92 129 167 209 260 321 369
#     4  11  25  41  70  91 122 163 211 264 327 377
#     4   9  18  34  59  84 120 169 212 258 310 371
#     4  10  21  40  63  90 130 170 212 260 314 381
#     4  11  22  45  63  95 125 159 211 266 317 376
#
# _framework density 20.195008000000001
#
# number of rings (size 3 to 8) (size 9 to 14) (size 15 to 20)
#    0.000    1.625    2.500    3.000    1.750    1.500 
#    0.000    5.000    0.000    0.000    0.000    0.000 
#    0.000    0.000    0.000    0.000    0.000    0.000 
#
# Total GULP energy -178820.410903 kJ/mol
# GULP energy per Si atom -5588.137841 kJ/mol
# Density = 2.014904 g / cm^3
# Si number density = 20.195008 Si / 1000 Ang^3
#
#
#
# Elastic Constant Matrix: (Units=GPa)
#
#
# Indices 1 2 3 4 5 6 
#
# 1 95.1182 31.0971 16.2799 -0.0001 7.8096 0.0000
# 2 31.0971 91.7594 18.9515 0.0000 16.8825 0.0000
# 3 16.2799 18.9515 55.7825 -0.0002 25.5376 0.0000
# 4 -0.0001 0.0000 -0.0002 15.4561 0.0001 -2.8113
# 5 7.8096 16.8825 25.5376 0.0001 28.7101 0.0000
# 6 0.0000 0.0000 0.0000 -2.8113 0.0000 30.8399
#
#
#
# Elastic Compliance Matrix: (Units=1/GPa)
#
#
# Indices 1 2 3 4 5 6 
#
# 1 0.012131 -0.003786 -0.002974 0.000000 0.001572 0.000000
# 2 -0.003786 0.013472 -0.000534 0.000000 -0.006417 0.000000
# 3 -0.002974 -0.000534 0.031145 0.000000 -0.026580 0.000000
# 4 0.000000 0.000000 0.000000 0.065790 -0.000001 0.005997
# 5 0.001572 -0.006417 -0.026580 -0.000001 0.061820 0.000000
# 6 0.000000 0.000000 0.000000 0.005997 0.000000 0.032972
#
#
# Mechanical properties :
#
#
# Convention : Reuss Voigt Hill
#
# Bulk Modulus (GPa) = 23.71931 41.70188 32.71060
# Shear Modulus (GPa) = 20.32756 26.75664 23.54210
#
# Velocity S-wave (km/s) = 3.17608 3.64389 3.41800
# Velocity P-wave (km/s) = 5.02201 6.19664 5.63999
#
# Compressibility (1/GPa) = 0.04215974
#
# Stress axis : x y z
#
# Youngs Moduli (GPa) = 82.43371 74.22704 32.10823
#
# Poissons Ratio (x) = 0.28104 0.09547
# Poissons Ratio (y) = 0.31211 0.01716
# Poissons Ratio (z) = 0.24512 0.03966
#
# Static dielectric constant tensor:
#      x y z
#    x 1.708810 0.000000 -0.026790 
#    y 0.000000 1.704330 0.000000 
#    z -0.026790 0.000000 1.724950 
# 
# From -- ./inp_files/260305.got.cif
#   From: 2010.05.17/outbox.cif.g08.bks.cpg/sg12_131_cif.got.tgz:260305.got - 2010.06.03 13:09:07.
