data_PCOD9194890
_publ_section_title
;
Structure prediction by ZEFSAII (Michael W. Deem and Ramdas Pophale) SiO2 
 PCOD9194890
Probable space group: C 2/M
;
_chemical_formula_sum "Si O2"
_cell_formula_units_Z 42
_cell_length_a 19.857065
_cell_length_b 7.171340
_cell_length_c 12.441506
_cell_angle_alpha 90.000000
_cell_angle_beta 67.957574
_cell_angle_gamma 90.000000
_cell_volume 1642.192702
_symmetry_space_group_name_H-M "C 2/M"
_symmetry_group_IT_number 12
_symmetry_cell_setting 'monoclinic'
loop_
_space_group_symop_operation_xyz
x,y,z
-x,y,-z
-x,-y,-z
x,-y,z
1/2+x,1/2+y,z
1/2-x,1/2+y,-z
1/2-x,1/2-y,-z
1/2+x,1/2-y,z
loop_
_atom_site_type_symbol
_atom_site_label
_atom_site_fract_x
_atom_site_fract_y
_atom_site_fract_z
Si Si1 0.888122 0.789596 0.071933
Si Si2 0.000000 0.500000 0.500000
Si Si3 0.049855 0.225246 0.752799
Si Si4 0.373405 0.725255 0.499447
Si Si5 0.110112 0.226370 0.171281
Si Si6 0.234134 0.224102 0.263015
O O1 0.940094 0.706047 0.131884
O O2 0.811100 0.796642 0.178391
O O3 0.914422 0.000000 0.036326
O O4 0.877776 0.711483 0.959130
O O5 0.063153 0.337075 0.479163
O O6 0.113896 0.275533 0.632919
O O7 0.972163 0.285264 0.752125
O O8 0.049192 0.000000 0.758790
O O9 0.383221 0.500000 0.505062
O O10 0.297415 0.773537 0.601392
O O11 0.172658 0.286216 0.214388
O O12 0.111923 0.000000 0.174447
O O13 0.239802 0.000000 0.254523
#
# Coordination Sequence:
#
# PCOD9194890 Si02
#       6
#     8   2   8   8   8   8
#     4  10  20  34  58  86 114 153 202 243 293 359
#     4  12  22  36  64  94 122 156 196 246 300 350
#     4   9  18  36  59  84 117 155 194 248 302 353
#     4  10  22  39  60  90 124 157 196 246 299 356
#     4   9  17  32  57  85 111 150 201 247 294 354
#     4  10  21  37  57  82 119 161 191 241 302 356
#
# _framework density 25.575559999999999
#
# number of rings (size 3 to 8) (size 9 to 14) (size 15 to 20)
#    0.000    2.286    0.000    2.571    1.333    6.095 
#    1.714    0.000    2.095    1.143    0.000    0.000 
#    0.000    0.000    0.000    0.000    0.000    0.000 
#
# Total GULP energy -117213.735027 kJ/mol
# GULP energy per Si atom -5581.606430 kJ/mol
# Density = 2.551735 g / cm^3
# Si number density = 25.575560 Si / 1000 Ang^3
#
#
#
# Elastic Constant Matrix: (Units=GPa)
#
#
# Indices 1 2 3 4 5 6 
#
# 1 69.8540 -15.5866 15.2270 0.0000 -3.9961 0.0000
# 2 -15.5866 143.6609 -4.5677 0.0000 -0.1545 0.0000
# 3 15.2270 -4.5677 140.7443 0.0000 -12.6775 0.0000
# 4 0.0000 0.0000 0.0000 -20.3855 0.0000 -25.4943
# 5 -3.9961 -0.1545 -12.6775 0.0000 44.5661 0.0000
# 6 0.0000 0.0000 0.0000 -25.4943 0.0000 -6.7491
#
#
#
# Elastic Compliance Matrix: (Units=1/GPa)
#
#
# Indices 1 2 3 4 5 6 
#
# 1 0.015048 0.001586 -0.001493 0.000000 0.000930 0.000000
# 2 0.001586 0.007136 0.000077 0.000000 0.000189 0.000000
# 3 -0.001493 0.000077 0.007448 0.000000 0.001985 0.000000
# 4 0.000000 0.000000 0.000000 0.013172 0.000000 -0.049757
# 5 0.000930 0.000189 0.001985 0.000000 0.023087 0.000000
# 6 0.000000 0.000000 0.000000 -0.049757 0.000000 0.039786
#
#
# Mechanical properties :
#
#
# Convention : Reuss Voigt Hill
#
# Bulk Modulus (GPa) = 33.36405 38.26718 35.81561
# Shear Modulus (GPa) = 43.35487 27.43206 35.39346
#
# Velocity S-wave (km/s) = 4.12171 3.27859 3.72409
# Velocity P-wave (km/s) = 5.97703 5.41545 5.70316
#
# Compressibility (1/GPa) = 0.02997238
#
# Stress axis : x y z
#
# Youngs Moduli (GPa) = 66.45348 140.14273 134.26624
#
# Poissons Ratio (x) = -0.22229 0.20043
# Poissons Ratio (y) = -0.10541 -0.01034
# Poissons Ratio (z) = 0.09920 -0.01079
#
# Static dielectric constant tensor:
#      x y z
#    x 1.942550 0.000000 0.014860 
#    y 0.000000 1.988970 0.000000 
#    z 0.014860 0.000000 2.037530 
# 
# From -- ./inp_files/162997.got.cif
#   From: 2010.05.17/outbox.cif.g08.bks.cpg/sg12_82_cif.got.tgz:162997.got - 2010.06.03 13:09:07.
