data_PCOD9194833
_publ_section_title
;
Structure prediction by ZEFSAII (Michael W. Deem and Ramdas Pophale) SiO2 
 PCOD9194833
Probable space group: C 2/M
;
_chemical_formula_sum "Si O2"
_cell_formula_units_Z 58
_cell_length_a 24.597190
_cell_length_b 7.750386
_cell_length_c 22.744669
_cell_angle_alpha 90.000000
_cell_angle_beta 35.397833
_cell_angle_gamma 90.000000
_cell_volume 2511.624720
_symmetry_space_group_name_H-M "C 2/M"
_symmetry_group_IT_number 12
_symmetry_cell_setting 'monoclinic'
loop_
_space_group_symop_operation_xyz
x,y,z
-x,y,-z
-x,-y,-z
x,-y,z
1/2+x,1/2+y,z
1/2-x,1/2+y,-z
1/2-x,1/2-y,-z
1/2+x,1/2-y,z
loop_
_atom_site_type_symbol
_atom_site_label
_atom_site_fract_x
_atom_site_fract_y
_atom_site_fract_z
Si Si1 0.680461 0.796262 0.650922
Si Si2 0.893749 0.197975 0.036236
Si Si3 0.894846 0.701640 0.604581
Si Si4 0.189754 0.699050 0.769073
Si Si5 0.260971 0.793449 0.922804
Si Si6 0.500000 0.000000 0.000000
Si Si7 0.935830 0.299174 0.702443
Si Si8 0.870680 0.199319 0.426233
O O1 0.652352 0.729128 0.739894
O O2 0.780335 0.723863 0.539256
O O3 0.615090 0.775484 0.651580
O O4 0.692248 0.000000 0.652103
O O5 0.836487 0.200772 0.148798
O O6 0.824075 0.254812 0.045289
O O7 0.926086 0.000000 0.997960
O O8 0.970653 0.344227 0.978504
O O9 0.892255 0.500000 0.587213
O O10 0.803040 0.795764 0.661533
O O11 0.889350 0.707371 0.679727
O O12 0.000000 0.768800 0.500000
O O13 0.157284 0.500000 0.810594
O O14 0.360024 0.721017 0.813074
O O15 0.267192 0.000000 0.910470
O O16 0.250000 0.750000 0.000000
O O17 0.953960 0.500000 0.700259
O O18 0.036878 0.214339 0.616780
O O19 0.848690 0.000000 0.435665
#
# Coordination Sequence:
#
# PCOD9194833 Si02
#       8
#     8   8   8   8   8   2   8   8
#     4   9  20  37  56  80 122 168 211 260 314 372
#     4  11  24  47  72 101 137 171 222 282 344 418
#     4  10  20  34  57  89 126 167 210 255 313 384
#     4  11  21  37  62  91 126 171 213 263 328 391
#     4  10  23  43  69  95 128 171 216 277 341 404
#     4  12  26  48  76 106 130 176 214 274 354 422
#     4  10  20  37  57  85 122 159 200 252 315 375
#     4  10  20  35  55  85 119 162 215 264 311 374
#
# _framework density 23.092623
#
# number of rings (size 3 to 8) (size 9 to 14) (size 15 to 20)
#    0.000    1.793    2.069    1.862    0.966    3.034 
#    2.483    0.000    0.000    0.000    0.000    0.000 
#    0.000    0.000    0.000    0.000    0.000    0.000 
#
# Total GULP energy -161767.792280 kJ/mol
# GULP energy per Si atom -5578.199734 kJ/mol
# Density = 2.304006 g / cm^3
# Si number density = 23.092623 Si / 1000 Ang^3
#
#
#
# Elastic Constant Matrix: (Units=GPa)
#
#
# Indices 1 2 3 4 5 6 
#
# 1 95.6070 21.4697 1.2969 -0.0048 13.6785 0.0037
# 2 21.4697 78.1159 8.4992 -0.0065 -6.7638 0.0037
# 3 1.2969 8.4992 48.9458 -0.0018 13.4233 0.0088
# 4 -0.0048 -0.0065 -0.0018 24.1381 0.0038 -6.8339
# 5 13.6785 -6.7638 13.4233 0.0038 41.6369 -0.0050
# 6 0.0037 0.0037 0.0088 -6.8339 -0.0050 20.4332
#
#
#
# Elastic Compliance Matrix: (Units=1/GPa)
#
#
# Indices 1 2 3 4 5 6 
#
# 1 0.012066 -0.003960 0.001790 0.000001 -0.005184 -0.000003
# 2 -0.003960 0.014729 -0.003802 0.000003 0.004919 0.000002
# 3 0.001790 -0.003802 0.023447 -0.000001 -0.008765 -0.000012
# 4 0.000001 0.000003 -0.000001 0.045762 -0.000002 0.015305
# 5 -0.005184 0.004919 -0.008765 -0.000002 0.029345 0.000010
# 6 -0.000003 0.000002 -0.000012 0.015305 0.000010 0.054059
#
#
# Mechanical properties :
#
#
# Convention : Reuss Voigt Hill
#
# Bulk Modulus (GPa) = 26.11066 31.68894 28.89980
# Shear Modulus (GPa) = 24.49557 30.00183 27.24870
#
# Velocity S-wave (km/s) = 3.26045 3.60835 3.43880
# Velocity P-wave (km/s) = 5.05030 5.57786 5.32062
#
# Compressibility (1/GPa) = 0.03829853
#
# Stress axis : x y z
#
# Youngs Moduli (GPa) = 82.87647 67.89122 42.64896
#
# Poissons Ratio (x) = 0.26884 -0.07633
# Poissons Ratio (y) = 0.32818 0.16215
# Poissons Ratio (z) = -0.14832 0.25812
#
# Static dielectric constant tensor:
#      x y z
#    x 1.851760 0.000010 0.058780 
#    y 0.000010 1.905230 0.000050 
#    z 0.058780 0.000050 1.609110 
# 
# From -- ./inp_files/324529.got.cif
#   From: 2010.05.17/outbox.cif.g08.bks.cpg/sg12_163_cif.got.tgz:324529.got - 2010.06.03 13:09:07.
