data_PCOD9194048
_publ_section_title
;
Structure prediction by ZEFSAII (Michael W. Deem and Ramdas Pophale) SiO2 
 PCOD9194048
Probable space group: C 2/M
;
_chemical_formula_sum "Si O2"
_cell_formula_units_Z 64
_cell_length_a 18.780808
_cell_length_b 7.670941
_cell_length_c 31.939538
_cell_angle_alpha 90.000000
_cell_angle_beta 138.821324
_cell_angle_gamma 90.000000
_cell_volume 3029.615807
_symmetry_space_group_name_H-M "C 2/M"
_symmetry_group_IT_number 12
_symmetry_cell_setting 'monoclinic'
loop_
_space_group_symop_operation_xyz
x,y,z
-x,y,-z
-x,-y,-z
x,-y,z
1/2+x,1/2+y,z
1/2-x,1/2+y,-z
1/2-x,1/2-y,-z
1/2+x,1/2-y,z
loop_
_atom_site_type_symbol
_atom_site_label
_atom_site_fract_x
_atom_site_fract_y
_atom_site_fract_z
Si Si1 0.168978 0.203467 0.197420
Si Si2 0.185259 0.709686 0.813139
Si Si3 0.062688 0.789982 0.315844
Si Si4 0.245854 0.289263 0.931953
Si Si5 0.718246 0.291427 0.311237
Si Si6 0.125334 0.790375 0.435866
Si Si7 0.573806 0.794021 0.924826
Si Si8 0.467009 0.289428 0.439242
O O1 0.245202 0.279833 0.195034
O O2 0.184988 0.279487 0.250908
O O3 0.044435 0.214031 0.128975
O O4 0.199681 0.000000 0.214418
O O5 0.198670 0.500000 0.820105
O O6 0.226115 0.774675 0.876304
O O7 0.059582 0.747975 0.750764
O O8 0.144961 0.722591 0.316836
O O9 0.090651 0.723922 0.374722
O O10 0.073163 0.000000 0.321920
O O11 0.241843 0.500000 0.930222
O O12 0.150667 0.227234 0.921136
O O13 0.358860 0.237748 0.003086
O O14 0.700419 0.500000 0.302714
O O15 0.844007 0.258187 0.374866
O O16 0.250000 0.750000 0.500000
O O17 0.047836 0.724896 0.438771
O O18 0.113931 0.000000 0.430146
O O19 0.560231 0.000000 0.913119
O O20 0.500000 0.225907 0.500000
O O21 0.474259 0.500000 0.443034
#
# Coordination Sequence:
#
# PCOD9194048 Si02
#       8
#     8   8   8   8   8   8   8   8
#     4  10  21  36  53  76 107 138 170 212 259 307
#     4  10  21  36  55  78 103 137 177 211 253 310
#     4  10  21  36  54  78 107 136 170 216 264 306
#     4   9  19  36  55  76 104 136 172 214 256 302
#     4  10  21  36  55  79 105 137 175 212 258 312
#     4  10  21  36  54  78 107 139 175 214 259 308
#     4  10  20  34  55  80 103 134 175 213 255 307
#     4  10  21  36  54  78 107 138 174 216 260 305
#
# _framework density 21.124790999999998
#
# number of rings (size 3 to 8) (size 9 to 14) (size 15 to 20)
#    0.000    2.125    0.000    2.625    0.000    4.250 
#    0.000    2.500    0.000    0.000    0.000    0.000 
#    0.000    0.000    0.000    0.000    0.000    0.000 
#
# Total GULP energy -178813.877792 kJ/mol
# GULP energy per Si atom -5587.933681 kJ/mol
# Density = 2.107671 g / cm^3
# Si number density = 21.124791 Si / 1000 Ang^3
#
#
#
# Elastic Constant Matrix: (Units=GPa)
#
#
# Indices 1 2 3 4 5 6 
#
# 1 209.5502 2.9514 121.3219 -0.0001 -15.6262 0.0003
# 2 2.9514 35.8058 -13.4297 -0.0003 -12.9690 0.0007
# 3 121.3219 -13.4297 169.4844 0.0000 -20.0517 0.0000
# 4 -0.0001 -0.0003 0.0000 18.9636 0.0000 8.5699
# 5 -15.6262 -12.9690 -20.0517 0.0000 42.3978 -0.0001
# 6 0.0003 0.0007 0.0000 8.5699 -0.0001 1.0034
#
#
#
# Elastic Compliance Matrix: (Units=1/GPa)
#
#
# Indices 1 2 3 4 5 6 
#
# 1 0.008497 -0.003492 -0.006477 0.000000 -0.001000 0.000000
# 2 -0.003492 0.035395 0.006814 -0.000004 0.012763 0.000009
# 3 -0.006477 0.006814 0.011695 0.000000 0.005228 0.000001
# 4 0.000000 -0.000004 0.000000 -0.018439 -0.000001 0.157489
# 5 -0.001000 0.012763 0.005228 -0.000001 0.029594 0.000002
# 6 0.000000 0.000009 0.000001 0.157489 0.000002 -0.348495
#
#
# Mechanical properties :
#
#
# Convention : Reuss Voigt Hill
#
# Bulk Modulus (GPa) = 20.29352 70.72530 45.50941
# Shear Modulus (GPa) = -19.30380 32.73939 6.71780
#
# Velocity S-wave (km/s) = -3.02619 3.94103 1.78521
# Velocity P-wave (km/s) = 1.60720 7.36624 5.08322
#
# Compressibility (1/GPa) = 0.04927682
#
# Stress axis : x y z
#
# Youngs Moduli (GPa) = 117.69037 28.25281 85.50358
#
# Poissons Ratio (x) = 0.09866 0.55383
# Poissons Ratio (y) = 0.41098 -0.58264
# Poissons Ratio (z) = 0.76232 -0.19252
#
# Static dielectric constant tensor:
#      x y z
#    x 1.756100 0.000000 -0.040100 
#    y 0.000000 1.773740 0.000000 
#    z -0.040100 0.000000 1.704320 
# 
# From -- ./inp_files/378465.got.cif
#   From: 2010.05.17/outbox.cif.g08.bks.cpg/sg12_190_cif.got.tgz:378465.got - 2010.06.03 13:09:07.
