data_PCOD9194845
_publ_section_title
;
Structure prediction by ZEFSAII (Michael W. Deem and Ramdas Pophale) SiO2 
 PCOD9194845
Probable space group: C 2/M
;
_chemical_formula_sum "Si O2"
_cell_formula_units_Z 56
_cell_length_a 22.384151
_cell_length_b 14.448939
_cell_length_c 14.194922
_cell_angle_alpha 90.000000
_cell_angle_beta 139.631725
_cell_angle_gamma 90.000000
_cell_volume 2973.597894
_symmetry_space_group_name_H-M "C 2/M"
_symmetry_group_IT_number 12
_symmetry_cell_setting 'monoclinic'
loop_
_space_group_symop_operation_xyz
x,y,z
-x,y,-z
-x,-y,-z
x,-y,z
1/2+x,1/2+y,z
1/2-x,1/2+y,-z
1/2-x,1/2-y,-z
1/2+x,1/2-y,z
loop_
_atom_site_type_symbol
_atom_site_label
_atom_site_fract_x
_atom_site_fract_y
_atom_site_fract_z
Si Si1 0.041158 0.722043 0.652804
Si Si2 0.746494 0.185725 0.904370
Si Si3 0.410405 0.391648 0.768391
Si Si4 0.240224 0.393342 0.420274
Si Si5 0.625006 0.108769 0.465180
Si Si6 0.709798 0.276106 0.248050
Si Si7 0.573537 0.603278 0.825047
O O1 0.138308 0.668244 0.759794
O O2 0.057252 0.818530 0.726912
O O3 0.000000 0.738977 0.500000
O O4 0.968012 0.662023 0.623075
O O5 0.785704 0.235052 0.858018
O O6 0.750000 0.250000 0.000000
O O7 0.820282 0.106481 0.014763
O O8 0.404471 0.500000 0.790510
O O9 0.332974 0.377551 0.593330
O O10 0.380970 0.324472 0.817443
O O11 0.507713 0.375704 0.835145
O O12 0.241170 0.500000 0.389419
O O13 0.157699 0.380592 0.396338
O O14 0.230102 0.319096 0.326459
O O15 0.707532 0.153711 0.624706
O O16 0.617761 0.000000 0.476635
O O17 0.548733 0.500000 0.762254
#
# Coordination Sequence:
#
# PCOD9194845 Si02
#       7
#     8   8   8   8   8   8   8
#     4  11  21  39  60  86 115 154 206 243 282 341
#     4  10  24  40  54  79 118 157 200 235 280 343
#     4   9  18  32  55  88 115 143 185 234 298 357
#     4   9  18  32  56  90 120 142 183 243 300 351
#     4  10  20  34  57  91 118 145 189 244 298 342
#     4  11  18  34  58  83 116 154 188 238 295 345
#     4  10  22  40  60  84 121 156 188 241 298 349
#
# _framework density 18.832405000000001
#
# number of rings (size 3 to 8) (size 9 to 14) (size 15 to 20)
#    0.000    2.000    1.429    4.714    0.000    2.857 
#    0.000    4.286    0.000    0.857    0.000    9.000 
#    0.000    0.000    0.000    0.000    0.000    0.000 
#
# Total GULP energy -156248.700767 kJ/mol
# GULP energy per Si atom -5580.310742 kJ/mol
# Density = 1.878954 g / cm^3
# Si number density = 18.832405 Si / 1000 Ang^3
#
#
#
# Elastic Constant Matrix: (Units=GPa)
#
#
# Indices 1 2 3 4 5 6 
#
# 1 91.4956 60.4844 49.1989 0.0000 7.0450 0.0000
# 2 60.4844 103.6949 38.5099 0.0000 -5.2438 0.0000
# 3 49.1989 38.5099 74.8976 0.0000 9.4893 0.0000
# 4 0.0000 0.0000 0.0000 10.3446 0.0000 14.3811
# 5 7.0450 -5.2438 9.4893 0.0000 43.4404 0.0000
# 6 0.0000 0.0000 0.0000 14.3811 0.0000 15.6549
#
#
#
# Elastic Compliance Matrix: (Units=1/GPa)
#
#
# Indices 1 2 3 4 5 6 
#
# 1 0.022834 -0.009917 -0.009543 0.000000 -0.002815 0.000000
# 2 -0.009917 0.016582 -0.002539 0.000000 0.004165 0.000000
# 3 -0.009543 -0.002539 0.021360 0.000000 -0.003425 0.000000
# 4 0.000000 0.000000 0.000000 -0.348870 0.000000 0.320484
# 5 -0.002815 0.004165 -0.003425 0.000000 0.024727 0.000000
# 6 0.000000 0.000000 0.000000 0.320484 0.000000 -0.230530
#
#
# Mechanical properties :
#
#
# Convention : Reuss Voigt Hill
#
# Bulk Modulus (GPa) = 59.60763 62.94162 61.27463
# Shear Modulus (GPa) = -11.25351 22.01430 5.38040
#
# Velocity S-wave (km/s) = -2.44716 3.42271 1.69210
# Velocity P-wave (km/s) = 4.87192 7.00817 6.03531
#
# Compressibility (1/GPa) = 0.01677638
#
# Stress axis : x y z
#
# Youngs Moduli (GPa) = 43.79516 60.30743 46.81676
#
# Poissons Ratio (x) = 0.59806 0.44679
# Poissons Ratio (y) = 0.43431 0.11888
# Poissons Ratio (z) = 0.41795 0.15313
#
# Static dielectric constant tensor:
#      x y z
#    x 1.661710 0.000000 0.017420 
#    y 0.000000 1.626860 0.000000 
#    z 0.017420 0.000000 1.677030 
# 
# From -- ./inp_files/225369.got.cif
#   From: 2010.05.17/outbox.cif.g08.bks.cpg/sg12_113_cif.got.tgz:225369.got - 2010.06.03 13:09:07.
