data_PCOD9194910
_publ_section_title
;
Structure prediction by ZEFSAII (Michael W. Deem and Ramdas Pophale) SiO2 
 PCOD9194910
Probable space group: C 2/M
;
_chemical_formula_sum "Si O2"
_cell_formula_units_Z 50
_cell_length_a 28.158645
_cell_length_b 7.744563
_cell_length_c 13.389534
_cell_angle_alpha 90.000000
_cell_angle_beta 50.288659
_cell_angle_gamma 90.000000
_cell_volume 2246.232364
_symmetry_space_group_name_H-M "C 2/M"
_symmetry_group_IT_number 12
_symmetry_cell_setting 'monoclinic'
loop_
_space_group_symop_operation_xyz
x,y,z
-x,y,-z
-x,-y,-z
x,-y,z
1/2+x,1/2+y,z
1/2-x,1/2+y,-z
1/2-x,1/2-y,-z
1/2+x,1/2-y,z
loop_
_atom_site_type_symbol
_atom_site_label
_atom_site_fract_x
_atom_site_fract_y
_atom_site_fract_z
Si Si1 0.500000 0.000000 0.500000
Si Si2 0.005606 0.799776 0.351341
Si Si3 0.122675 0.790860 0.800809
Si Si4 0.738867 0.799165 0.336187
Si Si5 0.087167 0.295408 0.061738
Si Si6 0.389168 0.701512 0.402618
Si Si7 0.726253 0.205678 0.922454
O O1 0.532803 0.156515 0.388477
O O2 0.038728 0.792115 0.199537
O O3 0.936120 0.729197 0.422337
O O4 0.007298 0.000000 0.382543
O O5 0.193420 0.730094 0.724829
O O6 0.102351 0.725140 0.719795
O O7 0.124305 0.000000 0.795969
O O8 0.082362 0.739850 0.950259
O O9 0.681374 0.715722 0.468891
O O10 0.734612 0.779867 0.222322
O O11 0.737333 0.000000 0.364952
O O12 0.083381 0.500000 0.082431
O O13 0.155831 0.233552 0.000964
O O14 0.405414 0.500000 0.375244
O O15 0.726823 0.000000 0.909723
O O16 0.750000 0.250000 0.000000
#
# Coordination Sequence:
#
# PCOD9194910 Si02
#       7
#     2   8   8   8   8   8   8
#     4  12  26  48  68  88 128 156 222 264 320 376
#     4  11  25  45  69  94 125 170 213 263 322 378
#     4   9  19  37  61  91 127 168 207 256 314 382
#     4  10  20  34  58  88 125 166 207 255 315 374
#     4  10  21  40  62  91 126 163 208 261 315 376
#     4  10  22  39  60  90 127 164 212 259 314 379
#     4  10  21  37  59  85 118 157 206 260 315 369
#
# _framework density 22.259495999999999
#
# number of rings (size 3 to 8) (size 9 to 14) (size 15 to 20)
#    0.000    1.920    0.800    2.160    1.120    5.120 
#    0.000    3.200    0.000    0.000    0.000    0.000 
#    0.000    0.000    0.000    0.000    0.000    0.000 
#
# Total GULP energy -139393.367837 kJ/mol
# GULP energy per Si atom -5575.734713 kJ/mol
# Density = 2.220883 g / cm^3
# Si number density = 22.259496 Si / 1000 Ang^3
#
#
#
# Elastic Constant Matrix: (Units=GPa)
#
#
# Indices 1 2 3 4 5 6 
#
# 1 38.4376 11.8230 21.7549 0.0000 18.8591 0.0000
# 2 11.8230 87.3132 17.9986 0.0000 0.6863 0.0001
# 3 21.7549 17.9986 116.8020 0.0000 11.8294 0.0000
# 4 0.0000 0.0000 0.0000 33.6576 0.0000 -3.6326
# 5 18.8591 0.6863 11.8294 0.0000 30.8694 0.0000
# 6 0.0000 0.0001 0.0000 -3.6326 0.0000 6.6630
#
#
#
# Elastic Compliance Matrix: (Units=1/GPa)
#
#
# Indices 1 2 3 4 5 6 
#
# 1 0.041573 -0.004482 -0.004672 0.000000 -0.023508 0.000000
# 2 -0.004482 0.012318 -0.001366 0.000000 0.002988 0.000000
# 3 -0.004672 -0.001366 0.009728 0.000000 -0.000843 0.000000
# 4 0.000000 0.000000 0.000000 0.031568 0.000000 0.017211
# 5 -0.023508 0.002988 -0.000843 0.000000 0.047013 0.000000
# 6 0.000000 0.000000 0.000000 0.017211 0.000000 0.159465
#
#
# Mechanical properties :
#
#
# Convention : Reuss Voigt Hill
#
# Bulk Modulus (GPa) = 23.48523 38.41177 30.94850
# Shear Modulus (GPa) = 14.84133 26.96977 20.90555
#
# Velocity S-wave (km/s) = 2.58493 3.48459 3.06792
# Velocity P-wave (km/s) = 4.41393 5.78651 5.14618
#
# Compressibility (1/GPa) = 0.04257996
#
# Stress axis : x y z
#
# Youngs Moduli (GPa) = 24.05406 81.18221 102.80124
#
# Poissons Ratio (x) = 0.36383 0.48026
# Poissons Ratio (y) = 0.10780 0.14043
# Poissons Ratio (z) = 0.11237 0.11089
#
# Static dielectric constant tensor:
#      x y z
#    x 1.896090 0.000000 0.030870 
#    y 0.000000 1.819130 0.000000 
#    z 0.030870 0.000000 1.813900 
# 
# From -- ./inp_files/180541.got.cif
#   From: 2010.05.17/outbox.cif.g08.bks.cpg/sg12_91_cif.got.tgz:180541.got - 2010.06.03 13:09:07.
