data_PCOD9194826
_publ_section_title
;
Structure prediction by ZEFSAII (Michael W. Deem and Ramdas Pophale) SiO2 
 PCOD9194826
Probable space group: C 2/M
;
_chemical_formula_sum "Si O2"
_cell_formula_units_Z 64
_cell_length_a 9.036580
_cell_length_b 14.728879
_cell_length_c 29.467025
_cell_angle_alpha 90.000000
_cell_angle_beta 49.860430
_cell_angle_gamma 90.000000
_cell_volume 2998.293542
_symmetry_space_group_name_H-M "C 2/M"
_symmetry_group_IT_number 12
_symmetry_cell_setting 'monoclinic'
loop_
_space_group_symop_operation_xyz
x,y,z
-x,y,-z
-x,-y,-z
x,-y,z
1/2+x,1/2+y,z
1/2-x,1/2+y,-z
1/2-x,1/2-y,-z
1/2+x,1/2-y,z
loop_
_atom_site_type_symbol
_atom_site_label
_atom_site_fract_x
_atom_site_fract_y
_atom_site_fract_z
Si Si1 0.200629 0.152065 0.488690
Si Si2 0.106319 0.900179 0.604303
Si Si3 0.284753 0.603590 0.063249
Si Si4 0.426756 0.717054 0.867777
Si Si5 0.305130 0.104443 0.019658
Si Si6 0.134329 0.228671 0.216472
Si Si7 0.785248 0.783446 0.701584
Si Si8 0.610875 0.893885 0.368069
O O1 0.250000 0.250000 0.500000
O O2 0.187717 0.095523 0.537589
O O3 0.383511 0.121287 0.422689
O O4 0.000000 0.150688 0.500000
O O5 0.268441 0.871255 0.609323
O O6 0.920446 0.835016 0.639594
O O7 0.040557 0.000000 0.631547
O O8 0.284537 0.500000 0.082751
O O9 0.187115 0.685818 0.109662
O O10 0.500000 0.620062 0.000000
O O11 0.169462 0.603102 0.038815
O O12 0.362561 0.662396 0.924756
O O13 0.655526 0.726746 0.824538
O O14 0.377475 0.673992 0.828441
O O15 0.283543 0.000000 0.038899
O O16 0.500000 0.146554 0.000000
O O17 0.134090 0.182672 0.265831
O O18 0.945759 0.293553 0.253892
O O19 0.821726 0.676729 0.683959
O O20 0.644236 0.000000 0.350808
#
# Coordination Sequence:
#
# PCOD9194826 Si02
#       8
#     8   8   8   8   8   8   8   8
#     4  12  25  40  65 104 136 170 199 253 322 389
#     4  11  24  43  69  96 128 167 210 258 321 389
#     4  10  20  34  57  89 122 155 194 242 306 378
#     4  11  20  39  58  85 118 163 196 257 306 364
#     4  10  20  34  57  89 120 153 194 240 301 377
#     4  10  24  39  62  84 118 158 220 258 310 359
#     4  11  22  45  62  88 120 166 210 275 310 364
#     4  11  24  43  69  96 128 167 210 258 321 388
#
# _framework density 21.345475
#
# number of rings (size 3 to 8) (size 9 to 14) (size 15 to 20)
#    0.000    1.250    2.500    3.750    1.750    2.000 
#    0.000    7.500    0.000    0.000    0.000    0.000 
#    0.000    0.000    0.000    0.000    0.000    0.000 
#
# Total GULP energy -178421.678163 kJ/mol
# GULP energy per Si atom -5575.677443 kJ/mol
# Density = 2.129689 g / cm^3
# Si number density = 21.345475 Si / 1000 Ang^3
#
#
#
# Elastic Constant Matrix: (Units=GPa)
#
#
# Indices 1 2 3 4 5 6 
#
# 1 91.4962 0.4400 13.0837 0.0000 -10.2841 0.0001
# 2 0.4400 94.0772 24.7912 0.0000 -7.8556 0.0000
# 3 13.0837 24.7912 84.7124 0.0001 -12.2978 0.0001
# 4 0.0000 0.0000 0.0001 -8.3539 0.0000 3.8380
# 5 -10.2841 -7.8556 -12.2978 0.0000 45.1931 -0.0001
# 6 0.0001 0.0000 0.0001 3.8380 -0.0001 15.2068
#
#
#
# Elastic Compliance Matrix: (Units=1/GPa)
#
#
# Indices 1 2 3 4 5 6 
#
# 1 0.011409 0.000556 -0.001597 0.000000 0.002258 0.000000
# 2 0.000556 0.011601 -0.003300 0.000000 0.001245 0.000000
# 3 -0.001597 -0.003300 0.013411 0.000000 0.002712 0.000000
# 4 0.000000 0.000000 0.000000 -0.107267 0.000000 0.027073
# 5 0.002258 0.001245 0.002712 0.000000 0.023596 0.000000
# 6 0.000000 0.000000 0.000000 0.027073 0.000000 0.058927
#
#
# Mechanical properties :
#
#
# Convention : Reuss Voigt Hill
#
# Bulk Modulus (GPa) = 36.05123 38.54617 37.29870
# Shear Modulus (GPa) = 168.89250 25.87393 97.38321
#
# Velocity S-wave (km/s) = 8.90478 3.48537 6.76176
# Velocity P-wave (km/s) = 11.07488 5.85615 8.85854
#
# Compressibility (1/GPa) = 0.02773831
#
# Stress axis : x y z
#
# Youngs Moduli (GPa) = 87.65057 86.20275 74.56665
#
# Poissons Ratio (x) = -0.04793 0.11908
# Poissons Ratio (y) = -0.04874 0.24608
# Poissons Ratio (z) = 0.13998 0.28448
#
# Static dielectric constant tensor:
#      x y z
#    x 1.827380 0.000000 -0.036950 
#    y 0.000000 1.913860 0.000000 
#    z -0.036950 0.000000 1.620610 
# 
# From -- ./inp_files/372537.got.cif
#   From: 2010.05.17/outbox.cif.g08.bks.cpg/sg12_187_cif.got.tgz:372537.got - 2010.06.03 13:09:07.
