data_PCOD9194309
_publ_section_title
;
Structure prediction by ZEFSAII (Michael W. Deem and Ramdas Pophale) SiO2 
 PCOD9194309
Probable space group: C 2/M
;
_chemical_formula_sum "Si O2"
_cell_formula_units_Z 48
_cell_length_a 16.679589
_cell_length_b 11.609565
_cell_length_c 28.653548
_cell_angle_alpha 90.000000
_cell_angle_beta 155.445637
_cell_angle_gamma 90.000000
_cell_volume 2305.736712
_symmetry_space_group_name_H-M "C 2/M"
_symmetry_group_IT_number 12
_symmetry_cell_setting 'monoclinic'
loop_
_space_group_symop_operation_xyz
x,y,z
-x,y,-z
-x,-y,-z
x,-y,z
1/2+x,1/2+y,z
1/2-x,1/2+y,-z
1/2-x,1/2-y,-z
1/2+x,1/2-y,z
loop_
_atom_site_type_symbol
_atom_site_label
_atom_site_fract_x
_atom_site_fract_y
_atom_site_fract_z
Si Si1 0.856720 0.375846 0.747270
Si Si2 0.408097 0.368621 0.532920
Si Si3 0.700017 0.625433 0.415629
Si Si4 0.338668 0.373598 0.874311
Si Si5 0.596560 0.290603 0.808412
Si Si6 0.408062 0.795223 0.047472
O O1 0.894822 0.500000 0.744764
O O2 0.629602 0.360519 0.633953
O O3 0.959469 0.277743 0.771705
O O4 0.957003 0.377421 0.851204
O O5 0.340865 0.500000 0.482819
O O6 0.385592 0.367293 0.577259
O O7 0.307503 0.248446 0.463910
O O8 0.805969 0.500000 0.469299
O O9 0.531394 0.622289 0.288181
O O10 0.272185 0.500000 0.824883
O O11 0.173184 0.298637 0.810025
O O12 0.449820 0.306995 0.892794
O O13 0.500000 0.384351 0.000000
O O14 0.783406 0.334407 0.936503
O O15 0.250000 0.750000 0.000000
#
# Coordination Sequence:
#
# PCOD9194309 Si02
#       6
#     8   8   8   8   8   8
#     4  10  20  36  56  79 111 150 193 237 282 339
#     4   9  20  39  61  83 110 149 194 238 286 342
#     4  10  21  39  61  85 115 148 190 241 290 343
#     4   9  17  31  51  76 109 146 186 233 281 332
#     4  10  20  34  55  85 115 146 187 233 287 344
#     4   9  19  33  51  80 115 149 185 226 279 338
#
# _framework density 20.817641999999999
#
# number of rings (size 3 to 8) (size 9 to 14) (size 15 to 20)
#    0.000    2.500    0.000    1.500    0.000    6.667 
#    0.000   10.000    0.000    6.000    0.000    0.000 
#    0.000    0.000    0.000    0.000    0.000    0.000 
#
# Total GULP energy -133662.300262 kJ/mol
# GULP energy per Si atom -5569.262511 kJ/mol
# Density = 2.077026 g / cm^3
# Si number density = 20.817642 Si / 1000 Ang^3
#
#
#
# Elastic Constant Matrix: (Units=GPa)
#
#
# Indices 1 2 3 4 5 6 
#
# 1 69.8834 44.8937 20.6941 0.0003 8.0572 0.0000
# 2 44.8937 150.3269 51.5282 0.0000 3.7687 0.0000
# 3 20.6941 51.5282 68.6017 0.0030 -8.8454 0.0000
# 4 0.0003 0.0000 0.0030 20.8336 0.0000 -1.6622
# 5 8.0572 3.7687 -8.8454 0.0000 32.0546 -0.0001
# 6 0.0000 0.0000 0.0000 -1.6622 -0.0001 3.5793
#
#
#
# Elastic Compliance Matrix: (Units=1/GPa)
#
#
# Indices 1 2 3 4 5 6 
#
# 1 0.018590 -0.004425 -0.002923 0.000000 -0.004959 0.000000
# 2 -0.004425 0.010303 -0.006653 0.000001 -0.001935 0.000000
# 3 -0.002923 -0.006653 0.021414 -0.000003 0.007426 -0.000001
# 4 0.000000 0.000001 -0.000003 0.049846 -0.000001 0.023148
# 5 -0.004959 -0.001935 0.007426 -0.000001 0.034720 0.000001
# 6 0.000000 0.000000 -0.000001 0.023148 0.000001 0.290134
#
#
# Mechanical properties :
#
#
# Convention : Reuss Voigt Hill
#
# Bulk Modulus (GPa) = 44.83759 58.11600 51.47679
# Shear Modulus (GPa) = 10.85910 22.73990 16.79950
#
# Velocity S-wave (km/s) = 2.28640 3.30864 2.84383
# Velocity P-wave (km/s) = 5.34370 6.52483 5.96358
#
# Compressibility (1/GPa) = 0.02230272
#
# Stress axis : x y z
#
# Youngs Moduli (GPa) = 53.79295 97.06080 46.69938
#
# Poissons Ratio (x) = 0.42953 0.13651
# Poissons Ratio (y) = 0.23805 0.31070
# Poissons Ratio (z) = 0.15725 0.64577
#
# Static dielectric constant tensor:
#      x y z
#    x 1.721860 0.000000 -0.032590 
#    y 0.000000 1.837330 0.000000 
#    z -0.032590 0.000000 1.773390 
# 
# From -- ./inp_files/361084.got.cif
#   From: 2010.05.17/outbox.cif.g08.bks.cpg/sg12_181_cif.got.tgz:361084.got - 2010.06.03 13:09:07.
