data_PCOD9194011
_publ_section_title
;
Structure prediction by ZEFSAII (Michael W. Deem and Ramdas Pophale) SiO2 
 PCOD9194011
Probable space group: C 2/M
;
_chemical_formula_sum "Si O2"
_cell_formula_units_Z 28
_cell_length_a 13.198138
_cell_length_b 27.528413
_cell_length_c 10.677924
_cell_angle_alpha 90.000000
_cell_angle_beta 159.152389
_cell_angle_gamma 90.000000
_cell_volume 1380.666230
_symmetry_space_group_name_H-M "C 2/M"
_symmetry_group_IT_number 12
_symmetry_cell_setting 'monoclinic'
loop_
_space_group_symop_operation_xyz
x,y,z
-x,y,-z
-x,-y,-z
x,-y,z
1/2+x,1/2+y,z
1/2-x,1/2+y,-z
1/2-x,1/2-y,-z
1/2+x,1/2-y,z
loop_
_atom_site_type_symbol
_atom_site_label
_atom_site_fract_x
_atom_site_fract_y
_atom_site_fract_z
Si Si1 0.726948 0.105077 0.875748
Si Si2 0.952832 0.761716 0.584139
Si Si3 0.317260 0.500000 0.917647
Si Si4 0.283372 0.832632 0.488267
O O1 0.500000 0.104606 0.500000
O O2 0.839250 0.049931 0.020563
O O3 0.555250 0.131930 0.788807
O O4 0.000163 0.136019 0.154253
O O5 0.000000 0.780435 0.500000
O O6 0.758853 0.799133 0.437456
O O7 0.810825 0.708622 0.414071
O O8 0.250000 0.750000 0.000000
O O9 0.000000 0.500000 0.500000
O O10 0.500000 0.500000 0.000000
#
# Coordination Sequence:
#
# PCOD9194011 Si02
#       4
#     8   8   4   8
#     4  11  21  35  58  87 125 161 205 250 316 371
#     4  11  25  41  61  90 126 162 212 256 305 364
#     4  10  20  34  54  88 125 163 199 259 313 374
#     4  11  23  37  58  86 119 167 200 250 309 372
#
# _framework density 20.280062999999998
#
# number of rings (size 3 to 8) (size 9 to 14) (size 15 to 20)
#    0.000    1.143    2.857    5.143    4.000    3.429 
#    0.000    0.000    0.000    0.000    0.000    6.000 
#    0.000    0.000    0.000    0.000    0.000    0.000 
#
# Total GULP energy -78173.172843 kJ/mol
# GULP energy per Si atom -5583.798060 kJ/mol
# Density = 2.023390 g / cm^3
# Si number density = 20.280063 Si / 1000 Ang^3
#
#
#
# Elastic Constant Matrix: (Units=GPa)
#
#
# Indices 1 2 3 4 5 6 
#
# 1 130.0317 55.0924 22.4475 0.0001 31.2197 0.0001
# 2 55.0924 194.2776 35.2822 0.0002 29.7199 0.0001
# 3 22.4475 35.2822 79.5974 0.0012 33.6503 0.0008
# 4 0.0001 0.0002 0.0012 26.8185 0.0001 10.9852
# 5 31.2197 29.7199 33.6503 0.0001 40.7801 0.0002
# 6 0.0001 0.0001 0.0008 10.9852 0.0002 28.4415
#
#
#
# Elastic Compliance Matrix: (Units=1/GPa)
#
#
# Indices 1 2 3 4 5 6 
#
# 1 0.010049 -0.001948 0.001047 0.000000 -0.007137 0.000000
# 2 -0.001948 0.006247 -0.001421 0.000000 -0.001889 0.000000
# 3 0.001047 -0.001421 0.019656 -0.000001 -0.015985 0.000000
# 4 0.000000 0.000000 -0.000001 0.044296 0.000001 -0.017109
# 5 -0.007137 -0.001889 -0.015985 0.000001 0.044552 0.000000
# 6 0.000000 0.000000 0.000000 -0.017109 0.000000 0.041768
#
#
# Mechanical properties :
#
#
# Convention : Reuss Voigt Hill
#
# Bulk Modulus (GPa) = 31.94242 69.95011 50.94626
# Shear Modulus (GPa) = 27.52608 38.61366 33.06987
#
# Velocity S-wave (km/s) = 3.68815 4.36824 4.04252
# Velocity P-wave (km/s) = 5.82421 7.74655 6.85312
#
# Compressibility (1/GPa) = 0.03130633
#
# Stress axis : x y z
#
# Youngs Moduli (GPa) = 99.51707 160.08629 50.87606
#
# Poissons Ratio (x) = 0.31182 -0.05326
# Poissons Ratio (y) = 0.19384 0.07230
# Poissons Ratio (z) = -0.10417 0.22751
#
# Static dielectric constant tensor:
#      x y z
#    x 1.766240 0.000000 0.010580 
#    y 0.000000 1.802620 0.000000 
#    z 0.010580 0.000000 1.755480 
# 
# From -- ./inp_files/150064.got.cif
#   From: 2010.05.17/outbox.cif.g08.bks.cpg/sg12_76_cif.got.tgz:150064.got - 2010.06.03 13:09:07.
