data_PCOD9194566
_publ_section_title
;
Structure prediction by ZEFSAII (Michael W. Deem and Ramdas Pophale) SiO2 
 PCOD9194566
Probable space group: C 2/M
;
_chemical_formula_sum "Si O2"
_cell_formula_units_Z 64
_cell_length_a 14.855525
_cell_length_b 19.139319
_cell_length_c 11.506212
_cell_angle_alpha 90.000000
_cell_angle_beta 95.191687
_cell_angle_gamma 90.000000
_cell_volume 3258.078289
_symmetry_space_group_name_H-M "C 2/M"
_symmetry_group_IT_number 12
_symmetry_cell_setting 'monoclinic'
loop_
_space_group_symop_operation_xyz
x,y,z
-x,y,-z
-x,-y,-z
x,-y,z
1/2+x,1/2+y,z
1/2-x,1/2+y,-z
1/2-x,1/2-y,-z
1/2+x,1/2-y,z
loop_
_atom_site_type_symbol
_atom_site_label
_atom_site_fract_x
_atom_site_fract_y
_atom_site_fract_z
Si Si1 0.590357 0.419201 0.576993
Si Si2 0.292805 0.725986 0.884446
Si Si3 0.860163 0.787952 0.288662
Si Si4 0.014047 0.421502 0.863541
Si Si5 0.722526 0.078541 0.811764
Si Si6 0.041799 0.274563 0.220937
Si Si7 0.276504 0.078083 0.466249
Si Si8 0.399112 0.794823 0.526261
O O1 0.500000 0.394466 0.500000
O O2 0.576052 0.500000 0.610385
O O3 0.617385 0.368683 0.685475
O O4 0.673956 0.417184 0.497759
O O5 0.233441 0.767507 0.781332
O O6 0.278197 0.643358 0.867025
O O7 0.396710 0.745508 0.874878
O O8 0.250000 0.750000 0.000000
O O9 0.864198 0.753180 0.417305
O O10 0.940676 0.754941 0.220793
O O11 0.983932 0.500000 0.826995
O O12 0.120362 0.416287 0.847292
O O13 0.965344 0.358144 0.793158
O O14 0.000000 0.413421 0.000000
O O15 0.718641 0.086137 0.671970
O O16 0.756345 0.000000 0.842100
O O17 0.089163 0.256839 0.349546
O O18 0.334927 0.138855 0.529449
O O19 0.309943 0.000000 0.499337
O O20 0.500000 0.817701 0.500000
#
# Coordination Sequence:
#
# PCOD9194566 Si02
#       8
#     8   8   8   8   8   8   8   8
#     4  10  22  38  59  87 119 160 204 244 301 369
#     4  12  25  40  61  90 119 161 208 254 310 363
#     4  11  23  40  59  86 124 153 202 257 304 362
#     4  10  20  38  62  86 120 161 200 251 304 358
#     4  10  20  38  61  87 119 158 202 248 303 361
#     4  11  23  36  62  91 119 162 200 249 307 365
#     4  10  20  34  56  85 123 158 188 238 295 360
#     4  10  20  35  57  89 119 153 191 237 309 366
#
# _framework density 19.643481000000001
#
# number of rings (size 3 to 8) (size 9 to 14) (size 15 to 20)
#    0.000    1.500    2.500    3.375    3.500    1.750 
#    0.000    1.250    0.000    0.000    0.000    1.750 
#    0.000    0.000    0.000    0.000    0.000    0.000 
#
# Total GULP energy -178800.339896 kJ/mol
# GULP energy per Si atom -5587.510622 kJ/mol
# Density = 1.959877 g / cm^3
# Si number density = 19.643481 Si / 1000 Ang^3
#
#
#
# Elastic Constant Matrix: (Units=GPa)
#
#
# Indices 1 2 3 4 5 6 
#
# 1 43.4308 8.6919 8.0051 0.0000 -13.7321 0.0000
# 2 8.6919 101.3882 4.3198 0.0000 0.0741 0.0000
# 3 8.0051 4.3198 36.1872 0.0000 -17.5746 0.0000
# 4 0.0000 0.0000 0.0000 19.4775 0.0000 -2.2593
# 5 -13.7321 0.0741 -17.5746 0.0000 28.3025 0.0000
# 6 0.0000 0.0000 0.0000 -2.2593 0.0000 26.3846
#
#
#
# Elastic Compliance Matrix: (Units=1/GPa)
#
#
# Indices 1 2 3 4 5 6 
#
# 1 0.027790 -0.002435 0.000994 0.000000 0.014107 0.000000
# 2 -0.002435 0.010150 -0.001804 0.000000 -0.002328 0.000000
# 3 0.000994 -0.001804 0.039898 0.000000 0.025262 0.000000
# 4 0.000000 0.000000 0.000000 0.051856 0.000000 0.004440
# 5 0.014107 -0.002328 0.025262 0.000000 0.057870 0.000000
# 6 0.000000 0.000000 0.000000 0.004440 0.000000 0.038281
#
#
# Mechanical properties :
#
#
# Convention : Reuss Voigt Hill
#
# Bulk Modulus (GPa) = 14.01545 24.78221 19.39883
# Shear Modulus (GPa) = 19.52229 25.49889 22.51059
#
# Velocity S-wave (km/s) = 3.15593 3.60680 3.38887
# Velocity P-wave (km/s) = 4.51998 5.47620 5.02091
#
# Compressibility (1/GPa) = 0.07134983
#
# Stress axis : x y z
#
# Youngs Moduli (GPa) = 35.98463 98.51845 25.06373
#
# Poissons Ratio (x) = 0.23990 -0.02493
# Poissons Ratio (y) = 0.08762 0.04521
# Poissons Ratio (z) = -0.03579 0.17769
#
# Static dielectric constant tensor:
#      x y z
#    x 1.676910 0.000000 -0.009240 
#    y 0.000000 1.715930 0.000000 
#    z -0.009240 0.000000 1.688100 
# 
# From -- ./inp_files/146169.got.cif
#   From: 2010.05.17/outbox.cif.g08.bks.cpg/sg12_74_cif.got.tgz:146169.got - 2010.06.03 13:09:07.
