data_PCOD9194908
_publ_section_title
;
Structure prediction by ZEFSAII (Michael W. Deem and Ramdas Pophale) SiO2 
 PCOD9194908
Probable space group: C 2/M
;
_chemical_formula_sum "Si O2"
_cell_formula_units_Z 64
_cell_length_a 21.285465
_cell_length_b 19.000778
_cell_length_c 10.579791
_cell_angle_alpha 90.000000
_cell_angle_beta 51.590268
_cell_angle_gamma 90.000000
_cell_volume 3352.890406
_symmetry_space_group_name_H-M "C 2/M"
_symmetry_group_IT_number 12
_symmetry_cell_setting 'monoclinic'
loop_
_space_group_symop_operation_xyz
x,y,z
-x,y,-z
-x,-y,-z
x,-y,z
1/2+x,1/2+y,z
1/2-x,1/2+y,-z
1/2-x,1/2-y,-z
1/2+x,1/2-y,z
loop_
_atom_site_type_symbol
_atom_site_label
_atom_site_fract_x
_atom_site_fract_y
_atom_site_fract_z
Si Si1 0.728613 0.580107 0.053763
Si Si2 0.720074 0.722725 0.199959
Si Si3 0.062094 0.292689 0.327874
Si Si4 0.174663 0.791891 0.540744
Si Si5 0.646916 0.078569 0.337205
Si Si6 0.006414 0.265074 0.849151
Si Si7 0.137545 0.840146 0.976214
Si Si8 0.710992 0.417424 0.655114
O O1 0.722048 0.500000 0.111740
O O2 0.748944 0.645216 0.120968
O O3 0.792645 0.577648 0.858754
O O4 0.649522 0.608708 0.081008
O O5 0.646823 0.752088 0.205956
O O6 0.678141 0.717507 0.387647
O O7 0.791102 0.780565 0.116374
O O8 0.085213 0.361796 0.378388
O O9 0.000000 0.253514 0.500000
O O10 0.024813 0.307083 0.236199
O O11 0.250000 0.750000 0.500000
O O12 0.095384 0.760922 0.704799
O O13 0.191296 0.872272 0.557623
O O14 0.700840 0.095683 0.392871
O O15 0.613717 0.000000 0.393661
O O16 0.000000 0.296373 0.000000
O O17 0.946409 0.198710 0.925091
O O18 0.151657 0.888104 0.836323
O O19 0.703302 0.500000 0.647120
#
# Coordination Sequence:
#
# PCOD9194908 Si02
#       8
#     8   8   8   8   8   8   8   8
#     4  10  20  34  58  88 119 152 195 247 302 360
#     4  12  21  37  63  87 118 165 205 246 311 369
#     4  12  22  36  62  91 125 156 202 259 309 361
#     4  12  23  40  59  84 123 161 200 247 310 360
#     4   9  19  37  62  91 118 154 205 253 307 371
#     4  12  24  37  59  92 120 153 211 254 300 363
#     4  11  19  38  64  86 115 153 203 257 295 355
#     4  10  20  37  62  88 119 156 202 252 306 361
#
# _framework density 19.088007999999999
#
# number of rings (size 3 to 8) (size 9 to 14) (size 15 to 20)
#    0.000    1.000    7.500    2.250    0.000    0.750 
#    0.000    1.875    0.000    1.500    0.000    0.000 
#    0.000    0.000    0.000    0.000    0.000    0.000 
#
# Total GULP energy -178458.459840 kJ/mol
# GULP energy per Si atom -5576.826870 kJ/mol
# Density = 1.904456 g / cm^3
# Si number density = 19.088008 Si / 1000 Ang^3
#
#
#
# Elastic Constant Matrix: (Units=GPa)
#
#
# Indices 1 2 3 4 5 6 
#
# 1 72.6305 20.0202 33.1763 0.0000 -4.3687 0.0000
# 2 20.0202 100.9665 15.0580 0.0000 -5.5458 0.0000
# 3 33.1763 15.0580 80.9355 0.0000 0.8244 0.0000
# 4 0.0000 0.0000 0.0000 21.0039 0.0000 6.7277
# 5 -4.3687 -5.5458 0.8244 0.0000 41.4020 0.0000
# 6 0.0000 0.0000 0.0000 6.7277 0.0000 27.5590
#
#
#
# Elastic Compliance Matrix: (Units=1/GPa)
#
#
# Indices 1 2 3 4 5 6 
#
# 1 0.017635 -0.002390 -0.006801 0.000000 0.001676 0.000000
# 2 -0.002390 0.010593 -0.001003 0.000000 0.001187 0.000000
# 3 -0.006801 -0.001003 0.015342 0.000000 -0.001157 0.000000
# 4 0.000000 0.000000 0.000000 0.051649 0.000000 -0.012608
# 5 0.001676 0.001187 -0.001157 0.000000 0.024512 0.000000
# 6 0.000000 0.000000 0.000000 -0.012608 0.000000 0.039364
#
#
# Mechanical properties :
#
#
# Convention : Reuss Voigt Hill
#
# Bulk Modulus (GPa) = 43.13960 43.44906 43.29433
# Shear Modulus (GPa) = 26.70801 30.41152 28.55976
#
# Velocity S-wave (km/s) = 3.74465 3.99585 3.87229
# Velocity P-wave (km/s) = 6.43008 6.64086 6.53632
#
# Compressibility (1/GPa) = 0.02318056
#
# Stress axis : x y z
#
# Youngs Moduli (GPa) = 56.70684 94.40179 65.18176
#
# Poissons Ratio (x) = 0.22565 0.44330
# Poissons Ratio (y) = 0.13555 0.06538
# Poissons Ratio (z) = 0.38566 0.09469
#
# Static dielectric constant tensor:
#      x y z
#    x 1.714650 0.000000 0.015100 
#    y 0.000000 1.675730 0.000000 
#    z 0.015100 0.000000 1.703670 
# 
# From -- ./inp_files/168745.got.cif
#   From: 2010.05.17/outbox.cif.g08.bks.cpg/sg12_85_cif.got.tgz:168745.got - 2010.06.03 13:09:07.
