data_PCOD9194794
_publ_section_title
;
Structure prediction by ZEFSAII (Michael W. Deem and Ramdas Pophale) SiO2 
 PCOD9194794
Probable space group: C 2/M
;
_chemical_formula_sum "Si O2"
_cell_formula_units_Z 64
_cell_length_a 18.951441
_cell_length_b 26.362484
_cell_length_c 13.525140
_cell_angle_alpha 90.000000
_cell_angle_beta 153.240836
_cell_angle_gamma 90.000000
_cell_volume 3042.395201
_symmetry_space_group_name_H-M "C 2/M"
_symmetry_group_IT_number 12
_symmetry_cell_setting 'monoclinic'
loop_
_space_group_symop_operation_xyz
x,y,z
-x,y,-z
-x,-y,-z
x,-y,z
1/2+x,1/2+y,z
1/2-x,1/2+y,-z
1/2-x,1/2-y,-z
1/2+x,1/2-y,z
loop_
_atom_site_type_symbol
_atom_site_label
_atom_site_fract_x
_atom_site_fract_y
_atom_site_fract_z
Si Si1 0.109570 0.275562 0.384885
Si Si2 0.280596 0.555288 0.901713
Si Si3 0.307062 0.890108 0.027680
Si Si4 0.105728 0.664229 0.037644
Si Si5 0.889086 0.814308 0.102904
Si Si6 0.561060 0.392308 0.180599
Si Si7 0.173796 0.738367 0.672826
Si Si8 0.871227 0.562802 0.488033
O O1 0.250000 0.250000 0.500000
O O2 0.172420 0.293421 0.568697
O O3 0.013946 0.312807 0.194625
O O4 0.990155 0.231633 0.269218
O O5 0.214813 0.500000 0.829460
O O6 0.301557 0.574758 0.039387
O O7 0.170886 0.578881 0.678304
O O8 0.448664 0.559773 0.061121
O O9 0.318451 0.883744 0.924585
O O10 0.231267 0.836880 0.968207
O O11 0.470988 0.910205 0.277411
O O12 0.233961 0.707711 0.224361
O O13 0.000000 0.652160 0.000000
O O14 0.779215 0.793197 0.879805
O O15 0.012837 0.853013 0.206300
O O16 0.734023 0.413378 0.383883
O O17 0.500000 0.370062 0.000000
O O18 0.000000 0.744317 0.500000
O O19 0.873796 0.500000 0.497183
#
# Coordination Sequence:
#
# PCOD9194794 Si02
#       8
#     8   8   8   8   8   8   8   8
#     4  11  23  38  63  81 110 163 198 236 292 341
#     4   9  18  35  55  81 118 154 189 234 296 361
#     4  11  22  36  55  82 115 146 186 243 287 343
#     4  11  24  41  57  85 115 150 205 245 290 349
#     4  10  24  38  55  90 119 150 201 238 286 351
#     4   9  19  30  52  81 118 150 186 234 280 341
#     4  11  23  40  61  82 117 158 194 246 291 341
#     4  10  20  34  57  88 118 153 191 230 295 364
#
# _framework density 21.036057
#
# number of rings (size 3 to 8) (size 9 to 14) (size 15 to 20)
#    0.000    1.750    1.250    2.625    3.500   10.500 
#    0.000    0.000    0.000    1.500    0.000    0.000 
#    0.000   10.000    0.000    0.000    0.000    0.000 
#
# Total GULP energy -178314.799057 kJ/mol
# GULP energy per Si atom -5572.337471 kJ/mol
# Density = 2.098818 g / cm^3
# Si number density = 21.036057 Si / 1000 Ang^3
#
#
#
# Elastic Constant Matrix: (Units=GPa)
#
#
# Indices 1 2 3 4 5 6 
#
# 1 140.0533 20.5554 13.9000 0.0000 -0.9364 0.0000
# 2 20.5554 44.9120 6.2351 0.0000 0.4725 0.0000
# 3 13.9000 6.2351 43.0211 0.0000 7.0543 0.0000
# 4 0.0000 0.0000 0.0000 18.3114 0.0000 -0.5455
# 5 -0.9364 0.4725 7.0543 0.0000 37.4415 0.0000
# 6 0.0000 0.0000 0.0000 -0.5455 0.0000 15.0795
#
#
#
# Elastic Compliance Matrix: (Units=1/GPa)
#
#
# Indices 1 2 3 4 5 6 
#
# 1 0.007843 -0.003296 -0.002162 0.000000 0.000645 0.000000
# 2 -0.003296 0.024113 -0.002442 0.000000 0.000073 0.000000
# 3 -0.002162 -0.002442 0.025075 0.000000 -0.004748 0.000000
# 4 0.000000 0.000000 0.000000 0.054670 0.000000 0.001978
# 5 0.000645 0.000073 -0.004748 0.000000 0.027618 0.000000
# 6 0.000000 0.000000 0.000000 0.001978 0.000000 0.066387
#
#
# Mechanical properties :
#
#
# Convention : Reuss Voigt Hill
#
# Bulk Modulus (GPa) = 24.25364 34.37414 29.31389
# Shear Modulus (GPa) = 21.25412 26.65288 23.95350
#
# Velocity S-wave (km/s) = 3.18207 3.56337 3.37811
# Velocity P-wave (km/s) = 5.00553 5.77115 5.40192
#
# Compressibility (1/GPa) = 0.04123093
#
# Stress axis : x y z
#
# Youngs Moduli (GPa) = 127.50548 41.47219 39.87978
#
# Poissons Ratio (x) = 0.13670 0.08622
# Poissons Ratio (y) = 0.42027 0.09737
# Poissons Ratio (z) = 0.27568 0.10126
#
# Static dielectric constant tensor:
#      x y z
#    x 1.779350 0.000000 0.026300 
#    y 0.000000 1.876600 0.000000 
#    z 0.026300 0.000000 1.802850 
# 
# From -- ./inp_files/161258.got.cif
#   From: 2010.05.17/outbox.cif.g08.bks.cpg/sg12_81_cif.got.tgz:161258.got - 2010.06.03 13:09:07.
