data_PCOD9194756
_publ_section_title
;
Structure prediction by ZEFSAII (Michael W. Deem and Ramdas Pophale) SiO2 
 PCOD9194756
Probable space group: C 2/M
;
_chemical_formula_sum "Si O2"
_cell_formula_units_Z 48
_cell_length_a 21.066800
_cell_length_b 8.478342
_cell_length_c 15.573163
_cell_angle_alpha 90.000000
_cell_angle_beta 111.739278
_cell_angle_gamma 90.000000
_cell_volume 2583.719848
_symmetry_space_group_name_H-M "C 2/M"
_symmetry_group_IT_number 12
_symmetry_cell_setting 'monoclinic'
loop_
_space_group_symop_operation_xyz
x,y,z
-x,y,-z
-x,-y,-z
x,-y,z
1/2+x,1/2+y,z
1/2-x,1/2+y,-z
1/2-x,1/2-y,-z
1/2+x,1/2-y,z
loop_
_atom_site_type_symbol
_atom_site_label
_atom_site_fract_x
_atom_site_fract_y
_atom_site_fract_z
Si Si1 0.421567 0.188900 0.461457
Si Si2 0.823099 0.809126 0.757974
Si Si3 0.175828 0.809344 0.933842
Si Si4 0.674916 0.689127 0.436766
Si Si5 0.078236 0.192617 0.038831
Si Si6 0.326326 0.689146 0.262948
O O1 0.500000 0.244479 0.500000
O O2 0.380279 0.249311 0.523430
O O3 0.381179 0.244847 0.357012
O O4 0.421104 0.000000 0.463023
O O5 0.839640 0.761815 0.668705
O O6 0.879132 0.758162 0.855815
O O7 0.748992 0.744635 0.746729
O O8 0.819506 0.000000 0.758528
O O9 0.161462 0.758554 0.829113
O O10 0.177134 0.000000 0.935466
O O11 0.250000 0.750000 0.000000
O O12 0.119614 0.756979 0.974869
O O13 0.675840 0.500000 0.440706
O O14 0.750000 0.750000 0.500000
O O15 0.077457 0.000000 0.038450
O O16 0.000000 0.246247 0.000000
O O17 0.328550 0.500000 0.267058
#
# Coordination Sequence:
#
# PCOD9194756 Si02
#       6
#     8   8   8   8   8   8
#     4  11  25  43  61  84 118 159 200 246 303 358
#     4  10  20  35  59  86 114 153 193 236 289 349
#     4  10  20  34  57  87 115 150 193 238 287 344
#     4  11  22  36  60  91 119 153 198 245 292 351
#     4   9  18  34  56  83 115 150 189 233 283 341
#     4  11  22  35  58  89 117 151 195 246 296 350
#
# _framework density 18.577867000000001
#
# number of rings (size 3 to 8) (size 9 to 14) (size 15 to 20)
#    0.000    1.667    3.333    1.500    0.000    4.000 
#    0.000    3.333    0.000    2.000    0.000    0.000 
#    0.000    0.000    0.000    0.000    0.000    0.000 
#
# Total GULP energy -134068.806476 kJ/mol
# GULP energy per Si atom -5586.200270 kJ/mol
# Density = 1.853558 g / cm^3
# Si number density = 18.577867 Si / 1000 Ang^3
#
#
#
# Elastic Constant Matrix: (Units=GPa)
#
#
# Indices 1 2 3 4 5 6 
#
# 1 201.4237 27.3595 131.4670 0.0000 -0.6215 0.0000
# 2 27.3595 19.4396 35.9513 0.0000 -2.9389 0.0000
# 3 131.4670 35.9513 218.3876 0.0000 -11.6850 0.0000
# 4 0.0000 0.0000 0.0000 18.8051 0.0000 -4.7077
# 5 -0.6215 -2.9389 -11.6850 0.0000 38.5248 0.0000
# 6 0.0000 0.0000 0.0000 -4.7077 0.0000 16.0297
#
#
#
# Elastic Compliance Matrix: (Units=1/GPa)
#
#
# Indices 1 2 3 4 5 6 
#
# 1 0.008430 -0.003679 -0.004551 0.000000 -0.001525 0.000000
# 2 -0.003679 0.075712 -0.010107 0.000000 0.002651 0.000000
# 3 -0.004551 -0.010107 0.009085 0.000000 0.001911 0.000000
# 4 0.000000 0.000000 0.000000 0.057397 0.000000 0.016857
# 5 -0.001525 0.002651 0.001911 0.000000 0.026715 0.000000
# 6 0.000000 0.000000 0.000000 0.016857 0.000000 0.067335
#
#
# Mechanical properties :
#
#
# Convention : Reuss Voigt Hill
#
# Bulk Modulus (GPa) = 17.68260 92.08961 54.88611
# Shear Modulus (GPa) = 16.65568 30.97011 23.81289
#
# Velocity S-wave (km/s) = 2.99747 4.08737 3.58409
# Velocity P-wave (km/s) = 4.63880 8.48249 6.83634
#
# Compressibility (1/GPa) = 0.05655276
#
# Stress axis : x y z
#
# Youngs Moduli (GPa) = 118.62677 13.20793 110.07678
#
# Poissons Ratio (x) = 0.04859 0.50092
# Poissons Ratio (y) = 0.43642 1.11258
# Poissons Ratio (z) = 0.53982 0.13350
#
# Static dielectric constant tensor:
#      x y z
#    x 1.608760 0.000000 -0.017770 
#    y 0.000000 1.638950 0.000000 
#    z -0.017770 0.000000 1.639850 
# 
# From -- ./inp_files/229892.got.cif
#   From: 2010.05.17/outbox.cif.g08.bks.cpg/sg12_115_cif.got.tgz:229892.got - 2010.06.03 13:09:07.
