data_PCOD9194864
_publ_section_title
;
Structure prediction by ZEFSAII (Michael W. Deem and Ramdas Pophale) SiO2 
 PCOD9194864
Probable space group: C 2/M
;
_chemical_formula_sum "Si O2"
_cell_formula_units_Z 40
_cell_length_a 12.183880
_cell_length_b 13.573809
_cell_length_c 17.572442
_cell_angle_alpha 90.000000
_cell_angle_beta 137.434927
_cell_angle_gamma 90.000000
_cell_volume 1965.805204
_symmetry_space_group_name_H-M "C 2/M"
_symmetry_group_IT_number 12
_symmetry_cell_setting 'monoclinic'
loop_
_space_group_symop_operation_xyz
x,y,z
-x,y,-z
-x,-y,-z
x,-y,z
1/2+x,1/2+y,z
1/2-x,1/2+y,-z
1/2-x,1/2-y,-z
1/2+x,1/2-y,z
loop_
_atom_site_type_symbol
_atom_site_label
_atom_site_fract_x
_atom_site_fract_y
_atom_site_fract_z
Si Si1 0.155363 0.886411 0.735552
Si Si2 0.730151 0.616271 0.450170
Si Si3 0.731907 0.306051 0.285850
Si Si4 0.517541 0.113602 0.705265
Si Si5 0.376236 0.716641 0.127543
O O1 0.236966 0.806855 0.722490
O O2 0.193074 0.855207 0.842168
O O3 0.960204 0.873184 0.628879
O O4 0.196053 0.000000 0.741299
O O5 0.758208 0.500000 0.450039
O O6 0.771199 0.671964 0.393421
O O7 0.848303 0.643660 0.579186
O O8 0.846098 0.370412 0.289882
O O9 0.541252 0.329359 0.178088
O O10 0.564297 0.186901 0.796187
O O11 0.509244 0.000000 0.724296
O O12 0.250000 0.750000 0.000000
#
# Coordination Sequence:
#
# PCOD9194864 Si02
#       5
#     8   8   8   8   8
#     4   9  20  37  57  82 112 145 179 217 266 325
#     4   9  18  35  57  83 114 141 169 216 275 326
#     4  10  20  34  58  82 107 142 181 221 268 321
#     4  10  21  36  57  85 111 138 178 223 268 321
#     4  10  23  40  55  76 109 146 184 227 271 312
#
# _framework density 20.347895000000001
#
# number of rings (size 3 to 8) (size 9 to 14) (size 15 to 20)
#    0.000    2.400    0.000    1.200    0.000   16.000 
#    0.000    2.000    0.000   13.200    0.000    0.000 
#    0.000    0.000    0.000    0.000    0.000    0.000 
#
# Total GULP energy -111785.155642 kJ/mol
# GULP energy per Si atom -5589.257782 kJ/mol
# Density = 2.030158 g / cm^3
# Si number density = 20.347895 Si / 1000 Ang^3
#
#
#
# Elastic Constant Matrix: (Units=GPa)
#
#
# Indices 1 2 3 4 5 6 
#
# 1 56.8470 2.0763 16.1053 0.0000 -9.2666 0.0000
# 2 2.0763 75.6421 23.6199 0.0000 -11.6324 0.0000
# 3 16.1053 23.6199 134.1410 0.0000 -0.9395 0.0000
# 4 0.0000 0.0000 0.0000 19.3380 0.0000 3.6099
# 5 -9.2666 -11.6324 -0.9395 0.0000 10.0584 0.0000
# 6 0.0000 0.0000 0.0000 3.6099 0.0000 15.6781
#
#
#
# Elastic Compliance Matrix: (Units=1/GPa)
#
#
# Indices 1 2 3 4 5 6 
#
# 1 0.022508 0.004317 -0.003285 0.000000 0.025422 0.000000
# 2 0.004317 0.017951 -0.003508 0.000000 0.024410 0.000000
# 3 -0.003285 -0.003508 0.008423 0.000000 -0.006296 0.000000
# 4 0.000000 0.000000 0.000000 0.054034 0.000000 -0.012442
# 5 0.025422 0.024410 -0.006296 0.000000 0.150482 0.000000
# 6 0.000000 0.000000 0.000000 -0.012442 0.000000 0.066648
#
#
# Mechanical properties :
#
#
# Convention : Reuss Voigt Hill
#
# Bulk Modulus (GPa) = 22.76306 38.91478 30.83892
# Shear Modulus (GPa) = 14.72146 24.00349 19.36247
#
# Velocity S-wave (km/s) = 2.69269 3.43834 3.08810
# Velocity P-wave (km/s) = 4.56932 5.91009 5.28241
#
# Compressibility (1/GPa) = 0.04393082
#
# Stress axis : x y z
#
# Youngs Moduli (GPa) = 44.42867 55.70750 118.72497
#
# Poissons Ratio (x) = -0.24051 0.38995
# Poissons Ratio (y) = -0.19181 0.41651
# Poissons Ratio (z) = 0.14593 0.19543
#
# Static dielectric constant tensor:
#      x y z
#    x 1.732620 0.000000 0.010190 
#    y 0.000000 1.755770 0.000000 
#    z 0.010190 0.000000 1.689670 
# 
# From -- ./inp_files/129214.got.cif
#   From: 2010.05.17/outbox.cif.g08.bks.cpg/sg12_65_cif.got.tgz:129214.got - 2010.06.03 13:09:07.
