data_PCOD9194816
_publ_section_title
;
Structure prediction by ZEFSAII (Michael W. Deem and Ramdas Pophale) SiO2 
 PCOD9194816
Probable space group: C 2/M
;
_chemical_formula_sum "Si O2"
_cell_formula_units_Z 64
_cell_length_a 9.180525
_cell_length_b 13.647458
_cell_length_c 30.902930
_cell_angle_alpha 90.000000
_cell_angle_beta 48.882318
_cell_angle_gamma 90.000000
_cell_volume 2916.901601
_symmetry_space_group_name_H-M "C 2/M"
_symmetry_group_IT_number 12
_symmetry_cell_setting 'monoclinic'
loop_
_space_group_symop_operation_xyz
x,y,z
-x,y,-z
-x,-y,-z
x,-y,z
1/2+x,1/2+y,z
1/2-x,1/2+y,-z
1/2-x,1/2-y,-z
1/2+x,1/2-y,z
loop_
_atom_site_type_symbol
_atom_site_label
_atom_site_fract_x
_atom_site_fract_y
_atom_site_fract_z
Si Si1 0.196270 0.119358 0.484752
Si Si2 0.138339 0.882867 0.593036
Si Si3 0.278078 0.615201 0.058643
Si Si4 0.416650 0.710120 0.861746
Si Si5 0.292135 0.108598 0.019591
Si Si6 0.144864 0.234091 0.219151
Si Si7 0.773273 0.797528 0.703304
Si Si8 0.619507 0.882787 0.369161
O O1 0.209245 0.152038 0.532253
O O2 0.393373 0.139605 0.420740
O O3 0.000000 0.154024 0.500000
O O4 0.184723 0.000000 0.488518
O O5 0.264871 0.850954 0.609826
O O6 0.913924 0.854456 0.643412
O O7 0.155275 0.000000 0.589665
O O8 0.249293 0.500000 0.073693
O O9 0.192582 0.684500 0.112178
O O10 0.500000 0.631853 0.000000
O O11 0.174082 0.650275 0.034701
O O12 0.341616 0.652869 0.917860
O O13 0.645813 0.716714 0.820559
O O14 0.366712 0.673420 0.823313
O O15 0.214337 0.000000 0.025588
O O16 0.500000 0.104596 0.000000
O O17 0.148913 0.177549 0.264022
O O18 0.958129 0.305772 0.254820
O O19 0.808494 0.682962 0.684677
O O20 0.643928 0.000000 0.358444
#
# Coordination Sequence:
#
# PCOD9194816 Si02
#       8
#     8   8   8   8   8   8   8   8
#     4   9  19  34  57  96 128 146 186 244 297 365
#     4  10  21  39  64  87 117 158 195 237 303 368
#     4  10  20  34  57  89 119 146 184 232 288 356
#     4  11  20  39  58  79 114 159 188 237 292 348
#     4  10  20  34  57  89 117 144 184 230 285 355
#     4  10  24  39  58  80 114 152 208 248 290 331
#     4  11  22  43  58  84 116 154 200 267 288 340
#     4  10  21  39  64  87 117 158 195 237 303 367
#
# _framework density 21.941089000000002
#
# number of rings (size 3 to 8) (size 9 to 14) (size 15 to 20)
#    0.000    1.875    1.250    2.625    1.750    2.000 
#    0.000    7.500    0.000    0.000    0.000    0.000 
#    0.000    0.000    0.000    0.000    0.000    0.000 
#
# Total GULP energy -178576.270850 kJ/mol
# GULP energy per Si atom -5580.508464 kJ/mol
# Density = 2.189115 g / cm^3
# Si number density = 21.941089 Si / 1000 Ang^3
#
#
#
# Elastic Constant Matrix: (Units=GPa)
#
#
# Indices 1 2 3 4 5 6 
#
# 1 97.1765 -0.4489 24.1177 0.0000 -8.0683 0.0000
# 2 -0.4489 42.0660 17.1566 0.0000 6.6213 0.0000
# 3 24.1177 17.1566 110.4537 0.0000 -6.3026 -0.0001
# 4 0.0000 0.0000 0.0000 12.9999 -0.0001 -6.7817
# 5 -8.0683 6.6213 -6.3026 -0.0001 41.0444 0.0000
# 6 0.0000 0.0000 -0.0001 -6.7817 0.0000 13.4260
#
#
#
# Elastic Compliance Matrix: (Units=1/GPa)
#
#
# Indices 1 2 3 4 5 6 
#
# 1 0.011040 0.000856 -0.002449 0.000000 0.001656 0.000000
# 2 0.000856 0.026395 -0.004560 0.000000 -0.004790 0.000000
# 3 -0.002449 -0.004560 0.010402 0.000000 0.001852 0.000000
# 4 0.000000 0.000000 0.000000 0.104445 0.000000 0.052757
# 5 0.001656 -0.004790 0.001852 0.000000 0.025746 0.000000
# 6 0.000000 0.000000 0.000000 0.052757 0.000000 0.101131
#
#
# Mechanical properties :
#
#
# Convention : Reuss Voigt Hill
#
# Bulk Modulus (GPa) = 28.14454 36.81632 32.48043
# Shear Modulus (GPa) = 16.48481 27.41878 21.95180
#
# Velocity S-wave (km/s) = 2.74400 3.53888 3.16648
# Velocity P-wave (km/s) = 4.78482 5.78915 5.31078
#
# Compressibility (1/GPa) = 0.03553087
#
# Stress axis : x y z
#
# Youngs Moduli (GPa) = 90.58127 37.88577 96.13278
#
# Poissons Ratio (x) = -0.03243 0.23543
# Poissons Ratio (y) = -0.07753 0.43838
# Poissons Ratio (z) = 0.22183 0.17276
#
# Static dielectric constant tensor:
#      x y z
#    x 1.738180 0.000000 -0.083300 
#    y 0.000000 1.845560 0.000000 
#    z -0.083300 0.000000 1.695040 
# 
# From -- ./inp_files/372536.got.cif
#   From: 2010.05.17/outbox.cif.g08.bks.cpg/sg12_187_cif.got.tgz:372536.got - 2010.06.03 13:09:07.
