data_PCOD9194889
_publ_section_title
;
Structure prediction by ZEFSAII (Michael W. Deem and Ramdas Pophale) SiO2 
 PCOD9194889
Probable space group: C 2/M
;
_chemical_formula_sum "Si O2"
_cell_formula_units_Z 58
_cell_length_a 14.771711
_cell_length_b 18.757224
_cell_length_c 12.565192
_cell_angle_alpha 90.000000
_cell_angle_beta 73.992924
_cell_angle_gamma 90.000000
_cell_volume 3346.530212
_symmetry_space_group_name_H-M "C 2/M"
_symmetry_group_IT_number 12
_symmetry_cell_setting 'monoclinic'
loop_
_space_group_symop_operation_xyz
x,y,z
-x,y,-z
-x,-y,-z
x,-y,z
1/2+x,1/2+y,z
1/2-x,1/2+y,-z
1/2-x,1/2-y,-z
1/2+x,1/2-y,z
loop_
_atom_site_type_symbol
_atom_site_label
_atom_site_fract_x
_atom_site_fract_y
_atom_site_fract_z
Si Si1 0.000000 0.000000 0.000000
Si Si2 0.283282 0.915603 0.106972
Si Si3 0.392659 0.150638 0.258688
Si Si4 0.741449 0.083050 0.274019
Si Si5 0.908019 0.415458 0.864188
Si Si6 0.602404 0.916289 0.517147
Si Si7 0.099454 0.192157 0.827959
Si Si8 0.898343 0.859383 0.942116
O O1 0.071409 0.936406 0.020171
O O2 0.321025 0.894253 0.209611
O O3 0.192601 0.871008 0.100024
O O4 0.262794 0.000000 0.108262
O O5 0.365738 0.901213 0.994040
O O6 0.498356 0.127298 0.192248
O O7 0.380069 0.131774 0.386076
O O8 0.380616 0.232742 0.231931
O O9 0.673422 0.099426 0.196032
O O10 0.679928 0.092225 0.400171
O O11 0.832533 0.132055 0.241427
O O12 0.769306 0.000000 0.255606
O O13 0.929900 0.500000 0.849044
O O14 0.500000 0.901085 0.500000
O O15 0.601047 0.000000 0.550228
O O16 0.989893 0.170713 0.852238
O O17 0.118335 0.190556 0.949393
#
# Coordination Sequence:
#
# PCOD9194889 Si02
#       8
#     2   8   8   8   8   8   8   8
#     4   8  16  32  60  76 106 146 202 252 248 316
#     4  11  22  35  58  87 117 156 192 242 294 340
#     4  12  24  37  54  85 129 155 179 233 300 371
#     4  10  20  37  65  89 107 144 205 255 277 324
#     4  10  20  34  58  86 114 149 192 239 293 345
#     4  10  20  39  65  87 109 150 200 243 284 337
#     4  10  24  36  56  86 117 160 188 237 292 340
#     4  10  21  36  58  84 117 154 202 233 281 341
#
# _framework density 17.331385000000001
#
# number of rings (size 3 to 8) (size 9 to 14) (size 15 to 20)
#    0.000    1.793    3.448    1.655    7.724    3.310 
#    0.000    0.000    0.000    0.000    0.000    2.897 
#    0.000    0.000    0.000    0.000    0.000    0.000 
#
# Total GULP energy -161714.075711 kJ/mol
# GULP energy per Si atom -5576.347438 kJ/mol
# Density = 1.729194 g / cm^3
# Si number density = 17.331385 Si / 1000 Ang^3
#
#
#
# Elastic Constant Matrix: (Units=GPa)
#
#
# Indices 1 2 3 4 5 6 
#
# 1 59.8519 21.4302 25.5667 0.0000 -6.4141 0.0000
# 2 21.4302 48.8596 33.4633 0.0000 2.5170 0.0000
# 3 25.5667 33.4633 77.2733 0.0000 9.2283 0.0000
# 4 0.0000 0.0000 0.0000 -13.8396 0.0000 24.9937
# 5 -6.4141 2.5170 9.2283 0.0000 23.0373 0.0000
# 6 0.0000 0.0000 0.0000 24.9937 0.0000 -4.0382
#
#
#
# Elastic Compliance Matrix: (Units=1/GPa)
#
#
# Indices 1 2 3 4 5 6 
#
# 1 0.022447 -0.006367 -0.005775 0.000000 0.009259 0.000000
# 2 -0.006367 0.030987 -0.011234 0.000000 -0.000658 0.000000
# 3 -0.005775 -0.011234 0.020755 0.000000 -0.008695 0.000000
# 4 0.000000 0.000000 0.000000 0.007099 0.000000 0.043941
# 5 0.009259 -0.000658 -0.008695 0.000000 0.049541 0.000000
# 6 0.000000 0.000000 0.000000 0.043941 0.000000 0.024331
#
#
# Mechanical properties :
#
#
# Convention : Reuss Voigt Hill
#
# Bulk Modulus (GPa) = 36.44717 38.54502 37.49610
# Shear Modulus (GPa) = 23.69012 8.06687 15.87849
#
# Velocity S-wave (km/s) = 3.70116 2.15977 3.03011
# Velocity P-wave (km/s) = 6.27216 5.33926 5.82442
#
# Compressibility (1/GPa) = 0.02743697
#
# Stress axis : x y z
#
# Youngs Moduli (GPa) = 44.54970 32.27134 48.18079
#
# Poissons Ratio (x) = 0.20547 0.27826
# Poissons Ratio (y) = 0.28364 0.54126
# Poissons Ratio (z) = 0.25729 0.36253
#
# Static dielectric constant tensor:
#      x y z
#    x 1.584920 0.000000 -0.003260 
#    y 0.000000 1.587140 0.000000 
#    z -0.003260 0.000000 1.581950 
# 
# From -- ./inp_files/145565.got.cif
#   From: 2010.05.17/outbox.cif.g08.bks.cpg/sg12_73_cif.got.tgz:145565.got - 2010.06.03 13:09:07.
