data_PCOD9194455
_publ_section_title
;
Structure prediction by ZEFSAII (Michael W. Deem and Ramdas Pophale) SiO2 
 PCOD9194455
Probable space group: C 2/M
;
_chemical_formula_sum "Si O2"
_cell_formula_units_Z 56
_cell_length_a 20.153611
_cell_length_b 9.537325
_cell_length_c 28.896182
_cell_angle_alpha 90.000000
_cell_angle_beta 150.345606
_cell_angle_gamma 90.000000
_cell_volume 2748.025341
_symmetry_space_group_name_H-M "C 2/M"
_symmetry_group_IT_number 12
_symmetry_cell_setting 'monoclinic'
loop_
_space_group_symop_operation_xyz
x,y,z
-x,y,-z
-x,-y,-z
x,-y,z
1/2+x,1/2+y,z
1/2-x,1/2+y,-z
1/2-x,1/2-y,-z
1/2+x,1/2-y,z
loop_
_atom_site_type_symbol
_atom_site_label
_atom_site_fract_x
_atom_site_fract_y
_atom_site_fract_z
Si Si1 0.112497 0.166685 0.407623
Si Si2 0.158870 0.838863 0.601679
Si Si3 0.451933 0.157896 0.130029
Si Si4 0.332894 0.667508 0.285370
Si Si5 0.878074 0.834692 0.693697
Si Si6 0.675785 0.343021 0.018324
Si Si7 0.655505 0.665620 0.106686
O O1 0.250000 0.250000 0.500000
O O2 0.076637 0.186789 0.331670
O O3 0.984015 0.208518 0.360764
O O4 0.136109 0.000000 0.429382
O O5 0.189740 0.805621 0.674028
O O6 0.231145 0.731165 0.611621
O O7 0.000000 0.833120 0.500000
O O8 0.200527 0.000000 0.616750
O O9 0.536495 0.249876 0.216869
O O10 0.428997 0.236921 0.067832
O O11 0.504343 0.000000 0.155992
O O12 0.304805 0.148591 0.063886
O O13 0.323336 0.500000 0.272483
O O14 0.224603 0.745927 0.188364
O O15 0.881373 0.000000 0.705437
O O16 0.616138 0.500000 0.985182
O O17 0.724100 0.303554 0.098685
O O18 0.668786 0.500000 0.124908
O O19 0.500000 0.694807 0.000000
#
# Coordination Sequence:
#
# PCOD9194455 Si02
#       7
#     8   8   8   8   8   8   8
#     4  10  22  40  63  91 120 154 197 247 302 359
#     4  10  22  41  63  87 119 158 198 243 297 358
#     4  10  20  34  56  83 111 149 193 236 287 345
#     4  10  22  40  62  89 121 158 202 249 299 355
#     4  11  23  37  58  87 119 151 192 242 293 350
#     4   9  19  36  55  79 114 151 190 237 289 342
#     4  10  22  38  57  83 117 158 200 241 295 355
#
# _framework density 20.378267999999998
#
# number of rings (size 3 to 8) (size 9 to 14) (size 15 to 20)
#    0.000    2.000    0.000    2.571    2.000    5.143 
#    0.000    0.000    0.000    0.000    0.000    0.000 
#    0.000    0.000    0.000    0.000    0.000    0.000 
#
# Total GULP energy -156394.343628 kJ/mol
# GULP energy per Si atom -5585.512272 kJ/mol
# Density = 2.033189 g / cm^3
# Si number density = 20.378268 Si / 1000 Ang^3
#
#
#
# Elastic Constant Matrix: (Units=GPa)
#
#
# Indices 1 2 3 4 5 6 
#
# 1 60.6271 20.8481 -5.3577 0.0000 -2.3268 0.0000
# 2 20.8481 68.7961 29.4512 0.0002 -10.2352 0.0001
# 3 -5.3577 29.4512 68.7072 0.0010 -9.1083 0.0002
# 4 0.0000 0.0002 0.0010 40.5397 0.0001 -1.7133
# 5 -2.3268 -10.2352 -9.1083 0.0001 32.0968 0.0000
# 6 0.0000 0.0001 0.0002 -1.7133 0.0000 17.9016
#
#
#
# Elastic Compliance Matrix: (Units=1/GPa)
#
#
# Indices 1 2 3 4 5 6 
#
# 1 0.019737 -0.008101 0.005049 0.000000 0.000280 0.000000
# 2 -0.008101 0.021548 -0.009388 0.000000 0.003620 0.000000
# 3 0.005049 -0.009388 0.019352 0.000000 0.002864 0.000000
# 4 0.000000 0.000000 0.000000 0.024767 0.000000 0.002370
# 5 0.000280 0.003620 0.002864 0.000000 0.033143 0.000000
# 6 0.000000 0.000000 0.000000 0.002370 0.000000 0.056088
#
#
# Mechanical properties :
#
#
# Convention : Reuss Voigt Hill
#
# Bulk Modulus (GPa) = 27.96719 32.00150 29.98435
# Shear Modulus (GPa) = 23.64791 28.32020 25.98405
#
# Velocity S-wave (km/s) = 3.41023 3.73195 3.57471
# Velocity P-wave (km/s) = 5.40926 5.85728 5.63772
#
# Compressibility (1/GPa) = 0.03575618
#
# Stress axis : x y z
#
# Youngs Moduli (GPa) = 50.66685 46.40754 51.67382
#
# Poissons Ratio (x) = 0.37593 -0.26088
# Poissons Ratio (y) = 0.41043 0.48513
# Poissons Ratio (z) = -0.25579 0.43569
#
# Static dielectric constant tensor:
#      x y z
#    x 1.772540 0.000000 0.028450 
#    y 0.000000 1.697110 0.000000 
#    z 0.028450 0.000000 1.727240 
# 
# From -- ./inp_files/380780.got.cif
#   From: 2010.05.17/outbox.cif.g08.bks.cpg/sg12_191_cif.got.tgz:380780.got - 2010.06.03 13:09:07.
