data_PCOD9194288
_publ_section_title
;
Structure prediction by ZEFSAII (Michael W. Deem and Ramdas Pophale) SiO2 
 PCOD9194288
Probable space group: C 2/M
;
_chemical_formula_sum "Si O2"
_cell_formula_units_Z 48
_cell_length_a 24.935123
_cell_length_b 7.443055
_cell_length_c 14.838652
_cell_angle_alpha 90.000000
_cell_angle_beta 107.490796
_cell_angle_gamma 90.000000
_cell_volume 2626.628699
_symmetry_space_group_name_H-M "C 2/M"
_symmetry_group_IT_number 12
_symmetry_cell_setting 'monoclinic'
loop_
_space_group_symop_operation_xyz
x,y,z
-x,y,-z
-x,-y,-z
x,-y,z
1/2+x,1/2+y,z
1/2-x,1/2+y,-z
1/2-x,1/2-y,-z
1/2+x,1/2-y,z
loop_
_atom_site_type_symbol
_atom_site_label
_atom_site_fract_x
_atom_site_fract_y
_atom_site_fract_z
Si Si1 0.582123 0.000000 0.116423
Si Si2 0.642654 0.282905 0.266853
Si Si3 0.062702 0.217344 0.392222
Si Si4 0.549043 0.000000 0.894993
Si Si5 0.261961 0.787186 0.401003
Si Si6 0.940370 0.215758 0.250957
Si Si7 0.385252 0.293795 0.400327
O O1 0.614114 0.826405 0.172179
O O2 0.518198 0.000000 0.121401
O O3 0.578152 0.000000 0.006830
O O4 0.638740 0.500000 0.254079
O O5 0.608498 0.231674 0.340394
O O6 0.707339 0.231377 0.316673
O O7 0.079286 0.287749 0.499121
O O8 0.001057 0.261406 0.325591
O O9 0.065239 0.000000 0.398433
O O10 0.564495 0.826994 0.842847
O O11 0.250000 0.750000 0.500000
O O12 0.320673 0.707801 0.397890
O O13 0.267458 0.000000 0.393812
O O14 0.896241 0.275565 0.305659
O O15 0.937826 0.000000 0.233224
O O16 0.405067 0.500000 0.403296
#
# Coordination Sequence:
#
# PCOD9194288 Si02
#       7
#     4   8   8   4   8   8   8
#     4  11  24  40  63  86 111 150 183 255 302 332
#     4  10  21  37  57  84 117 151 191 228 284 347
#     4   9  16  32  54  80 119 156 187 220 273 346
#     4  11  24  40  60  91 112 135 204 245 295 351
#     4  11  22  34  53  84 120 156 192 233 272 331
#     4  10  21  38  58  82 119 158 186 237 287 344
#     4  10  20  34  55  84 117 160 194 223 278 344
#
# _framework density 18.274374000000002
#
# number of rings (size 3 to 8) (size 9 to 14) (size 15 to 20)
#    0.000    1.833    3.333    1.000    3.500    2.667 
#    1.500    2.500    0.000    1.000    0.000    0.000 
#    0.000    0.000    0.000    0.000    0.000    0.000 
#
# Total GULP energy -133975.809574 kJ/mol
# GULP energy per Si atom -5582.325399 kJ/mol
# Density = 1.823278 g / cm^3
# Si number density = 18.274374 Si / 1000 Ang^3
#
#
#
# Elastic Constant Matrix: (Units=GPa)
#
#
# Indices 1 2 3 4 5 6 
#
# 1 56.7855 9.6850 45.2455 0.0000 -15.4970 0.0000
# 2 9.6850 81.6828 49.3634 0.0000 -4.0138 0.0000
# 3 45.2455 49.3634 159.5301 0.0000 -12.8829 0.0000
# 4 0.0000 0.0000 0.0000 -51.6211 0.0000 24.9393
# 5 -15.4970 -4.0138 -12.8829 0.0000 28.6329 0.0000
# 6 0.0000 0.0000 0.0000 24.9393 0.0000 12.2561
#
#
#
# Elastic Compliance Matrix: (Units=1/GPa)
#
#
# Indices 1 2 3 4 5 6 
#
# 1 0.025915 0.001689 -0.006974 0.000000 0.011125 0.000000
# 2 0.001689 0.015168 -0.005113 0.000000 0.000740 0.000000
# 3 -0.006974 -0.005113 0.009823 0.000000 -0.000072 0.000000
# 4 0.000000 0.000000 0.000000 -0.009769 0.000000 0.019878
# 5 0.011125 0.000740 -0.000072 0.000000 0.041017 0.000000
# 6 0.000000 0.000000 0.000000 0.019878 0.000000 0.041144
#
#
# Mechanical properties :
#
#
# Convention : Reuss Voigt Hill
#
# Bulk Modulus (GPa) = 33.21199 56.28734 44.74967
# Shear Modulus (GPa) = 32.43980 10.76722 21.60351
#
# Velocity S-wave (km/s) = 4.21783 2.42997 3.44201
# Velocity P-wave (km/s) = 6.47562 6.22424 6.35117
#
# Compressibility (1/GPa) = 0.03010960
#
# Stress axis : x y z
#
# Youngs Moduli (GPa) = 38.58780 65.92659 101.80611
#
# Poissons Ratio (x) = -0.11132 0.71000
# Poissons Ratio (y) = -0.06516 0.52051
# Poissons Ratio (z) = 0.26911 0.33706
#
# Static dielectric constant tensor:
#      x y z
#    x 1.598910 0.000000 0.013920 
#    y 0.000000 1.680300 0.000000 
#    z 0.013920 0.000000 1.585430 
# 
# From -- ./inp_files/172963.got.cif
#   From: 2010.05.17/outbox.cif.g08.bks.cpg/sg12_87_cif.got.tgz:172963.got - 2010.06.03 13:09:07.
