data_PCOD9194359
_publ_section_title
;
Structure prediction by ZEFSAII (Michael W. Deem and Ramdas Pophale) SiO2 
 PCOD9194359
Probable space group: C 2/M
;
_chemical_formula_sum "Si O2"
_cell_formula_units_Z 48
_cell_length_a 7.668419
_cell_length_b 27.602238
_cell_length_c 19.897676
_cell_angle_alpha 90.000000
_cell_angle_beta 140.916570
_cell_angle_gamma 90.000000
_cell_volume 2655.241719
_symmetry_space_group_name_H-M "C 2/M"
_symmetry_group_IT_number 12
_symmetry_cell_setting 'monoclinic'
loop_
_space_group_symop_operation_xyz
x,y,z
-x,y,-z
-x,-y,-z
x,-y,z
1/2+x,1/2+y,z
1/2-x,1/2+y,-z
1/2-x,1/2-y,-z
1/2+x,1/2-y,z
loop_
_atom_site_type_symbol
_atom_site_label
_atom_site_fract_x
_atom_site_fract_y
_atom_site_fract_z
Si Si1 0.083311 0.200462 0.631658
Si Si2 0.759696 0.057078 0.871489
Si Si3 0.864925 0.370110 0.820282
Si Si4 0.545630 0.190122 0.389550
Si Si5 0.584181 0.374235 0.202262
Si Si6 0.261653 0.194364 0.984012
O O1 0.184829 0.166535 0.721679
O O2 0.273009 0.189624 0.624021
O O3 0.765282 0.190169 0.516156
O O4 0.105703 0.257769 0.653059
O O5 0.487220 0.084683 0.816632
O O6 0.847647 0.082386 0.827953
O O7 0.714405 0.000000 0.849165
O O8 0.000000 0.062987 0.000000
O O9 0.676815 0.384848 0.827723
O O10 0.131189 0.339232 0.923950
O O11 0.336245 0.145519 0.322509
O O12 0.506263 0.328881 0.130192
O O13 0.500000 0.190910 0.000000
O O14 0.250000 0.250000 0.000000
#
# Coordination Sequence:
#
# PCOD9194359 Si02
#       6
#     8   8   8   8   8   8
#     4  10  20  34  55  86 123 163 202 237 283 351
#     4  11  24  42  65  87 115 155 200 251 305 356
#     4  11  22  38  58  85 119 152 194 244 297 349
#     4  10  20  34  55  86 123 163 202 237 283 351
#     4  11  22  38  58  85 119 152 194 244 297 349
#     4  10  22  32  50  83 115 152 188 226 283 352
#
# _framework density 18.077451
#
# number of rings (size 3 to 8) (size 9 to 14) (size 15 to 20)
#    0.000    1.500    3.333    2.000    2.333    5.333 
#    0.000    1.667    0.000    2.000    0.000    2.333 
#    0.000    0.000    0.000    0.000    0.000    0.000 
#
# Total GULP energy -134029.367756 kJ/mol
# GULP energy per Si atom -5584.556990 kJ/mol
# Density = 1.803631 g / cm^3
# Si number density = 18.077451 Si / 1000 Ang^3
#
#
#
# Elastic Constant Matrix: (Units=GPa)
#
#
# Indices 1 2 3 4 5 6 
#
# 1 61.6006 14.5482 -2.0269 0.0001 -1.6978 0.0000
# 2 14.5482 86.8909 17.8512 -0.0002 0.5290 -0.0002
# 3 -2.0269 17.8512 58.0204 0.0002 -2.4392 0.0000
# 4 0.0001 -0.0002 0.0002 22.6005 0.0002 -6.7031
# 5 -1.6978 0.5290 -2.4392 0.0002 21.3137 0.0002
# 6 0.0000 -0.0002 0.0000 -6.7031 0.0002 21.9232
#
#
#
# Elastic Compliance Matrix: (Units=1/GPa)
#
#
# Indices 1 2 3 4 5 6 
#
# 1 0.017091 -0.003211 0.001654 0.000000 0.001630 0.000000
# 2 -0.003211 0.012900 -0.004125 0.000000 -0.001048 0.000000
# 3 0.001654 -0.004125 0.018662 0.000000 0.002370 0.000000
# 4 0.000000 0.000000 0.000000 0.048660 -0.000001 0.014878
# 5 0.001630 -0.001048 0.002370 -0.000001 0.047345 -0.000001
# 6 0.000000 0.000000 0.000000 0.014878 -0.000001 0.050163
#
#
# Mechanical properties :
#
#
# Convention : Reuss Voigt Hill
#
# Bulk Modulus (GPa) = 26.81848 29.69521 28.25685
# Shear Modulus (GPa) = 22.87114 24.91011 23.89062
#
# Velocity S-wave (km/s) = 3.56079 3.71612 3.63928
# Velocity P-wave (km/s) = 5.63677 5.90551 5.77270
#
# Compressibility (1/GPa) = 0.03728772
#
# Stress axis : x y z
#
# Youngs Moduli (GPa) = 58.50908 77.51791 53.58501
#
# Poissons Ratio (x) = 0.24893 -0.08861
# Poissons Ratio (y) = 0.18789 0.22105
# Poissons Ratio (z) = -0.09675 0.31978
#
# Static dielectric constant tensor:
#      x y z
#    x 1.656520 0.000000 -0.004070 
#    y 0.000000 1.590860 0.000000 
#    z -0.004070 0.000000 1.654730 
# 
# From -- ./inp_files/302192.got.cif
#   From: 2010.05.17/outbox.cif.g08.bks.cpg/sg12_152_cif.got.tgz:302192.got - 2010.06.03 13:09:07.
