data_PCOD9194710
_publ_section_title
;
Structure prediction by ZEFSAII (Michael W. Deem and Ramdas Pophale) SiO2 
 PCOD9194710
Probable space group: C 2/M
;
_chemical_formula_sum "Si O2"
_cell_formula_units_Z 64
_cell_length_a 32.150884
_cell_length_b 8.718353
_cell_length_c 23.841605
_cell_angle_alpha 90.000000
_cell_angle_beta 148.017413
_cell_angle_gamma 90.000000
_cell_volume 3539.657711
_symmetry_space_group_name_H-M "C 2/M"
_symmetry_group_IT_number 12
_symmetry_cell_setting 'monoclinic'
loop_
_space_group_symop_operation_xyz
x,y,z
-x,y,-z
-x,-y,-z
x,-y,z
1/2+x,1/2+y,z
1/2-x,1/2+y,-z
1/2-x,1/2-y,-z
1/2+x,1/2-y,z
loop_
_atom_site_type_symbol
_atom_site_label
_atom_site_fract_x
_atom_site_fract_y
_atom_site_fract_z
Si Si1 0.163731 0.177933 0.403612
Si Si2 0.751991 0.816092 0.912491
Si Si3 0.047689 0.684060 0.361724
Si Si4 0.763020 0.315471 0.801245
Si Si5 0.166592 0.826471 0.278315
Si Si6 0.874558 0.816006 0.145881
Si Si7 0.330260 0.180354 0.409327
Si Si8 0.914734 0.678234 0.911731
O O1 0.250000 0.250000 0.500000
O O2 0.104558 0.265547 0.376224
O O3 0.139081 0.182716 0.310367
O O4 0.168337 0.000000 0.426477
O O5 0.747666 0.747905 0.845414
O O6 0.681475 0.752235 0.870025
O O7 0.747084 0.000000 0.904207
O O8 0.832052 0.775251 0.038108
O O9 0.042996 0.500000 0.358092
O O10 0.091161 0.735270 0.469280
O O11 0.961995 0.753081 0.253545
O O12 0.763452 0.500000 0.802335
O O13 0.701342 0.261899 0.682856
O O14 0.849693 0.258519 0.880244
O O15 0.259958 0.807992 0.375040
O O16 0.126795 0.698154 0.195441
O O17 0.148447 0.000000 0.236596
O O18 0.875206 0.000000 0.150659
O O19 0.339263 0.000000 0.406553
O O20 0.925951 0.500000 0.939703
O O21 0.000000 0.750973 0.000000
#
# Coordination Sequence:
#
# PCOD9194710 Si02
#       8
#     8   8   8   8   8   8   8   8
#     4  11  21  34  52  78 111 148 191 234 278 331
#     4  10  21  40  64  86 113 148 186 229 286 347
#     4  11  22  37  57  84 117 153 192 234 287 344
#     4  10  20  34  57  85 110 145 190 234 281 334
#     4   9  18  33  50  71 102 141 186 227 269 323
#     4  10  22  40  62  89 116 145 183 233 287 340
#     4   9  18  35  54  76 110 149 187 227 275 335
#     4   9  19  34  50  74 108 143 182 227 275 325
#
# _framework density 18.080845
#
# number of rings (size 3 to 8) (size 9 to 14) (size 15 to 20)
#    0.000    2.125    1.250    1.875    0.000    5.250 
#    0.000    3.125    0.000    3.750    0.000    0.000 
#    0.000    0.000    0.000    0.000    0.000    0.000 
#
# Total GULP energy -178361.022798 kJ/mol
# GULP energy per Si atom -5573.781962 kJ/mol
# Density = 1.803969 g / cm^3
# Si number density = 18.080845 Si / 1000 Ang^3
#
#
#
# Elastic Constant Matrix: (Units=GPa)
#
#
# Indices 1 2 3 4 5 6 
#
# 1 108.9109 37.1660 69.9388 0.0000 -14.9025 0.0000
# 2 37.1660 46.4784 38.5768 0.0000 -3.7145 0.0000
# 3 69.9388 38.5768 126.4288 0.0000 8.7475 0.0000
# 4 0.0000 0.0000 0.0000 29.3498 0.0000 -0.3796
# 5 -14.9025 -3.7145 8.7475 0.0000 24.2548 0.0000
# 6 0.0000 0.0000 0.0000 -0.3796 0.0000 25.6258
#
#
#
# Elastic Compliance Matrix: (Units=1/GPa)
#
#
# Indices 1 2 3 4 5 6 
#
# 1 0.019841 -0.006314 -0.010077 0.000000 0.014858 0.000000
# 2 -0.006314 0.032327 -0.006610 0.000000 0.003455 0.000000
# 3 -0.010077 -0.006610 0.016409 0.000000 -0.013121 0.000000
# 4 0.000000 0.000000 0.000000 0.034078 0.000000 0.000505
# 5 0.014858 0.003455 -0.013121 0.000000 0.055619 0.000000
# 6 0.000000 0.000000 0.000000 0.000505 0.000000 0.039031
#
#
# Mechanical properties :
#
#
# Convention : Reuss Voigt Hill
#
# Bulk Modulus (GPa) = 44.29859 63.68682 53.99271
# Shear Modulus (GPa) = 19.93379 24.92186 22.42783
#
# Velocity S-wave (km/s) = 3.32397 3.71665 3.52578
# Velocity P-wave (km/s) = 6.26779 7.32924 6.81920
#
# Compressibility (1/GPa) = 0.02257408
#
# Stress axis : x y z
#
# Youngs Moduli (GPa) = 50.40178 30.93422 60.94330
#
# Poissons Ratio (x) = 0.19532 0.61412
# Poissons Ratio (y) = 0.31825 0.40283
# Poissons Ratio (z) = 0.50789 0.20447
#
# Static dielectric constant tensor:
#      x y z
#    x 1.602650 0.000000 -0.003240 
#    y 0.000000 1.628990 0.000000 
#    z -0.003240 0.000000 1.645010 
# 
# From -- ./inp_files/353532.got.cif
#   From: 2010.05.17/outbox.cif.g08.bks.cpg/sg12_177_cif.got.tgz:353532.got - 2010.06.03 13:09:07.
