data_PCOD9194874
_publ_section_title
;
Structure prediction by ZEFSAII (Michael W. Deem and Ramdas Pophale) SiO2 
 PCOD9194874
Probable space group: C 2/M
;
_chemical_formula_sum "Si O2"
_cell_formula_units_Z 64
_cell_length_a 20.889381
_cell_length_b 7.650928
_cell_length_c 23.423341
_cell_angle_alpha 90.000000
_cell_angle_beta 125.170927
_cell_angle_gamma 90.000000
_cell_volume 3060.151801
_symmetry_space_group_name_H-M "C 2/M"
_symmetry_group_IT_number 12
_symmetry_cell_setting 'monoclinic'
loop_
_space_group_symop_operation_xyz
x,y,z
-x,y,-z
-x,-y,-z
x,-y,z
1/2+x,1/2+y,z
1/2-x,1/2+y,-z
1/2-x,1/2-y,-z
1/2+x,1/2-y,z
loop_
_atom_site_type_symbol
_atom_site_label
_atom_site_fract_x
_atom_site_fract_y
_atom_site_fract_z
Si Si1 0.973586 0.704758 0.166232
Si Si2 0.293587 0.707808 0.080664
Si Si3 0.409512 0.211564 0.448585
Si Si4 0.971987 0.705368 0.685267
Si Si5 0.160564 0.710261 0.468275
Si Si6 0.460530 0.214339 0.920088
Si Si7 0.717401 0.786692 0.158476
Si Si8 0.628704 0.704382 0.698933
O O1 0.994820 0.500000 0.175372
O O2 0.880543 0.716677 0.126616
O O3 0.013833 0.780794 0.244050
O O4 0.997199 0.775780 0.116208
O O5 0.302290 0.500000 0.090252
O O6 0.241813 0.767720 0.107416
O O7 0.250000 0.750000 0.000000
O O8 0.500000 0.266075 0.500000
O O9 0.363717 0.273227 0.481153
O O10 0.376712 0.273402 0.371487
O O11 0.408090 0.000000 0.446770
O O12 0.955058 0.500000 0.684243
O O13 0.052699 0.716569 0.690852
O O14 0.901131 0.778723 0.610631
O O15 0.151517 0.500000 0.464871
O O16 0.250000 0.750000 0.500000
O O17 0.369921 0.269678 0.871554
O O18 0.463619 0.000000 0.922513
O O19 0.500000 0.270920 0.000000
O O20 0.788528 0.727162 0.235214
O O21 0.715464 0.000000 0.159318
O O22 0.625293 0.500000 0.711801
#
# Coordination Sequence:
#
# PCOD9194874 Si02
#       8
#     8   8   8   8   8   8   8   8
#     4  10  20  34  58  85 106 145 194 231 280 342
#     4  11  21  35  55  81 113 145 183 232 281 335
#     4  10  20  38  60  81 112 154 193 230 284 346
#     4  10  20  37  58  81 114 153 191 232 287 352
#     4  10  22  39  59  84 116 154 191 239 289 339
#     4   9  17  32  54  79 110 146 186 228 274 334
#     4   9  19  34  53  81 113 143 180 234 284 323
#     4  11  21  34  57  88 116 145 189 245 291 329
#
# _framework density 20.913995
#
# number of rings (size 3 to 8) (size 9 to 14) (size 15 to 20)
#    0.000    2.000    2.500    1.500    0.000    4.250 
#    0.000    2.500    0.000    5.625    0.000    0.000 
#    0.000    0.000    0.000    0.000    0.000    0.000 
#
# Total GULP energy -178723.523420 kJ/mol
# GULP energy per Si atom -5585.110107 kJ/mol
# Density = 2.086639 g / cm^3
# Si number density = 20.913995 Si / 1000 Ang^3
#
#
#
# Elastic Constant Matrix: (Units=GPa)
#
#
# Indices 1 2 3 4 5 6 
#
# 1 99.0993 -6.5321 19.1958 0.0000 -7.3968 0.0000
# 2 -6.5321 37.0631 -3.8221 0.0000 -3.2140 -0.0001
# 3 19.1958 -3.8221 123.6162 0.0000 -10.3171 0.0000
# 4 0.0000 0.0000 0.0000 4.4149 0.0000 6.0941
# 5 -7.3968 -3.2140 -10.3171 0.0000 40.7862 0.0000
# 6 0.0000 -0.0001 0.0000 6.0941 0.0000 16.8010
#
#
#
# Elastic Compliance Matrix: (Units=1/GPa)
#
#
# Indices 1 2 3 4 5 6 
#
# 1 0.010622 0.001871 -0.001449 0.000000 0.001707 0.000000
# 2 0.001871 0.027628 0.000790 0.000000 0.002716 0.000000
# 3 -0.001449 0.000790 0.008502 0.000000 0.001950 0.000000
# 4 0.000000 0.000000 0.000000 0.453645 0.000000 -0.164548
# 5 0.001707 0.002716 0.001950 0.000000 0.025535 0.000000
# 6 0.000000 0.000000 0.000000 -0.164548 0.000000 0.119206
#
#
# Mechanical properties :
#
#
# Convention : Reuss Voigt Hill
#
# Bulk Modulus (GPa) = 20.33520 30.82911 25.58215
# Shear Modulus (GPa) = 7.58603 29.12953 18.35778
#
# Velocity S-wave (km/s) = 1.90660 3.73611 2.96594
# Velocity P-wave (km/s) = 3.81984 5.77791 4.89772
#
# Compressibility (1/GPa) = 0.04917581
#
# Stress axis : x y z
#
# Youngs Moduli (GPa) = 94.14132 36.19546 117.62237
#
# Poissons Ratio (x) = -0.06771 0.17045
# Poissons Ratio (y) = -0.17611 -0.09297
# Poissons Ratio (z) = 0.13643 -0.02861
#
# Static dielectric constant tensor:
#      x y z
#    x 1.713900 0.000000 -0.025440 
#    y 0.000000 1.788060 0.000000 
#    z -0.025440 0.000000 1.746050 
# 
# From -- ./inp_files/320119.got.cif
#   From: 2010.05.17/outbox.cif.g08.bks.cpg/sg12_161_cif.got.tgz:320119.got - 2010.06.03 13:09:07.
