data_PCOD9194529
_publ_section_title
;
Structure prediction by ZEFSAII (Michael W. Deem and Ramdas Pophale) SiO2 
 PCOD9194529
Probable space group: C 2/M
;
_chemical_formula_sum "Si O2"
_cell_formula_units_Z 56
_cell_length_a 17.231835
_cell_length_b 24.824784
_cell_length_c 8.729368
_cell_angle_alpha 90.000000
_cell_angle_beta 126.369585
_cell_angle_gamma 90.000000
_cell_volume 3006.825774
_symmetry_space_group_name_H-M "C 2/M"
_symmetry_group_IT_number 12
_symmetry_cell_setting 'monoclinic'
loop_
_space_group_symop_operation_xyz
x,y,z
-x,y,-z
-x,-y,-z
x,-y,z
1/2+x,1/2+y,z
1/2-x,1/2+y,-z
1/2-x,1/2-y,-z
1/2+x,1/2-y,z
loop_
_atom_site_type_symbol
_atom_site_label
_atom_site_fract_x
_atom_site_fract_y
_atom_site_fract_z
Si Si1 0.266428 0.434613 0.386202
Si Si2 0.588390 0.879380 0.998903
Si Si3 0.762151 0.686583 0.033630
Si Si4 0.953610 0.559076 0.611192
Si Si5 0.924396 0.936788 0.033070
Si Si6 0.255270 0.115659 0.318886
Si Si7 0.407371 0.380127 0.317595
O O1 0.266365 0.500000 0.414274
O O2 0.165854 0.412590 0.192835
O O3 0.286044 0.396487 0.558269
O O4 0.348983 0.419251 0.362110
O O5 0.647493 0.837949 0.958584
O O6 0.500000 0.856266 0.000000
O O7 0.532486 0.919771 0.820901
O O8 0.669190 0.660351 0.844237
O O9 0.750000 0.750000 0.000000
O O10 0.762104 0.667618 0.213369
O O11 0.918880 0.500000 0.619758
O O12 0.863515 0.597317 0.478029
O O13 0.000000 0.554716 0.500000
O O14 0.947531 0.915038 0.225705
O O15 0.934153 0.000000 0.042748
O O16 0.814283 0.922363 0.863146
O O17 0.000000 0.912904 0.000000
O O18 0.500000 0.352502 0.500000
#
# Coordination Sequence:
#
# PCOD9194529 Si02
#       7
#     8   8   8   8   8   8   8
#     4  11  22  35  59  93 134 169 196 242 312 387
#     4  11  22  39  60  91 129 163 204 251 308 381
#     4  10  24  47  64  83 117 158 210 273 314 353
#     4  11  21  34  58  93 132 166 198 241 305 383
#     4  10  20  34  56  84 121 165 206 247 299 366
#     4  11  21  37  59  86 121 159 206 249 302 375
#     4  10  22  40  58  86 118 159 206 261 312 371
#
# _framework density 18.624292000000001
#
# number of rings (size 3 to 8) (size 9 to 14) (size 15 to 20)
#    0.000    1.429    2.857    3.000    0.000    2.857 
#    2.571    7.143    0.000    0.000    0.000    0.000 
#    0.000    0.000    0.000    0.000    0.000    0.000 
#
# Total GULP energy -155869.527218 kJ/mol
# GULP energy per Si atom -5566.768829 kJ/mol
# Density = 1.858190 g / cm^3
# Si number density = 18.624292 Si / 1000 Ang^3
#
#
#
# Elastic Constant Matrix: (Units=GPa)
#
#
# Indices 1 2 3 4 5 6 
#
# 1 107.0092 35.2271 29.0445 0.0000 -17.1617 0.0000
# 2 35.2271 106.5655 39.7256 0.0000 -12.9355 0.0000
# 3 29.0445 39.7256 126.9623 0.0000 -0.5778 0.0000
# 4 0.0000 0.0000 0.0000 14.8181 0.0000 0.7181
# 5 -17.1617 -12.9355 -0.5778 0.0000 39.9336 0.0000
# 6 0.0000 0.0000 0.0000 0.7181 0.0000 7.5272
#
#
#
# Elastic Compliance Matrix: (Units=1/GPa)
#
#
# Indices 1 2 3 4 5 6 
#
# 1 0.011319 -0.002602 -0.001757 0.000000 0.003996 0.000000
# 2 -0.002602 0.011701 -0.003054 0.000000 0.002628 0.000000
# 3 -0.001757 -0.003054 0.009227 0.000000 -0.001611 0.000000
# 4 0.000000 0.000000 0.000000 0.067798 0.000000 -0.006468
# 5 0.003996 0.002628 -0.001611 0.000000 0.027587 0.000000
# 6 0.000000 0.000000 0.000000 -0.006468 0.000000 0.133469
#
#
# Mechanical properties :
#
#
# Convention : Reuss Voigt Hill
#
# Bulk Modulus (GPa) = 57.40089 60.94793 59.17441
# Shear Modulus (GPa) = 17.74714 28.22509 22.98612
#
# Velocity S-wave (km/s) = 3.09026 3.89716 3.51693
# Velocity P-wave (km/s) = 6.60457 7.28330 6.95222
#
# Compressibility (1/GPa) = 0.01742133
#
# Stress axis : x y z
#
# Youngs Moduli (GPa) = 88.34456 85.45929 108.38167
#
# Poissons Ratio (x) = 0.22233 0.19045
# Poissons Ratio (y) = 0.22984 0.33102
# Poissons Ratio (z) = 0.15524 0.26101
#
# Static dielectric constant tensor:
#      x y z
#    x 1.743970 0.000000 -0.031900 
#    y 0.000000 1.604430 0.000000 
#    z -0.031900 0.000000 1.650640 
# 
# From -- ./inp_files/79164.got.cif
#   From: 2010.05.17/outbox.cif.g08.bks.cpg/sg12_40_cif.got.tgz:79164.got - 2010.06.03 13:09:07.
