data_PCOD9194392
_publ_section_title
;
Structure prediction by ZEFSAII (Michael W. Deem and Ramdas Pophale) SiO2 
 PCOD9194392
Probable space group: C 2/M
;
_chemical_formula_sum "Si O2"
_cell_formula_units_Z 64
_cell_length_a 14.112585
_cell_length_b 13.159623
_cell_length_c 28.604603
_cell_angle_alpha 90.000000
_cell_angle_beta 39.573193
_cell_angle_gamma 90.000000
_cell_volume 3384.298111
_symmetry_space_group_name_H-M "C 2/M"
_symmetry_group_IT_number 12
_symmetry_cell_setting 'monoclinic'
loop_
_space_group_symop_operation_xyz
x,y,z
-x,y,-z
-x,-y,-z
x,-y,z
1/2+x,1/2+y,z
1/2-x,1/2+y,-z
1/2-x,1/2-y,-z
1/2+x,1/2-y,z
loop_
_atom_site_type_symbol
_atom_site_label
_atom_site_fract_x
_atom_site_fract_y
_atom_site_fract_z
Si Si1 0.111260 0.616009 0.225701
Si Si2 0.846114 0.749339 0.079251
Si Si3 0.877062 0.296472 0.383643
Si Si4 0.788553 0.118932 0.955368
Si Si5 0.349273 0.616817 0.464311
Si Si6 0.143448 0.880427 0.401511
Si Si7 0.008791 0.293779 0.102059
Si Si8 0.860981 0.388915 0.240671
O O1 0.154251 0.500000 0.221366
O O2 0.240369 0.675628 0.148768
O O3 0.032153 0.670450 0.300397
O O4 0.979830 0.609892 0.237328
O O5 0.762796 0.684996 0.070707
O O6 0.912935 0.676427 0.093671
O O7 0.000000 0.796365 0.000000
O O8 0.812021 0.366299 0.450564
O O9 0.873807 0.187702 0.410158
O O10 0.751779 0.310723 0.390945
O O11 0.931175 0.178339 0.920967
O O12 0.808512 0.000000 0.938617
O O13 0.656797 0.137381 0.043240
O O14 0.371428 0.500000 0.444168
O O15 0.470267 0.642054 0.459311
O O16 0.205799 0.873206 0.324920
O O17 0.162635 0.000000 0.408706
O O18 0.911415 0.307945 0.184451
O O19 0.863444 0.500000 0.216740
#
# Coordination Sequence:
#
# PCOD9194392 Si02
#       8
#     8   8   8   8   8   8   8   8
#     4  10  20  36  56  79 110 143 180 226 276 328
#     4  10  22  37  54  80 109 146 183 227 276 328
#     4  10  20  34  58  84 113 147 178 226 279 324
#     4  10  21  38  55  78 109 142 181 227 282 333
#     4  10  20  35  58  87 113 142 186 227 269 326
#     4   9  18  33  56  83 109 141 184 227 269 317
#     4  10  20  34  56  77 105 142 183 226 272 328
#     4   9  17  31  54  79 103 137 180 228 269 313
#
# _framework density 18.910862999999999
#
# number of rings (size 3 to 8) (size 9 to 14) (size 15 to 20)
#    0.000    2.250    1.250    2.625    1.750    4.500 
#    0.000    0.625    0.000    7.500    0.000    0.000 
#    0.000    0.000    0.000    0.000    0.000    0.000 
#
# Total GULP energy -178136.473754 kJ/mol
# GULP energy per Si atom -5566.764805 kJ/mol
# Density = 1.886782 g / cm^3
# Si number density = 18.910863 Si / 1000 Ang^3
#
#
#
# Elastic Constant Matrix: (Units=GPa)
#
#
# Indices 1 2 3 4 5 6 
#
# 1 59.1418 29.0383 5.5680 0.0000 9.9765 0.0000
# 2 29.0383 99.2580 45.2616 0.0000 7.2504 0.0000
# 3 5.5680 45.2616 117.5135 -0.0001 0.8114 0.0000
# 4 0.0000 0.0000 -0.0001 16.1440 0.0000 3.8682
# 5 9.9765 7.2504 0.8114 0.0000 23.7663 0.0000
# 6 0.0000 0.0000 0.0000 3.8682 0.0000 15.3991
#
#
#
# Elastic Compliance Matrix: (Units=1/GPa)
#
#
# Indices 1 2 3 4 5 6 
#
# 1 0.021049 -0.006328 0.001488 0.000000 -0.006956 0.000000
# 2 -0.006328 0.014434 -0.005249 0.000000 -0.001568 0.000000
# 3 0.001488 -0.005249 0.010456 0.000000 0.000620 0.000000
# 4 0.000000 0.000000 0.000000 0.065909 0.000000 -0.016556
# 5 -0.006956 -0.001568 0.000620 0.000000 0.045453 0.000000
# 6 0.000000 0.000000 0.000000 -0.016556 0.000000 0.069098
#
#
# Mechanical properties :
#
#
# Convention : Reuss Voigt Hill
#
# Bulk Modulus (GPa) = 38.81760 48.40545 43.61153
# Shear Modulus (GPa) = 19.59511 24.13157 21.86334
#
# Velocity S-wave (km/s) = 3.22247 3.57609 3.40387
# Velocity P-wave (km/s) = 5.86660 6.53478 6.20968
#
# Compressibility (1/GPa) = 0.02576151
#
# Stress axis : x y z
#
# Youngs Moduli (GPa) = 47.50810 69.28024 95.63432
#
# Poissons Ratio (x) = 0.43844 -0.14232
# Poissons Ratio (y) = 0.30065 0.50196
# Poissons Ratio (z) = -0.07070 0.36364
#
# Static dielectric constant tensor:
#      x y z
#    x 1.681170 0.000000 -0.006160 
#    y 0.000000 1.647760 0.000000 
#    z -0.006160 0.000000 1.748410 
# 
# From -- ./inp_files/376065.got.cif
#   From: 2010.05.17/outbox.cif.g08.bks.cpg/sg12_189_cif.got.tgz:376065.got - 2010.06.03 13:09:07.
