data_PCOD9194573
_publ_section_title
;
Structure prediction by ZEFSAII (Michael W. Deem and Ramdas Pophale) SiO2 
 PCOD9194573
Probable space group: C 2/M
;
_chemical_formula_sum "Si O2"
_cell_formula_units_Z 64
_cell_length_a 17.844924
_cell_length_b 22.501494
_cell_length_c 15.792255
_cell_angle_alpha 90.000000
_cell_angle_beta 29.519558
_cell_angle_gamma 90.000000
_cell_volume 3124.431086
_symmetry_space_group_name_H-M "C 2/M"
_symmetry_group_IT_number 12
_symmetry_cell_setting 'monoclinic'
loop_
_space_group_symop_operation_xyz
x,y,z
-x,y,-z
-x,-y,-z
x,-y,z
1/2+x,1/2+y,z
1/2-x,1/2+y,-z
1/2-x,1/2-y,-z
1/2+x,1/2-y,z
loop_
_atom_site_type_symbol
_atom_site_label
_atom_site_fract_x
_atom_site_fract_y
_atom_site_fract_z
Si Si1 0.318669 0.830135 0.179284
Si Si2 0.139915 0.279587 0.316283
Si Si3 0.189858 0.931250 0.990096
Si Si4 0.398625 0.063227 0.014360
Si Si5 0.352123 0.808838 0.880490
Si Si6 0.132771 0.363215 0.685888
Si Si7 0.178801 0.590035 0.326310
Si Si8 0.327085 0.433086 0.360367
O O1 0.267160 0.769174 0.190534
O O2 0.281045 0.884914 0.154100
O O3 0.278398 0.842320 0.316859
O O4 0.500000 0.827159 0.000000
O O5 0.183955 0.338280 0.323832
O O6 0.000000 0.249167 0.500000
O O7 0.096111 0.300623 0.266961
O O8 0.266702 0.873849 0.961553
O O9 0.008186 0.923141 0.176591
O O10 0.226443 0.000000 0.980742
O O11 0.241756 0.927657 0.840157
O O12 0.327191 0.000000 0.066482
O O13 0.500000 0.057688 0.000000
O O14 0.522235 0.082747 0.823784
O O15 0.250000 0.750000 0.000000
O O16 0.506158 0.814641 0.783378
O O17 0.240500 0.385827 0.505079
O O18 0.258731 0.568282 0.332715
O O19 0.000000 0.573123 0.500000
O O20 0.302338 0.500000 0.419052
#
# Coordination Sequence:
#
# PCOD9194573 Si02
#       8
#     8   8   8   8   8   8   8   8
#     4   9  19  35  56  81 107 144 191 234 281 345
#     4  10  21  38  56  77 111 149 187 229 285 351
#     4  10  23  40  57  82 118 157 192 235 296 360
#     4   8  15  30  52  77 106 140 181 229 280 336
#     4  11  23  40  60  85 117 153 198 251 299 346
#     4  10  20  34  56  86 113 146 194 245 295 343
#     4  10  21  37  58  83 110 151 199 239 284 347
#     4  11  22  36  56  86 121 153 191 242 298 353
#
# _framework density 20.483730000000001
#
# number of rings (size 3 to 8) (size 9 to 14) (size 15 to 20)
#    0.000    2.375    0.000    4.875    0.000    8.500 
#    0.000    1.875    0.000    0.375    0.000    0.000 
#    0.000    3.000    0.000    0.000    0.000    0.000 
#
# Total GULP energy -178282.905499 kJ/mol
# GULP energy per Si atom -5571.340797 kJ/mol
# Density = 2.043711 g / cm^3
# Si number density = 20.483730 Si / 1000 Ang^3
#
#
#
# Elastic Constant Matrix: (Units=GPa)
#
#
# Indices 1 2 3 4 5 6 
#
# 1 66.8377 15.9920 29.2033 -0.5384 15.2025 -0.4950
# 2 15.9920 91.0584 26.7309 -0.9017 -1.7077 -0.8268
# 3 29.2033 26.7309 91.7348 -0.3087 12.1404 -0.2643
# 4 -0.5384 -0.9017 -0.3087 763.6071 0.3418 683.7224
# 5 15.2025 -1.7077 12.1404 0.3418 21.4661 0.3060
# 6 -0.4950 -0.8268 -0.2643 683.7224 0.3060 630.4230
#
#
#
# Elastic Compliance Matrix: (Units=1/GPa)
#
#
# Indices 1 2 3 4 5 6 
#
# 1 0.020110 -0.002573 -0.004043 0.000002 -0.012160 0.000014
# 2 -0.002573 0.012542 -0.003468 -0.000003 0.004781 0.000014
# 3 -0.004043 -0.003468 0.013896 0.000015 -0.005272 -0.000016
# 4 0.000002 -0.000003 0.000015 0.045292 -0.000031 -0.049121
# 5 -0.012160 0.004781 -0.005272 -0.000031 0.058560 0.000000
# 6 0.000014 0.000014 -0.000016 -0.049121 0.000000 0.054860
#
#
# Mechanical properties :
#
#
# Convention : Reuss Voigt Hill
#
# Bulk Modulus (GPa) = 37.90745 43.72038 40.81391
# Shear Modulus (GPa) = 21.34747 294.94623 158.14685
#
# Velocity S-wave (km/s) = 3.23176 12.01262 8.79623
# Velocity P-wave (km/s) = 5.69842 14.62171 11.09654
#
# Compressibility (1/GPa) = 0.02638004
#
# Stress axis : x y z
#
# Youngs Moduli (GPa) = 49.72748 79.73397 71.96154
#
# Poissons Ratio (x) = 0.20514 0.29092
# Poissons Ratio (y) = 0.12794 0.24958
# Poissons Ratio (z) = 0.20103 0.27654
#
# Static dielectric constant tensor:
#      x y z
#    x 1.792840 0.000000 0.024070 
#    y 0.000000 1.859720 0.000000 
#    z 0.024070 0.000000 1.731450 
# 
# From -- ./inp_files/228148.got.cif
#   From: 2010.05.17/outbox.cif.g08.bks.cpg/sg12_115_cif.got.tgz:228148.got - 2010.06.03 13:09:07.
