data_PCOD9194599
_publ_section_title
;
Structure prediction by ZEFSAII (Michael W. Deem and Ramdas Pophale) SiO2 
 PCOD9194599
Probable space group: C 2/M
;
_chemical_formula_sum "Si O2"
_cell_formula_units_Z 48
_cell_length_a 13.733195
_cell_length_b 13.719230
_cell_length_c 13.155042
_cell_angle_alpha 90.000000
_cell_angle_beta 69.289764
_cell_angle_gamma 90.000000
_cell_volume 2318.366245
_symmetry_space_group_name_H-M "C 2/M"
_symmetry_group_IT_number 12
_symmetry_cell_setting 'monoclinic'
loop_
_space_group_symop_operation_xyz
x,y,z
-x,y,-z
-x,-y,-z
x,-y,z
1/2+x,1/2+y,z
1/2-x,1/2+y,-z
1/2-x,1/2-y,-z
1/2+x,1/2-y,z
loop_
_atom_site_type_symbol
_atom_site_label
_atom_site_fract_x
_atom_site_fract_y
_atom_site_fract_z
Si Si1 0.459589 0.603760 0.902795
Si Si2 0.587520 0.884962 0.551886
Si Si3 0.789198 0.611762 0.010858
Si Si4 0.776562 0.267913 0.813555
Si Si5 0.296597 0.616060 0.357817
Si Si6 0.505176 0.725235 0.710388
O O1 0.492808 0.500000 0.842113
O O2 0.336041 0.604439 0.948821
O O3 0.500810 0.695852 0.828934
O O4 0.500000 0.604568 0.000000
O O5 0.500000 0.859753 0.500000
O O6 0.700651 0.858019 0.467461
O O7 0.552420 0.828339 0.664405
O O8 0.584631 0.000000 0.568541
O O9 0.829120 0.500000 0.008044
O O10 0.797789 0.687954 0.102543
O O11 0.815244 0.661768 0.892587
O O12 0.725264 0.330091 0.742059
O O13 0.882684 0.220144 0.727756
O O14 0.291944 0.500000 0.344214
O O15 0.407372 0.650133 0.362752
#
# Coordination Sequence:
#
# PCOD9194599 Si02
#       6
#     8   8   8   8   8   8
#     4   9  17  31  54  85 119 152 193 241 287 343
#     4  10  21  39  61  86 117 155 198 244 295 352
#     4   9  18  32  51  77 115 158 196 238 292 349
#     4  10  20  34  56  86 119 155 198 244 294 349
#     4  11  22  38  63  88 114 152 199 243 292 353
#     4  11  21  35  60  91 118 150 197 249 294 340
#
# _framework density 20.704236000000002
#
# number of rings (size 3 to 8) (size 9 to 14) (size 15 to 20)
#    0.000    2.000    1.667    2.500    0.000    2.667 
#    0.000    0.833    0.000    5.500    0.000    0.000 
#    0.000    0.000    0.000    0.000    0.000    0.000 
#
# Total GULP energy -133668.907579 kJ/mol
# GULP energy per Si atom -5569.537816 kJ/mol
# Density = 2.065711 g / cm^3
# Si number density = 20.704236 Si / 1000 Ang^3
#
#
#
# Elastic Constant Matrix: (Units=GPa)
#
#
# Indices 1 2 3 4 5 6 
#
# 1 47.5435 17.9511 13.7658 0.0000 -18.9095 0.0000
# 2 17.9511 97.8431 40.5088 0.0000 2.0639 0.0000
# 3 13.7658 40.5088 74.7674 0.0000 -15.3110 0.0000
# 4 0.0000 0.0000 0.0000 96.5109 0.0000 2.7056
# 5 -18.9095 2.0639 -15.3110 0.0000 20.4912 0.0000
# 6 0.0000 0.0000 0.0000 2.7056 0.0000 12.4083
#
#
#
# Elastic Compliance Matrix: (Units=1/GPa)
#
#
# Indices 1 2 3 4 5 6 
#
# 1 0.041156 -0.011865 0.008115 0.000000 0.045237 0.000000
# 2 -0.011865 0.017765 -0.011865 0.000000 -0.021603 0.000000
# 3 0.008115 -0.011865 0.023716 0.000000 0.026404 0.000000
# 4 0.000000 0.000000 0.000000 0.010425 0.000000 -0.002273
# 5 0.045237 -0.021603 0.026404 0.000000 0.112452 0.000000
# 6 0.000000 0.000000 0.000000 -0.002273 0.000000 0.081087
#
#
# Mechanical properties :
#
#
# Convention : Reuss Voigt Hill
#
# Bulk Modulus (GPa) = 19.45226 40.51169 29.98198
# Shear Modulus (GPa) = 14.92689 35.74399 25.33544
#
# Velocity S-wave (km/s) = 2.68798 4.15952 3.50191
# Velocity P-wave (km/s) = 4.36456 6.53285 5.55551
#
# Compressibility (1/GPa) = 0.05140791
#
# Stress axis : x y z
#
# Youngs Moduli (GPa) = 24.29783 56.29032 42.16559
#
# Poissons Ratio (x) = 0.66786 -0.34216
# Poissons Ratio (y) = 0.28828 0.50028
# Poissons Ratio (z) = -0.19717 0.66786
#
# Static dielectric constant tensor:
#      x y z
#    x 1.777250 0.000000 -0.052210 
#    y 0.000000 1.790840 0.000000 
#    z -0.052210 0.000000 1.842790 
# 
# From -- ./inp_files/214084.got.cif
#   From: 2010.05.17/outbox.cif.g08.bks.cpg/sg12_108_cif.got.tgz:214084.got - 2010.06.03 13:09:07.
