data_PCOD9194631
_publ_section_title
;
Structure prediction by ZEFSAII (Michael W. Deem and Ramdas Pophale) SiO2 
 PCOD9194631
Probable space group: C 2/M
;
_chemical_formula_sum "Si O2"
_cell_formula_units_Z 56
_cell_length_a 25.029319
_cell_length_b 16.908651
_cell_length_c 17.229322
_cell_angle_alpha 90.000000
_cell_angle_beta 157.986122
_cell_angle_gamma 90.000000
_cell_volume 2733.139952
_symmetry_space_group_name_H-M "C 2/M"
_symmetry_group_IT_number 12
_symmetry_cell_setting 'monoclinic'
loop_
_space_group_symop_operation_xyz
x,y,z
-x,y,-z
-x,-y,-z
x,-y,z
1/2+x,1/2+y,z
1/2-x,1/2+y,-z
1/2-x,1/2-y,-z
1/2+x,1/2-y,z
loop_
_atom_site_type_symbol
_atom_site_label
_atom_site_fract_x
_atom_site_fract_y
_atom_site_fract_z
Si Si1 0.796870 0.340355 0.058826
Si Si2 0.281086 0.839064 0.211038
Si Si3 0.987290 0.184681 0.892279
Si Si4 0.767854 0.585900 0.492002
Si Si5 0.830985 0.148035 0.271058
Si Si6 0.928166 0.411772 0.553760
Si Si7 0.035210 0.372779 0.958645
O O1 0.783585 0.372241 0.127636
O O2 0.962962 0.348109 0.265311
O O3 0.750000 0.250000 0.000000
O O4 0.716180 0.377841 0.878585
O O5 0.320596 0.744814 0.263579
O O6 0.380904 0.883394 0.406120
O O7 0.123254 0.847718 0.030683
O O8 0.847282 0.155257 0.658430
O O9 0.003600 0.279074 0.913787
O O10 0.000000 0.160305 0.000000
O O11 0.704514 0.500000 0.427165
O O12 0.803843 0.585589 0.449000
O O13 0.915285 0.593271 0.738556
O O14 0.000000 0.127876 0.500000
O O15 0.701655 0.117193 0.154156
O O16 0.991332 0.500000 0.636776
O O17 0.000000 0.399238 0.000000
#
# Coordination Sequence:
#
# PCOD9194631 Si02
#       7
#     8   8   8   8   8   8   8
#     4  10  20  36  58  85 117 157 201 243 291 354
#     4  10  20  34  56  88 120 155 192 239 291 357
#     4  10  20  37  59  89 121 151 194 243 299 357
#     4  11  23  39  60  85 121 165 197 238 305 370
#     4  10  20  37  60  88 120 153 201 251 302 351
#     4  11  22  37  59  86 122 160 193 236 301 372
#     4  10  22  40  63  90 116 154 206 263 298 345
#
# _framework density 20.489253999999999
#
# number of rings (size 3 to 8) (size 9 to 14) (size 15 to 20)
#    0.000    1.714    2.857    2.571    0.000    3.429 
#    0.000    0.000    0.000    1.714    0.000    0.000 
#    0.000    0.000    0.000    0.000    0.000    0.000 
#
# Total GULP energy -155956.725342 kJ/mol
# GULP energy per Si atom -5569.883048 kJ/mol
# Density = 2.044262 g / cm^3
# Si number density = 20.489254 Si / 1000 Ang^3
#
#
#
# Elastic Constant Matrix: (Units=GPa)
#
#
# Indices 1 2 3 4 5 6 
#
# 1 88.9039 -4.0093 54.8276 0.0000 -15.4571 0.0000
# 2 -4.0093 32.4992 20.9880 0.0000 3.8580 0.0000
# 3 54.8276 20.9880 131.3710 0.0000 2.7037 0.0000
# 4 0.0000 0.0000 0.0000 -5.6074 0.0000 8.0865
# 5 -15.4571 3.8580 2.7037 0.0000 35.2652 0.0000
# 6 0.0000 0.0000 0.0000 8.0865 0.0000 6.8473
#
#
#
# Elastic Compliance Matrix: (Units=1/GPa)
#
#
# Indices 1 2 3 4 5 6 
#
# 1 0.018556 0.007184 -0.009058 0.000000 0.008042 0.000000
# 2 0.007184 0.037488 -0.008982 0.000000 -0.000264 0.000000
# 3 -0.009058 -0.008982 0.012909 0.000000 -0.003977 0.000000
# 4 0.000000 0.000000 0.000000 -0.065974 0.000000 0.077915
# 5 0.008042 -0.000264 -0.003977 0.000000 0.032215 0.000000
# 6 0.000000 0.000000 0.000000 0.077915 0.000000 0.054027
#
#
# Mechanical properties :
#
#
# Convention : Reuss Voigt Hill
#
# Bulk Modulus (GPa) = 21.16761 44.04299 32.60530
# Shear Modulus (GPa) = 39.46946 19.36555 29.41751
#
# Velocity S-wave (km/s) = 4.39378 3.07768 3.79324
# Velocity P-wave (km/s) = 6.00782 5.84566 5.92730
#
# Compressibility (1/GPa) = 0.04724200
#
# Stress axis : x y z
#
# Youngs Moduli (GPa) = 53.89050 26.67519 77.46508
#
# Poissons Ratio (x) = -0.19163 0.70165
# Poissons Ratio (y) = -0.38715 0.69579
# Poissons Ratio (z) = 0.48812 0.23959
#
# Static dielectric constant tensor:
#      x y z
#    x 1.791840 0.000000 0.022860 
#    y 0.000000 1.735010 0.000000 
#    z 0.022860 0.000000 1.754790 
# 
# From -- ./inp_files/293837.got.cif
#   From: 2010.05.17/outbox.cif.g08.bks.cpg/sg12_147_cif.got.tgz:293837.got - 2010.06.03 13:09:07.
