data_PCOD9194535
_publ_section_title
;
Structure prediction by ZEFSAII (Michael W. Deem and Ramdas Pophale) SiO2 
 PCOD9194535
Probable space group: C 2/M
;
_chemical_formula_sum "Si O2"
_cell_formula_units_Z 56
_cell_length_a 26.483210
_cell_length_b 18.149300
_cell_length_c 19.009615
_cell_angle_alpha 90.000000
_cell_angle_beta 161.814159
_cell_angle_gamma 90.000000
_cell_volume 2851.660391
_symmetry_space_group_name_H-M "C 2/M"
_symmetry_group_IT_number 12
_symmetry_cell_setting 'monoclinic'
loop_
_space_group_symop_operation_xyz
x,y,z
-x,y,-z
-x,-y,-z
x,-y,z
1/2+x,1/2+y,z
1/2-x,1/2+y,-z
1/2-x,1/2-y,-z
1/2+x,1/2-y,z
loop_
_atom_site_type_symbol
_atom_site_label
_atom_site_fract_x
_atom_site_fract_y
_atom_site_fract_z
Si Si1 0.534257 0.414578 0.468986
Si Si2 0.633721 0.724387 0.077893
Si Si3 0.688096 0.918007 0.266817
Si Si4 0.308135 0.916428 0.241878
Si Si5 0.780129 0.860252 0.021719
Si Si6 0.227709 0.258504 0.358256
Si Si7 0.078743 0.713465 0.862566
O O1 0.500000 0.380785 0.500000
O O2 0.483746 0.500000 0.406483
O O3 0.714657 0.412576 0.677757
O O4 0.429278 0.380584 0.268132
O O5 0.705769 0.646716 0.146235
O O6 0.725881 0.746019 0.271273
O O7 0.441328 0.723666 0.839855
O O8 0.642639 0.784441 0.026831
O O9 0.728825 0.847361 0.368261
O O10 0.724462 0.000000 0.344394
O O11 0.500000 0.913075 0.000000
O O12 0.500000 0.899017 0.500000
O O13 0.282866 0.000000 0.235014
O O14 0.259434 0.912963 0.095237
O O15 0.832743 0.784614 0.053749
O O16 0.633492 0.850841 0.882671
O O17 0.386614 0.225123 0.603850
#
# Coordination Sequence:
#
# PCOD9194535 Si02
#       7
#     8   8   8   8   8   8   8
#     4  10  21  35  55  83 117 152 187 234 289 354
#     4  10  22  36  57  85 111 153 190 235 290 341
#     4  10  20  36  57  83 114 156 194 224 282 356
#     4  10  21  40  62  83 110 148 197 248 292 340
#     4  10  20  34  56  85 111 146 189 235 287 344
#     4  11  20  38  57  81 120 153 189 238 285 342
#     4  10  21  34  54  83 115 146 188 235 282 341
#
# _framework density 19.637682999999999
#
# number of rings (size 3 to 8) (size 9 to 14) (size 15 to 20)
#    0.000    1.857    2.857    1.714    2.000    0.000 
#    0.000    1.429    0.000    2.571    0.000    0.000 
#    0.000    0.000    0.000    0.000    0.000    0.000 
#
# Total GULP energy -156122.034816 kJ/mol
# GULP energy per Si atom -5575.786958 kJ/mol
# Density = 1.959299 g / cm^3
# Si number density = 19.637683 Si / 1000 Ang^3
#
#
#
# Elastic Constant Matrix: (Units=GPa)
#
#
# Indices 1 2 3 4 5 6 
#
# 1 82.5646 21.9682 30.2919 -0.0001 -11.0435 -0.0001
# 2 21.9682 78.6550 17.7286 -0.0001 12.2566 -0.0001
# 3 30.2919 17.7286 72.7964 -0.0005 4.4515 -0.0004
# 4 -0.0001 -0.0001 -0.0005 23.5518 -0.0002 6.6636
# 5 -11.0435 12.2566 4.4515 -0.0002 33.2113 -0.0002
# 6 -0.0001 -0.0001 -0.0004 6.6636 -0.0002 16.7560
#
#
#
# Elastic Compliance Matrix: (Units=1/GPa)
#
#
# Indices 1 2 3 4 5 6 
#
# 1 0.016719 -0.004494 -0.006356 0.000000 0.008070 0.000000
# 2 -0.004494 0.015383 -0.001449 0.000000 -0.006977 0.000000
# 3 -0.006356 -0.001449 0.016970 0.000000 -0.003853 0.000000
# 4 0.000000 0.000000 0.000000 0.047843 0.000000 -0.019026
# 5 0.008070 -0.006977 -0.003853 0.000000 0.035885 0.000000
# 6 0.000000 0.000000 0.000000 -0.019026 0.000000 0.067247
#
#
# Mechanical properties :
#
#
# Convention : Reuss Voigt Hill
#
# Bulk Modulus (GPa) = 40.86206 41.55482 41.20844
# Shear Modulus (GPa) = 21.47727 25.63896 23.55812
#
# Velocity S-wave (km/s) = 3.31067 3.61723 3.46734
# Velocity P-wave (km/s) = 5.95543 6.21711 6.08768
#
# Compressibility (1/GPa) = 0.02447258
#
# Stress axis : x y z
#
# Youngs Moduli (GPa) = 59.81245 65.00684 58.92617
#
# Poissons Ratio (x) = 0.29217 0.37453
# Poissons Ratio (y) = 0.26883 0.08541
# Poissons Ratio (z) = 0.38017 0.09422
#
# Static dielectric constant tensor:
#      x y z
#    x 1.747920 0.000000 0.021200 
#    y 0.000000 1.718120 0.000000 
#    z 0.021200 0.000000 1.684200 
# 
# From -- ./inp_files/290850.got.cif
#   From: 2010.05.17/outbox.cif.g08.bks.cpg/sg12_146_cif.got.tgz:290850.got - 2010.06.03 13:09:07.
