data_PCOD9194406
_publ_section_title
;
Structure prediction by ZEFSAII (Michael W. Deem and Ramdas Pophale) SiO2 
 PCOD9194406
Probable space group: C 2/M
;
_chemical_formula_sum "Si O2"
_cell_formula_units_Z 56
_cell_length_a 14.840584
_cell_length_b 7.754415
_cell_length_c 24.129535
_cell_angle_alpha 90.000000
_cell_angle_beta 118.161513
_cell_angle_gamma 90.000000
_cell_volume 2448.109005
_symmetry_space_group_name_H-M "C 2/M"
_symmetry_group_IT_number 12
_symmetry_cell_setting 'monoclinic'
loop_
_space_group_symop_operation_xyz
x,y,z
-x,y,-z
-x,-y,-z
x,-y,z
1/2+x,1/2+y,z
1/2-x,1/2+y,-z
1/2-x,1/2-y,-z
1/2+x,1/2-y,z
loop_
_atom_site_type_symbol
_atom_site_label
_atom_site_fract_x
_atom_site_fract_y
_atom_site_fract_z
Si Si1 0.561195 0.301830 0.719086
Si Si2 0.158287 0.697182 0.053111
Si Si3 0.928994 0.210630 0.400951
Si Si4 0.118967 0.293275 0.924025
Si Si5 0.846619 0.793545 0.490044
Si Si6 0.728338 0.300441 0.188168
Si Si7 0.943746 0.208948 0.785417
O O1 0.530531 0.500000 0.700441
O O2 0.585517 0.226113 0.665950
O O3 0.665309 0.297638 0.784596
O O4 0.475856 0.223210 0.734503
O O5 0.128189 0.500000 0.054881
O O6 0.276358 0.707371 0.066490
O O7 0.161598 0.788104 0.113111
O O8 0.097884 0.762753 0.981485
O O9 0.853059 0.270361 0.427994
O O10 0.044932 0.258930 0.451581
O O11 0.922425 0.000000 0.398806
O O12 0.136605 0.500000 0.930701
O O13 0.029474 0.256385 0.855292
O O14 0.750000 0.750000 0.500000
O O15 0.849114 0.000000 0.488309
O O16 0.754350 0.500000 0.204088
O O17 0.663059 0.231039 0.220542
O O18 0.940174 0.000000 0.782264
#
# Coordination Sequence:
#
# PCOD9194406 Si02
#       7
#     8   8   8   8   8   8   8
#     4  10  20  38  59  77 105 149 190 225 268 328
#     4  10  20  35  55  79 106 140 178 223 283 341
#     4   8  17  34  56  80 110 150 188 217 265 326
#     4  10  20  34  56  81 105 135 179 231 280 331
#     4   9  17  33  57  85 115 146 182 225 265 316
#     4  11  23  37  54  81 111 142 182 232 279 325
#     4  10  22  37  54  77 108 143 182 226 280 334
#
# _framework density 22.874797000000001
#
# number of rings (size 3 to 8) (size 9 to 14) (size 15 to 20)
#    0.000    2.286    1.429    2.143    0.000    4.571 
#    0.000    7.143    0.000    0.000    0.000    0.000 
#    0.000    0.000    0.000    0.000    0.000    0.000 
#
# Total GULP energy -156292.566539 kJ/mol
# GULP energy per Si atom -5581.877376 kJ/mol
# Density = 2.282273 g / cm^3
# Si number density = 22.874797 Si / 1000 Ang^3
#
#
#
# Elastic Constant Matrix: (Units=GPa)
#
#
# Indices 1 2 3 4 5 6 
#
# 1 110.4831 2.6969 30.9846 0.0000 -44.0956 0.0000
# 2 2.6969 40.3687 3.4841 0.0000 -6.1243 0.0000
# 3 30.9846 3.4841 100.1240 0.0000 -45.7014 0.0000
# 4 0.0000 0.0000 0.0000 10.6679 0.0000 -2.7872
# 5 -44.0956 -6.1243 -45.7014 0.0000 38.4338 0.0000
# 6 0.0000 0.0000 0.0000 -2.7872 0.0000 15.8037
#
#
#
# Elastic Compliance Matrix: (Units=1/GPa)
#
#
# Indices 1 2 3 4 5 6 
#
# 1 0.020455 0.003198 0.009849 0.000000 0.035689 0.000000
# 2 0.003198 0.026090 0.003663 0.000000 0.012182 0.000000
# 3 0.009849 0.003663 0.026762 0.000000 0.043705 0.000000
# 4 0.000000 0.000000 0.000000 0.098267 0.000000 0.017331
# 5 0.035689 0.012182 0.043705 0.000000 0.120877 0.000000
# 6 0.000000 0.000000 0.000000 0.017331 0.000000 0.066333
#
#
# Mechanical properties :
#
#
# Convention : Reuss Voigt Hill
#
# Bulk Modulus (GPa) = 9.36980 36.14521 22.75750
# Shear Modulus (GPa) = 13.85274 27.23510 20.54392
#
# Velocity S-wave (km/s) = 2.46354 3.45427 3.00009
# Velocity P-wave (km/s) = 3.49243 5.63427 4.68733
#
# Compressibility (1/GPa) = 0.10672590
#
# Stress axis : x y z
#
# Youngs Moduli (GPa) = 48.88736 38.32890 37.36701
#
# Poissons Ratio (x) = -0.12257 -0.36803
# Poissons Ratio (y) = -0.15633 -0.13687
# Poissons Ratio (z) = -0.48149 -0.14039
#
# Static dielectric constant tensor:
#      x y z
#    x 1.870360 0.000000 -0.047810 
#    y 0.000000 1.884950 0.000000 
#    z -0.047810 0.000000 1.899270 
# 
# From -- ./inp_files/338202.got.cif
#   From: 2010.05.17/outbox.cif.g08.bks.cpg/sg12_170_cif.got.tgz:338202.got - 2010.06.03 13:09:07.
