data_PCOD9194124
_publ_section_title
;
Structure prediction by ZEFSAII (Michael W. Deem and Ramdas Pophale) SiO2 
 PCOD9194124
Probable space group: C 2/M
;
_chemical_formula_sum "Si O2"
_cell_formula_units_Z 64
_cell_length_a 20.430661
_cell_length_b 7.662409
_cell_length_c 23.330415
_cell_angle_alpha 90.000000
_cell_angle_beta 124.310675
_cell_angle_gamma 90.000000
_cell_volume 3016.801460
_symmetry_space_group_name_H-M "C 2/M"
_symmetry_group_IT_number 12
_symmetry_cell_setting 'monoclinic'
loop_
_space_group_symop_operation_xyz
x,y,z
-x,y,-z
-x,-y,-z
x,-y,z
1/2+x,1/2+y,z
1/2-x,1/2+y,-z
1/2-x,1/2-y,-z
1/2+x,1/2-y,z
loop_
_atom_site_type_symbol
_atom_site_label
_atom_site_fract_x
_atom_site_fract_y
_atom_site_fract_z
Si Si1 0.135502 0.799560 0.891505
Si Si2 0.112298 0.298853 0.405540
Si Si3 0.741848 0.205320 0.377591
Si Si4 0.987707 0.799275 0.254010
Si Si5 0.877940 0.200762 0.776601
Si Si6 0.568994 0.290684 0.075639
Si Si7 0.314532 0.291195 0.966293
Si Si8 0.584702 0.701425 0.520527
O O1 0.089445 0.720339 0.814950
O O2 0.229047 0.793890 0.927247
O O3 0.106543 0.000000 0.879640
O O4 0.129739 0.728051 0.953480
O O5 0.131044 0.500000 0.428159
O O6 0.183911 0.225776 0.400352
O O7 0.094246 0.206436 0.456370
O O8 0.033005 0.292341 0.327896
O O9 0.695052 0.220667 0.294660
O O10 0.830590 0.280182 0.417769
O O11 0.749960 0.000000 0.394598
O O12 0.050725 0.798769 0.233367
O O13 0.972938 0.000000 0.265143
O O14 0.911630 0.279832 0.851953
O O15 0.855845 0.000000 0.778137
O O16 0.551664 0.500000 0.074255
O O17 0.646418 0.267273 0.075333
O O18 0.500000 0.221478 0.000000
O O19 0.304614 0.500000 0.970363
O O20 0.500000 0.777337 0.500000
O O21 0.583740 0.500000 0.540376
#
# Coordination Sequence:
#
# PCOD9194124 Si02
#       8
#     8   8   8   8   8   8   8   8
#     4   9  17  30  47  67  93 129 169 206 247 298
#     4  10  20  34  55  82 107 131 168 214 261 303
#     4   9  19  36  56  78 105 138 172 212 258 306
#     4   9  17  31  51  73  98 130 170 208 244 297
#     4   9  17  30  51  77 100 128 169 212 252 297
#     4   9  16  28  48  73  99 128 166 211 255 296
#     4   9  17  29  46  68  95 126 164 210 256 300
#     4  10  21  38  58  79 106 140 175 206 249 311
#
# _framework density 21.214521999999999
#
# number of rings (size 3 to 8) (size 9 to 14) (size 15 to 20)
#    0.000    2.750    0.000    1.500    0.000    4.750 
#    2.250    0.625    0.000    3.000    0.000    0.000 
#    0.000    0.000    0.000    0.000    0.000    0.000 
#
# Total GULP energy -178256.330242 kJ/mol
# GULP energy per Si atom -5570.510320 kJ/mol
# Density = 2.116624 g / cm^3
# Si number density = 21.214522 Si / 1000 Ang^3
#
#
#
# Elastic Constant Matrix: (Units=GPa)
#
#
# Indices 1 2 3 4 5 6 
#
# 1 65.7238 5.8381 53.9988 0.0000 12.8400 0.0000
# 2 5.8381 33.1464 -3.8393 0.0000 -2.0944 0.0000
# 3 53.9988 -3.8393 138.3563 0.0000 13.0520 0.0000
# 4 0.0000 0.0000 0.0000 12.7575 0.0000 2.3619
# 5 12.8400 -2.0944 13.0520 0.0000 30.7908 0.0000
# 6 0.0000 0.0000 0.0000 2.3619 0.0000 8.7034
#
#
#
# Elastic Compliance Matrix: (Units=1/GPa)
#
#
# Indices 1 2 3 4 5 6 
#
# 1 0.024524 -0.005800 -0.009094 0.000000 -0.006766 0.000000
# 2 -0.005800 0.031732 0.002825 0.000000 0.003379 0.000000
# 3 -0.009094 0.002825 0.010916 0.000000 -0.000643 0.000000
# 4 0.000000 0.000000 0.000000 0.082532 0.000000 -0.022398
# 5 -0.006766 0.003379 -0.000643 0.000000 0.035801 0.000000
# 6 0.000000 0.000000 0.000000 -0.022398 0.000000 0.120976
#
#
# Mechanical properties :
#
#
# Convention : Reuss Voigt Hill
#
# Bulk Modulus (GPa) = 23.23747 38.80241 31.01994
# Shear Modulus (GPa) = 14.49431 22.53226 18.51329
#
# Velocity S-wave (km/s) = 2.61669 3.26255 2.95730
# Velocity P-wave (km/s) = 4.48406 5.70285 5.12978
#
# Compressibility (1/GPa) = 0.04303394
#
# Stress axis : x y z
#
# Youngs Moduli (GPa) = 40.77637 31.51436 91.60811
#
# Poissons Ratio (x) = 0.18279 0.83309
# Poissons Ratio (y) = 0.23651 -0.25884
# Poissons Ratio (z) = 0.37082 -0.08904
#
# Static dielectric constant tensor:
#      x y z
#    x 1.764390 0.000000 0.024430 
#    y 0.000000 1.874770 0.000000 
#    z 0.024430 0.000000 1.810190 
# 
# From -- ./inp_files/321020.got.cif
#   From: 2010.05.17/outbox.cif.g08.bks.cpg/sg12_161_cif.got.tgz:321020.got - 2010.06.03 13:09:07.
