data_PCOD9194719
_publ_section_title
;
Structure prediction by ZEFSAII (Michael W. Deem and Ramdas Pophale) SiO2 
 PCOD9194719
Probable space group: C 2/M
;
_chemical_formula_sum "Si O2"
_cell_formula_units_Z 58
_cell_length_a 22.968546
_cell_length_b 8.232207
_cell_length_c 15.995312
_cell_angle_alpha 90.000000
_cell_angle_beta 79.067708
_cell_angle_gamma 90.000000
_cell_volume 2969.535508
_symmetry_space_group_name_H-M "C 2/M"
_symmetry_group_IT_number 12
_symmetry_cell_setting 'monoclinic'
loop_
_space_group_symop_operation_xyz
x,y,z
-x,y,-z
-x,-y,-z
x,-y,z
1/2+x,1/2+y,z
1/2-x,1/2+y,-z
1/2-x,1/2-y,-z
1/2+x,1/2-y,z
loop_
_atom_site_type_symbol
_atom_site_label
_atom_site_fract_x
_atom_site_fract_y
_atom_site_fract_z
Si Si1 0.101478 0.193258 0.704489
Si Si2 0.010582 0.312880 0.609945
Si Si3 0.630666 0.184854 0.367430
Si Si4 0.817809 0.806044 0.474137
Si Si5 0.299754 0.688097 0.804608
Si Si6 0.500000 0.500000 0.500000
Si Si7 0.164282 0.303015 0.852278
Si Si8 0.181951 0.307527 0.027744
O O1 0.042765 0.284905 0.689146
O O2 0.151725 0.241231 0.621888
O O3 0.122999 0.238062 0.790636
O O4 0.093215 0.000000 0.702360
O O5 0.026092 0.500000 0.577117
O O6 0.060660 0.303485 0.369522
O O7 0.027026 0.149274 0.552772
O O8 0.646722 0.233758 0.456998
O O9 0.666371 0.289712 0.290990
O O10 0.649590 0.000000 0.348869
O O11 0.750000 0.750000 0.500000
O O12 0.819528 0.000000 0.479874
O O13 0.292870 0.500000 0.826001
O O14 0.232433 0.753840 0.817290
O O15 0.335395 0.758850 0.873923
O O16 0.162826 0.500000 0.848442
O O17 0.149802 0.250235 0.951633
O O18 0.181267 0.500000 0.024540
O O19 0.250000 0.250000 0.000000
#
# Coordination Sequence:
#
# PCOD9194719 Si02
#       8
#     8   8   8   8   8   2   8   8
#     4  11  23  38  58  83 113 153 197 243 291 347
#     4  11  25  41  62  88 114 152 197 251 300 347
#     4  11  24  39  58  83 113 151 193 237 292 347
#     4  11  24  38  55  80 114 151 189 232 283 343
#     4  10  20  34  57  85 117 154 191 239 296 350
#     4  12  22  40  64  82 112 138 202 244 296 332
#     4   9  19  34  54  83 117 154 191 236 294 352
#     4   9  17  31  52  81 116 151 193 238 287 347
#
# _framework density 19.531673999999999
#
# number of rings (size 3 to 8) (size 9 to 14) (size 15 to 20)
#    0.000    1.655    0.690    4.759    3.862    8.828 
#    0.000    0.000    0.000    0.828    0.000    5.793 
#    0.000    0.000    0.000    0.000    0.000    0.000 
#
# Total GULP energy -161526.246241 kJ/mol
# GULP energy per Si atom -5569.870560 kJ/mol
# Density = 1.948722 g / cm^3
# Si number density = 19.531674 Si / 1000 Ang^3
#
#
#
# Elastic Constant Matrix: (Units=GPa)
#
#
# Indices 1 2 3 4 5 6 
#
# 1 76.9378 22.0387 23.7635 0.0000 35.4087 0.0000
# 2 22.0387 76.8797 17.9083 0.0000 13.9340 0.0000
# 3 23.7635 17.9083 85.9141 0.0000 47.8979 0.0000
# 4 0.0000 0.0000 0.0000 33.3748 0.0000 8.3344
# 5 35.4087 13.9340 47.8979 0.0000 40.4220 0.0000
# 6 0.0000 0.0000 0.0000 8.3344 0.0000 23.0936
#
#
#
# Elastic Compliance Matrix: (Units=1/GPa)
#
#
# Indices 1 2 3 4 5 6 
#
# 1 0.030325 -0.004508 0.019138 0.000000 -0.047687 0.000000
# 2 -0.004508 0.014557 -0.003511 0.000000 0.003091 0.000000
# 3 0.019138 -0.003511 0.046406 0.000000 -0.070544 0.000000
# 4 0.000000 0.000000 0.000000 0.032931 0.000000 -0.011885
# 5 -0.047687 0.003091 -0.070544 0.000000 0.149037 0.000000
# 6 0.000000 0.000000 0.000000 -0.011885 0.000000 0.047591
#
#
# Mechanical properties :
#
#
# Convention : Reuss Voigt Hill
#
# Bulk Modulus (GPa) = 8.80844 40.79472 24.80158
# Shear Modulus (GPa) = 14.86105 31.11280 22.98692
#
# Velocity S-wave (km/s) = 2.76138 3.99550 3.43433
# Velocity P-wave (km/s) = 3.83230 6.49747 5.33403
#
# Compressibility (1/GPa) = 0.11352751
#
# Stress axis : x y z
#
# Youngs Moduli (GPa) = 32.97654 68.69456 21.54873
#
# Poissons Ratio (x) = 0.30967 -0.41240
# Poissons Ratio (y) = 0.14866 0.07565
# Poissons Ratio (z) = -0.63111 0.24115
#
# Static dielectric constant tensor:
#      x y z
#    x 1.676960 0.000000 0.031360 
#    y 0.000000 1.698730 0.000000 
#    z 0.031360 0.000000 1.693120 
# 
# From -- ./inp_files/243126.got.cif
#   From: 2010.05.17/outbox.cif.g08.bks.cpg/sg12_122_cif.got.tgz:243126.got - 2010.06.03 13:09:07.
