data_PCOD9194940
_publ_section_title
;
Structure prediction by ZEFSAII (Michael W. Deem and Ramdas Pophale) SiO2 
 PCOD9194940
Probable space group: C 2/M
;
_chemical_formula_sum "Si O2"
_cell_formula_units_Z 48
_cell_length_a 20.866527
_cell_length_b 22.801695
_cell_length_c 14.760179
_cell_angle_alpha 90.000000
_cell_angle_beta 161.333212
_cell_angle_gamma 90.000000
_cell_volume 2247.737500
_symmetry_space_group_name_H-M "C 2/M"
_symmetry_group_IT_number 12
_symmetry_cell_setting 'monoclinic'
loop_
_space_group_symop_operation_xyz
x,y,z
-x,y,-z
-x,-y,-z
x,-y,z
1/2+x,1/2+y,z
1/2-x,1/2+y,-z
1/2-x,1/2-y,-z
1/2+x,1/2-y,z
loop_
_atom_site_type_symbol
_atom_site_label
_atom_site_fract_x
_atom_site_fract_y
_atom_site_fract_z
Si Si1 0.534793 0.766184 0.818017
Si Si2 0.136462 0.677407 0.766320
Si Si3 0.768228 0.066312 0.311677
Si Si4 0.944342 0.564824 0.716789
Si Si5 0.214059 0.338359 0.393053
Si Si6 0.202961 0.064903 0.948031
O O1 0.533962 0.805267 0.725190
O O2 0.377052 0.712701 0.601571
O O3 0.483121 0.802748 0.838696
O O4 0.750205 0.736647 0.110460
O O5 0.292766 0.624033 0.988765
O O6 0.000000 0.659928 0.500000
O O7 0.718208 0.118711 0.313173
O O8 0.733848 0.000000 0.303224
O O9 0.620157 0.070398 0.028626
O O10 0.009512 0.069165 0.622773
O O11 0.855173 0.500000 0.603425
O O12 0.080752 0.567288 0.810348
O O13 0.780021 0.614355 0.516223
O O14 0.186344 0.000000 0.969067
#
# Coordination Sequence:
#
# PCOD9194940 Si02
#       6
#     8   8   8   8   8   8
#     4  10  24  42  58  88 116 152 194 234 290 338
#     4  11  23  44  64  82 111 149 202 246 278 335
#     4  10  20  34  58  91 122 153 189 234 290 347
#     4  10  20  34  58  91 122 153 189 234 290 347
#     4  11  20  37  59  82 127 152 185 230 283 359
#     4  10  20  39  61  83 117 154 197 246 284 328
#
# _framework density 21.354807000000001
#
# number of rings (size 3 to 8) (size 9 to 14) (size 15 to 20)
#    0.000    1.667    3.333    1.500    0.000    6.333 
#    0.000    2.500    0.000    0.000    0.000    4.667 
#    0.000    0.000    0.000    0.000    0.000    0.000 
#
# Total GULP energy -133627.552883 kJ/mol
# GULP energy per Si atom -5567.814703 kJ/mol
# Density = 2.130620 g / cm^3
# Si number density = 21.354807 Si / 1000 Ang^3
#
#
#
# Elastic Constant Matrix: (Units=GPa)
#
#
# Indices 1 2 3 4 5 6 
#
# 1 35.5633 24.1023 3.9415 0.0000 11.3778 0.0000
# 2 24.1023 152.3126 19.4455 0.0000 2.2001 0.0000
# 3 3.9415 19.4455 42.9900 0.0001 -0.5316 0.0001
# 4 0.0000 0.0000 0.0001 9.7101 0.0000 11.6728
# 5 11.3778 2.2001 -0.5316 0.0000 25.0345 0.0000
# 6 0.0000 0.0000 0.0001 11.6728 0.0000 31.5720
#
#
#
# Elastic Compliance Matrix: (Units=1/GPa)
#
#
# Indices 1 2 3 4 5 6 
#
# 1 0.037248 -0.005513 -0.001125 0.000000 -0.016468 0.000000
# 2 -0.005513 0.007795 -0.002999 0.000000 0.001757 0.000000
# 3 -0.001125 -0.002999 0.024737 0.000000 0.001300 0.000000
# 4 0.000000 0.000000 0.000000 0.185376 0.000000 -0.068538
# 5 -0.016468 0.001757 0.001300 0.000000 0.047303 0.000000
# 6 0.000000 0.000000 0.000000 -0.068538 0.000000 0.057013
#
#
# Mechanical properties :
#
#
# Convention : Reuss Voigt Hill
#
# Bulk Modulus (GPa) = 19.79923 36.20497 28.00210
# Shear Modulus (GPa) = 12.63960 25.48843 19.06401
#
# Velocity S-wave (km/s) = 2.43551 3.45855 2.99110
# Velocity P-wave (km/s) = 4.14736 5.73930 5.00701
#
# Compressibility (1/GPa) = 0.05050700
#
# Stress axis : x y z
#
# Youngs Moduli (GPa) = 26.84680 128.28284 40.42544
#
# Poissons Ratio (x) = 0.70719 0.04549
# Poissons Ratio (y) = 0.14800 0.12123
# Poissons Ratio (z) = 0.03021 0.38470
#
# Static dielectric constant tensor:
#      x y z
#    x 1.832460 0.000000 0.039870 
#    y 0.000000 1.830350 0.000000 
#    z 0.039870 0.000000 1.765810 
# 
# From -- ./inp_files/90310.got.cif
#   From: 2010.05.17/outbox.cif.g08.bks.cpg/sg12_46_cif.got.tgz:90310.got - 2010.06.03 13:09:07.
