data_PCOD9194416
_publ_section_title
;
Structure prediction by ZEFSAII (Michael W. Deem and Ramdas Pophale) SiO2 
 PCOD9194416
Probable space group: C 2/M
;
_chemical_formula_sum "Si O2"
_cell_formula_units_Z 56
_cell_length_a 12.160622
_cell_length_b 16.148492
_cell_length_c 14.431431
_cell_angle_alpha 90.000000
_cell_angle_beta 88.300713
_cell_angle_gamma 90.000000
_cell_volume 2832.736164
_symmetry_space_group_name_H-M "C 2/M"
_symmetry_group_IT_number 12
_symmetry_cell_setting 'monoclinic'
loop_
_space_group_symop_operation_xyz
x,y,z
-x,y,-z
-x,-y,-z
x,-y,z
1/2+x,1/2+y,z
1/2-x,1/2+y,-z
1/2-x,1/2-y,-z
1/2+x,1/2-y,z
loop_
_atom_site_type_symbol
_atom_site_label
_atom_site_fract_x
_atom_site_fract_y
_atom_site_fract_z
Si Si1 0.785263 0.098926 0.383482
Si Si2 0.048826 0.901593 0.098723
Si Si3 0.542295 0.092527 0.893848
Si Si4 0.122821 0.664354 0.238903
Si Si5 0.507960 0.682489 0.714446
Si Si6 0.613704 0.595117 0.436828
Si Si7 0.244555 0.289361 0.897251
O O1 0.680678 0.120601 0.324049
O O2 0.881946 0.154845 0.338677
O O3 0.789636 0.117661 0.493544
O O4 0.810730 0.000000 0.374627
O O5 0.170345 0.865491 0.102678
O O6 0.986242 0.858131 0.184512
O O7 0.044015 0.000000 0.108872
O O8 0.000000 0.878704 0.000000
O O9 0.436157 0.103559 0.831355
O O10 0.627925 0.168043 0.878891
O O11 0.590147 0.000000 0.877906
O O12 0.500000 0.097653 0.000000
O O13 0.208261 0.722855 0.178461
O O14 0.024146 0.722723 0.276793
O O15 0.407526 0.645794 0.655153
O O16 0.500000 0.600374 0.500000
O O17 0.627644 0.500000 0.409346
O O18 0.250000 0.250000 0.000000
#
# Coordination Sequence:
#
# PCOD9194416 Si02
#       7
#     8   8   8   8   8   8   8
#     4  10  20  36  58  84 110 142 185 231 275 324
#     4  10  22  35  53  81 109 140 180 222 268 323
#     4  11  23  39  56  75 105 149 190 222 270 329
#     4  11  23  35  56  82 111 143 181 232 278 319
#     4  10  20  34  56  81 113 145 179 226 280 330
#     4   8  15  31  55  81 110 143 179 224 277 331
#     4  11  23  37  55  74 110 143 182 225 267 321
#
# _framework density 19.768872000000002
#
# number of rings (size 3 to 8) (size 9 to 14) (size 15 to 20)
#    0.000    1.857    1.429    3.857    6.000    0.571 
#    0.000    0.000    0.000    0.000    0.000    0.000 
#    0.000   28.571    0.000    0.000    0.000    0.000 
#
# Total GULP energy -156187.857041 kJ/mol
# GULP energy per Si atom -5578.137751 kJ/mol
# Density = 1.972388 g / cm^3
# Si number density = 19.768872 Si / 1000 Ang^3
#
#
#
# Elastic Constant Matrix: (Units=GPa)
#
#
# Indices 1 2 3 4 5 6 
#
# 1 50.0227 15.7970 7.2033 0.0000 22.4316 0.0000
# 2 15.7970 60.5411 17.7164 0.0000 8.7560 0.0000
# 3 7.2033 17.7164 69.2069 0.0000 36.4321 0.0000
# 4 0.0000 0.0000 0.0000 24.4899 0.0000 11.5716
# 5 22.4316 8.7560 36.4321 0.0000 38.7032 0.0000
# 6 0.0000 0.0000 0.0000 11.5716 0.0000 37.5958
#
#
#
# Elastic Compliance Matrix: (Units=1/GPa)
#
#
# Indices 1 2 3 4 5 6 
#
# 1 0.036070 -0.009340 0.016908 0.000000 -0.034708 0.000000
# 2 -0.009340 0.020279 -0.009225 0.000000 0.009509 0.000000
# 3 0.016908 -0.009225 0.037884 0.000000 -0.043373 0.000000
# 4 0.000000 0.000000 0.000000 0.047782 0.000000 -0.014707
# 5 -0.034708 0.009509 -0.043373 0.000000 0.084630 0.000000
# 6 0.000000 0.000000 0.000000 -0.014707 0.000000 0.031125
#
#
# Mechanical properties :
#
#
# Convention : Reuss Voigt Hill
#
# Bulk Modulus (GPa) = 10.99883 29.02266 20.01075
# Shear Modulus (GPa) = 17.15913 29.42802 23.29358
#
# Velocity S-wave (km/s) = 2.94936 3.86243 3.43636
# Velocity P-wave (km/s) = 4.14416 5.88252 5.08813
#
# Compressibility (1/GPa) = 0.09091875
#
# Stress axis : x y z
#
# Youngs Moduli (GPa) = 27.72412 49.31227 26.39663
#
# Poissons Ratio (x) = 0.46056 -0.44630
# Poissons Ratio (y) = 0.25893 0.24350
# Poissons Ratio (z) = -0.46875 0.45489
#
# Static dielectric constant tensor:
#      x y z
#    x 1.727610 0.000000 0.012780 
#    y 0.000000 1.683290 0.000000 
#    z 0.012780 0.000000 1.711500 
# 
# From -- ./inp_files/205026.got.cif
#   From: 2010.05.17/outbox.cif.g08.bks.cpg/sg12_103_cif.got.tgz:205026.got - 2010.06.03 13:09:07.
