data_PCOD9194263
_publ_section_title
;
Structure prediction by ZEFSAII (Michael W. Deem and Ramdas Pophale) SiO2 
 PCOD9194263
Probable space group: C 2/M
;
_chemical_formula_sum "Si O2"
_cell_formula_units_Z 48
_cell_length_a 18.347603
_cell_length_b 8.986250
_cell_length_c 31.788612
_cell_angle_alpha 90.000000
_cell_angle_beta 150.213074
_cell_angle_gamma 90.000000
_cell_volume 2603.694036
_symmetry_space_group_name_H-M "C 2/M"
_symmetry_group_IT_number 12
_symmetry_cell_setting 'monoclinic'
loop_
_space_group_symop_operation_xyz
x,y,z
-x,y,-z
-x,-y,-z
x,-y,z
1/2+x,1/2+y,z
1/2-x,1/2+y,-z
1/2-x,1/2-y,-z
1/2+x,1/2-y,z
loop_
_atom_site_type_symbol
_atom_site_label
_atom_site_fract_x
_atom_site_fract_y
_atom_site_fract_z
Si Si1 0.335183 0.323249 0.336332
Si Si2 0.801876 0.820683 0.815160
Si Si3 0.685402 0.323165 0.509534
Si Si4 0.840330 0.823965 0.173771
Si Si5 0.593133 0.671078 0.002989
Si Si6 0.184757 0.822339 0.341593
O O1 0.307487 0.500000 0.322041
O O2 0.262309 0.247719 0.259245
O O3 0.510267 0.300784 0.422871
O O4 0.269349 0.251093 0.345226
O O5 0.710973 0.759707 0.809566
O O6 0.973137 0.779653 0.908695
O O7 0.794061 0.000000 0.810909
O O8 0.714233 0.500000 0.524181
O O9 0.750000 0.250000 0.500000
O O10 0.757526 0.247752 0.586261
O O11 0.010636 0.794488 0.250498
O O12 0.820401 0.000000 0.170231
O O13 0.734867 0.769044 0.083393
O O14 0.635967 0.500000 0.016414
O O15 0.500000 0.672304 0.000000
O O16 0.207881 0.000000 0.353497
#
# Coordination Sequence:
#
# PCOD9194263 Si02
#       6
#     8   8   8   8   8   8
#     4  11  24  40  58  83 114 147 186 230 276 330
#     4  10  20  35  57  84 113 147 188 231 277 331
#     4  11  24  41  62  88 114 143 184 230 275 328
#     4  10  20  34  55  84 114 145 187 234 276 326
#     4   8  16  31  52  80 111 144 185 231 277 326
#     4  11  24  40  58  83 115 150 187 227 276 333
#
# _framework density 18.435345000000002
#
# number of rings (size 3 to 8) (size 9 to 14) (size 15 to 20)
#    0.000    1.833    0.000    5.000    0.000   15.000 
#    0.000    0.833    0.000    0.000    0.000    0.000 
#    0.000    0.000    0.000    0.000    0.000    0.000 
#
# Total GULP energy -134075.797964 kJ/mol
# GULP energy per Si atom -5586.491582 kJ/mol
# Density = 1.839339 g / cm^3
# Si number density = 18.435345 Si / 1000 Ang^3
#
#
#
# Elastic Constant Matrix: (Units=GPa)
#
#
# Indices 1 2 3 4 5 6 
#
# 1 104.7155 77.9297 51.9589 0.0000 25.3236 0.0000
# 2 77.9297 115.2515 100.1634 0.0000 15.8765 -0.0001
# 3 51.9589 100.1634 121.7899 0.0000 35.1074 0.0000
# 4 0.0000 0.0000 0.0000 38.8356 -0.0001 -1.3539
# 5 25.3236 15.8765 35.1074 -0.0001 -17.0069 0.0000
# 6 0.0000 -0.0001 0.0000 -1.3539 0.0000 29.8775
#
#
#
# Elastic Compliance Matrix: (Units=1/GPa)
#
#
# Indices 1 2 3 4 5 6 
#
# 1 0.015846 -0.012255 -0.000116 0.000000 0.011915 0.000000
# 2 -0.012255 0.035053 -0.017412 0.000000 -0.021468 0.000000
# 3 -0.000116 -0.017412 0.017125 0.000000 0.018924 0.000000
# 4 0.000000 0.000000 0.000000 0.025790 0.000000 0.001169
# 5 0.011915 -0.021468 0.018924 0.000000 -0.022034 0.000000
# 6 0.000000 0.000000 0.000000 0.001169 0.000000 0.033523
#
#
# Mechanical properties :
#
#
# Convention : Reuss Voigt Hill
#
# Bulk Modulus (GPa) = 118.22684 89.09567 103.66125
# Shear Modulus (GPa) = 29.81720 17.78824 23.80272
#
# Velocity S-wave (km/s) = 4.02605 3.10965 3.59715
# Velocity P-wave (km/s) = 9.26724 7.83115 8.57930
#
# Compressibility (1/GPa) = 0.00845832
#
# Stress axis : x y z
#
# Youngs Moduli (GPa) = 63.10663 28.52842 58.39422
#
# Poissons Ratio (x) = 0.34962 0.00678
# Poissons Ratio (y) = 0.77339 1.01673
# Poissons Ratio (z) = 0.00732 0.49672
#
# Static dielectric constant tensor:
#      x y z
#    x 1.598180 0.000000 0.003550 
#    y 0.000000 1.615640 0.000000 
#    z 0.003550 0.000000 1.638160 
# 
# From -- ./inp_files/274000.got.cif
#   From: 2010.05.17/outbox.cif.g08.bks.cpg/sg12_137_cif.got.tgz:274000.got - 2010.06.03 13:09:07.
