data_PCOD9194214
_publ_section_title
;
Structure prediction by ZEFSAII (Michael W. Deem and Ramdas Pophale) SiO2 
 PCOD9194214
Probable space group: C 2/M
;
_chemical_formula_sum "Si O2"
_cell_formula_units_Z 58
_cell_length_a 27.561495
_cell_length_b 10.318335
_cell_length_c 12.346672
_cell_angle_alpha 90.000000
_cell_angle_beta 78.494611
_cell_angle_gamma 90.000000
_cell_volume 3440.699147
_symmetry_space_group_name_H-M "C 2/M"
_symmetry_group_IT_number 12
_symmetry_cell_setting 'monoclinic'
loop_
_space_group_symop_operation_xyz
x,y,z
-x,y,-z
-x,-y,-z
x,-y,z
1/2+x,1/2+y,z
1/2-x,1/2+y,-z
1/2-x,1/2-y,-z
1/2+x,1/2-y,z
loop_
_atom_site_type_symbol
_atom_site_label
_atom_site_fract_x
_atom_site_fract_y
_atom_site_fract_z
Si Si1 0.554473 0.850320 0.528070
Si Si2 0.878901 0.649912 0.712407
Si Si3 0.551442 0.649361 0.721312
Si Si4 0.726337 0.851467 0.160882
Si Si5 0.419208 0.230028 0.067985
Si Si6 0.000000 0.500000 0.000000
Si Si7 0.935780 0.145681 0.834060
Si Si8 0.806878 0.648060 0.075020
O O1 0.500000 0.830269 0.500000
O O2 0.594561 0.835942 0.414821
O O3 0.562548 0.747758 0.619149
O O4 0.555785 0.000000 0.567165
O O5 0.886873 0.500000 0.744939
O O6 0.820108 0.672019 0.739571
O O7 0.904546 0.747319 0.784191
O O8 0.563821 0.500000 0.690472
O O9 0.577001 0.697048 0.819789
O O10 0.492475 0.655926 0.770651
O O11 0.770406 0.749475 0.148717
O O12 0.743594 0.000000 0.166265
O O13 0.703684 0.840305 0.049295
O O14 0.363796 0.178966 0.072947
O O15 0.458487 0.113437 0.045760
O O16 0.432354 0.324858 0.962635
O O17 0.917911 0.000000 0.819162
O O18 0.795617 0.500000 0.110807
#
# Coordination Sequence:
#
# PCOD9194214 Si02
#       8
#     8   8   8   8   8   2   8   8
#     4  10  21  36  58  83 109 147 193 239 283 335
#     4  10  20  36  58  83 112 147 190 236 279 332
#     4  11  24  38  53  78 118 155 190 231 280 347
#     4   9  19  35  55  80 113 149 184 232 285 338
#     4  12  23  37  56  84 118 154 190 230 281 345
#     4  12  24  32  58  88 110 160 190 228 282 336
#     4  11  22  34  53  80 116 154 184 224 280 342
#     4  10  20  34  55  83 113 145 188 232 280 337
#
# _framework density 16.857039
#
# number of rings (size 3 to 8) (size 9 to 14) (size 15 to 20)
#    0.000    1.517    4.828    0.414    1.931    3.586 
#    0.000    0.000    0.000    0.828    0.000    0.000 
#    0.000    0.000    0.000    0.000    0.000    0.000 
#
# Total GULP energy -161609.358602 kJ/mol
# GULP energy per Si atom -5572.736504 kJ/mol
# Density = 1.681867 g / cm^3
# Si number density = 16.857039 Si / 1000 Ang^3
#
#
#
# Elastic Constant Matrix: (Units=GPa)
#
#
# Indices 1 2 3 4 5 6 
#
# 1 80.0836 55.6470 25.1425 0.0000 -19.4565 0.0000
# 2 55.6470 125.5165 62.1813 0.0000 -6.8362 0.0000
# 3 25.1425 62.1813 78.5801 0.0000 -10.2444 0.0000
# 4 0.0000 0.0000 0.0000 11.0916 0.0000 -13.5487
# 5 -19.4565 -6.8362 -10.2444 0.0000 24.2704 0.0000
# 6 0.0000 0.0000 0.0000 -13.5487 0.0000 -10.8152
#
#
#
# Elastic Compliance Matrix: (Units=1/GPa)
#
#
# Indices 1 2 3 4 5 6 
#
# 1 0.023250 -0.011176 0.003623 0.000000 0.017020 0.000000
# 2 -0.011176 0.018488 -0.012215 0.000000 -0.008908 0.000000
# 3 0.003623 -0.012215 0.022395 0.000000 0.008917 0.000000
# 4 0.000000 0.000000 0.000000 0.035632 0.000000 -0.044638
# 5 0.017020 -0.008908 0.008917 0.000000 0.056102 0.000000
# 6 0.000000 0.000000 0.000000 -0.044638 0.000000 -0.036543
#
#
# Mechanical properties :
#
#
# Convention : Reuss Voigt Hill
#
# Bulk Modulus (GPa) = 40.65404 63.34685 52.00044
# Shear Modulus (GPa) = 29.92945 14.32331 22.12638
#
# Velocity S-wave (km/s) = 4.21822 2.91811 3.62690
# Velocity P-wave (km/s) = 6.92054 7.00102 6.96090
#
# Compressibility (1/GPa) = 0.02459780
#
# Stress axis : x y z
#
# Youngs Moduli (GPa) = 43.01048 54.08847 44.65240
#
# Poissons Ratio (x) = 0.60448 -0.16179
# Poissons Ratio (y) = 0.48068 0.54545
# Poissons Ratio (z) = -0.15584 0.66071
#
# Static dielectric constant tensor:
#      x y z
#    x 1.554260 0.000000 -0.006480 
#    y 0.000000 1.574420 0.000000 
#    z -0.006480 0.000000 1.556490 
# 
# From -- ./inp_files/180932.got.cif
#   From: 2010.05.17/outbox.cif.g08.bks.cpg/sg12_91_cif.got.tgz:180932.got - 2010.06.03 13:09:07.
