data_PCOD9194050
_publ_section_title
;
Structure prediction by ZEFSAII (Michael W. Deem and Ramdas Pophale) SiO2 
 PCOD9194050
Probable space group: C 2/M
;
_chemical_formula_sum "Si O2"
_cell_formula_units_Z 48
_cell_length_a 18.893610
_cell_length_b 7.711553
_cell_length_c 28.054851
_cell_angle_alpha 90.000000
_cell_angle_beta 145.853087
_cell_angle_gamma 90.000000
_cell_volume 2294.419420
_symmetry_space_group_name_H-M "C 2/M"
_symmetry_group_IT_number 12
_symmetry_cell_setting 'monoclinic'
loop_
_space_group_symop_operation_xyz
x,y,z
-x,y,-z
-x,-y,-z
x,-y,z
1/2+x,1/2+y,z
1/2-x,1/2+y,-z
1/2-x,1/2-y,-z
1/2+x,1/2-y,z
loop_
_atom_site_type_symbol
_atom_site_label
_atom_site_fract_x
_atom_site_fract_y
_atom_site_fract_z
Si Si1 0.269319 0.791471 0.750704
Si Si2 0.944782 0.709660 0.091740
Si Si3 0.144029 0.709138 0.580025
Si Si4 0.405117 0.297017 0.262147
Si Si5 0.688931 0.708840 0.415207
Si Si6 0.207031 0.294810 0.900050
O O1 0.412864 0.726664 0.834675
O O2 0.212752 0.753476 0.667485
O O3 0.176933 0.721739 0.740326
O O4 0.276232 0.000000 0.760058
O O5 0.945965 0.500000 0.094129
O O6 0.882448 0.771328 0.106776
O O7 0.849181 0.761210 0.996618
O O8 0.138568 0.500000 0.573433
O O9 0.224695 0.774807 0.580000
O O10 0.000000 0.773844 0.500000
O O11 0.423134 0.500000 0.283602
O O12 0.545566 0.222923 0.334116
O O13 0.330091 0.283910 0.170981
O O14 0.684305 0.500000 0.407373
O O15 0.750000 0.750000 0.500000
O O16 0.187787 0.500000 0.885313
#
# Coordination Sequence:
#
# PCOD9194050 Si02
#       6
#     8   8   8   8   8   8
#     4  10  21  36  55  78 103 137 178 214 254 306
#     4   9  19  36  55  76 104 136 172 215 260 306
#     4  10  21  36  54  78 108 139 171 212 262 308
#     4  10  21  36  53  76 107 139 172 213 260 307
#     4  10  21  36  55  79 106 138 174 212 258 308
#     4  10  20  34  55  80 103 134 175 214 257 309
#
# _framework density 20.920324999999998
#
# number of rings (size 3 to 8) (size 9 to 14) (size 15 to 20)
#    0.000    2.167    0.000    2.500    0.000    4.333 
#    0.000    3.333    0.000    0.000    0.000    0.000 
#    0.000    0.000    0.000    0.000    0.000    0.000 
#
# Total GULP energy -134086.525741 kJ/mol
# GULP energy per Si atom -5586.938573 kJ/mol
# Density = 2.087271 g / cm^3
# Si number density = 20.920325 Si / 1000 Ang^3
#
#
#
# Elastic Constant Matrix: (Units=GPa)
#
#
# Indices 1 2 3 4 5 6 
#
# 1 190.2221 -0.9912 121.2909 0.0000 13.2769 0.0001
# 2 -0.9912 31.1999 -9.8582 0.0000 14.0464 0.0000
# 3 121.2909 -9.8582 172.4658 0.0000 23.6563 0.0000
# 4 0.0000 0.0000 0.0000 21.6614 0.0000 -15.0803
# 5 13.2769 14.0464 23.6563 0.0000 40.2336 0.0000
# 6 0.0001 0.0000 0.0000 -15.0803 0.0000 9.8694
#
#
#
# Elastic Compliance Matrix: (Units=1/GPa)
#
#
# Indices 1 2 3 4 5 6 
#
# 1 0.009766 -0.002959 -0.007328 0.000001 0.002119 0.000002
# 2 -0.002959 0.042175 0.006937 -0.000001 -0.017826 -0.000002
# 3 -0.007328 0.006937 0.012345 -0.000001 -0.007262 -0.000002
# 4 0.000001 -0.000001 -0.000001 -0.724169 0.000001 -1.106513
# 5 0.002119 -0.017826 -0.007262 0.000001 0.034649 0.000001
# 6 0.000002 -0.000002 -0.000002 -1.106513 0.000001 -1.589402
#
#
# Mechanical properties :
#
#
# Convention : Reuss Voigt Hill
#
# Bulk Modulus (GPa) = 17.36571 68.30787 42.83679
# Shear Modulus (GPa) = -2.28442 33.24931 15.48244
#
# Velocity S-wave (km/s) = -1.04610 3.99097 2.72337
# Velocity P-wave (km/s) = 2.61912 7.34571 5.51449
#
# Compressibility (1/GPa) = 0.05758475
#
# Stress axis : x y z
#
# Youngs Moduli (GPa) = 102.39173 23.71088 81.00670
#
# Poissons Ratio (x) = 0.07017 0.59364
# Poissons Ratio (y) = 0.30300 -0.56195
# Poissons Ratio (z) = 0.75036 -0.16448
#
# Static dielectric constant tensor:
#      x y z
#    x 1.738570 0.000000 0.043430 
#    y 0.000000 1.767210 0.000000 
#    z 0.043430 0.000000 1.708330 
# 
# From -- ./inp_files/221589.got.cif
#   From: 2010.05.17/outbox.cif.g08.bks.cpg/sg12_111_cif.got.tgz:221589.got - 2010.06.03 13:09:07.
