data_PCOD9194166
_publ_section_title
;
Structure prediction by ZEFSAII (Michael W. Deem and Ramdas Pophale) SiO2 
 PCOD9194166
Probable space group: C 2/M
;
_chemical_formula_sum "Si O2"
_cell_formula_units_Z 56
_cell_length_a 30.427550
_cell_length_b 8.862444
_cell_length_c 22.356853
_cell_angle_alpha 90.000000
_cell_angle_beta 146.273431
_cell_angle_gamma 90.000000
_cell_volume 3347.373763
_symmetry_space_group_name_H-M "C 2/M"
_symmetry_group_IT_number 12
_symmetry_cell_setting 'monoclinic'
loop_
_space_group_symop_operation_xyz
x,y,z
-x,y,-z
-x,-y,-z
x,-y,z
1/2+x,1/2+y,z
1/2-x,1/2+y,-z
1/2-x,1/2-y,-z
1/2+x,1/2-y,z
loop_
_atom_site_type_symbol
_atom_site_label
_atom_site_fract_x
_atom_site_fract_y
_atom_site_fract_z
Si Si1 0.530678 0.818960 0.788643
Si Si2 0.789403 0.681497 0.985455
Si Si3 0.626001 0.320371 0.342360
Si Si4 0.740179 0.320350 0.584752
Si Si5 0.990147 0.819986 0.366710
Si Si6 0.652928 0.179660 0.596916
Si Si7 0.826676 0.819592 0.252066
O O1 0.618049 0.778731 0.911105
O O2 0.460252 0.750592 0.748269
O O3 0.521715 0.752934 0.711737
O O4 0.523599 0.000000 0.778467
O O5 0.783344 0.500000 0.982891
O O6 0.750000 0.750000 0.000000
O O7 0.740140 0.727474 0.871221
O O8 0.621940 0.500000 0.329640
O O9 0.673192 0.291442 0.458103
O O10 0.679069 0.245861 0.350905
O O11 0.746035 0.500000 0.599327
O O12 0.712347 0.241930 0.613795
O O13 0.911932 0.793448 0.317649
O O14 0.067255 0.750603 0.484866
O O15 0.000990 0.000000 0.372126
O O16 0.677841 0.233795 0.690730
O O17 0.648273 0.000000 0.588317
O O18 0.819774 0.000000 0.254742
#
# Coordination Sequence:
#
# PCOD9194166 Si02
#       7
#     8   8   8   8   8   8   8
#     4  11  21  33  55  84 115 145 181 228 276 323
#     4  10  21  37  57  81 109 146 188 232 274 319
#     4  10  20  34  55  82 112 145 181 221 274 329
#     4  10  20  35  56  80 111 145 180 222 274 330
#     4  11  21  35  55  79 110 150 187 223 274 329
#     4  12  24  36  54  81 114 147 184 228 276 329
#     4  10  22  39  56  76 109 151 192 227 271 328
#
# _framework density 16.729533
#
# number of rings (size 3 to 8) (size 9 to 14) (size 15 to 20)
#    0.000    1.429    2.857    3.429    0.000    5.143 
#    0.000    0.000    0.000    0.857    0.000    6.000 
#    0.000    0.000    0.000    0.000    0.000    0.000 
#
# Total GULP energy -156467.575476 kJ/mol
# GULP energy per Si atom -5588.127696 kJ/mol
# Density = 1.669146 g / cm^3
# Si number density = 16.729533 Si / 1000 Ang^3
#
#
#
# Elastic Constant Matrix: (Units=GPa)
#
#
# Indices 1 2 3 4 5 6 
#
# 1 129.8597 71.0487 91.5666 0.0000 16.7723 0.0000
# 2 71.0487 72.0846 57.7289 0.0000 7.0660 0.0000
# 3 91.5666 57.7289 131.6891 0.0000 0.7193 0.0000
# 4 0.0000 0.0000 0.0000 21.9989 0.0000 -2.7954
# 5 16.7723 7.0660 0.7193 0.0000 25.2199 0.0000
# 6 0.0000 0.0000 0.0000 -2.7954 0.0000 32.7525
#
#
#
# Elastic Compliance Matrix: (Units=1/GPa)
#
#
# Indices 1 2 3 4 5 6 
#
# 1 0.024992 -0.014756 -0.010842 0.000000 -0.012177 0.000000
# 2 -0.014756 0.030949 -0.003314 0.000000 0.001237 0.000000
# 3 -0.010842 -0.003314 0.016543 0.000000 0.007667 0.000000
# 4 0.000000 0.000000 0.000000 0.045955 0.000000 0.003922
# 5 -0.012177 0.001237 0.007667 0.000000 0.047184 0.000000
# 6 0.000000 0.000000 0.000000 0.003922 0.000000 0.030867
#
#
# Mechanical properties :
#
#
# Convention : Reuss Voigt Hill
#
# Bulk Modulus (GPa) = 68.21208 86.03574 77.12391
# Shear Modulus (GPa) = 19.29003 23.54685 21.41844
#
# Velocity S-wave (km/s) = 3.39935 3.75574 3.58198
# Velocity P-wave (km/s) = 7.50129 8.38728 7.95663
#
# Compressibility (1/GPa) = 0.01466016
#
# Stress axis : x y z
#
# Youngs Moduli (GPa) = 40.01334 32.31103 60.44737
#
# Poissons Ratio (x) = 0.47678 0.65538
# Poissons Ratio (y) = 0.59043 0.20031
# Poissons Ratio (z) = 0.43383 0.10707
#
# Static dielectric constant tensor:
#      x y z
#    x 1.542380 0.000000 0.010370 
#    y 0.000000 1.556640 0.000000 
#    z 0.010370 0.000000 1.548700 
# 
# From -- ./inp_files/248884.got.cif
#   From: 2010.05.17/outbox.cif.g08.bks.cpg/sg12_125_cif.got.tgz:248884.got - 2010.06.03 13:09:07.
