data_PCOD9194194
_publ_section_title
;
Structure prediction by ZEFSAII (Michael W. Deem and Ramdas Pophale) SiO2 
 PCOD9194194
Probable space group: C 2/M
;
_chemical_formula_sum "Si O2"
_cell_formula_units_Z 56
_cell_length_a 9.490608
_cell_length_b 25.376209
_cell_length_c 14.295444
_cell_angle_alpha 90.000000
_cell_angle_beta 60.697590
_cell_angle_gamma 90.000000
_cell_volume 3002.335071
_symmetry_space_group_name_H-M "C 2/M"
_symmetry_group_IT_number 12
_symmetry_cell_setting 'monoclinic'
loop_
_space_group_symop_operation_xyz
x,y,z
-x,y,-z
-x,-y,-z
x,-y,z
1/2+x,1/2+y,z
1/2-x,1/2+y,-z
1/2-x,1/2-y,-z
1/2+x,1/2-y,z
loop_
_atom_site_type_symbol
_atom_site_label
_atom_site_fract_x
_atom_site_fract_y
_atom_site_fract_z
Si Si1 0.714750 0.366418 0.092488
Si Si2 0.180497 0.695534 0.480804
Si Si3 0.120777 0.369222 0.156533
Si Si4 0.646986 0.667360 0.765132
Si Si5 0.818218 0.437994 0.224454
Si Si6 0.173846 0.148709 0.396545
Si Si7 0.650658 0.212441 0.809969
O O1 0.525323 0.360282 0.171671
O O2 0.783347 0.414127 0.132957
O O3 0.800820 0.314300 0.108036
O O4 0.759902 0.372346 0.970376
O O5 0.250000 0.750000 0.500000
O O6 0.293821 0.676260 0.359609
O O7 0.195627 0.655747 0.563118
O O8 0.000000 0.701433 0.500000
O O9 0.219454 0.363445 0.219038
O O10 0.996999 0.417839 0.193322
O O11 0.007647 0.317705 0.176580
O O12 0.631925 0.725572 0.815647
O O13 0.799596 0.500000 0.234904
O O14 0.701015 0.405449 0.332152
O O15 0.209409 0.194456 0.308718
O O16 0.000000 0.153393 0.500000
#
# Coordination Sequence:
#
# PCOD9194194 Si02
#       7
#     8   8   8   8   8   8   8
#     4  10  22  37  58  86 118 150 197 248 294 352
#     4  12  23  34  57  83 119 166 198 232 276 338
#     4  10  22  38  56  86 117 154 197 244 296 355
#     4  12  23  34  56  85 128 159 193 237 287 351
#     4  10  22  43  67  84 108 149 201 258 306 359
#     4  10  20  38  58  89 124 152 200 248 286 346
#     4  10  20  34  55  82 123 164 200 226 274 360
#
# _framework density 18.652148
#
# number of rings (size 3 to 8) (size 9 to 14) (size 15 to 20)
#    0.000    1.714    1.429    6.857    2.000    4.857 
#    0.000    0.714    0.000    5.571    0.000    0.000 
#    0.000    0.000    0.000    0.000    0.000    0.000 
#
# Total GULP energy -156489.226439 kJ/mol
# GULP energy per Si atom -5588.900944 kJ/mol
# Density = 1.860969 g / cm^3
# Si number density = 18.652148 Si / 1000 Ang^3
#
#
#
# Elastic Constant Matrix: (Units=GPa)
#
#
# Indices 1 2 3 4 5 6 
#
# 1 84.2112 11.4700 19.7118 0.0000 -4.3071 0.0000
# 2 11.4700 85.0216 7.7390 0.0000 3.7878 0.0000
# 3 19.7118 7.7390 102.8029 0.0000 -0.4288 0.0000
# 4 0.0000 0.0000 0.0000 7.3764 0.0000 -2.6307
# 5 -4.3071 3.7878 -0.4288 0.0000 36.4708 0.0000
# 6 0.0000 0.0000 0.0000 -2.6307 0.0000 2.5211
#
#
#
# Elastic Compliance Matrix: (Units=1/GPa)
#
#
# Indices 1 2 3 4 5 6 
#
# 1 0.012715 -0.001578 -0.002312 0.000000 0.001638 0.000000
# 2 -0.001578 0.012095 -0.000614 0.000000 -0.001450 0.000000
# 3 -0.002312 -0.000614 0.010217 0.000000 -0.000089 0.000000
# 4 0.000000 0.000000 0.000000 0.215925 0.000000 0.225317
# 5 0.001638 -0.001450 -0.000089 0.000000 0.027762 0.000000
# 6 0.000000 0.000000 0.000000 0.225317 0.000000 0.631773
#
#
# Mechanical properties :
#
#
# Convention : Reuss Voigt Hill
#
# Bulk Modulus (GPa) = 38.43486 38.87525 38.65505
# Shear Modulus (GPa) = 5.38696 24.81465 15.10080
#
# Velocity S-wave (km/s) = 1.70129 3.65141 2.84844
# Velocity P-wave (km/s) = 4.95076 6.21808 5.62026
#
# Compressibility (1/GPa) = 0.02601805
#
# Stress axis : x y z
#
# Youngs Moduli (GPa) = 78.64805 82.67846 97.88008
#
# Poissons Ratio (x) = 0.13045 0.22634
# Poissons Ratio (y) = 0.12409 0.06010
# Poissons Ratio (z) = 0.18186 0.05077
#
# Static dielectric constant tensor:
#      x y z
#    x 1.664680 0.000000 -0.007130 
#    y 0.000000 1.616940 0.000000 
#    z -0.007130 0.000000 1.673760 
# 
# From -- ./inp_files/199710.got.cif
#   From: 2010.05.17/outbox.cif.g08.bks.cpg/sg12_100_cif.got.tgz:199710.got - 2010.06.03 13:09:07.
