data_PCOD9194523
_publ_section_title
;
Structure prediction by ZEFSAII (Michael W. Deem and Ramdas Pophale) SiO2 
 PCOD9194523
Probable space group: C 2/M
;
_chemical_formula_sum "Si O2"
_cell_formula_units_Z 56
_cell_length_a 33.956823
_cell_length_b 8.770307
_cell_length_c 12.632600
_cell_angle_alpha 90.000000
_cell_angle_beta 119.666964
_cell_angle_gamma 90.000000
_cell_volume 3268.984852
_symmetry_space_group_name_H-M "C 2/M"
_symmetry_group_IT_number 12
_symmetry_cell_setting 'monoclinic'
loop_
_space_group_symop_operation_xyz
x,y,z
-x,y,-z
-x,-y,-z
x,-y,z
1/2+x,1/2+y,z
1/2-x,1/2+y,-z
1/2-x,1/2-y,-z
1/2+x,1/2-y,z
loop_
_atom_site_type_symbol
_atom_site_label
_atom_site_fract_x
_atom_site_fract_y
_atom_site_fract_z
Si Si1 0.548949 0.817668 0.618201
Si Si2 0.392827 0.681777 0.488332
Si Si3 0.554595 0.182501 0.239977
Si Si4 0.888870 0.181892 0.879927
Si Si5 0.296611 0.818259 0.690106
Si Si6 0.199130 0.681560 0.555549
Si Si7 0.541903 0.682071 0.842420
O O1 0.500000 0.785493 0.500000
O O2 0.586609 0.742599 0.593687
O O3 0.549292 0.750611 0.736225
O O4 0.554655 0.000000 0.628730
O O5 0.396329 0.500000 0.498867
O O6 0.422171 0.755800 0.622110
O O7 0.341409 0.735152 0.438391
O O8 0.582893 0.244299 0.178499
O O9 0.503435 0.243862 0.169704
O O10 0.555176 0.000000 0.241934
O O11 0.838636 0.250341 0.809835
O O12 0.886812 0.000000 0.860928
O O13 0.916063 0.212327 0.023944
O O14 0.248629 0.741909 0.652902
O O15 0.305687 0.787263 0.577070
O O16 0.293759 0.000000 0.699189
O O17 0.195904 0.500000 0.566183
O O18 0.535342 0.500000 0.826652
#
# Coordination Sequence:
#
# PCOD9194523 Si02
#       7
#     8   8   8   8   8   8   8
#     4  11  23  39  60  84 112 148 192 239 284 333
#     4  12  23  36  59  85 116 151 188 235 286 337
#     4  12  23  36  55  83 116 153 192 232 283 338
#     4  11  23  38  57  83 117 154 191 233 283 339
#     4  10  20  34  56  84 116 151 188 230 281 339
#     4  10  20  35  56  84 117 149 186 233 283 337
#     4  11  24  40  58  82 113 153 196 235 281 338
#
# _framework density 17.130700999999998
#
# number of rings (size 3 to 8) (size 9 to 14) (size 15 to 20)
#    0.000    1.000    2.857    5.143    0.000    5.714 
#    0.000    0.000    0.000    0.857    0.000    0.000 
#    0.000    0.000    0.000    0.000    0.000    0.000 
#
# Total GULP energy -156588.942725 kJ/mol
# GULP energy per Si atom -5592.462240 kJ/mol
# Density = 1.709171 g / cm^3
# Si number density = 17.130701 Si / 1000 Ang^3
#
#
#
# Elastic Constant Matrix: (Units=GPa)
#
#
# Indices 1 2 3 4 5 6 
#
# 1 78.6903 38.5872 33.1925 0.0000 24.0417 0.0000
# 2 38.5872 84.4341 46.1528 0.0000 12.9828 0.0000
# 3 33.1925 46.1528 90.4309 0.0000 20.3649 0.0000
# 4 0.0000 0.0000 0.0000 22.0869 0.0000 6.4359
# 5 24.0417 12.9828 20.3649 0.0000 24.5897 0.0000
# 6 0.0000 0.0000 0.0000 6.4359 0.0000 28.9086
#
#
#
# Elastic Compliance Matrix: (Units=1/GPa)
#
#
# Indices 1 2 3 4 5 6 
#
# 1 0.021503 -0.006927 -0.000549 0.000000 -0.016912 0.000000
# 2 -0.006927 0.018748 -0.007771 0.000000 0.003310 0.000000
# 3 -0.000549 -0.007771 0.017432 0.000000 -0.009797 0.000000
# 4 0.000000 0.000000 0.000000 0.048417 0.000000 -0.010779
# 5 -0.016912 0.003310 -0.009797 0.000000 0.063569 0.000000
# 6 0.000000 0.000000 0.000000 -0.010779 0.000000 0.036991
#
#
# Mechanical properties :
#
#
# Convention : Reuss Voigt Hill
#
# Bulk Modulus (GPa) = 36.77862 54.38002 45.57932
# Shear Modulus (GPa) = 20.30717 24.15857 22.23287
#
# Velocity S-wave (km/s) = 3.44674 3.75940 3.60646
# Velocity P-wave (km/s) = 6.11196 7.11739 6.63375
#
# Compressibility (1/GPa) = 0.02718971
#
# Stress axis : x y z
#
# Youngs Moduli (GPa) = 46.50441 53.33875 57.36498
#
# Poissons Ratio (x) = 0.36946 0.03149
# Poissons Ratio (y) = 0.32212 0.44580
# Poissons Ratio (z) = 0.02553 0.41451
#
# Static dielectric constant tensor:
#      x y z
#    x 1.559210 0.000000 0.010520 
#    y 0.000000 1.567570 0.000000 
#    z 0.010520 0.000000 1.560890 
# 
# From -- ./inp_files/180849.got.cif
#   From: 2010.05.17/outbox.cif.g08.bks.cpg/sg12_91_cif.got.tgz:180849.got - 2010.06.03 13:09:07.
