data_PCOD9194291
_publ_section_title
;
Structure prediction by ZEFSAII (Michael W. Deem and Ramdas Pophale) SiO2 
 PCOD9194291
Probable space group: C 2/M
;
_chemical_formula_sum "Si O2"
_cell_formula_units_Z 40
_cell_length_a 14.222247
_cell_length_b 9.732407
_cell_length_c 14.681476
_cell_angle_alpha 90.000000
_cell_angle_beta 115.816399
_cell_angle_gamma 90.000000
_cell_volume 1829.339837
_symmetry_space_group_name_H-M "C 2/M"
_symmetry_group_IT_number 12
_symmetry_cell_setting 'monoclinic'
loop_
_space_group_symop_operation_xyz
x,y,z
-x,y,-z
-x,-y,-z
x,-y,z
1/2+x,1/2+y,z
1/2-x,1/2+y,-z
1/2-x,1/2-y,-z
1/2+x,1/2-y,z
loop_
_atom_site_type_symbol
_atom_site_label
_atom_site_fract_x
_atom_site_fract_y
_atom_site_fract_z
Si Si1 0.573793 0.705736 0.455250
Si Si2 0.871255 0.662445 0.811282
Si Si3 0.745018 0.351577 0.381016
Si Si4 0.721542 0.339054 0.076568
Si Si5 0.949908 0.346775 0.248813
O O1 0.500000 0.639250 0.500000
O O2 0.670078 0.642649 0.438525
O O3 0.637417 0.824078 0.536337
O O4 0.494490 0.746739 0.342480
O O5 0.847938 0.500000 0.815535
O O6 0.796986 0.730028 0.701684
O O7 0.859144 0.753611 0.896090
O O8 0.986992 0.674562 0.818245
O O9 0.736528 0.500000 0.330376
O O10 0.694777 0.500000 0.046951
O O11 0.828351 0.338332 0.180063
O O12 0.750000 0.250000 0.000000
O O13 0.978176 0.500000 0.291825
#
# Coordination Sequence:
#
# PCOD9194291 Si02
#       5
#     8   8   8   8   8
#     4  10  20  34  55  84 118 156 196 236 279 335
#     4  10  21  40  62  85 117 154 192 234 282 340
#     4  10  21  36  56  85 119 154 194 238 284 333
#     4  11  23  41  64  89 115 146 189 239 292 345
#     4   9  20  38  59  83 114 156 197 231 279 347
#
# _framework density 21.865812999999999
#
# number of rings (size 3 to 8) (size 9 to 14) (size 15 to 20)
#    0.000    2.000    0.000    3.000    0.000    9.200 
#    0.000   18.000    0.000    0.000    0.000    0.000 
#    0.000    0.000    0.000    0.000    0.000    0.000 
#
# Total GULP energy -111555.758544 kJ/mol
# GULP energy per Si atom -5577.787927 kJ/mol
# Density = 2.181605 g / cm^3
# Si number density = 21.865813 Si / 1000 Ang^3
#
#
#
# Elastic Constant Matrix: (Units=GPa)
#
#
# Indices 1 2 3 4 5 6 
#
# 1 98.7275 44.3785 27.1682 0.0000 -31.3430 0.0000
# 2 44.3785 140.4734 22.7383 0.0000 -28.9827 0.0000
# 3 27.1682 22.7383 32.1938 0.0000 -25.9371 0.0000
# 4 0.0000 0.0000 0.0000 1.5275 0.0000 1.7273
# 5 -31.3430 -28.9827 -25.9371 0.0000 38.7978 0.0000
# 6 0.0000 0.0000 0.0000 1.7273 0.0000 8.3772
#
#
#
# Elastic Compliance Matrix: (Units=1/GPa)
#
#
# Indices 1 2 3 4 5 6 
#
# 1 0.014800 -0.002452 -0.005637 0.000000 0.006356 0.000000
# 2 -0.002452 0.008876 -0.000984 0.000000 0.003993 0.000000
# 3 -0.005637 -0.000984 0.069901 0.000000 0.041442 0.000000
# 4 0.000000 0.000000 0.000000 0.853717 0.000000 -0.176026
# 5 0.006356 0.003993 0.041442 0.000000 0.061597 0.000000
# 6 0.000000 0.000000 0.000000 -0.176026 0.000000 0.155666
#
#
# Mechanical properties :
#
#
# Convention : Reuss Voigt Hill
#
# Bulk Modulus (GPa) = 13.25679 51.10717 32.18198
# Shear Modulus (GPa) = 4.13960 21.54782 12.84371
#
# Velocity S-wave (km/s) = 1.37742 3.14260 2.42624
# Velocity P-wave (km/s) = 2.93354 6.04911 4.75381
#
# Compressibility (1/GPa) = 0.07543304
#
# Stress axis : x y z
#
# Youngs Moduli (GPa) = 67.56692 112.65932 14.30585
#
# Poissons Ratio (x) = 0.27621 0.08064
# Poissons Ratio (y) = 0.16566 0.01407
# Poissons Ratio (z) = 0.38088 0.11082
#
# Static dielectric constant tensor:
#      x y z
#    x 1.812390 0.000000 -0.044030 
#    y 0.000000 1.831120 0.000000 
#    z -0.044030 0.000000 1.782060 
# 
# From -- ./inp_files/211442.got.cif
#   From: 2010.05.17/outbox.cif.g08.bks.cpg/sg12_106_cif.got.tgz:211442.got - 2010.06.03 13:09:07.
