data_PCOD9194785
_publ_section_title
;
Structure prediction by ZEFSAII (Michael W. Deem and Ramdas Pophale) SiO2 
 PCOD9194785
Probable space group: C 2/M
;
_chemical_formula_sum "Si O2"
_cell_formula_units_Z 48
_cell_length_a 15.308373
_cell_length_b 8.727230
_cell_length_c 26.839096
_cell_angle_alpha 90.000000
_cell_angle_beta 46.011656
_cell_angle_gamma 90.000000
_cell_volume 2579.839769
_symmetry_space_group_name_H-M "C 2/M"
_symmetry_group_IT_number 12
_symmetry_cell_setting 'monoclinic'
loop_
_space_group_symop_operation_xyz
x,y,z
-x,y,-z
-x,-y,-z
x,-y,z
1/2+x,1/2+y,z
1/2-x,1/2+y,-z
1/2-x,1/2-y,-z
1/2+x,1/2-y,z
loop_
_atom_site_type_symbol
_atom_site_label
_atom_site_fract_x
_atom_site_fract_y
_atom_site_fract_z
Si Si1 0.125687 0.182533 0.920251
Si Si2 0.189625 0.183237 0.074158
Si Si3 0.942601 0.683013 0.414665
Si Si4 0.423207 0.184059 0.168874
Si Si5 0.283100 0.684920 0.564313
Si Si6 0.199478 0.184646 0.327687
O O1 0.233186 0.254089 0.910155
O O2 0.114016 0.259866 0.871224
O O3 0.142647 0.000000 0.908278
O O4 0.000000 0.207494 0.000000
O O5 0.051600 0.240385 0.131155
O O6 0.194173 0.000000 0.070404
O O7 0.250000 0.250000 0.000000
O O8 0.947383 0.500000 0.414569
O O9 0.844760 0.727624 0.411022
O O10 0.888041 0.745844 0.488146
O O11 0.075976 0.749031 0.354005
O O12 0.317874 0.228158 0.249384
O O13 0.436276 0.000000 0.164002
O O14 0.293531 0.500000 0.558427
O O15 0.290468 0.734147 0.618609
O O16 0.191680 0.000000 0.330336
#
# Coordination Sequence:
#
# PCOD9194785 Si02
#       6
#     8   8   8   8   8   8
#     4  11  23  40  64  90 117 153 196 243 298 358
#     4  12  24  40  64  91 119 153 195 245 299 355
#     4  10  20  34  57  88 116 150 198 246 288 337
#     4  11  24  41  61  89 122 158 201 249 301 360
#     4   9  19  37  58  81 115 157 195 236 289 348
#     4  10  22  39  58  82 117 158 195 234 292 355
#
# _framework density 18.605806000000001
#
# number of rings (size 3 to 8) (size 9 to 14) (size 15 to 20)
#    0.000    1.500    1.667    3.500    0.000    6.667 
#    0.000    1.667    0.000    0.000    0.000    0.000 
#    0.000    0.000    0.000    0.000    0.000    0.000 
#
# Total GULP energy -134171.585119 kJ/mol
# GULP energy per Si atom -5590.482713 kJ/mol
# Density = 1.856346 g / cm^3
# Si number density = 18.605806 Si / 1000 Ang^3
#
#
#
# Elastic Constant Matrix: (Units=GPa)
#
#
# Indices 1 2 3 4 5 6 
#
# 1 108.4119 29.5594 37.7119 0.0000 -22.8095 0.0001
# 2 29.5594 47.8255 30.7353 0.0000 -10.8876 0.0001
# 3 37.7119 30.7353 85.0563 0.0000 -31.7909 0.0000
# 4 0.0000 0.0000 0.0000 27.0198 0.0000 -6.8829
# 5 -22.8095 -10.8876 -31.7909 0.0000 30.5241 0.0000
# 6 0.0001 0.0001 0.0000 -6.8829 0.0000 31.7377
#
#
#
# Elastic Compliance Matrix: (Units=1/GPa)
#
#
# Indices 1 2 3 4 5 6 
#
# 1 0.012429 -0.005491 -0.001289 0.000000 0.005987 0.000000
# 2 -0.005491 0.029674 -0.009605 0.000000 -0.003522 0.000000
# 3 -0.001289 -0.009605 0.023183 0.000000 0.019756 0.000000
# 4 0.000000 0.000000 0.000000 0.039174 0.000000 0.008496
# 5 0.005987 -0.003522 0.019756 0.000000 0.056555 0.000000
# 6 0.000000 0.000000 0.000000 0.008496 0.000000 0.033351
#
#
# Mechanical properties :
#
#
# Convention : Reuss Voigt Hill
#
# Bulk Modulus (GPa) = 30.75274 48.58966 39.67120
# Shear Modulus (GPa) = 21.01074 27.40880 24.20977
#
# Velocity S-wave (km/s) = 3.36409 3.84230 3.61112
# Velocity P-wave (km/s) = 5.62618 6.77174 6.22536
#
# Compressibility (1/GPa) = 0.03251742
#
# Stress axis : x y z
#
# Youngs Moduli (GPa) = 80.45573 33.69991 43.13447
#
# Poissons Ratio (x) = 0.18504 0.05560
# Poissons Ratio (y) = 0.44176 0.41429
# Poissons Ratio (z) = 0.10371 0.32367
#
# Static dielectric constant tensor:
#      x y z
#    x 1.628670 0.000000 -0.001290 
#    y 0.000000 1.624450 0.000000 
#    z -0.001290 0.000000 1.613010 
# 
# From -- ./inp_files/267673.got.cif
#   From: 2010.05.17/outbox.cif.g08.bks.cpg/sg12_134_cif.got.tgz:267673.got - 2010.06.03 13:09:07.
