data_PCOD9194899
_publ_section_title
;
Structure prediction by ZEFSAII (Michael W. Deem and Ramdas Pophale) SiO2 
 PCOD9194899
Probable space group: C 2/M
;
_chemical_formula_sum "Si O2"
_cell_formula_units_Z 32
_cell_length_a 9.127659
_cell_length_b 11.301685
_cell_length_c 13.793853
_cell_angle_alpha 90.000000
_cell_angle_beta 90.170743
_cell_angle_gamma 90.000000
_cell_volume 1422.938960
_symmetry_space_group_name_H-M "C 2/M"
_symmetry_group_IT_number 12
_symmetry_cell_setting 'monoclinic'
loop_
_space_group_symop_operation_xyz
x,y,z
-x,y,-z
-x,-y,-z
x,-y,z
1/2+x,1/2+y,z
1/2-x,1/2+y,-z
1/2-x,1/2-y,-z
1/2+x,1/2-y,z
loop_
_atom_site_type_symbol
_atom_site_label
_atom_site_fract_x
_atom_site_fract_y
_atom_site_fract_z
Si Si1 0.499949 0.244078 0.203841
Si Si2 0.246945 0.139428 0.924008
Si Si3 0.147167 0.127426 0.537077
Si Si4 0.748516 0.818404 0.664818
O O1 0.396395 0.329219 0.140136
O O2 0.391365 0.163093 0.268089
O O3 0.604505 0.323009 0.272966
O O4 0.607813 0.164249 0.139574
O O5 0.243729 0.000000 0.956219
O O6 0.250000 0.250000 0.000000
O O7 0.242677 0.120960 0.439737
O O8 0.229380 0.184709 0.625989
O O9 0.000000 0.193677 0.500000
O O10 0.097775 0.000000 0.570422
#
# Coordination Sequence:
#
# PCOD9194899 Si02
#       4
#     8   8   8   8
#     4  10  23  41  67  96 131 176 221 283 340 404
#     4  11  26  48  73 103 137 175 223 282 352 424
#     4  10  20  34  58  87 127 181 225 272 330 390
#     4  10  20  39  59  92 133 171 223 277 329 388
#
# _framework density 22.488668000000001
#
# number of rings (size 3 to 8) (size 9 to 14) (size 15 to 20)
#    0.000    1.750    2.500    0.750    0.000   10.000 
#    0.000    6.250    0.000    0.000    0.000    0.000 
#    0.000    0.000    0.000    0.000    0.000    0.000 
#
# Total GULP energy -89129.801411 kJ/mol
# GULP energy per Si atom -5570.612588 kJ/mol
# Density = 2.243748 g / cm^3
# Si number density = 22.488668 Si / 1000 Ang^3
#
#
#
# Elastic Constant Matrix: (Units=GPa)
#
#
# Indices 1 2 3 4 5 6 
#
# 1 139.3187 32.0461 58.6316 0.0000 3.1601 0.0000
# 2 32.0461 107.0563 41.9068 0.0000 6.0934 0.0000
# 3 58.6316 41.9068 119.0899 0.0000 3.0167 0.0000
# 4 0.0000 0.0000 0.0000 -384.1783 0.0000 138.7425
# 5 3.1601 6.0934 3.0167 0.0000 30.5686 0.0000
# 6 0.0000 0.0000 0.0000 138.7425 0.0000 -33.4696
#
#
#
# Elastic Compliance Matrix: (Units=1/GPa)
#
#
# Indices 1 2 3 4 5 6 
#
# 1 0.009174 -0.001117 -0.004115 0.000000 -0.000320 0.000000
# 2 -0.001117 0.011067 -0.003300 0.000000 -0.001765 0.000000
# 3 -0.004115 -0.003300 0.011586 0.000000 -0.000060 0.000000
# 4 0.000000 0.000000 0.000000 0.005237 0.000000 0.021708
# 5 -0.000320 -0.001765 -0.000060 0.000000 0.033104 0.000000
# 6 0.000000 0.000000 0.000000 0.021708 0.000000 0.060110
#
#
# Mechanical properties :
#
#
# Convention : Reuss Voigt Hill
#
# Bulk Modulus (GPa) = 67.73865 70.07043 68.90454
# Shear Modulus (GPa) = 32.83764 -61.89050 -14.52643
#
# Velocity S-wave (km/s) = 3.82538 -5.25171 -2.54430
# Velocity P-wave (km/s) = 7.04968 2.35547 4.69839
#
# Compressibility (1/GPa) = 0.01476262
#
# Stress axis : x y z
#
# Youngs Moduli (GPa) = 109.00447 90.35521 86.31159
#
# Poissons Ratio (x) = 0.10092 0.35521
# Poissons Ratio (y) = 0.12175 0.28482
# Poissons Ratio (z) = 0.44860 0.29817
#
# Static dielectric constant tensor:
#      x y z
#    x 1.868340 0.000000 -0.028100 
#    y 0.000000 1.916740 0.000000 
#    z -0.028100 0.000000 1.875090 
# 
# From -- ./inp_files/202565.got.cif
#   From: 2010.05.17/outbox.cif.g08.bks.cpg/sg12_102_cif.got.tgz:202565.got - 2010.06.03 13:09:07.
