data_PCOD9194718
_publ_section_title
;
Structure prediction by ZEFSAII (Michael W. Deem and Ramdas Pophale) SiO2 
 PCOD9194718
Probable space group: C 2/M
;
_chemical_formula_sum "Si O2"
_cell_formula_units_Z 56
_cell_length_a 21.597269
_cell_length_b 29.475217
_cell_length_c 9.348318
_cell_angle_alpha 90.000000
_cell_angle_beta 150.845292
_cell_angle_gamma 90.000000
_cell_volume 2899.141329
_symmetry_space_group_name_H-M "C 2/M"
_symmetry_group_IT_number 12
_symmetry_cell_setting 'monoclinic'
loop_
_space_group_symop_operation_xyz
x,y,z
-x,y,-z
-x,-y,-z
x,-y,z
1/2+x,1/2+y,z
1/2-x,1/2+y,-z
1/2-x,1/2-y,-z
1/2+x,1/2-y,z
loop_
_atom_site_type_symbol
_atom_site_label
_atom_site_fract_x
_atom_site_fract_y
_atom_site_fract_z
Si Si1 0.801501 0.866368 0.655773
Si Si2 0.383056 0.054730 0.356773
Si Si3 0.001658 0.769187 0.337150
Si Si4 0.945840 0.134545 0.666319
Si Si5 0.133528 0.448239 0.349074
Si Si6 0.630336 0.551909 0.673249
Si Si7 0.235047 0.272060 0.627842
O O1 0.863731 0.848379 0.635201
O O2 0.724289 0.911248 0.463961
O O3 0.725582 0.825949 0.577626
O O4 0.917396 0.878948 0.994182
O O5 0.500000 0.073174 0.500000
O O6 0.385749 0.068007 0.526954
O O7 0.395455 0.000000 0.383864
O O8 0.248704 0.064253 0.012803
O O9 0.034462 0.822995 0.397828
O O10 0.112788 0.745114 0.469106
O O11 0.000000 0.754324 0.500000
O O12 0.865098 0.763738 0.981745
O O13 0.883247 0.090580 0.471488
O O14 0.184475 0.500000 0.452309
O O15 0.000000 0.449039 0.000000
O O16 0.500000 0.552139 0.500000
O O17 0.650006 0.500000 0.659531
O O18 0.250000 0.250000 0.500000
#
# Coordination Sequence:
#
# PCOD9194718 Si02
#       7
#     8   8   8   8   8   8   8
#     4  10  22  39  60  89 119 157 207 244 297 369
#     4   9  19  36  56  79 112 155 199 241 295 357
#     4  11  23  41  67  97 127 157 202 261 311 363
#     4  10  21  38  61  88 121 160 196 248 309 361
#     4  10  22  38  58  84 120 161 201 250 299 348
#     4  10  20  34  57  85 116 157 202 243 295 357
#     4  11  22  43  68  91 122 168 205 246 310 381
#
# _framework density 19.316064000000001
#
# number of rings (size 3 to 8) (size 9 to 14) (size 15 to 20)
#    0.000    1.857    1.429    2.143    2.000    4.571 
#    0.000    2.143    0.000    0.000    0.000    0.000 
#    0.000    0.000    0.000    0.000    0.000    0.000 
#
# Total GULP energy -156233.418653 kJ/mol
# GULP energy per Si atom -5579.764952 kJ/mol
# Density = 1.927210 g / cm^3
# Si number density = 19.316064 Si / 1000 Ang^3
#
#
#
# Elastic Constant Matrix: (Units=GPa)
#
#
# Indices 1 2 3 4 5 6 
#
# 1 87.8451 27.0107 41.7131 0.0000 -1.5613 0.0000
# 2 27.0107 75.7745 41.3185 0.0000 0.8262 0.0000
# 3 41.7131 41.3185 78.5909 0.0000 0.9319 0.0000
# 4 0.0000 0.0000 0.0000 -231.1503 0.0000 -137.6780
# 5 -1.5613 0.8262 0.9319 0.0000 34.5659 0.0000
# 6 0.0000 0.0000 0.0000 -137.6780 0.0000 -40.2765
#
#
#
# Elastic Compliance Matrix: (Units=1/GPa)
#
#
# Indices 1 2 3 4 5 6 
#
# 1 0.015361 -0.001450 -0.007402 0.000000 0.000928 0.000000
# 2 -0.001450 0.018639 -0.009027 0.000000 -0.000268 0.000000
# 3 -0.007402 -0.009027 0.021407 0.000000 -0.000696 0.000000
# 4 0.000000 0.000000 0.000000 0.004176 0.000000 -0.014274
# 5 0.000928 -0.000268 -0.000696 0.000000 0.028997 0.000000
# 6 0.000000 0.000000 0.000000 -0.014274 0.000000 0.023965
#
#
# Mechanical properties :
#
#
# Convention : Reuss Voigt Hill
#
# Bulk Modulus (GPa) = 50.89026 51.36610 51.12818
# Shear Modulus (GPa) = 32.28933 -38.56097 -3.13582
#
# Velocity S-wave (km/s) = 4.09299 -4.47286 -1.27552
# Velocity P-wave (km/s) = 6.98141 0.15866 4.93533
#
# Compressibility (1/GPa) = 0.01965012
#
# Stress axis : x y z
#
# Youngs Moduli (GPa) = 65.10168 53.65171 46.71455
#
# Poissons Ratio (x) = 0.07777 0.34577
# Poissons Ratio (y) = 0.09437 0.42167
# Poissons Ratio (z) = 0.48187 0.48429
#
# Static dielectric constant tensor:
#      x y z
#    x 1.711810 0.000000 -0.002160 
#    y 0.000000 1.678120 0.000000 
#    z -0.002160 0.000000 1.640650 
# 
# From -- ./inp_files/91647.got.cif
#   From: 2010.05.17/outbox.cif.g08.bks.cpg/sg12_46_cif.got.tgz:91647.got - 2010.06.03 13:09:07.
