data_PCOD9194421
_publ_section_title
;
Structure prediction by ZEFSAII (Michael W. Deem and Ramdas Pophale) SiO2 
 PCOD9194421
Probable space group: C 2/M
;
_chemical_formula_sum "Si O2"
_cell_formula_units_Z 64
_cell_length_a 21.013183
_cell_length_b 8.665668
_cell_length_c 25.161894
_cell_angle_alpha 90.000000
_cell_angle_beta 51.278608
_cell_angle_gamma 90.000000
_cell_volume 3574.715179
_symmetry_space_group_name_H-M "C 2/M"
_symmetry_group_IT_number 12
_symmetry_cell_setting 'monoclinic'
loop_
_space_group_symop_operation_xyz
x,y,z
-x,y,-z
-x,-y,-z
x,-y,z
1/2+x,1/2+y,z
1/2-x,1/2+y,-z
1/2-x,1/2-y,-z
1/2+x,1/2-y,z
loop_
_atom_site_type_symbol
_atom_site_label
_atom_site_fract_x
_atom_site_fract_y
_atom_site_fract_z
Si Si1 0.100883 0.816457 0.794858
Si Si2 0.989905 0.686657 0.944121
Si Si3 0.062896 0.813752 0.421562
Si Si4 0.538790 0.813533 0.207025
Si Si5 0.001422 0.686180 0.655299
Si Si6 0.159493 0.314476 0.051842
Si Si7 0.311438 0.186050 0.424285
Si Si8 0.250397 0.686532 0.659664
O O1 0.190786 0.754461 0.735264
O O2 0.061201 0.752324 0.869623
O O3 0.041201 0.755021 0.779338
O O4 0.100241 0.000000 0.795800
O O5 0.993545 0.500000 0.939811
O O6 0.903794 0.733405 0.961794
O O7 0.000000 0.734122 0.000000
O O8 0.155724 0.764947 0.384292
O O9 0.000000 0.759498 0.500000
O O10 0.035636 0.756778 0.378210
O O11 0.061393 0.000000 0.422985
O O12 0.542608 0.768425 0.266586
O O13 0.615158 0.769136 0.130260
O O14 0.530713 0.000000 0.208979
O O15 0.998455 0.500000 0.653081
O O16 0.096009 0.733306 0.611925
O O17 0.163860 0.500000 0.048350
O O18 0.250000 0.250000 0.000000
O O19 0.250000 0.250000 0.500000
O O20 0.283839 0.235193 0.379974
O O21 0.308817 0.000000 0.426669
O O22 0.246674 0.500000 0.664377
#
# Coordination Sequence:
#
# PCOD9194421 Si02
#       8
#     8   8   8   8   8   8   8   8
#     4  11  21  33  56  88 115 141 181 238 281 312
#     4   9  19  38  61  81 109 151 190 220 266 334
#     4  10  22  39  58  79 108 147 185 228 279 331
#     4   9  18  37  59  78 108 151 188 219 272 334
#     4  10  20  36  58  80 107 143 183 227 276 327
#     4   9  18  33  56  82 109 144 179 219 266 318
#     4  10  20  34  56  82 105 138 180 227 273 322
#     4  10  20  38  58  76 109 152 186 218 271 341
#
# _framework density 17.903524000000001
#
# number of rings (size 3 to 8) (size 9 to 14) (size 15 to 20)
#    0.000    2.250    1.250    2.625    0.000    5.500 
#    2.250    0.000    0.000    0.000    0.000    0.000 
#    0.000    0.000    0.000    0.000    0.000    0.000 
#
# Total GULP energy -178580.000734 kJ/mol
# GULP energy per Si atom -5580.625023 kJ/mol
# Density = 1.786277 g / cm^3
# Si number density = 17.903524 Si / 1000 Ang^3
#
#
#
# Elastic Constant Matrix: (Units=GPa)
#
#
# Indices 1 2 3 4 5 6 
#
# 1 113.1166 22.4882 83.9966 -0.0001 -6.9501 0.0001
# 2 22.4882 8.5173 28.5135 -0.0002 -2.7023 -0.0006
# 3 83.9966 28.5135 161.4080 0.0000 -5.9359 0.0000
# 4 -0.0001 -0.0002 0.0000 26.8588 0.0000 -1.8977
# 5 -6.9501 -2.7023 -5.9359 0.0000 37.6647 0.0000
# 6 0.0001 -0.0006 0.0000 -1.8977 0.0000 26.3377
#
#
#
# Elastic Compliance Matrix: (Units=1/GPa)
#
#
# Indices 1 2 3 4 5 6 
#
# 1 0.019016 -0.041742 -0.002517 0.000000 0.000117 -0.000001
# 2 -0.041742 0.385125 -0.045844 0.000003 0.012704 0.000009
# 3 -0.002517 -0.045844 0.015556 0.000000 -0.001302 -0.000001
# 4 0.000000 0.000003 0.000000 0.037422 0.000000 0.002696
# 5 0.000117 0.012704 -0.001302 0.000000 0.027278 0.000000
# 6 -0.000001 0.000009 -0.000001 0.002696 0.000000 0.038163
#
#
# Mechanical properties :
#
#
# Convention : Reuss Voigt Hill
#
# Bulk Modulus (GPa) = 4.17556 61.44874 32.81215
# Shear Modulus (GPa) = 6.38899 28.04179 17.21539
#
# Velocity S-wave (km/s) = 1.89111 3.96191 3.10427
# Velocity P-wave (km/s) = 2.66566 7.43812 5.58710
#
# Compressibility (1/GPa) = 0.23948891
#
# Stress axis : x y z
#
# Youngs Moduli (GPa) = 52.58849 2.59656 64.28256
#
# Poissons Ratio (x) = 0.10839 0.16183
# Poissons Ratio (y) = 2.19514 2.94700
# Poissons Ratio (z) = 0.13239 0.11904
#
# Static dielectric constant tensor:
#      x y z
#    x 1.766990 0.000000 0.045330 
#    y 0.000000 1.610400 0.000000 
#    z 0.045330 0.000000 1.619710 
# 
# From -- ./inp_files/345976.got.cif
#   From: 2010.05.17/outbox.cif.g08.bks.cpg/sg12_173_cif.got.tgz:345976.got - 2010.06.03 13:09:07.
