data_PCOD9194009
_publ_section_title
;
Structure prediction by ZEFSAII (Michael W. Deem and Ramdas Pophale) SiO2 
 PCOD9194009
Probable space group: C 2/M
;
_chemical_formula_sum "Si O2"
_cell_formula_units_Z 48
_cell_length_a 9.508403
_cell_length_b 22.197508
_cell_length_c 11.305544
_cell_angle_alpha 90.000000
_cell_angle_beta 112.901839
_cell_angle_gamma 90.000000
_cell_volume 2198.084716
_symmetry_space_group_name_H-M "C 2/M"
_symmetry_group_IT_number 12
_symmetry_cell_setting 'monoclinic'
loop_
_space_group_symop_operation_xyz
x,y,z
-x,y,-z
-x,-y,-z
x,-y,z
1/2+x,1/2+y,z
1/2-x,1/2+y,-z
1/2-x,1/2-y,-z
1/2+x,1/2-y,z
loop_
_atom_site_type_symbol
_atom_site_label
_atom_site_fract_x
_atom_site_fract_y
_atom_site_fract_z
Si Si1 0.106275 0.831428 0.769557
Si Si2 0.180957 0.101255 0.347257
Si Si3 0.648794 0.500000 0.133875
Si Si4 0.009273 0.500000 0.838281
Si Si5 0.819353 0.302027 0.232537
Si Si6 0.552736 0.866426 0.139793
Si Si7 0.853315 0.500000 0.534620
Si Si8 0.000000 0.812798 0.000000
O O1 0.093080 0.761125 0.732665
O O2 0.274054 0.849079 0.784323
O O3 0.981261 0.873044 0.668005
O O4 0.075696 0.839876 0.902369
O O5 0.156508 0.057924 0.223676
O O6 0.276121 0.159547 0.334370
O O7 0.259008 0.059491 0.469917
O O8 0.806979 0.500000 0.113196
O O9 0.500000 0.500000 0.000000
O O10 0.954558 0.437883 0.873993
O O11 0.925750 0.500000 0.685340
O O12 0.657925 0.288313 0.111807
O O13 0.930291 0.345412 0.195058
O O14 0.500000 0.836737 0.000000
O O15 0.000000 0.500000 0.500000
#
# Coordination Sequence:
#
# PCOD9194009 Si02
#       8
#     8   8   4   4   8   8   4   4
#     4  11  24  36  59  95 134 172 217 253 327 389
#     4  10  23  41  68  95 122 176 220 272 311 378
#     4  11  23  38  62  96 129 161 210 268 317 376
#     4  12  26  43  67  96 122 171 214 273 326 379
#     4  11  21  37  60  94 135 174 217 259 316 397
#     4  12  24  39  58  94 140 171 203 264 332 394
#     4  11  20  48  75  93 113 165 245 270 315 378
#     4  10  20  34  54  87 130 187 216 244 298 398
#
# _framework density 21.837192000000002
#
# number of rings (size 3 to 8) (size 9 to 14) (size 15 to 20)
#    0.000    1.000    5.000    2.750    9.333    1.333 
#    0.000    1.667    0.000   11.000    0.000    0.000 
#    0.000    0.000    0.000    0.000    0.000    0.000 
#
# Total GULP energy -133935.578275 kJ/mol
# GULP energy per Si atom -5580.649095 kJ/mol
# Density = 2.178749 g / cm^3
# Si number density = 21.837192 Si / 1000 Ang^3
#
#
#
# Elastic Constant Matrix: (Units=GPa)
#
#
# Indices 1 2 3 4 5 6 
#
# 1 74.6332 2.4054 12.1509 0.0000 14.4412 0.0000
# 2 2.4054 103.6787 5.7832 0.0000 4.9599 0.0000
# 3 12.1509 5.7832 85.7072 0.0000 10.0230 0.0000
# 4 0.0000 0.0000 0.0000 13.1842 0.0000 18.2090
# 5 14.4412 4.9599 10.0230 0.0000 20.6510 0.0000
# 6 0.0000 0.0000 0.0000 18.2090 0.0000 45.2319
#
#
#
# Elastic Compliance Matrix: (Units=1/GPa)
#
#
# Indices 1 2 3 4 5 6 
#
# 1 0.015578 0.000194 -0.000999 0.000000 -0.010456 0.000000
# 2 0.000194 0.009773 -0.000420 0.000000 -0.002279 0.000000
# 3 -0.000999 -0.000420 0.012451 0.000000 -0.005243 0.000000
# 4 0.000000 0.000000 0.000000 0.170828 0.000000 -0.068770
# 5 -0.010456 -0.002279 -0.005243 0.000000 0.058828 0.000000
# 6 0.000000 0.000000 0.000000 -0.068770 0.000000 0.049793
#
#
# Mechanical properties :
#
#
# Convention : Reuss Voigt Hill
#
# Bulk Modulus (GPa) = 28.28661 33.85537 31.07099
# Shear Modulus (GPa) = 15.08361 32.05873 23.57117
#
# Velocity S-wave (km/s) = 2.63103 3.83571 3.28899
# Velocity P-wave (km/s) = 4.71288 5.92909 5.35562
#
# Compressibility (1/GPa) = 0.03535242
#
# Stress axis : x y z
#
# Youngs Moduli (GPa) = 64.19157 102.32104 80.31600
#
# Poissons Ratio (x) = -0.01990 0.08023
# Poissons Ratio (y) = -0.01248 0.03377
# Poissons Ratio (z) = 0.06413 0.04302
#
# Static dielectric constant tensor:
#      x y z
#    x 1.760310 0.000000 0.014000 
#    y 0.000000 1.831570 0.000000 
#    z 0.014000 0.000000 1.757550 
# 
# From -- ./inp_files/122631.got.cif
#   From: 2010.05.17/outbox.cif.g08.bks.cpg/sg12_62_cif.got.tgz:122631.got - 2010.06.03 13:09:07.
