data_PCOD9194335
_publ_section_title
;
Structure prediction by ZEFSAII (Michael W. Deem and Ramdas Pophale) SiO2 
 PCOD9194335
Probable space group: C 2/M
;
_chemical_formula_sum "Si O2"
_cell_formula_units_Z 44
_cell_length_a 17.772160
_cell_length_b 9.882270
_cell_length_c 21.487014
_cell_angle_alpha 90.000000
_cell_angle_beta 151.793940
_cell_angle_gamma 90.000000
_cell_volume 1783.639669
_symmetry_space_group_name_H-M "C 2/M"
_symmetry_group_IT_number 12
_symmetry_cell_setting 'monoclinic'
loop_
_space_group_symop_operation_xyz
x,y,z
-x,y,-z
-x,-y,-z
x,-y,z
1/2+x,1/2+y,z
1/2-x,1/2+y,-z
1/2-x,1/2-y,-z
1/2+x,1/2-y,z
loop_
_atom_site_type_symbol
_atom_site_label
_atom_site_fract_x
_atom_site_fract_y
_atom_site_fract_z
Si Si1 0.443284 0.000000 0.887594
Si Si2 0.667762 0.655825 0.386489
Si Si3 0.528680 0.293902 0.944401
Si Si4 0.999134 0.692510 0.592312
Si Si5 0.934970 0.000000 0.383692
Si Si6 0.248787 0.000000 0.288682
Si Si7 0.897018 0.646993 0.191392
O O1 0.505899 0.139592 0.906881
O O2 0.254194 0.000000 0.751963
O O3 0.500000 0.000000 0.000000
O O4 0.635315 0.500000 0.381226
O O5 0.750000 0.750000 0.500000
O O6 0.509049 0.731891 0.248792
O O7 0.816422 0.648814 0.447437
O O8 0.395348 0.385259 0.816927
O O9 0.500000 0.304788 0.000000
O O10 0.708005 0.332533 0.056084
O O11 0.120129 0.619134 0.635331
O O12 0.053610 0.643694 0.699958
O O13 0.011158 0.855503 0.603908
O O14 0.000000 0.000000 0.500000
O O15 0.937031 0.500000 0.192991
#
# Coordination Sequence:
#
# PCOD9194335 Si02
#       7
#     4   8   8   8   4   4   8
#     4  10  20  34  55  86 113 149 191 238 298 358
#     4  10  21  32  49  77 115 157 198 240 299 360
#     4  11  18  29  50  78 117 150 185 230 295 353
#     4  11  20  35  54  72 112 156 199 237 296 350
#     4  12  26  40  56  85 121 160 200 246 306 365
#     4  12  17  32  54  75 106 155 187 238 284 365
#     4  11  20  31  51  86 123 156 191 241 306 364
#
# _framework density 24.668661
#
# number of rings (size 3 to 8) (size 9 to 14) (size 15 to 20)
#    0.000    1.091    6.364    3.000    7.636    0.000 
#    0.000    0.455    0.000    0.000    0.000    1.273 
#    0.000    0.000    0.000    0.000    0.000    0.000 
#
# Total GULP energy -122588.409064 kJ/mol
# GULP energy per Si atom -5572.200412 kJ/mol
# Density = 2.461251 g / cm^3
# Si number density = 24.668661 Si / 1000 Ang^3
#
#
#
# Elastic Constant Matrix: (Units=GPa)
#
#
# Indices 1 2 3 4 5 6 
#
# 1 75.4357 29.2634 39.4258 -0.0002 18.4401 0.0000
# 2 29.2634 280.8526 64.2240 0.0007 27.9434 -0.0002
# 3 39.4258 64.2240 198.8754 0.0011 52.0595 -0.0008
# 4 -0.0002 0.0007 0.0011 180.2184 -0.0002 -45.1735
# 5 18.4401 27.9434 52.0595 -0.0002 48.4764 0.0000
# 6 0.0000 -0.0002 -0.0008 -45.1735 0.0000 58.1586
#
#
#
# Elastic Compliance Matrix: (Units=1/GPa)
#
#
# Indices 1 2 3 4 5 6 
#
# 1 0.015392 -0.000836 -0.001912 0.000000 -0.003319 0.000000
# 2 -0.000836 0.003943 -0.000829 0.000000 -0.001065 0.000000
# 3 -0.001912 -0.000829 0.007455 0.000000 -0.006801 0.000000
# 4 0.000000 0.000000 0.000000 0.006890 0.000000 0.005352
# 5 -0.003319 -0.001065 -0.006801 0.000000 0.029809 0.000000
# 6 0.000000 0.000000 0.000000 0.005352 0.000000 0.021351
#
#
# Mechanical properties :
#
#
# Convention : Reuss Voigt Hill
#
# Bulk Modulus (GPa) = 50.92902 91.22115 71.07509
# Shear Modulus (GPa) = 50.74042 85.52071 68.13057
#
# Velocity S-wave (km/s) = 4.54020 5.89432 5.26101
# Velocity P-wave (km/s) = 6.94079 9.13142 8.11041
#
# Compressibility (1/GPa) = 0.01963517
#
# Stress axis : x y z
#
# Youngs Moduli (GPa) = 64.97074 253.60120 134.13028
#
# Poissons Ratio (x) = 0.21205 0.25651
# Poissons Ratio (y) = 0.05433 0.11118
# Poissons Ratio (z) = 0.12425 0.21022
#
# Static dielectric constant tensor:
#      x y z
#    x 2.113610 0.000000 -0.055720 
#    y 0.000000 1.729200 0.000000 
#    z -0.055720 0.000000 1.918040 
# 
# From -- ./inp_files/382629.got.cif
#   From: 2010.05.17/outbox.cif.g08.bks.cpg/sg12_192_cif.got.tgz:382629.got - 2010.06.03 13:09:07.
