data_PCOD9194162
_publ_section_title
;
Structure prediction by ZEFSAII (Michael W. Deem and Ramdas Pophale) SiO2 
 PCOD9194162
Probable space group: C 2/M
;
_chemical_formula_sum "Si O2"
_cell_formula_units_Z 56
_cell_length_a 28.795940
_cell_length_b 9.141460
_cell_length_c 19.887408
_cell_angle_alpha 90.000000
_cell_angle_beta 142.608080
_cell_angle_gamma 90.000000
_cell_volume 3179.086919
_symmetry_space_group_name_H-M "C 2/M"
_symmetry_group_IT_number 12
_symmetry_cell_setting 'monoclinic'
loop_
_space_group_symop_operation_xyz
x,y,z
-x,y,-z
-x,-y,-z
x,-y,z
1/2+x,1/2+y,z
1/2-x,1/2+y,-z
1/2-x,1/2-y,-z
1/2+x,1/2-y,z
loop_
_atom_site_type_symbol
_atom_site_label
_atom_site_fract_x
_atom_site_fract_y
_atom_site_fract_z
Si Si1 0.629163 0.674361 0.084931
Si Si2 0.305669 0.173698 0.431614
Si Si3 0.303514 0.827963 0.268864
Si Si4 0.494428 0.174235 0.151111
Si Si5 0.946794 0.174572 0.374802
Si Si6 0.649297 0.173761 0.251606
Si Si7 0.024558 0.676043 0.336870
O O1 0.621264 0.500000 0.084657
O O2 0.714168 0.702210 0.153341
O O3 0.627255 0.750927 0.155522
O O4 0.564600 0.738150 0.962565
O O5 0.315084 0.198506 0.362081
O O6 0.230466 0.260083 0.367292
O O7 0.385460 0.215910 0.557314
O O8 0.292885 0.000000 0.426351
O O9 0.362493 0.733057 0.294657
O O10 0.318241 0.000000 0.273738
O O11 0.580533 0.200649 0.224075
O O12 0.490230 0.212620 0.224761
O O13 0.479977 0.000000 0.127071
O O14 0.000000 0.214529 0.500000
O O15 0.981196 0.247552 0.347977
O O16 0.947095 0.000000 0.368555
O O17 0.656794 0.000000 0.250340
O O18 0.021148 0.500000 0.341839
#
# Coordination Sequence:
#
# PCOD9194162 Si02
#       7
#     8   8   8   8   8   8   8
#     4  10  21  37  58  83 108 141 187 229 266 318
#     4   9  18  33  54  81 109 142 184 224 265 320
#     4   9  18  34  56  81 106 139 181 221 268 321
#     4  10  22  38  55  79 110 148 186 223 271 322
#     4  11  22  34  54  86 114 136 174 224 273 323
#     4  10  20  34  55  82 112 143 181 228 274 319
#     4  10  21  38  57  77 110 150 185 219 266 330
#
# _framework density 17.615120000000001
#
# number of rings (size 3 to 8) (size 9 to 14) (size 15 to 20)
#    0.000    2.143    1.429    2.571    0.000    8.000 
#    0.000    0.714    0.000    0.000    0.000    0.000 
#    0.000    0.000    0.000    0.000    0.000    0.000 
#
# Total GULP energy -156320.497135 kJ/mol
# GULP energy per Si atom -5582.874898 kJ/mol
# Density = 1.757503 g / cm^3
# Si number density = 17.615120 Si / 1000 Ang^3
#
#
#
# Elastic Constant Matrix: (Units=GPa)
#
#
# Indices 1 2 3 4 5 6 
#
# 1 81.1401 41.8493 8.8942 0.0000 -1.2392 0.0000
# 2 41.8493 38.4299 10.7312 0.0000 1.5332 0.0000
# 3 8.8942 10.7312 7.7681 0.0000 1.8472 0.0000
# 4 0.0000 0.0000 0.0000 18.2985 0.0000 10.9948
# 5 -1.2392 1.5332 1.8472 0.0000 16.8509 0.0000
# 6 0.0000 0.0000 0.0000 10.9948 0.0000 26.3495
#
#
#
# Elastic Compliance Matrix: (Units=1/GPa)
#
#
# Indices 1 2 3 4 5 6 
#
# 1 0.029700 -0.037033 0.016256 0.000000 0.003772 0.000000
# 2 -0.037033 0.088652 -0.079575 0.000000 -0.002066 0.000000
# 3 0.016256 -0.079575 0.223877 0.000000 -0.016106 0.000000
# 4 0.000000 0.000000 0.000000 0.072936 0.000000 -0.030434
# 5 0.003772 -0.002066 -0.016106 0.000000 0.061575 0.000000
# 6 0.000000 0.000000 0.000000 -0.030434 0.000000 0.050650
#
#
# Mechanical properties :
#
#
# Convention : Reuss Voigt Hill
#
# Bulk Modulus (GPa) = 7.06586 27.80973 17.43779
# Shear Modulus (GPa) = 6.44936 16.69068 11.57002
#
# Velocity S-wave (km/s) = 1.91552 3.08152 2.56564
# Velocity P-wave (km/s) = 2.98534 5.33692 4.32406
#
# Compressibility (1/GPa) = 0.14152567
#
# Stress axis : x y z
#
# Youngs Moduli (GPa) = 33.66973 11.28002 4.46673
#
# Poissons Ratio (x) = 0.41773 -0.07261
# Poissons Ratio (y) = 1.24688 0.35544
# Poissons Ratio (z) = -0.54733 0.89761
#
# Static dielectric constant tensor:
#      x y z
#    x 1.577130 0.000000 0.008790 
#    y 0.000000 1.586690 0.000000 
#    z 0.008790 0.000000 1.591850 
# 
# From -- ./inp_files/288186.got.cif
#   From: 2010.05.17/outbox.cif.g08.bks.cpg/sg12_145_cif.got.tgz:288186.got - 2010.06.03 13:09:07.
