data_PCOD9194084
_publ_section_title
;
Structure prediction by ZEFSAII (Michael W. Deem and Ramdas Pophale) SiO2 
 PCOD9194084
Probable space group: C 2/M
;
_chemical_formula_sum "Si O2"
_cell_formula_units_Z 56
_cell_length_a 18.902695
_cell_length_b 8.716933
_cell_length_c 30.006995
_cell_angle_alpha 90.000000
_cell_angle_beta 141.882284
_cell_angle_gamma 90.000000
_cell_volume 3052.049418
_symmetry_space_group_name_H-M "C 2/M"
_symmetry_group_IT_number 12
_symmetry_cell_setting 'monoclinic'
loop_
_space_group_symop_operation_xyz
x,y,z
-x,y,-z
-x,-y,-z
x,-y,z
1/2+x,1/2+y,z
1/2-x,1/2+y,-z
1/2-x,1/2-y,-z
1/2+x,1/2-y,z
loop_
_atom_site_type_symbol
_atom_site_label
_atom_site_fract_x
_atom_site_fract_y
_atom_site_fract_z
Si Si1 0.961384 0.685591 0.930926
Si Si2 0.003048 0.684780 0.637701
Si Si3 0.802156 0.815247 0.207445
Si Si4 0.838055 0.683457 0.637241
Si Si5 0.877727 0.184237 0.066444
Si Si6 0.966600 0.184948 0.207673
Si Si7 0.085117 0.685428 0.502677
O O1 0.966783 0.500000 0.930465
O O2 0.829692 0.734196 0.858068
O O3 0.045058 0.755579 0.935695
O O4 0.000000 0.727687 0.000000
O O5 0.010807 0.500000 0.641612
O O6 0.906916 0.729723 0.626446
O O7 0.965010 0.735710 0.569922
O O8 0.122553 0.750986 0.714730
O O9 0.868152 0.769301 0.194580
O O10 0.803968 0.000000 0.210040
O O11 0.833799 0.500000 0.636704
O O12 0.711403 0.750331 0.573158
O O13 0.915100 0.745119 0.715978
O O14 0.932433 0.231397 0.141038
O O15 0.872771 0.000000 0.063028
O O16 0.750000 0.250000 0.000000
O O17 0.975175 0.000000 0.213210
O O18 0.091516 0.500000 0.505344
O O19 0.000000 0.731865 0.500000
#
# Coordination Sequence:
#
# PCOD9194084 Si02
#       7
#     8   8   8   8   8   8   8
#     4  10  21  38  58  81 113 149 184 224 271 325
#     4   9  19  35  54  77 105 137 175 219 265 316
#     4   9  18  34  57  80 103 138 180 220 266 320
#     4  10  20  34  55  81 106 135 174 222 268 311
#     4  11  23  38  58  83 111 145 185 228 274 325
#     4   9  19  37  58  79 106 142 180 217 265 325
#     4  10  21  36  53  74 104 142 178 214 263 321
#
# _framework density 18.348327000000001
#
# number of rings (size 3 to 8) (size 9 to 14) (size 15 to 20)
#    0.000    2.286    0.000    2.143    0.000    6.857 
#    0.000    7.143    0.000    0.000    0.000    0.000 
#    0.000    0.000    0.000    0.000    0.000    0.000 
#
# Total GULP energy -156346.248002 kJ/mol
# GULP energy per Si atom -5583.794572 kJ/mol
# Density = 1.830657 g / cm^3
# Si number density = 18.348327 Si / 1000 Ang^3
#
#
#
# Elastic Constant Matrix: (Units=GPa)
#
#
# Indices 1 2 3 4 5 6 
#
# 1 139.2361 37.5739 135.1643 0.0000 5.3342 0.0000
# 2 37.5739 15.4608 45.5684 0.0000 -0.1709 0.0000
# 3 135.1643 45.5684 217.9310 0.0000 2.9917 0.0000
# 4 0.0000 0.0000 0.0000 33.1979 0.0000 2.7702
# 5 5.3342 -0.1709 2.9917 0.0000 38.0297 0.0000
# 6 0.0000 0.0000 0.0000 2.7702 0.0000 27.0586
#
#
#
# Elastic Compliance Matrix: (Units=1/GPa)
#
#
# Indices 1 2 3 4 5 6 
#
# 1 0.024876 -0.039462 -0.007135 0.000000 -0.003105 0.000000
# 2 -0.039462 0.231635 -0.024075 0.000000 0.008470 0.000000
# 3 -0.007135 -0.024075 0.014051 0.000000 -0.000213 0.000000
# 4 0.000000 0.000000 0.000000 0.030382 0.000000 -0.003110
# 5 -0.003105 0.008470 -0.000213 0.000000 0.026786 0.000000
# 6 0.000000 0.000000 0.000000 -0.003110 0.000000 0.037275
#
#
# Mechanical properties :
#
#
# Convention : Reuss Voigt Hill
#
# Bulk Modulus (GPa) = 7.73883 89.91567 48.82725
# Shear Modulus (GPa) = 9.10049 29.94533 19.52291
#
# Velocity S-wave (km/s) = 2.22949 4.04424 3.26546
# Velocity P-wave (km/s) = 3.29460 8.42135 6.39427
#
# Compressibility (1/GPa) = 0.12921853
#
# Stress axis : x y z
#
# Youngs Moduli (GPa) = 40.19933 4.31713 71.17145
#
# Poissons Ratio (x) = 0.17036 0.50778
# Poissons Ratio (y) = 1.58634 1.71348
# Poissons Ratio (z) = 0.28681 0.10394
#
# Static dielectric constant tensor:
#      x y z
#    x 1.611470 0.000000 -0.010980 
#    y 0.000000 1.621170 0.000000 
#    z -0.010980 0.000000 1.605550 
# 
# From -- ./inp_files/275327.got.cif
#   From: 2010.05.17/outbox.cif.g08.bks.cpg/sg12_138_cif.got.tgz:275327.got - 2010.06.03 13:09:07.
