data_PCOD9194903
_publ_section_title
;
Structure prediction by ZEFSAII (Michael W. Deem and Ramdas Pophale) SiO2 
 PCOD9194903
Probable space group: C 2/M
;
_chemical_formula_sum "Si O2"
_cell_formula_units_Z 48
_cell_length_a 20.737810
_cell_length_b 8.899317
_cell_length_c 27.603644
_cell_angle_alpha 90.000000
_cell_angle_beta 147.370043
_cell_angle_gamma 90.000000
_cell_volume 2746.912838
_symmetry_space_group_name_H-M "C 2/M"
_symmetry_group_IT_number 12
_symmetry_cell_setting 'monoclinic'
loop_
_space_group_symop_operation_xyz
x,y,z
-x,y,-z
-x,-y,-z
x,-y,z
1/2+x,1/2+y,z
1/2-x,1/2+y,-z
1/2-x,1/2-y,-z
1/2+x,1/2-y,z
loop_
_atom_site_type_symbol
_atom_site_label
_atom_site_fract_x
_atom_site_fract_y
_atom_site_fract_z
Si Si1 0.892814 0.679004 0.226409
Si Si2 0.746259 0.820757 0.050443
Si Si3 0.476420 0.680011 0.428933
Si Si4 0.376737 0.180799 0.565608
Si Si5 0.506009 0.180393 0.060438
Si Si6 0.253161 0.820757 0.236257
O O1 0.889452 0.500000 0.216096
O O2 0.850359 0.761682 0.151539
O O3 0.800982 0.714195 0.212162
O O4 0.023041 0.717882 0.330203
O O5 0.752765 0.000000 0.051495
O O6 0.750000 0.750000 0.000000
O O7 0.619221 0.779602 0.994283
O O8 0.500000 0.716236 0.500000
O O9 0.480742 0.500000 0.425779
O O10 0.571298 0.754191 0.451922
O O11 0.346956 0.741504 0.331098
O O12 0.250000 0.250000 0.500000
O O13 0.369888 0.000000 0.557904
O O14 0.619392 0.260583 0.155958
O O15 0.522222 0.000000 0.073767
O O16 0.500000 0.221529 0.000000
O O17 0.259326 0.000000 0.246434
#
# Coordination Sequence:
#
# PCOD9194903 Si02
#       6
#     8   8   8   8   8   8
#     4   9  19  36  57  82 112 146 185 229 279 333
#     4  11  23  38  57  81 113 150 185 229 282 332
#     4  10  21  38  60  85 116 153 188 233 288 337
#     4  10  21  38  61  88 115 149 191 236 283 338
#     4  10  20  36  58  84 111 144 188 232 273 331
#     4  10  20  34  58  88 114 146 186 234 282 332
#
# _framework density 17.474162
#
# number of rings (size 3 to 8) (size 9 to 14) (size 15 to 20)
#    0.000    2.000    1.667    3.000    0.000    6.333 
#    3.000    0.000    0.000    0.000    0.000    0.000 
#    0.000    0.000    0.000    0.000    0.000    0.000 
#
# Total GULP energy -133992.243275 kJ/mol
# GULP energy per Si atom -5583.010136 kJ/mol
# Density = 1.743439 g / cm^3
# Si number density = 17.474162 Si / 1000 Ang^3
#
#
#
# Elastic Constant Matrix: (Units=GPa)
#
#
# Indices 1 2 3 4 5 6 
#
# 1 121.9477 59.8305 94.8924 0.0000 -8.8751 0.0000
# 2 59.8305 55.3858 68.4845 0.0000 -7.5104 0.0000
# 3 94.8924 68.4845 151.2481 0.0000 -6.8898 0.0000
# 4 0.0000 0.0000 0.0000 33.2111 0.0000 -0.2535
# 5 -8.8751 -7.5104 -6.8898 0.0000 33.4646 0.0000
# 6 0.0000 0.0000 0.0000 -0.2535 0.0000 30.3571
#
#
#
# Elastic Compliance Matrix: (Units=1/GPa)
#
#
# Indices 1 2 3 4 5 6 
#
# 1 0.019733 -0.013485 -0.006233 0.000000 0.000924 0.000000
# 2 -0.013485 0.051242 -0.014517 0.000000 0.004935 0.000000
# 3 -0.006233 -0.014517 0.017031 0.000000 -0.001404 0.000000
# 4 0.000000 0.000000 0.000000 0.030112 0.000000 0.000251
# 5 0.000924 0.004935 -0.001404 0.000000 0.030946 0.000000
# 6 0.000000 0.000000 0.000000 0.000251 0.000000 0.032943
#
#
# Mechanical properties :
#
#
# Convention : Reuss Voigt Hill
#
# Bulk Modulus (GPa) = 51.18425 86.11070 68.64747
# Shear Modulus (GPa) = 19.45614 26.43152 22.94383
#
# Velocity S-wave (km/s) = 3.34042 3.89344 3.62749
# Velocity P-wave (km/s) = 6.65078 8.34252 7.54422
#
# Compressibility (1/GPa) = 0.01953726
#
# Stress axis : x y z
#
# Youngs Moduli (GPa) = 50.67538 19.51542 58.71669
#
# Poissons Ratio (x) = 0.26317 0.36595
# Poissons Ratio (y) = 0.68337 0.85236
# Poissons Ratio (z) = 0.31583 0.28330
#
# Static dielectric constant tensor:
#      x y z
#    x 1.573060 0.000000 0.004040 
#    y 0.000000 1.582900 0.000000 
#    z 0.004040 0.000000 1.578770 
# 
# From -- ./inp_files/221664.got.cif
#   From: 2010.05.17/outbox.cif.g08.bks.cpg/sg12_111_cif.got.tgz:221664.got - 2010.06.03 13:09:07.
