data_PCOD9194894
_publ_section_title
;
Structure prediction by ZEFSAII (Michael W. Deem and Ramdas Pophale) SiO2 
 PCOD9194894
Probable space group: C 2/M
;
_chemical_formula_sum "Si O2"
_cell_formula_units_Z 40
_cell_length_a 18.629418
_cell_length_b 11.103569
_cell_length_c 10.018281
_cell_angle_alpha 90.000000
_cell_angle_beta 79.697599
_cell_angle_gamma 90.000000
_cell_volume 2038.901008
_symmetry_space_group_name_H-M "C 2/M"
_symmetry_group_IT_number 12
_symmetry_cell_setting 'monoclinic'
loop_
_space_group_symop_operation_xyz
x,y,z
-x,y,-z
-x,-y,-z
x,-y,z
1/2+x,1/2+y,z
1/2-x,1/2+y,-z
1/2-x,1/2-y,-z
1/2+x,1/2-y,z
loop_
_atom_site_type_symbol
_atom_site_label
_atom_site_fract_x
_atom_site_fract_y
_atom_site_fract_z
Si Si1 0.213639 0.864387 0.348321
Si Si2 0.200541 0.134953 0.048451
Si Si3 0.139386 0.750118 0.609105
Si Si4 0.932778 0.500000 0.420721
Si Si5 0.571399 0.000000 0.888205
Si Si6 0.420153 0.266456 0.093285
O O1 0.181613 0.852969 0.211269
O O2 0.155220 0.839803 0.483135
O O3 0.281926 0.775539 0.348078
O O4 0.243168 0.000000 0.351282
O O5 0.232459 0.000000 0.019127
O O6 0.250000 0.250000 0.000000
O O7 0.131526 0.148861 0.975033
O O8 0.112230 0.624171 0.553726
O O9 0.085848 0.791702 0.746033
O O10 0.954006 0.500000 0.257049
O O11 0.000000 0.500000 0.500000
O O12 0.609403 0.127142 0.903651
O O13 0.500000 0.000000 0.000000
O O14 0.500000 0.268985 0.000000
#
# Coordination Sequence:
#
# PCOD9194894 Si02
#       6
#     8   8   8   4   4   8
#     4  10  21  39  61  84 123 158 198 253 310 359
#     4  11  24  41  64  92 125 164 212 263 311 372
#     4  10  20  37  59  88 121 161 201 250 308 362
#     4  10  20  34  58  86 126 158 197 251 304 368
#     4   8  18  34  58  86 122 164 195 248 314 361
#     4  10  21  39  63  91 125 165 207 258 317 372
#
# _framework density 19.618413
#
# number of rings (size 3 to 8) (size 9 to 14) (size 15 to 20)
#    0.000    2.000    3.000    0.000    1.400    6.000 
#    1.800    0.000    0.000    3.000    0.000    0.000 
#    0.000    0.000    0.000    0.000    0.000    0.000 
#
# Total GULP energy -111462.112405 kJ/mol
# GULP energy per Si atom -5573.105620 kJ/mol
# Density = 1.957376 g / cm^3
# Si number density = 19.618413 Si / 1000 Ang^3
#
#
#
# Elastic Constant Matrix: (Units=GPa)
#
#
# Indices 1 2 3 4 5 6 
#
# 1 49.5985 20.0416 25.5959 0.0000 -0.5422 0.0000
# 2 20.0416 78.1585 49.8520 0.0000 2.2543 0.0000
# 3 25.5959 49.8520 107.9473 0.0000 -12.2482 0.0000
# 4 0.0000 0.0000 0.0000 30.5398 0.0000 -0.9833
# 5 -0.5422 2.2543 -12.2482 0.0000 38.2623 0.0000
# 6 0.0000 0.0000 0.0000 -0.9833 0.0000 26.9991
#
#
#
# Elastic Compliance Matrix: (Units=1/GPa)
#
#
# Indices 1 2 3 4 5 6 
#
# 1 0.023661 -0.003416 -0.004122 0.000000 -0.000783 0.000000
# 2 -0.003416 0.019206 -0.008503 0.000000 -0.003902 0.000000
# 3 -0.004122 -0.008503 0.014754 0.000000 0.005165 0.000000
# 4 0.000000 0.000000 0.000000 0.032783 0.000000 0.001194
# 5 -0.000783 -0.003902 0.005165 0.000000 0.028008 0.000000
# 6 0.000000 0.000000 0.000000 0.001194 0.000000 0.037082
#
#
# Mechanical properties :
#
#
# Convention : Reuss Voigt Hill
#
# Bulk Modulus (GPa) = 39.15304 47.40927 43.28116
# Shear Modulus (GPa) = 25.49905 28.50790 27.00348
#
# Velocity S-wave (km/s) = 3.60912 3.81612 3.71406
# Velocity P-wave (km/s) = 6.11296 6.60569 6.36409
#
# Compressibility (1/GPa) = 0.02554080
#
# Stress axis : x y z
#
# Youngs Moduli (GPa) = 42.26440 52.06686 67.77898
#
# Poissons Ratio (x) = 0.17784 0.27937
# Poissons Ratio (y) = 0.14436 0.57629
# Poissons Ratio (z) = 0.17420 0.44270
#
# Static dielectric constant tensor:
#      x y z
#    x 1.703230 0.000000 -0.000760 
#    y 0.000000 1.743150 0.000000 
#    z -0.000760 0.000000 1.694400 
# 
# From -- ./inp_files/71363.got.cif
#   From: 2010.05.17/outbox.cif.g08.bks.cpg/sg12_36_cif.got.tgz:71363.got - 2010.06.03 13:09:07.
