data_PCOD9194118
_publ_section_title
;
Structure prediction by ZEFSAII (Michael W. Deem and Ramdas Pophale) SiO2 
 PCOD9194118
Probable space group: C 2/M
;
_chemical_formula_sum "Si O2"
_cell_formula_units_Z 64
_cell_length_a 31.158230
_cell_length_b 9.168610
_cell_length_c 16.030487
_cell_angle_alpha 90.000000
_cell_angle_beta 45.904870
_cell_angle_gamma 90.000000
_cell_volume 3288.967597
_symmetry_space_group_name_H-M "C 2/M"
_symmetry_group_IT_number 12
_symmetry_cell_setting 'monoclinic'
loop_
_space_group_symop_operation_xyz
x,y,z
-x,y,-z
-x,-y,-z
x,-y,z
1/2+x,1/2+y,z
1/2-x,1/2+y,-z
1/2-x,1/2-y,-z
1/2+x,1/2-y,z
loop_
_atom_site_type_symbol
_atom_site_label
_atom_site_fract_x
_atom_site_fract_y
_atom_site_fract_z
Si Si1 0.336862 0.672226 0.835963
Si Si2 0.002483 0.327004 0.187662
Si Si3 0.210265 0.672183 0.934151
Si Si4 0.929503 0.673398 0.598923
Si Si5 0.190284 0.169389 0.552540
Si Si6 0.896034 0.325706 0.455999
Si Si7 0.079986 0.167911 0.827402
Si Si8 0.385917 0.672481 0.028041
O O1 0.341283 0.500000 0.847666
O O2 0.318558 0.758283 0.943727
O O3 0.395869 0.735890 0.714638
O O4 0.281188 0.694209 0.847514
O O5 0.012684 0.500000 0.173938
O O6 0.958375 0.289539 0.324069
O O7 0.965736 0.275826 0.155646
O O8 0.064873 0.242844 0.099674
O O9 0.198577 0.500000 0.946995
O O10 0.177534 0.752604 0.902994
O O11 0.921578 0.500000 0.625448
O O12 0.902317 0.707534 0.544781
O O13 0.000000 0.702221 0.500000
O O14 0.250000 0.250000 0.500000
O O15 0.157287 0.243630 0.518737
O O16 0.141745 0.177148 0.692817
O O17 0.202563 0.000000 0.518542
O O18 0.887781 0.500000 0.457391
O O19 0.057607 0.000000 0.849453
O O20 0.092184 0.198364 0.907246
O O21 0.381818 0.500000 0.020290
#
# Coordination Sequence:
#
# PCOD9194118 Si02
#       8
#     8   8   8   8   8   8   8   8
#     4  10  22  41  62  87 117 149 190 243 296 344
#     4  10  20  34  55  81 113 150 188 234 283 336
#     4  10  22  40  61  84 114 152 192 236 292 353
#     4  10  22  39  62  89 119 160 200 240 294 353
#     4  10  20  36  58  82 110 149 191 235 288 342
#     4   9  20  38  56  81 115 152 194 235 285 347
#     4   9  20  37  53  75 111 150 186 229 281 340
#     4  11  22  35  55  83 112 146 190 233 282 341
#
# _framework density 19.458995000000002
#
# number of rings (size 3 to 8) (size 9 to 14) (size 15 to 20)
#    0.000    2.125    0.000    2.250    1.750    6.750 
#    0.000    3.750    0.000    0.000    0.000    0.000 
#    0.000    0.000    0.000    0.000    0.000    0.000 
#
# Total GULP energy -178797.813881 kJ/mol
# GULP energy per Si atom -5587.431684 kJ/mol
# Density = 1.941471 g / cm^3
# Si number density = 19.458995 Si / 1000 Ang^3
#
#
#
# Elastic Constant Matrix: (Units=GPa)
#
#
# Indices 1 2 3 4 5 6 
#
# 1 40.5121 19.7869 5.5367 0.0000 -11.7888 0.0000
# 2 19.7869 51.5900 18.4373 0.0000 -8.4300 0.0000
# 3 5.5367 18.4373 37.3788 0.0000 -4.9823 0.0000
# 4 0.0000 0.0000 0.0000 23.6806 0.0000 -4.1683
# 5 -11.7888 -8.4300 -4.9823 0.0000 20.8972 0.0000
# 6 0.0000 0.0000 0.0000 -4.1683 0.0000 33.9394
#
#
#
# Elastic Compliance Matrix: (Units=1/GPa)
#
#
# Indices 1 2 3 4 5 6 
#
# 1 0.034501 -0.011683 0.002705 0.000000 0.015395 0.000000
# 2 -0.011683 0.028507 -0.012060 0.000000 0.002034 0.000000
# 3 0.002705 -0.012060 0.032902 0.000000 0.004505 0.000000
# 4 0.000000 0.000000 0.000000 0.043162 0.000000 0.005301
# 5 0.015395 0.002034 0.004505 0.000000 0.058432 0.000000
# 6 0.000000 0.000000 0.000000 0.005301 0.000000 0.030115
#
#
# Mechanical properties :
#
#
# Convention : Reuss Voigt Hill
#
# Bulk Modulus (GPa) = 18.57626 24.11140 21.34383
# Shear Modulus (GPa) = 17.38291 21.41811 19.40051
#
# Velocity S-wave (km/s) = 2.99207 3.32125 3.16095
# Velocity P-wave (km/s) = 4.63721 5.20820 4.93098
#
# Compressibility (1/GPa) = 0.05383216
#
# Stress axis : x y z
#
# Youngs Moduli (GPa) = 28.98507 35.07938 30.39374
#
# Poissons Ratio (x) = 0.40984 -0.08220
# Poissons Ratio (y) = 0.33864 0.36653
# Poissons Ratio (z) = -0.07839 0.42304
#
# Static dielectric constant tensor:
#      x y z
#    x 1.685420 0.000000 -0.001550 
#    y 0.000000 1.648030 0.000000 
#    z -0.001550 0.000000 1.673740 
# 
# From -- ./inp_files/249853.got.cif
#   From: 2010.05.17/outbox.cif.g08.bks.cpg/sg12_125_cif.got.tgz:249853.got - 2010.06.03 13:09:07.
