data_PCOD9194634
_publ_section_title
;
Structure prediction by ZEFSAII (Michael W. Deem and Ramdas Pophale) SiO2 
 PCOD9194634
Probable space group: C 2/M
;
_chemical_formula_sum "Si O2"
_cell_formula_units_Z 40
_cell_length_a 19.144421
_cell_length_b 8.884270
_cell_length_c 15.121714
_cell_angle_alpha 90.000000
_cell_angle_beta 139.266923
_cell_angle_gamma 90.000000
_cell_volume 1678.299479
_symmetry_space_group_name_H-M "C 2/M"
_symmetry_group_IT_number 12
_symmetry_cell_setting 'monoclinic'
loop_
_space_group_symop_operation_xyz
x,y,z
-x,y,-z
-x,-y,-z
x,-y,z
1/2+x,1/2+y,z
1/2-x,1/2+y,-z
1/2-x,1/2-y,-z
1/2+x,1/2-y,z
loop_
_atom_site_type_symbol
_atom_site_label
_atom_site_fract_x
_atom_site_fract_y
_atom_site_fract_z
Si Si1 0.522541 0.668745 0.395420
Si Si2 0.337975 0.671578 0.643997
Si Si3 0.591951 0.322237 0.013377
Si Si4 0.365986 0.822157 0.125953
Si Si5 0.761162 0.178976 0.291636
O O1 0.488393 0.500000 0.388582
O O2 0.619109 0.717342 0.554785
O O3 0.422453 0.770441 0.271999
O O4 0.573698 0.656670 0.346731
O O5 0.315510 0.500000 0.653651
O O6 0.250000 0.750000 0.500000
O O7 0.326150 0.779062 0.716438
O O8 0.591841 0.500000 0.991667
O O9 0.707615 0.270457 0.160783
O O10 0.500000 0.301409 0.000000
O O11 0.572556 0.228765 0.905426
O O12 0.358405 0.000000 0.119392
O O13 0.250000 0.750000 0.000000
O O14 0.760721 0.000000 0.275298
#
# Coordination Sequence:
#
# PCOD9194634 Si02
#       5
#     8   8   8   8   8
#     4   9  19  36  57  84 120 160 205 256 310 369
#     4   9  16  27  47  78 117 157 196 245 302 359
#     4  11  24  42  65  95 133 171 209 260 317 371
#     4  12  26  44  67  92 124 167 214 262 315 381
#     4  10  20  34  56  88 124 161 204 257 312 368
#
# _framework density 23.833649000000001
#
# number of rings (size 3 to 8) (size 9 to 14) (size 15 to 20)
#    0.000    1.800    0.000    6.000    0.000   11.200 
#    0.000    1.000    0.000    6.000    0.000    0.000 
#    0.000    0.000    0.000    0.000    0.000    0.000 
#
# Total GULP energy -111469.150745 kJ/mol
# GULP energy per Si atom -5573.457537 kJ/mol
# Density = 2.377940 g / cm^3
# Si number density = 23.833649 Si / 1000 Ang^3
#
#
#
# Elastic Constant Matrix: (Units=GPa)
#
#
# Indices 1 2 3 4 5 6 
#
# 1 80.8899 25.2093 22.4378 0.0000 9.0847 0.0000
# 2 25.2093 133.9965 83.3547 0.0000 8.5127 0.0000
# 3 22.4378 83.3547 195.9523 0.0000 -15.7780 0.0000
# 4 0.0000 0.0000 0.0000 28.9070 0.0000 -0.9424
# 5 9.0847 8.5127 -15.7780 0.0000 35.1113 0.0000
# 6 0.0000 0.0000 0.0000 -0.9424 0.0000 20.9807
#
#
#
# Elastic Compliance Matrix: (Units=1/GPa)
#
#
# Indices 1 2 3 4 5 6 
#
# 1 0.013596 -0.001596 -0.001172 0.000000 -0.003658 0.000000
# 2 -0.001596 0.011094 -0.004897 0.000000 -0.004477 0.000000
# 3 -0.001172 -0.004897 0.007720 0.000000 0.004960 0.000000
# 4 0.000000 0.000000 0.000000 0.034644 0.000000 0.001556
# 5 -0.003658 -0.004477 0.004960 0.000000 0.032741 0.000000
# 6 0.000000 0.000000 0.000000 0.001556 0.000000 0.047733
#
#
# Mechanical properties :
#
#
# Convention : Reuss Voigt Hill
#
# Bulk Modulus (GPa) = 58.55202 74.76027 66.65614
# Shear Modulus (GPa) = 29.66447 35.65559 32.66003
#
# Velocity S-wave (km/s) = 3.53178 3.87204 3.70582
# Velocity P-wave (km/s) = 6.42274 7.17118 6.80726
#
# Compressibility (1/GPa) = 0.01707883
#
# Stress axis : x y z
#
# Youngs Moduli (GPa) = 73.55153 90.14072 129.53544
#
# Poissons Ratio (x) = 0.14389 0.15186
# Poissons Ratio (y) = 0.11741 0.63431
# Poissons Ratio (z) = 0.08623 0.44140
#
# Static dielectric constant tensor:
#      x y z
#    x 2.152480 0.000000 0.043820 
#    y 0.000000 1.771620 0.000000 
#    z 0.043820 0.000000 1.993350 
# 
# From -- ./inp_files/273412.got.cif
#   From: 2010.05.17/outbox.cif.g08.bks.cpg/sg12_137_cif.got.tgz:273412.got - 2010.06.03 13:09:07.
