data_PCOD9194238
_publ_section_title
;
Structure prediction by ZEFSAII (Michael W. Deem and Ramdas Pophale) SiO2 
 PCOD9194238
Probable space group: C 2/M
;
_chemical_formula_sum "Si O2"
_cell_formula_units_Z 64
_cell_length_a 29.752588
_cell_length_b 9.077007
_cell_length_c 15.175418
_cell_angle_alpha 90.000000
_cell_angle_beta 51.802413
_cell_angle_gamma 90.000000
_cell_volume 3220.816189
_symmetry_space_group_name_H-M "C 2/M"
_symmetry_group_IT_number 12
_symmetry_cell_setting 'monoclinic'
loop_
_space_group_symop_operation_xyz
x,y,z
-x,y,-z
-x,-y,-z
x,-y,z
1/2+x,1/2+y,z
1/2-x,1/2+y,-z
1/2-x,1/2-y,-z
1/2+x,1/2-y,z
loop_
_atom_site_type_symbol
_atom_site_label
_atom_site_fract_x
_atom_site_fract_y
_atom_site_fract_z
Si Si1 0.436890 0.826021 0.944566
Si Si2 0.102436 0.662440 0.192072
Si Si3 0.939594 0.824702 0.601332
Si Si4 0.565534 0.823390 0.721276
Si Si5 0.122360 0.824467 0.819703
Si Si6 0.632452 0.677826 0.479308
Si Si7 0.746045 0.177187 0.288122
Si Si8 0.228859 0.664491 0.110350
O O1 0.393061 0.803641 0.916323
O O2 0.499423 0.790464 0.828350
O O3 0.437114 0.000000 0.968736
O O4 0.416594 0.731724 0.051841
O O5 0.074639 0.500000 0.230289
O O6 0.068716 0.780889 0.288084
O O7 0.161744 0.654346 0.171777
O O8 0.892631 0.778469 0.586460
O O9 0.000000 0.760088 0.500000
O O10 0.941028 0.000000 0.593767
O O11 0.602846 0.762982 0.757199
O O12 0.590379 0.745013 0.604061
O O13 0.570316 0.000000 0.706356
O O14 0.189305 0.796053 0.758761
O O15 0.115006 0.000000 0.816760
O O16 0.633621 0.500000 0.485486
O O17 0.696531 0.743427 0.404110
O O18 0.740789 0.228330 0.192315
O O19 0.735722 0.000000 0.302087
O O20 0.254149 0.500000 0.079073
O O21 0.250000 0.750000 0.000000
#
# Coordination Sequence:
#
# PCOD9194238 Si02
#       8
#     8   8   8   8   8   8   8   8
#     4  10  22  40  62  92 125 158 201 250 304 365
#     4  10  20  35  57  85 116 153 194 232 279 346
#     4  10  21  36  55  84 121 156 192 238 290 345
#     4  11  24  42  64  88 120 161 202 253 312 366
#     4  11  24  41  64  91 119 157 204 256 311 363
#     4  11  23  39  62  91 122 160 206 253 301 359
#     4  10  22  41  61  86 123 162 202 249 303 362
#     4  10  20  34  55  83 116 153 192 235 284 342
#
# _framework density 19.870739
#
# number of rings (size 3 to 8) (size 9 to 14) (size 15 to 20)
#    0.000    1.625    1.250    3.000    0.000    6.250 
#    0.000    0.000    0.000    0.000    0.000    0.000 
#    0.000    0.000    0.000    0.000    0.000    0.000 
#
# Total GULP energy -178568.789693 kJ/mol
# GULP energy per Si atom -5580.274678 kJ/mol
# Density = 1.982551 g / cm^3
# Si number density = 19.870739 Si / 1000 Ang^3
#
#
#
# Elastic Constant Matrix: (Units=GPa)
#
#
# Indices 1 2 3 4 5 6 
#
# 1 64.7569 23.0153 5.9240 0.0000 3.4030 0.0000
# 2 23.0153 49.2337 41.1449 0.0000 -4.3247 0.0000
# 3 5.9240 41.1449 85.5666 0.0000 -3.0141 0.0000
# 4 0.0000 0.0000 0.0000 41.6030 0.0000 5.7568
# 5 3.4030 -4.3247 -3.0141 0.0000 32.1968 0.0000
# 6 0.0000 0.0000 0.0000 5.7568 0.0000 27.6163
#
#
#
# Elastic Compliance Matrix: (Units=1/GPa)
#
#
# Indices 1 2 3 4 5 6 
#
# 1 0.020179 -0.014164 0.005289 0.000000 -0.003540 0.000000
# 2 -0.014164 0.044199 -0.020077 0.000000 0.005554 0.000000
# 3 0.005289 -0.020077 0.020929 0.000000 -0.001297 0.000000
# 4 0.000000 0.000000 0.000000 0.024751 0.000000 -0.005159
# 5 -0.003540 0.005554 -0.001297 0.000000 0.032058 0.000000
# 6 0.000000 0.000000 0.000000 -0.005159 0.000000 0.037286
#
#
# Mechanical properties :
#
#
# Convention : Reuss Voigt Hill
#
# Bulk Modulus (GPa) = 36.49257 37.74729 37.11993
# Shear Modulus (GPa) = 20.28903 28.91475 24.60189
#
# Velocity S-wave (km/s) = 3.19885 3.81877 3.52248
# Velocity P-wave (km/s) = 5.66113 6.20336 5.93844
#
# Compressibility (1/GPa) = 0.02740284
#
# Stress axis : x y z
#
# Youngs Moduli (GPa) = 49.55747 22.62506 47.78072
#
# Poissons Ratio (x) = 0.32046 -0.25272
# Poissons Ratio (y) = 0.70193 0.95928
# Poissons Ratio (z) = -0.26211 0.45424
#
# Static dielectric constant tensor:
#      x y z
#    x 1.734710 0.000000 -0.018560 
#    y 0.000000 1.743390 0.000000 
#    z -0.018560 0.000000 1.741100 
# 
# From -- ./inp_files/249865.got.cif
#   From: 2010.05.17/outbox.cif.g08.bks.cpg/sg12_125_cif.got.tgz:249865.got - 2010.06.03 13:09:07.
