data_PCOD9194110
_publ_section_title
;
Structure prediction by ZEFSAII (Michael W. Deem and Ramdas Pophale) SiO2 
 PCOD9194110
Probable space group: C 2/M
;
_chemical_formula_sum "Si O2"
_cell_formula_units_Z 64
_cell_length_a 7.017313
_cell_length_b 27.027951
_cell_length_c 27.670350
_cell_angle_alpha 90.000000
_cell_angle_beta 139.536298
_cell_angle_gamma 90.000000
_cell_volume 3405.812165
_symmetry_space_group_name_H-M "C 2/M"
_symmetry_group_IT_number 12
_symmetry_cell_setting 'monoclinic'
loop_
_space_group_symop_operation_xyz
x,y,z
-x,y,-z
-x,-y,-z
x,-y,z
1/2+x,1/2+y,z
1/2-x,1/2+y,-z
1/2-x,1/2-y,-z
1/2+x,1/2-y,z
loop_
_atom_site_type_symbol
_atom_site_label
_atom_site_fract_x
_atom_site_fract_y
_atom_site_fract_z
Si Si1 0.770165 0.806060 0.090054
Si Si2 0.269252 0.190683 0.089750
Si Si3 0.637755 0.056804 0.286938
Si Si4 0.583884 0.443196 0.286937
Si Si5 0.834034 0.123828 0.857814
Si Si6 0.687153 0.123828 0.142185
Si Si7 0.748342 0.059723 0.416111
Si Si8 0.227177 0.055771 1.000000
O O1 0.836315 0.748662 0.112104
O O2 0.560417 0.818358 0.104167
O O3 0.937679 0.856378 0.145892
O O4 0.500000 0.811791 0.000000
O O5 0.064587 0.181642 0.104167
O O6 0.417791 0.136133 0.139263
O O7 0.000000 0.183864 0.000000
O O8 0.399377 0.094281 0.219940
O O9 0.767119 0.072765 0.363411
O O10 0.898601 0.055419 0.299531
O O11 0.522079 0.000000 0.268350
O O12 0.588024 0.500000 0.268347
O O13 0.420266 0.405719 0.219939
O O14 0.913361 0.427237 0.363409
O O15 0.057810 0.085695 0.926402
O O16 0.499399 0.085695 0.073597
O O17 0.000000 0.079725 0.500000
O O18 0.766490 0.000000 0.422158
O O19 0.298340 0.000000 1.000000
O O20 0.000000 0.053349 0.000000
#
# Coordination Sequence:
#
# PCOD9194110 Si02
#       8
#     8   8   8   8   8   8   8   8
#     4  11  23  33  49  69  99 138 187 236 277 312
#     4  11  20  35  51  69  96 142 189 225 269 312
#     4  10  20  34  55  81 111 145 176 216 267 317
#     4  10  20  34  55  81 111 145 176 216 267 317
#     4  12  19  35  49  72 102 137 179 222 266 309
#     4  12  19  35  49  72 102 137 179 222 266 309
#     4   9  19  36  56  81 112 143 175 209 254 322
#     4  11  20  31  48  68  93 136 181 213 246 302
#
# _framework density 18.791405000000001
#
# number of rings (size 3 to 8) (size 9 to 14) (size 15 to 20)
#    0.000    1.250    5.000    2.250    0.000    4.500 
#    0.000    5.000    0.000    0.000    0.000    0.000 
#    0.000   16.000    0.000    0.000    0.000    0.000 
#
# Total GULP energy -178336.453189 kJ/mol
# GULP energy per Si atom -5573.014162 kJ/mol
# Density = 1.874863 g / cm^3
# Si number density = 18.791405 Si / 1000 Ang^3
#
#
#
# Elastic Constant Matrix: (Units=GPa)
#
#
# Indices 1 2 3 4 5 6 
#
# 1 174.0199 59.8290 66.6323 0.0000 -1.9717 0.0000
# 2 59.8290 141.1980 79.4533 0.0000 0.5238 0.0000
# 3 66.6323 79.4533 174.6810 0.0000 1.9752 0.0000
# 4 0.0000 0.0000 0.0000 11.0625 0.0000 -0.5582
# 5 -1.9717 0.5238 1.9752 0.0000 17.1377 0.0000
# 6 0.0000 0.0000 0.0000 -0.5582 0.0000 31.8589
#
#
#
# Elastic Compliance Matrix: (Units=1/GPa)
#
#
# Indices 1 2 3 4 5 6 
#
# 1 0.007148 -0.002005 -0.001827 0.000000 0.001094 0.000000
# 2 -0.002005 0.010081 -0.003820 0.000000 -0.000099 0.000000
# 3 -0.001827 -0.003820 0.008171 0.000000 -0.001035 0.000000
# 4 0.000000 0.000000 0.000000 0.090476 0.000000 0.001585
# 5 0.001094 -0.000099 -0.001035 0.000000 0.058599 0.000000
# 6 0.000000 0.000000 0.000000 0.001585 0.000000 0.031416
#
#
# Mechanical properties :
#
#
# Convention : Reuss Voigt Hill
#
# Bulk Modulus (GPa) = 99.03905 100.19201 99.61553
# Shear Modulus (GPa) = 22.26585 30.94410 26.60497
#
# Velocity S-wave (km/s) = 3.44597 4.06238 3.76680
# Velocity P-wave (km/s) = 8.28564 8.68548 8.48791
#
# Compressibility (1/GPa) = 0.01009703
#
# Stress axis : x y z
#
# Youngs Moduli (GPa) = 139.90631 99.19244 122.38744
#
# Poissons Ratio (x) = 0.19884 0.22361
# Poissons Ratio (y) = 0.28045 0.46749
# Poissons Ratio (z) = 0.25562 0.37889
#
# Static dielectric constant tensor:
#      x y z
#    x 2.427180 0.000000 -0.023680 
#    y 0.000000 1.630300 0.000000 
#    z -0.023680 0.000000 1.544330 
# 
# From -- ./inp_files/199891.got.cif
#   From: 2010.05.17/outbox.cif.g08.bks.cpg/sg12_100_cif.got.tgz:199891.got - 2010.06.03 13:09:07.
