data_PCOD9194271
_publ_section_title
;
Structure prediction by ZEFSAII (Michael W. Deem and Ramdas Pophale) SiO2 
 PCOD9194271
Probable space group: C 2/M
;
_chemical_formula_sum "Si O2"
_cell_formula_units_Z 40
_cell_length_a 5.052102
_cell_length_b 19.956897
_cell_length_c 18.328414
_cell_angle_alpha 90.000000
_cell_angle_beta 87.803351
_cell_angle_gamma 90.000000
_cell_volume 1846.591184
_symmetry_space_group_name_H-M "C 2/M"
_symmetry_group_IT_number 12
_symmetry_cell_setting 'monoclinic'
loop_
_space_group_symop_operation_xyz
x,y,z
-x,y,-z
-x,-y,-z
x,-y,z
1/2+x,1/2+y,z
1/2-x,1/2+y,-z
1/2-x,1/2-y,-z
1/2+x,1/2-y,z
loop_
_atom_site_type_symbol
_atom_site_label
_atom_site_fract_x
_atom_site_fract_y
_atom_site_fract_z
Si Si1 0.303847 0.076719 0.069613
Si Si2 0.499342 0.292351 0.111619
Si Si3 0.055208 0.149022 0.731434
Si Si4 0.918941 0.206748 0.576144
Si Si5 0.450145 0.925480 0.230075
O O1 0.089865 0.136104 0.078572
O O2 0.472708 0.082054 0.142659
O O3 0.194027 0.000000 0.069531
O O4 0.500000 0.084801 0.000000
O O5 0.218242 0.263594 0.090830
O O6 0.497799 0.301425 0.199940
O O7 0.856088 0.087928 0.749916
O O8 0.980885 0.173800 0.652526
O O9 0.358778 0.127203 0.733919
O O10 0.115175 0.271135 0.574477
O O11 0.000000 0.169797 0.500000
O O12 0.527449 0.000000 0.250543
#
# Coordination Sequence:
#
# PCOD9194271 Si02
#       5
#     8   8   8   8   8
#     4   9  20  40  62  85 116 156 201 246 295 354
#     4  11  22  37  58  86 116 148 188 238 294 345
#     4  11  20  36  59  82 115 151 187 234 289 351
#     4  10  20  34  55  84 115 147 185 230 283 346
#     4  10  21  37  59  84 109 147 197 242 284 338
#
# _framework density 21.661534
#
# number of rings (size 3 to 8) (size 9 to 14) (size 15 to 20)
#    0.000    1.800    0.000    5.400    0.000    1.600 
#    0.000    9.000    0.000   31.200    0.000    0.000 
#    0.000    0.000    0.000    0.000    0.000    0.000 
#
# Total GULP energy -111837.280138 kJ/mol
# GULP energy per Si atom -5591.864007 kJ/mol
# Density = 2.161223 g / cm^3
# Si number density = 21.661534 Si / 1000 Ang^3
#
#
#
# Elastic Constant Matrix: (Units=GPa)
#
#
# Indices 1 2 3 4 5 6 
#
# 1 52.8384 4.0343 -15.7638 0.0000 4.0379 0.0000
# 2 4.0343 73.0519 4.2766 0.0000 -11.0945 0.0000
# 3 -15.7638 4.2766 127.3645 0.0000 0.8936 0.0000
# 4 0.0000 0.0000 0.0000 15.8454 0.0000 3.5647
# 5 4.0379 -11.0945 0.8936 0.0000 31.5867 0.0000
# 6 0.0000 0.0000 0.0000 3.5647 0.0000 6.8096
#
#
#
# Elastic Compliance Matrix: (Units=1/GPa)
#
#
# Indices 1 2 3 4 5 6 
#
# 1 0.020074 -0.001753 0.002566 0.000000 -0.003254 0.000000
# 2 -0.001753 0.014648 -0.000747 0.000000 0.005390 0.000000
# 3 0.002566 -0.000747 0.008200 0.000000 -0.000822 0.000000
# 4 0.000000 0.000000 0.000000 0.071535 0.000000 -0.037448
# 5 -0.003254 0.005390 -0.000822 0.000000 0.033991 0.000000
# 6 0.000000 0.000000 0.000000 -0.037448 0.000000 0.166456
#
#
# Mechanical properties :
#
#
# Convention : Reuss Voigt Hill
#
# Bulk Modulus (GPa) = 23.22622 26.48321 24.85472
# Shear Modulus (GPa) = 15.19194 28.22886 21.71040
#
# Velocity S-wave (km/s) = 2.65114 3.61387 3.16928
# Velocity P-wave (km/s) = 4.48520 5.44664 4.98913
#
# Compressibility (1/GPa) = 0.04305478
#
# Stress axis : x y z
#
# Youngs Moduli (GPa) = 49.81622 68.26854 121.95209
#
# Poissons Ratio (x) = 0.11968 -0.31296
# Poissons Ratio (y) = 0.08733 0.09105
# Poissons Ratio (z) = -0.12784 0.05097
#
# Static dielectric constant tensor:
#      x y z
#    x 1.775520 0.000000 -0.021130 
#    y 0.000000 1.794250 0.000000 
#    z -0.021130 0.000000 1.824990 
# 
# From -- ./inp_files/252557.got.cif
#   From: 2010.05.17/outbox.cif.g08.bks.cpg/sg12_127_cif.got.tgz:252557.got - 2010.06.03 13:09:07.
