data_PCOD9194180
_publ_section_title
;
Structure prediction by ZEFSAII (Michael W. Deem and Ramdas Pophale) SiO2 
 PCOD9194180
Probable space group: C 2/M
;
_chemical_formula_sum "Si O2"
_cell_formula_units_Z 48
_cell_length_a 9.217982
_cell_length_b 10.633559
_cell_length_c 25.225088
_cell_angle_alpha 90.000000
_cell_angle_beta 101.471348
_cell_angle_gamma 90.000000
_cell_volume 2423.170797
_symmetry_space_group_name_H-M "C 2/M"
_symmetry_group_IT_number 12
_symmetry_cell_setting 'monoclinic'
loop_
_space_group_symop_operation_xyz
x,y,z
-x,y,-z
-x,-y,-z
x,-y,z
1/2+x,1/2+y,z
1/2-x,1/2+y,-z
1/2-x,1/2-y,-z
1/2+x,1/2-y,z
loop_
_atom_site_type_symbol
_atom_site_label
_atom_site_fract_x
_atom_site_fract_y
_atom_site_fract_z
Si Si1 0.670320 0.356316 0.196532
Si Si2 0.604192 0.759191 0.623014
Si Si3 0.595932 0.348294 0.309306
Si Si4 0.886056 0.248090 0.126186
Si Si5 0.389876 0.500000 0.442575
Si Si6 0.909616 0.644427 0.944350
Si Si7 0.046480 0.500000 0.442289
O O1 0.714879 0.500000 0.206094
O O2 0.635641 0.306701 0.252687
O O3 0.800438 0.291685 0.172755
O O4 0.515436 0.347577 0.152969
O O5 0.543202 0.724094 0.676726
O O6 0.770404 0.808779 0.642260
O O7 0.590344 0.628868 0.589466
O O8 0.515284 0.874098 0.590253
O O9 0.575531 0.500000 0.308256
O O10 0.749479 0.203099 0.080072
O O11 0.982737 0.346108 0.098960
O O12 0.500000 0.500000 0.500000
O O13 0.222363 0.500000 0.450674
O O14 0.880871 0.500000 0.955338
O O15 0.000000 0.703588 0.000000
O O16 0.000000 0.500000 0.500000
#
# Coordination Sequence:
#
# PCOD9194180 Si02
#       7
#     8   8   8   8   4   8   4
#     4  10  21  37  58  86 116 154 197 244 301 352
#     4  12  24  44  66  94 126 160 202 252 300 362
#     4  11  23  40  65  91 122 160 201 253 306 361
#     4  10  20  36  56  82 116 154 198 244 290 356
#     4  12  28  44  68  96 126 162 204 246 301 360
#     4  10  20  34  55  82 115 154 196 244 297 347
#     4  12  28  44  68  96 126 162 204 246 301 360
#
# _framework density 19.808755999999999
#
# number of rings (size 3 to 8) (size 9 to 14) (size 15 to 20)
#    0.000    1.167    3.333    3.000    2.333    1.333 
#    0.000    0.000    3.667    8.000    0.000    0.000 
#    0.000    0.000    0.000    0.000    0.000    0.000 
#
# Total GULP energy -133889.866118 kJ/mol
# GULP energy per Si atom -5578.744422 kJ/mol
# Density = 1.976367 g / cm^3
# Si number density = 19.808756 Si / 1000 Ang^3
#
#
#
# Elastic Constant Matrix: (Units=GPa)
#
#
# Indices 1 2 3 4 5 6 
#
# 1 92.5887 11.0642 0.5884 0.0000 0.8743 0.0000
# 2 11.0642 67.8220 9.3489 0.0000 -2.8386 0.0000
# 3 0.5884 9.3489 62.8365 0.0000 -2.1022 0.0000
# 4 0.0000 0.0000 0.0000 22.8431 0.0000 -1.5440
# 5 0.8743 -2.8386 -2.1022 0.0000 45.3040 0.0000
# 6 0.0000 0.0000 0.0000 -1.5440 0.0000 17.1927
#
#
#
# Elastic Compliance Matrix: (Units=1/GPa)
#
#
# Indices 1 2 3 4 5 6 
#
# 1 0.011022 -0.001833 0.000159 0.000000 -0.000320 0.000000
# 2 -0.001833 0.015390 -0.002243 0.000000 0.000896 0.000000
# 3 0.000159 -0.002243 0.016267 0.000000 0.000611 0.000000
# 4 0.000000 0.000000 0.000000 0.044044 0.000000 0.003955
# 5 -0.000320 0.000896 0.000611 0.000000 0.022164 0.000000
# 6 0.000000 0.000000 0.000000 0.003955 0.000000 0.058519
#
#
# Mechanical properties :
#
#
# Convention : Reuss Voigt Hill
#
# Bulk Modulus (GPa) = 28.69897 29.47224 29.08561
# Shear Modulus (GPa) = 26.75871 30.55100 28.65486
#
# Velocity S-wave (km/s) = 3.67938 3.93147 3.80751
# Velocity P-wave (km/s) = 5.70701 5.95981 5.83478
#
# Compressibility (1/GPa) = 0.03484445
#
# Stress axis : x y z
#
# Youngs Moduli (GPa) = 90.73136 64.97651 61.47439
#
# Poissons Ratio (x) = 0.11912 -0.00976
# Poissons Ratio (y) = 0.16634 0.13786
# Poissons Ratio (z) = -0.01441 0.14572
#
# Static dielectric constant tensor:
#      x y z
#    x 1.697020 0.000000 -0.003700 
#    y 0.000000 1.680260 0.000000 
#    z -0.003700 0.000000 1.735380 
# 
# From -- ./inp_files/332242.got.cif
#   From: 2010.05.17/outbox.cif.g08.bks.cpg/sg12_167_cif.got.tgz:332242.got - 2010.06.03 13:09:07.
