data_PCOD9194548
_publ_section_title
;
Structure prediction by ZEFSAII (Michael W. Deem and Ramdas Pophale) SiO2 
 PCOD9194548
Probable space group: C 2/M
;
_chemical_formula_sum "Si O2"
_cell_formula_units_Z 56
_cell_length_a 28.383880
_cell_length_b 14.129030
_cell_length_c 18.250495
_cell_angle_alpha 90.000000
_cell_angle_beta 161.046143
_cell_angle_gamma 90.000000
_cell_volume 2377.297719
_symmetry_space_group_name_H-M "C 2/M"
_symmetry_group_IT_number 12
_symmetry_cell_setting 'monoclinic'
loop_
_space_group_symop_operation_xyz
x,y,z
-x,y,-z
-x,-y,-z
x,-y,z
1/2+x,1/2+y,z
1/2-x,1/2+y,-z
1/2-x,1/2-y,-z
1/2+x,1/2-y,z
loop_
_atom_site_type_symbol
_atom_site_label
_atom_site_fract_x
_atom_site_fract_y
_atom_site_fract_z
Si Si1 0.435940 0.393711 0.221998
Si Si2 0.609161 0.650222 0.335965
Si Si3 0.305639 0.383953 0.306272
Si Si4 0.802842 0.644988 0.492648
Si Si5 0.882600 0.230147 0.889668
Si Si6 0.615256 0.890713 0.895609
Si Si7 0.886363 0.616488 0.270917
O O1 0.399334 0.500000 0.190613
O O2 0.544716 0.397164 0.312958
O O3 0.531619 0.356541 0.430317
O O4 0.282566 0.352650 0.969915
O O5 0.715996 0.603306 0.433663
O O6 0.692520 0.742461 0.487087
O O7 0.472964 0.687352 0.089369
O O8 0.290936 0.500000 0.292746
O O9 0.203548 0.321903 0.209527
O O10 0.248666 0.357186 0.141635
O O11 0.714615 0.644629 0.287108
O O12 0.967314 0.614647 0.724723
O O13 0.000000 0.255465 0.000000
O O14 0.581526 0.851073 0.765497
O O15 0.646641 0.000000 0.928892
O O16 0.893298 0.500000 0.284990
O O17 0.000000 0.649354 0.500000
#
# Coordination Sequence:
#
# PCOD9194548 Si02
#       7
#     8   8   8   8   8   8   8
#     4  10  21  37  59  85 113 146 188 234 279 333
#     4  10  20  35  56  81 115 155 188 225 277 335
#     4  10  20  34  56  85 114 146 185 234 280 327
#     4  10  20  35  56  81 115 155 188 225 277 335
#     4  10  20  35  54  79 115 156 190 225 277 336
#     4  10  21  37  59  85 113 146 188 234 279 333
#     4   9  20  39  60  81 109 149 188 228 283 336
#
# _framework density 23.556158
#
# number of rings (size 3 to 8) (size 9 to 14) (size 15 to 20)
#    0.000    2.143    2.857    0.000    2.000    1.429 
#    0.000    6.429    0.000    2.571    0.000    0.000 
#    0.000    0.000    0.000    0.000    0.000    0.000 
#
# Total GULP energy -156128.632318 kJ/mol
# GULP energy per Si atom -5576.022583 kJ/mol
# Density = 2.350254 g / cm^3
# Si number density = 23.556158 Si / 1000 Ang^3
#
#
#
# Elastic Constant Matrix: (Units=GPa)
#
#
# Indices 1 2 3 4 5 6 
#
# 1 118.4527 12.9057 80.6986 0.0000 -8.5257 0.0000
# 2 12.9057 65.5830 15.1403 0.0000 -3.5467 0.0000
# 3 80.6986 15.1403 203.4337 0.0000 -34.1462 0.0000
# 4 0.0000 0.0000 0.0000 13.3626 0.0000 0.3393
# 5 -8.5257 -3.5467 -34.1462 0.0000 55.9396 0.0000
# 6 0.0000 0.0000 0.0000 0.3393 0.0000 5.0741
#
#
#
# Elastic Compliance Matrix: (Units=1/GPa)
#
#
# Indices 1 2 3 4 5 6 
#
# 1 0.011740 -0.001275 -0.004763 0.000000 -0.001199 0.000000
# 2 -0.001275 0.015658 -0.000585 0.000000 0.000441 0.000000
# 3 -0.004763 -0.000585 0.007488 0.000000 0.003808 0.000000
# 4 0.000000 0.000000 0.000000 0.074963 0.000000 -0.005012
# 5 -0.001199 0.000441 0.003808 0.000000 0.020046 0.000000
# 6 0.000000 0.000000 0.000000 -0.005012 0.000000 0.197414
#
#
# Mechanical properties :
#
#
# Convention : Reuss Voigt Hill
#
# Bulk Modulus (GPa) = 46.21658 67.21764 56.71711
# Shear Modulus (GPa) = 14.37735 33.45692 23.91714
#
# Velocity S-wave (km/s) = 2.47319 3.77278 3.18987
# Velocity P-wave (km/s) = 5.27427 6.89750 6.13977
#
# Compressibility (1/GPa) = 0.02163725
#
# Stress axis : x y z
#
# Youngs Moduli (GPa) = 85.17864 63.86589 133.54989
#
# Poissons Ratio (x) = 0.08146 0.63616
# Poissons Ratio (y) = 0.10864 0.07817
# Poissons Ratio (z) = 0.40574 0.03738
#
# Static dielectric constant tensor:
#      x y z
#    x 1.904550 0.000000 -0.016900 
#    y 0.000000 1.886630 0.000000 
#    z -0.016900 0.000000 1.938780 
# 
# From -- ./inp_files/293923.got.cif
#   From: 2010.05.17/outbox.cif.g08.bks.cpg/sg12_147_cif.got.tgz:293923.got - 2010.06.03 13:09:07.
