data_PCOD9194191
_publ_section_title
;
Structure prediction by ZEFSAII (Michael W. Deem and Ramdas Pophale) SiO2 
 PCOD9194191
Probable space group: C 2/M
;
_chemical_formula_sum "Si O2"
_cell_formula_units_Z 58
_cell_length_a 24.980385
_cell_length_b 7.527787
_cell_length_c 21.885207
_cell_angle_alpha 90.000000
_cell_angle_beta 39.663270
_cell_angle_gamma 90.000000
_cell_volume 2626.785269
_symmetry_space_group_name_H-M "C 2/M"
_symmetry_group_IT_number 12
_symmetry_cell_setting 'monoclinic'
loop_
_space_group_symop_operation_xyz
x,y,z
-x,y,-z
-x,-y,-z
x,-y,z
1/2+x,1/2+y,z
1/2-x,1/2+y,-z
1/2-x,1/2-y,-z
1/2+x,1/2-y,z
loop_
_atom_site_type_symbol
_atom_site_label
_atom_site_fract_x
_atom_site_fract_y
_atom_site_fract_z
Si Si1 0.235736 0.706542 0.411370
Si Si2 0.261821 0.212017 0.918501
Si Si3 0.258188 0.294970 0.733818
Si Si4 0.557614 0.715539 0.393234
Si Si5 0.878840 0.796325 0.053826
Si Si6 0.553150 0.205515 0.262415
Si Si7 0.500000 0.000000 0.000000
Si Si8 0.619993 0.783728 0.623923
O O1 0.216869 0.500000 0.418472
O O2 0.238271 0.789815 0.342487
O O3 0.324441 0.726095 0.367770
O O4 0.168354 0.777798 0.519833
O O5 0.184752 0.269862 0.943749
O O6 0.354087 0.286352 0.821374
O O7 0.264290 0.000000 0.905927
O O8 0.250000 0.250000 0.000000
O O9 0.250505 0.500000 0.759444
O O10 0.346826 0.224429 0.680489
O O11 0.179634 0.201489 0.833873
O O12 0.500000 0.772123 0.500000
O O13 0.557155 0.500000 0.392203
O O14 0.525443 0.785020 0.357168
O O15 0.906151 0.000000 0.017005
O O16 0.951837 0.657027 0.002200
O O17 0.475669 0.280552 0.292214
O O18 0.561637 0.000000 0.236149
O O19 0.620418 0.000000 0.622389
#
# Coordination Sequence:
#
# PCOD9194191 Si02
#       8
#     8   8   8   8   8   8   2   8
#     4  10  20  34  55  82 120 167 214 266 319 375
#     4  10  23  42  68  95 127 169 217 282 348 414
#     4  11  21  37  61  89 126 174 212 259 331 394
#     4  10  21  34  55  90 128 166 210 257 310 380
#     4  11  24  46  71 102 136 170 225 281 343 422
#     4  10  20  37  59  87 118 156 205 257 315 379
#     4  12  26  48  76 102 130 180 210 278 354 414
#     4   9  19  36  55  81 118 164 215 266 320 383
#
# _framework density 22.080221000000002
#
# number of rings (size 3 to 8) (size 9 to 14) (size 15 to 20)
#    0.000    1.793    2.069    1.862    0.966    2.483 
#    2.483    0.000    0.000    0.000    0.000    0.000 
#    0.000    0.000    0.000    0.000    0.000    0.000 
#
# Total GULP energy -161753.002728 kJ/mol
# GULP energy per Si atom -5577.689749 kJ/mol
# Density = 2.202997 g / cm^3
# Si number density = 22.080221 Si / 1000 Ang^3
#
#
#
# Elastic Constant Matrix: (Units=GPa)
#
#
# Indices 1 2 3 4 5 6 
#
# 1 131.2855 14.0803 16.9883 0.0010 -24.7171 -0.0027
# 2 14.0803 89.5643 2.4186 0.0086 -12.5912 -0.0138
# 3 16.9883 2.4186 24.9276 0.0022 -0.8991 -0.0060
# 4 0.0010 0.0086 0.0022 14.2934 -0.0008 11.0148
# 5 -24.7171 -12.5912 -0.8991 -0.0008 24.9144 0.0109
# 6 -0.0027 -0.0138 -0.0060 11.0148 0.0109 8.2067
#
#
#
# Elastic Compliance Matrix: (Units=1/GPa)
#
#
# Indices 1 2 3 4 5 6 
#
# 1 0.010378 -0.000040 -0.006707 -0.000362 0.010034 0.000471
# 2 -0.000040 0.012042 -0.000925 0.000457 0.006013 -0.000602
# 3 -0.006707 -0.000925 0.044577 0.000996 -0.005512 -0.001300
# 4 -0.000362 0.000457 0.000996 -2.038800 -0.001358 2.736439
# 5 0.010034 0.006013 -0.005512 -0.001358 0.052931 0.001762
# 6 0.000471 -0.000602 -0.001300 2.736439 0.001762 -3.550943
#
#
# Mechanical properties :
#
#
# Convention : Reuss Voigt Hill
#
# Bulk Modulus (GPa) = 19.35926 34.75019 27.05473
# Shear Modulus (GPa) = -0.91958 23.63557 11.35800
#
# Velocity S-wave (km/s) = -0.64605 3.27531 2.27049
# Velocity P-wave (km/s) = 2.86884 5.48415 4.37642
#
# Compressibility (1/GPa) = 0.05165485
#
# Stress axis : x y z
#
# Youngs Moduli (GPa) = 96.35619 83.04571 22.43287
#
# Poissons Ratio (x) = 0.00330 0.15045
# Poissons Ratio (y) = 0.00383 0.02074
# Poissons Ratio (z) = 0.64625 0.07678
#
# Static dielectric constant tensor:
#      x y z
#    x 1.836430 -0.000010 -0.013180 
#    y -0.000010 1.848100 0.000000 
#    z -0.013180 0.000000 1.826920 
# 
# From -- ./inp_files/324605.got.cif
#   From: 2010.05.17/outbox.cif.g08.bks.cpg/sg12_163_cif.got.tgz:324605.got - 2010.06.03 13:09:07.
