data_PCOD9194657
_publ_section_title
;
Structure prediction by ZEFSAII (Michael W. Deem and Ramdas Pophale) SiO2 
 PCOD9194657
Probable space group: C 2/M
;
_chemical_formula_sum "Si O2"
_cell_formula_units_Z 44
_cell_length_a 10.195063
_cell_length_b 23.724756
_cell_length_c 8.328500
_cell_angle_alpha 90.000000
_cell_angle_beta 95.240491
_cell_angle_gamma 90.000000
_cell_volume 2006.038882
_symmetry_space_group_name_H-M "C 2/M"
_symmetry_group_IT_number 12
_symmetry_cell_setting 'monoclinic'
loop_
_space_group_symop_operation_xyz
x,y,z
-x,y,-z
-x,-y,-z
x,-y,z
1/2+x,1/2+y,z
1/2-x,1/2+y,-z
1/2-x,1/2-y,-z
1/2+x,1/2-y,z
loop_
_atom_site_type_symbol
_atom_site_label
_atom_site_fract_x
_atom_site_fract_y
_atom_site_fract_z
Si Si1 0.593915 0.121458 0.148085
Si Si2 0.916184 0.933226 0.830363
Si Si3 0.500000 0.387115 0.500000
Si Si4 0.734355 0.814186 0.443958
Si Si5 0.640751 0.000000 0.108388
Si Si6 0.346537 0.000000 0.518654
Si Si7 0.159611 0.605611 0.686280
O O1 0.672478 0.165976 0.265924
O O2 0.480241 0.093397 0.249197
O O3 0.674093 0.067337 0.086806
O O4 0.500000 0.147779 0.000000
O O5 0.787549 0.893055 0.812084
O O6 0.989046 0.922027 0.666852
O O7 0.878549 0.000000 0.838116
O O8 0.000000 0.921564 0.000000
O O9 0.373133 0.346781 0.471916
O O10 0.750000 0.750000 0.500000
O O11 0.645560 0.840335 0.575638
O O12 0.677424 0.000000 0.299024
O O13 0.500000 0.000000 0.000000
O O14 0.500000 0.000000 0.500000
O O15 0.297520 0.055629 0.428201
#
# Coordination Sequence:
#
# PCOD9194657 Si02
#       7
#     8   8   4   8   4   4   8
#     4  11  23  39  65 102 132 163 209 278 338 393
#     4  10  22  41  66  97 138 178 215 263 327 414
#     4  10  25  44  66  94 130 179 226 266 334 404
#     4  11  25  44  67  90 124 173 226 277 328 392
#     4  10  20  34  56  98 135 154 192 255 331 392
#     4  12  16  32  59  90 126 161 199 249 326 392
#     4  11  21  38  66  92 127 168 212 266 330 391
#
# _framework density 21.933772000000001
#
# number of rings (size 3 to 8) (size 9 to 14) (size 15 to 20)
#    0.000    1.273    4.545    0.818    5.091    0.000 
#    1.636    4.545    0.000    0.000    0.000    0.000 
#    0.000    0.000    0.000    0.000    0.000    0.000 
#
# Total GULP energy -122513.218926 kJ/mol
# GULP energy per Si atom -5568.782678 kJ/mol
# Density = 2.188385 g / cm^3
# Si number density = 21.933772 Si / 1000 Ang^3
#
#
#
# Elastic Constant Matrix: (Units=GPa)
#
#
# Indices 1 2 3 4 5 6 
#
# 1 62.0396 11.0436 26.5451 0.0000 13.3805 0.0000
# 2 11.0436 130.0426 52.7513 0.0000 17.5465 0.0000
# 3 26.5451 52.7513 161.7053 0.0000 28.6991 0.0000
# 4 0.0000 0.0000 0.0000 24.8561 0.0000 3.4762
# 5 13.3805 17.5465 28.6991 0.0000 48.0678 0.0000
# 6 0.0000 0.0000 0.0000 3.4762 0.0000 19.1488
#
#
#
# Elastic Compliance Matrix: (Units=1/GPa)
#
#
# Indices 1 2 3 4 5 6 
#
# 1 0.017880 -0.000118 -0.002261 0.000000 -0.003585 0.000000
# 2 -0.000118 0.008987 -0.002613 0.000000 -0.001688 0.000000
# 3 -0.002261 -0.002613 0.007971 0.000000 -0.003176 0.000000
# 4 0.000000 0.000000 0.000000 0.041280 0.000000 -0.007494
# 5 -0.003585 -0.001688 -0.003176 0.000000 0.024314 0.000000
# 6 0.000000 0.000000 0.000000 -0.007494 0.000000 0.053583
#
#
# Mechanical properties :
#
#
# Convention : Reuss Voigt Hill
#
# Bulk Modulus (GPa) = 40.23141 59.38527 49.80834
# Shear Modulus (GPa) = 29.02190 35.97769 32.49980
#
# Velocity S-wave (km/s) = 3.64147 4.05444 3.85349
# Velocity P-wave (km/s) = 6.00520 7.00368 6.52357
#
# Compressibility (1/GPa) = 0.02485620
#
# Stress axis : x y z
#
# Youngs Moduli (GPa) = 55.92829 111.26581 125.45038
#
# Poissons Ratio (x) = 0.01311 0.28358
# Poissons Ratio (y) = 0.00659 0.32780
# Poissons Ratio (z) = 0.12643 0.29074
#
# Static dielectric constant tensor:
#      x y z
#    x 1.940000 0.000000 -0.021290 
#    y 0.000000 1.822060 0.000000 
#    z -0.021290 0.000000 1.909960 
# 
# From -- ./inp_files/50918.got.cif
#   From: 2010.05.17/outbox.cif.g08.bks.cpg/sg12_26_cif.got.tgz:50918.got - 2010.06.03 13:09:07.
