data_PCOD9194554
_publ_section_title
;
Structure prediction by ZEFSAII (Michael W. Deem and Ramdas Pophale) SiO2 
 PCOD9194554
Probable space group: C 2/M
;
_chemical_formula_sum "Si O2"
_cell_formula_units_Z 56
_cell_length_a 28.185017
_cell_length_b 8.000524
_cell_length_c 12.337628
_cell_angle_alpha 90.000000
_cell_angle_beta 55.717308
_cell_angle_gamma 90.000000
_cell_volume 2298.738633
_symmetry_space_group_name_H-M "C 2/M"
_symmetry_group_IT_number 12
_symmetry_cell_setting 'monoclinic'
loop_
_space_group_symop_operation_xyz
x,y,z
-x,y,-z
-x,-y,-z
x,-y,z
1/2+x,1/2+y,z
1/2-x,1/2+y,-z
1/2-x,1/2-y,-z
1/2+x,1/2-y,z
loop_
_atom_site_type_symbol
_atom_site_label
_atom_site_fract_x
_atom_site_fract_y
_atom_site_fract_z
Si Si1 0.974035 0.690553 0.379798
Si Si2 0.524788 0.691800 0.856335
Si Si3 0.843421 0.697766 0.532958
Si Si4 0.205652 0.807124 0.190923
Si Si5 0.093952 0.697681 0.211696
Si Si6 0.662078 0.312339 0.696818
Si Si7 0.828110 0.299340 0.071379
O O1 0.968597 0.500000 0.426386
O O2 0.986601 0.698454 0.234207
O O3 0.909419 0.761721 0.468104
O O4 0.034912 0.767373 0.340719
O O5 0.496140 0.500000 0.133223
O O6 0.592928 0.682480 0.781866
O O7 0.500000 0.759270 0.000000
O O8 0.842385 0.500000 0.557217
O O9 0.803832 0.793339 0.667717
O O10 0.823765 0.722658 0.434338
O O11 0.150398 0.718818 0.211846
O O12 0.269401 0.735328 0.091153
O O13 0.203910 0.000000 0.160126
O O14 0.082899 0.500000 0.216441
O O15 0.116235 0.764472 0.066139
O O16 0.685653 0.500000 0.662498
O O17 0.674239 0.238883 0.798956
O O18 0.827911 0.500000 0.059621
#
# Coordination Sequence:
#
# PCOD9194554 Si02
#       7
#     8   8   8   8   8   8   8
#     4   9  19  34  55  82 109 141 183 227 271 328
#     4   9  17  29  47  76 113 147 178 218 272 331
#     4  10  21  39  60  83 114 151 188 227 277 333
#     4  11  24  40  58  82 112 148 192 237 278 328
#     4  10  21  39  61  85 113 146 186 232 282 333
#     4  10  20  34  56  85 115 147 185 230 278 331
#     4  10  22  39  59  84 114 148 187 231 280 334
#
# _framework density 24.361184999999999
#
# number of rings (size 3 to 8) (size 9 to 14) (size 15 to 20)
#    0.000    2.143    0.000    2.571    0.000    4.857 
#    0.000    2.857    0.000    0.000    0.000    0.000 
#    0.000    0.000    0.000    0.000    0.000    0.000 
#
# Total GULP energy -156345.844555 kJ/mol
# GULP energy per Si atom -5583.780163 kJ/mol
# Density = 2.430574 g / cm^3
# Si number density = 24.361185 Si / 1000 Ang^3
#
#
#
# Elastic Constant Matrix: (Units=GPa)
#
#
# Indices 1 2 3 4 5 6 
#
# 1 107.2397 7.9549 15.4175 0.0000 -14.3569 0.0000
# 2 7.9549 45.4727 6.3434 0.0000 -2.5945 0.0000
# 3 15.4175 6.3434 70.0488 0.0000 -3.5333 0.0000
# 4 0.0000 0.0000 0.0000 26.0500 0.0000 9.3246
# 5 -14.3569 -2.5945 -3.5333 0.0000 43.9642 0.0000
# 6 0.0000 0.0000 0.0000 9.3246 0.0000 19.5579
#
#
#
# Elastic Compliance Matrix: (Units=1/GPa)
#
#
# Indices 1 2 3 4 5 6 
#
# 1 0.010114 -0.001322 -0.001952 0.000000 0.003068 0.000000
# 2 -0.001322 0.022504 -0.001709 0.000000 0.000759 0.000000
# 3 -0.001952 -0.001709 0.014883 0.000000 0.000458 0.000000
# 4 0.000000 0.000000 0.000000 0.046287 0.000000 -0.022068
# 5 0.003068 0.000759 0.000458 0.000000 0.023829 0.000000
# 6 0.000000 0.000000 0.000000 -0.022068 0.000000 0.061652
#
#
# Mechanical properties :
#
#
# Convention : Reuss Voigt Hill
#
# Bulk Modulus (GPa) = 26.64046 31.35476 28.99761
# Shear Modulus (GPa) = 24.78356 30.78411 27.78383
#
# Velocity S-wave (km/s) = 3.19303 3.55865 3.38079
# Velocity P-wave (km/s) = 4.95513 5.45747 5.21236
#
# Compressibility (1/GPa) = 0.03753689
#
# Stress axis : x y z
#
# Youngs Moduli (GPa) = 98.86994 44.43627 67.19015
#
# Poissons Ratio (x) = 0.05875 0.13113
# Poissons Ratio (y) = 0.13071 0.11480
# Poissons Ratio (z) = 0.19296 0.07592
#
# Static dielectric constant tensor:
#      x y z
#    x 2.014420 0.000000 -0.000700 
#    y 0.000000 1.886270 0.000000 
#    z -0.000700 0.000000 1.984260 
# 
# From -- ./inp_files/180772.got.cif
#   From: 2010.05.17/outbox.cif.g08.bks.cpg/sg12_91_cif.got.tgz:180772.got - 2010.06.03 13:09:07.
