data_PCOD9194249
_publ_section_title
;
Structure prediction by ZEFSAII (Michael W. Deem and Ramdas Pophale) SiO2 
 PCOD9194249
Probable space group: C 2/M
;
_chemical_formula_sum "Si O2"
_cell_formula_units_Z 56
_cell_length_a 7.230361
_cell_length_b 28.404813
_cell_length_c 12.942943
_cell_angle_alpha 90.000000
_cell_angle_beta 70.436489
_cell_angle_gamma 90.000000
_cell_volume 2504.728926
_symmetry_space_group_name_H-M "C 2/M"
_symmetry_group_IT_number 12
_symmetry_cell_setting 'monoclinic'
loop_
_space_group_symop_operation_xyz
x,y,z
-x,y,-z
-x,-y,-z
x,-y,z
1/2+x,1/2+y,z
1/2-x,1/2+y,-z
1/2-x,1/2-y,-z
1/2+x,1/2-y,z
loop_
_atom_site_type_symbol
_atom_site_label
_atom_site_fract_x
_atom_site_fract_y
_atom_site_fract_z
Si Si1 0.924163 0.278432 0.408492
Si Si2 0.791100 0.448189 0.444612
Si Si3 0.816917 0.553154 0.739922
Si Si4 0.501821 0.413163 0.654217
Si Si5 0.612654 0.841566 0.217836
Si Si6 0.289378 0.695043 0.988270
Si Si7 0.479923 0.687162 0.741259
O O1 0.750000 0.250000 0.500000
O O2 0.025230 0.234341 0.327149
O O3 0.000000 0.302934 0.500000
O O4 0.935783 0.318717 0.318003
O O5 0.738068 0.500000 0.495006
O O6 0.677604 0.412396 0.537713
O O7 0.681977 0.441329 0.355479
O O8 0.020397 0.446243 0.381987
O O9 0.829098 0.500000 0.782889
O O10 0.601185 0.562448 0.734397
O O11 0.871605 0.601839 0.786179
O O12 0.451178 0.359631 0.682220
O O13 0.804497 0.819864 0.243865
O O14 0.630157 0.826610 0.095368
O O15 0.320674 0.685280 0.862206
O O16 0.500000 0.683130 0.000000
O O17 0.250000 0.750000 0.000000
#
# Coordination Sequence:
#
# PCOD9194249 Si02
#       7
#     8   8   8   8   8   8   8
#     4  12  24  35  55  83 125 158 185 234 306 368
#     4  10  20  34  55  85 118 159 205 247 292 369
#     4  10  21  37  60  85 117 160 203 250 312 362
#     4  10  20  34  55  83 120 155 199 251 301 357
#     4  10  22  40  61  87 122 158 198 258 294 359
#     4  10  20  40  63  84 114 154 208 250 292 357
#     4  10  22  38  57  87 119 160 199 244 300 364
#
# _framework density 22.357710000000001
#
# number of rings (size 3 to 8) (size 9 to 14) (size 15 to 20)
#    0.000    1.714    2.857    2.143    4.000    1.143 
#    2.571    0.000    0.000   12.429    0.000    2.000 
#    0.000    0.000    0.000    0.000    0.000    0.000 
#
# Total GULP energy -156039.897572 kJ/mol
# GULP energy per Si atom -5572.853485 kJ/mol
# Density = 2.230682 g / cm^3
# Si number density = 22.357710 Si / 1000 Ang^3
#
#
#
# Elastic Constant Matrix: (Units=GPa)
#
#
# Indices 1 2 3 4 5 6 
#
# 1 75.6329 15.8954 17.7752 0.0000 -13.6022 0.0000
# 2 15.8954 180.3061 77.0399 0.0000 3.4793 0.0000
# 3 17.7752 77.0399 155.4017 0.0000 -1.0324 0.0000
# 4 0.0000 0.0000 0.0000 35.7432 0.0000 2.5884
# 5 -13.6022 3.4793 -1.0324 0.0000 13.5675 0.0000
# 6 0.0000 0.0000 0.0000 2.5884 0.0000 22.9710
#
#
#
# Elastic Compliance Matrix: (Units=1/GPa)
#
#
# Indices 1 2 3 4 5 6 
#
# 1 0.016856 -0.001322 -0.001159 0.000000 0.017150 0.000000
# 2 -0.001322 0.007199 -0.003440 0.000000 -0.003433 0.000000
# 3 -0.001159 -0.003440 0.008275 0.000000 0.000350 0.000000
# 4 0.000000 0.000000 0.000000 0.028207 0.000000 -0.003178
# 5 0.017150 -0.003433 0.000350 0.000000 0.091807 0.000000
# 6 0.000000 0.000000 0.000000 -0.003178 0.000000 0.043891
#
#
# Mechanical properties :
#
#
# Convention : Reuss Voigt Hill
#
# Bulk Modulus (GPa) = 48.80818 70.30686 59.55752
# Shear Modulus (GPa) = 23.26580 34.49835 28.88208
#
# Velocity S-wave (km/s) = 3.22936 3.93239 3.59809
# Velocity P-wave (km/s) = 5.98189 7.22031 6.63008
#
# Compressibility (1/GPa) = 0.02048837
#
# Stress axis : x y z
#
# Youngs Moduli (GPa) = 59.32512 138.90990 120.83994
#
# Poissons Ratio (x) = 0.18361 0.14003
# Poissons Ratio (y) = 0.07842 0.41574
# Poissons Ratio (z) = 0.06875 0.47791
#
# Static dielectric constant tensor:
#      x y z
#    x 1.979420 0.000000 0.035610 
#    y 0.000000 1.731800 0.000000 
#    z 0.035610 0.000000 1.813290 
# 
# From -- ./inp_files/125595.got.cif
#   From: 2010.05.17/outbox.cif.g08.bks.cpg/sg12_63_cif.got.tgz:125595.got - 2010.06.03 13:09:07.
