data_PCOD9194428
_publ_section_title
;
Structure prediction by ZEFSAII (Michael W. Deem and Ramdas Pophale) SiO2 
 PCOD9194428
Probable space group: C 2/M
;
_chemical_formula_sum "Si O2"
_cell_formula_units_Z 64
_cell_length_a 20.550595
_cell_length_b 8.548848
_cell_length_c 31.349406
_cell_angle_alpha 90.000000
_cell_angle_beta 143.186938
_cell_angle_gamma 90.000000
_cell_volume 3300.179479
_symmetry_space_group_name_H-M "C 2/M"
_symmetry_group_IT_number 12
_symmetry_cell_setting 'monoclinic'
loop_
_space_group_symop_operation_xyz
x,y,z
-x,y,-z
-x,-y,-z
x,-y,z
1/2+x,1/2+y,z
1/2-x,1/2+y,-z
1/2-x,1/2-y,-z
1/2+x,1/2-y,z
loop_
_atom_site_type_symbol
_atom_site_label
_atom_site_fract_x
_atom_site_fract_y
_atom_site_fract_z
Si Si1 0.657482 0.686871 0.754494
Si Si2 0.503177 0.187025 0.165042
Si Si3 0.083167 0.811411 0.399187
Si Si4 0.158094 0.187576 0.983950
Si Si5 0.114100 0.686488 0.577181
Si Si6 0.236538 0.187267 0.270635
Si Si7 0.178338 0.311279 0.860739
Si Si8 0.220927 0.185843 0.552927
O O1 0.661853 0.500000 0.755366
O O2 0.538787 0.737686 0.675004
O O3 0.745124 0.754251 0.767640
O O4 0.670288 0.742570 0.809602
O O5 0.623553 0.254107 0.230869
O O6 0.421489 0.238597 0.160415
O O7 0.506374 0.000000 0.167813
O O8 0.451006 0.241076 0.092613
O O9 0.126855 0.771137 0.469288
O O10 0.166701 0.733238 0.410213
O O11 0.091382 0.000000 0.399415
O O12 0.208146 0.230627 0.056129
O O13 0.151841 0.000000 0.978367
O O14 0.250000 0.250000 0.000000
O O15 0.100898 0.500000 0.574902
O O16 0.163805 0.746856 0.647466
O O17 0.200170 0.723649 0.585458
O O18 0.000000 0.753073 0.500000
O O19 0.236827 0.000000 0.271255
O O20 0.173695 0.500000 0.855986
O O21 0.217557 0.000000 0.558427
#
# Coordination Sequence:
#
# PCOD9194428 Si02
#       8
#     8   8   8   8   8   8   8   8
#     4  11  23  38  58  82 114 153 193 240 288 343
#     4  10  21  38  61  89 121 153 191 242 289 341
#     4   9  20  37  54  78 112 147 186 234 289 343
#     4   9  17  33  58  88 120 154 192 236 286 341
#     4  10  22  39  58  80 110 149 193 238 289 348
#     4  11  24  40  59  83 116 156 194 239 296 352
#     4   9  20  37  59  88 120 153 190 233 283 343
#     4  10  20  34  56  82 107 142 188 239 289 339
#
# _framework density 19.392885
#
# number of rings (size 3 to 8) (size 9 to 14) (size 15 to 20)
#    0.000    2.125    0.000    3.375    1.750    5.750 
#    0.000    0.625    0.000    3.750    0.000    0.000 
#    0.000    0.000    0.000    0.000    0.000    0.000 
#
# Total GULP energy -178605.959235 kJ/mol
# GULP energy per Si atom -5581.436226 kJ/mol
# Density = 1.934875 g / cm^3
# Si number density = 19.392885 Si / 1000 Ang^3
#
#
#
# Elastic Constant Matrix: (Units=GPa)
#
#
# Indices 1 2 3 4 5 6 
#
# 1 78.5235 11.3408 47.4118 0.0000 -17.1602 0.0001
# 2 11.3408 19.4721 23.3856 0.0000 -5.0266 -0.0002
# 3 47.4118 23.3856 92.7656 0.0000 -8.7893 0.0000
# 4 0.0000 0.0000 0.0000 26.9371 0.0000 2.1989
# 5 -17.1602 -5.0266 -8.7893 0.0000 21.4016 0.0000
# 6 0.0001 -0.0002 0.0000 2.1989 0.0000 25.1853
#
#
#
# Elastic Compliance Matrix: (Units=1/GPa)
#
#
# Indices 1 2 3 4 5 6 
#
# 1 0.021704 0.003854 -0.010748 0.000000 0.013894 0.000000
# 2 0.003854 0.076485 -0.020036 0.000000 0.012826 0.000001
# 3 -0.010748 -0.020036 0.020874 0.000000 -0.004751 0.000000
# 4 0.000000 0.000000 0.000000 0.037390 0.000000 -0.003264
# 5 0.013894 0.012826 -0.004751 0.000000 0.058927 0.000000
# 6 0.000000 0.000001 0.000000 -0.003264 0.000000 0.039991
#
#
# Mechanical properties :
#
#
# Convention : Reuss Voigt Hill
#
# Bulk Modulus (GPa) = 15.33668 39.44861 27.39264
# Shear Modulus (GPa) = 15.10733 21.94631 18.52682
#
# Velocity S-wave (km/s) = 2.79411 3.36768 3.09421
# Velocity P-wave (km/s) = 4.28194 5.95883 5.18857
#
# Compressibility (1/GPa) = 0.06520318
#
# Stress axis : x y z
#
# Youngs Moduli (GPa) = 46.07357 13.07453 47.90675
#
# Poissons Ratio (x) = -0.05039 0.51491
# Poissons Ratio (y) = -0.17757 0.95985
# Poissons Ratio (z) = 0.49520 0.26196
#
# Static dielectric constant tensor:
#      x y z
#    x 1.645190 0.000000 -0.003830 
#    y 0.000000 1.649460 0.000000 
#    z -0.003830 0.000000 1.714410 
# 
# From -- ./inp_files/378499.got.cif
#   From: 2010.05.17/outbox.cif.g08.bks.cpg/sg12_190_cif.got.tgz:378499.got - 2010.06.03 13:09:07.
