data_PCOD9194361
_publ_section_title
;
Structure prediction by ZEFSAII (Michael W. Deem and Ramdas Pophale) SiO2 
 PCOD9194361
Probable space group: C 2/M
;
_chemical_formula_sum "Si O2"
_cell_formula_units_Z 48
_cell_length_a 19.510004
_cell_length_b 24.524978
_cell_length_c 14.511653
_cell_angle_alpha 90.000000
_cell_angle_beta 160.624570
_cell_angle_gamma 90.000000
_cell_volume 2303.575600
_symmetry_space_group_name_H-M "C 2/M"
_symmetry_group_IT_number 12
_symmetry_cell_setting 'monoclinic'
loop_
_space_group_symop_operation_xyz
x,y,z
-x,y,-z
-x,-y,-z
x,-y,z
1/2+x,1/2+y,z
1/2-x,1/2+y,-z
1/2-x,1/2-y,-z
1/2+x,1/2-y,z
loop_
_atom_site_type_symbol
_atom_site_label
_atom_site_fract_x
_atom_site_fract_y
_atom_site_fract_z
Si Si1 0.048059 0.435623 0.912222
Si Si2 0.665284 0.591756 0.560162
Si Si3 0.815546 0.697577 0.696442
Si Si4 0.186761 0.321049 0.810427
Si Si5 0.012837 0.276037 0.777064
Si Si6 0.278915 0.062621 0.062937
O O1 0.085263 0.500000 0.964214
O O2 0.835963 0.426457 0.700657
O O3 0.230720 0.411689 0.207958
O O4 0.067350 0.423848 0.827651
O O5 0.642890 0.655532 0.509539
O O6 0.449672 0.562889 0.272299
O O7 0.697904 0.753119 0.532915
O O8 0.934237 0.681947 0.753551
O O9 0.000000 0.700317 0.000000
O O10 0.132077 0.303268 0.845428
O O11 0.000000 0.312911 0.500000
O O12 0.366724 0.275100 0.021230
O O13 0.224605 0.386733 0.868548
O O14 0.319856 0.000000 0.148190
#
# Coordination Sequence:
#
# PCOD9194361 Si02
#       6
#     8   8   8   8   8   8
#     4  10  20  34  55  86 125 161 196 246 304 366
#     4  11  19  34  57  89 122 158 194 246 308 372
#     4  11  20  36  61  91 118 153 196 241 309 378
#     4  11  23  42  61  85 119 160 207 259 304 358
#     4  10  23  40  60  88 121 155 198 251 314 368
#     4  11  23  39  60  87 120 163 211 257 303 357
#
# _framework density 20.837171000000001
#
# number of rings (size 3 to 8) (size 9 to 14) (size 15 to 20)
#    0.000    1.333    3.333    4.500    0.000    1.667 
#    0.000    0.000    0.000    0.000    0.000    4.667 
#    0.000    0.000    0.000    0.000    0.000    0.000 
#
# Total GULP energy -133688.752836 kJ/mol
# GULP energy per Si atom -5570.364701 kJ/mol
# Density = 2.078974 g / cm^3
# Si number density = 20.837171 Si / 1000 Ang^3
#
#
#
# Elastic Constant Matrix: (Units=GPa)
#
#
# Indices 1 2 3 4 5 6 
#
# 1 31.0521 13.0279 -6.5956 -0.0002 3.5935 0.0000
# 2 13.0279 88.9107 21.6274 -0.0001 -13.2721 0.0000
# 3 -6.5956 21.6274 52.0029 -0.0001 -0.1500 0.0000
# 4 -0.0002 -0.0001 -0.0001 0.3172 -0.0001 7.4804
# 5 3.5935 -13.2721 -0.1500 -0.0001 23.1989 0.0000
# 6 0.0000 0.0000 0.0000 7.4804 0.0000 28.1011
#
#
#
# Elastic Compliance Matrix: (Units=1/GPa)
#
#
# Indices 1 2 3 4 5 6 
#
# 1 0.039549 -0.009728 0.009028 -0.000003 -0.011633 0.000001
# 2 -0.009728 0.016206 -0.007943 0.000000 0.010727 0.000000
# 3 0.009028 -0.007943 0.023661 -0.000002 -0.005789 0.000001
# 4 -0.000003 0.000000 -0.000002 -0.597333 -0.000003 0.159009
# 5 -0.011633 0.010727 -0.005789 -0.000003 0.051007 0.000001
# 6 0.000001 0.000000 0.000001 0.159009 0.000001 -0.006742
#
#
# Mechanical properties :
#
#
# Convention : Reuss Voigt Hill
#
# Bulk Modulus (GPa) = 16.09483 25.34280 20.71882
# Shear Modulus (GPa) = -11.47693 19.91715 4.22011
#
# Velocity S-wave (km/s) = -2.34944 3.09503 1.42467
# Velocity P-wave (km/s) = 0.61728 4.99610 3.55964
#
# Compressibility (1/GPa) = 0.06213174
#
# Stress axis : x y z
#
# Youngs Moduli (GPa) = 25.28512 61.70593 42.26311
#
# Poissons Ratio (x) = 0.60025 -0.38155
# Poissons Ratio (y) = 0.24596 0.33568
# Poissons Ratio (z) = -0.22828 0.49011
#
# Static dielectric constant tensor:
#      x y z
#    x 1.813350 0.000000 0.030580 
#    y 0.000000 1.824490 0.000000 
#    z 0.030580 0.000000 1.709610 
# 
# From -- ./inp_files/235558.got.cif
#   From: 2010.05.17/outbox.cif.g08.bks.cpg/sg12_118_cif.got.tgz:235558.got - 2010.06.03 13:09:07.
