data_PCOD9194977
_publ_section_title
;
Structure prediction by ZEFSAII (Michael W. Deem and Ramdas Pophale) SiO2 
 PCOD9194977
Probable space group: C 2/M
;
_chemical_formula_sum "Si O2"
_cell_formula_units_Z 60
_cell_length_a 25.666343
_cell_length_b 23.205652
_cell_length_c 13.509959
_cell_angle_alpha 90.000000
_cell_angle_beta 157.761313
_cell_angle_gamma 90.000000
_cell_volume 3045.359114
_symmetry_space_group_name_H-M "C 2/M"
_symmetry_group_IT_number 12
_symmetry_cell_setting 'monoclinic'
loop_
_space_group_symop_operation_xyz
x,y,z
-x,y,-z
-x,-y,-z
x,-y,z
1/2+x,1/2+y,z
1/2-x,1/2+y,-z
1/2-x,1/2-y,-z
1/2+x,1/2-y,z
loop_
_atom_site_type_symbol
_atom_site_label
_atom_site_fract_x
_atom_site_fract_y
_atom_site_fract_z
Si Si1 0.316310 0.934351 0.375852
Si Si2 0.500000 0.656873 0.500000
Si Si3 0.440656 0.866923 0.294135
Si Si4 0.190610 0.933279 0.947193
Si Si5 0.898736 0.226217 0.982278
Si Si6 0.285772 0.294262 0.475648
Si Si7 0.349491 0.618673 0.747124
Si Si8 0.746422 0.728095 0.882517
O O1 0.438958 0.893363 0.558671
O O2 0.254607 0.919519 0.373678
O O3 0.364895 0.000000 0.458015
O O4 0.205181 0.928479 0.091402
O O5 0.412415 0.614285 0.276775
O O6 0.599546 0.697793 0.610483
O O7 0.500000 0.838849 0.500000
O O8 0.336781 0.915586 0.154409
O O9 0.358714 0.822596 0.082423
O O10 0.156892 0.000000 0.864098
O O11 0.835067 0.282967 0.815875
O O12 0.876061 0.174013 0.865918
O O13 0.799068 0.222978 0.901531
O O14 0.061082 0.224403 0.291857
O O15 0.250000 0.250000 0.500000
O O16 0.297420 0.355827 0.550837
O O17 0.500000 0.590895 0.000000
O O18 0.750000 0.750000 0.000000
#
# Coordination Sequence:
#
# PCOD9194977 Si02
#       8
#     8   4   8   8   8   8   8   8
#     4  10  20  34  59  86 109 143 186 239 299 336
#     4  10  23  36  48  80 116 150 197 218 278 336
#     4   9  20  35  53  81 114 148 189 227 274 340
#     4   9  18  36  58  79 109 147 192 239 277 335
#     4  10  22  35  58  79 114 154 190 231 282 342
#     4   9  19  37  55  81 106 143 196 236 280 333
#     4   9  20  35  54  79 108 143 185 242 280 331
#     4  11  26  34  53  84 120 158 182 225 279 349
#
# _framework density 19.702109
#
# number of rings (size 3 to 8) (size 9 to 14) (size 15 to 20)
#    0.000    2.400    0.000    1.800   12.133    2.933 
#    0.000    0.000    0.000    0.000    0.000    2.800 
#    0.000    0.000    0.000    0.000    0.000    0.000 
#
# Total GULP energy -167330.956577 kJ/mol
# GULP energy per Si atom -5577.698553 kJ/mol
# Density = 1.965727 g / cm^3
# Si number density = 19.702109 Si / 1000 Ang^3
#
#
#
# Elastic Constant Matrix: (Units=GPa)
#
#
# Indices 1 2 3 4 5 6 
#
# 1 85.8337 6.9658 27.2092 0.0000 11.2824 0.0000
# 2 6.9658 41.3688 20.0190 0.0000 6.6257 0.0000
# 3 27.2092 20.0190 69.3096 0.0000 17.1124 0.0000
# 4 0.0000 0.0000 0.0000 10.5281 0.0000 0.6130
# 5 11.2824 6.6257 17.1124 0.0000 22.5334 0.0000
# 6 0.0000 0.0000 0.0000 0.6130 0.0000 22.3625
#
#
#
# Elastic Compliance Matrix: (Units=1/GPa)
#
#
# Indices 1 2 3 4 5 6 
#
# 1 0.013520 0.000501 -0.004609 0.000000 -0.003417 0.000000
# 2 0.000501 0.028242 -0.007682 0.000000 -0.002721 0.000000
# 3 -0.004609 -0.007682 0.021328 0.000000 -0.011630 0.000000
# 4 0.000000 0.000000 0.000000 0.095136 0.000000 -0.002608
# 5 -0.003417 -0.002721 -0.011630 0.000000 0.055722 0.000000
# 6 0.000000 0.000000 0.000000 -0.002608 0.000000 0.044789
#
#
# Mechanical properties :
#
#
# Convention : Reuss Voigt Hill
#
# Bulk Modulus (GPa) = 25.31023 33.87779 29.59401
# Shear Modulus (GPa) = 16.92133 20.57267 18.74700
#
# Velocity S-wave (km/s) = 2.93381 3.23489 3.08802
# Velocity P-wave (km/s) = 4.93464 5.58436 5.26952
#
# Compressibility (1/GPa) = 0.03950971
#
# Stress axis : x y z
#
# Youngs Moduli (GPa) = 73.96542 35.40861 46.88771
#
# Poissons Ratio (x) = -0.01774 0.21609
# Poissons Ratio (y) = -0.03705 0.36019
# Poissons Ratio (z) = 0.34088 0.27201
#
# Static dielectric constant tensor:
#      x y z
#    x 1.730230 0.000000 -0.007550 
#    y 0.000000 1.698370 0.000000 
#    z -0.007550 0.000000 1.738560 
# 
# From -- ./inp_files/247292.got.cif
#   From: 2010.05.17/outbox.cif.g08.bks.cpg/sg12_124_cif.got.tgz:247292.got - 2010.06.03 13:09:07.
