data_PCOD9194491
_publ_section_title
;
Structure prediction by ZEFSAII (Michael W. Deem and Ramdas Pophale) SiO2 
 PCOD9194491
Probable space group: C 2/M
;
_chemical_formula_sum "Si O2"
_cell_formula_units_Z 64
_cell_length_a 20.911963
_cell_length_b 8.283356
_cell_length_c 23.788624
_cell_angle_alpha 90.000000
_cell_angle_beta 135.781145
_cell_angle_gamma 90.000000
_cell_volume 2873.776628
_symmetry_space_group_name_H-M "C 2/M"
_symmetry_group_IT_number 12
_symmetry_cell_setting 'monoclinic'
loop_
_space_group_symop_operation_xyz
x,y,z
-x,y,-z
-x,-y,-z
x,-y,z
1/2+x,1/2+y,z
1/2-x,1/2+y,-z
1/2-x,1/2-y,-z
1/2+x,1/2-y,z
loop_
_atom_site_type_symbol
_atom_site_label
_atom_site_fract_x
_atom_site_fract_y
_atom_site_fract_z
Si Si1 0.759890 0.807641 0.442513
Si Si2 0.061394 0.806783 0.312164
Si Si3 0.961934 0.190155 0.357712
Si Si4 0.217033 0.315457 0.813397
Si Si5 0.993033 0.693089 0.157257
Si Si6 0.691504 0.806759 0.015874
Si Si7 0.629051 0.689632 0.588412
Si Si8 0.311010 0.313727 0.758156
O O1 0.750000 0.750000 0.500000
O O2 0.660303 0.759220 0.355707
O O3 0.844703 0.745286 0.457357
O O4 0.768547 0.000000 0.448202
O O5 0.034633 0.745173 0.357723
O O6 0.988563 0.758306 0.218450
O O7 0.066671 0.000000 0.318108
O O8 0.866969 0.210440 0.263256
O O9 0.941524 0.256076 0.408260
O O10 0.981694 0.000000 0.377322
O O11 0.182768 0.500000 0.795441
O O12 0.261929 0.263158 0.899468
O O13 0.294346 0.309498 0.814167
O O14 0.991444 0.500000 0.159629
O O15 0.089325 0.752664 0.194060
O O16 0.911466 0.746659 0.064901
O O17 0.691879 0.000000 0.020576
O O18 0.750000 0.750000 0.000000
O O19 0.607735 0.500000 0.569204
O O20 0.728439 0.709778 0.680285
O O21 0.298895 0.500000 0.731512
#
# Coordination Sequence:
#
# PCOD9194491 Si02
#       8
#     8   8   8   8   8   8   8   8
#     4  11  23  39  62  89 119 154 190 233 285 342
#     4  11  22  37  60  89 118 147 189 239 287 343
#     4   9  19  36  60  87 115 153 196 239 285 339
#     4  10  21  36  55  82 115 149 190 240 291 342
#     4  11  23  37  55  80 111 148 191 237 286 342
#     4  11  24  39  55  76 107 149 193 240 293 346
#     4   9  18  36  60  85 115 152 193 232 280 339
#     4  10  20  34  56  84 111 145 188 236 287 338
#
# _framework density 22.270346
#
# number of rings (size 3 to 8) (size 9 to 14) (size 15 to 20)
#    0.000    1.750    1.250    3.000    0.000    7.500 
#    0.000    3.125    0.000    3.750    0.000    0.000 
#    0.000    0.000    0.000    0.000    0.000    0.000 
#
# Total GULP energy -178731.341158 kJ/mol
# GULP energy per Si atom -5585.354411 kJ/mol
# Density = 2.221966 g / cm^3
# Si number density = 22.270346 Si / 1000 Ang^3
#
#
#
# Elastic Constant Matrix: (Units=GPa)
#
#
# Indices 1 2 3 4 5 6 
#
# 1 156.3213 12.6845 31.0284 0.0000 -12.9371 0.0000
# 2 12.6845 35.5386 11.5798 0.0000 -3.2041 0.0001
# 3 31.0284 11.5798 98.5708 0.0000 -18.7148 0.0000
# 4 0.0000 0.0000 0.0000 20.6984 0.0000 -7.5705
# 5 -12.9371 -3.2041 -18.7148 0.0000 42.4830 0.0000
# 6 0.0000 0.0001 0.0000 -7.5705 0.0000 22.6075
#
#
#
# Elastic Compliance Matrix: (Units=1/GPa)
#
#
# Indices 1 2 3 4 5 6 
#
# 1 0.006994 -0.001814 -0.001757 0.000000 0.001219 0.000000
# 2 -0.001814 0.029751 -0.002841 0.000000 0.000440 0.000000
# 3 -0.001757 -0.002841 0.011883 0.000000 0.004486 0.000000
# 4 0.000000 0.000000 0.000000 0.055056 0.000000 0.018437
# 5 0.001219 0.000440 0.004486 0.000000 0.025919 0.000000
# 6 0.000000 0.000000 0.000000 0.018437 0.000000 0.050407
#
#
# Mechanical properties :
#
#
# Convention : Reuss Voigt Hill
#
# Bulk Modulus (GPa) = 27.92864 44.55735 36.24300
# Shear Modulus (GPa) = 24.41780 32.83365 28.62573
#
# Velocity S-wave (km/s) = 3.31483 3.84385 3.58910
# Velocity P-wave (km/s) = 5.21716 6.30486 5.78662
#
# Compressibility (1/GPa) = 0.03580554
#
# Stress axis : x y z
#
# Youngs Moduli (GPa) = 142.98159 33.61229 84.15081
#
# Poissons Ratio (x) = 0.06097 0.14786
# Poissons Ratio (y) = 0.25935 0.23903
# Poissons Ratio (z) = 0.25122 0.09548
#
# Static dielectric constant tensor:
#      x y z
#    x 1.852480 0.000000 -0.036000 
#    y 0.000000 1.798790 0.000000 
#    z -0.036000 0.000000 1.808980 
# 
# From -- ./inp_files/346230.got.cif
#   From: 2010.05.17/outbox.cif.g08.bks.cpg/sg12_174_cif.got.tgz:346230.got - 2010.06.03 13:09:07.
