data_PCOD9194772
_publ_section_title
;
Structure prediction by ZEFSAII (Michael W. Deem and Ramdas Pophale) SiO2 
 PCOD9194772
Probable space group: C 2/M
;
_chemical_formula_sum "Si O2"
_cell_formula_units_Z 56
_cell_length_a 5.432052
_cell_length_b 32.510145
_cell_length_c 13.708719
_cell_angle_alpha 90.000000
_cell_angle_beta 99.274161
_cell_angle_gamma 90.000000
_cell_volume 2389.270869
_symmetry_space_group_name_H-M "C 2/M"
_symmetry_group_IT_number 12
_symmetry_cell_setting 'monoclinic'
loop_
_space_group_symop_operation_xyz
x,y,z
-x,y,-z
-x,-y,-z
x,-y,z
1/2+x,1/2+y,z
1/2-x,1/2+y,-z
1/2-x,1/2-y,-z
1/2+x,1/2-y,z
loop_
_atom_site_type_symbol
_atom_site_label
_atom_site_fract_x
_atom_site_fract_y
_atom_site_fract_z
Si Si1 0.945406 0.223702 0.887286
Si Si2 0.229765 0.910669 0.238288
Si Si3 0.536047 0.874118 0.106121
Si Si4 0.587600 0.228712 0.618129
Si Si5 0.878678 0.955438 0.099588
Si Si6 0.960757 0.360117 0.609300
Si Si7 0.590397 0.337647 0.729400
O O1 0.175665 0.254618 0.878462
O O2 0.953421 0.191377 0.799520
O O3 0.000000 0.206396 0.000000
O O4 0.283046 0.889719 0.137301
O O5 0.471825 0.899812 0.319475
O O6 0.095061 0.951825 0.196354
O O7 0.032929 0.882324 0.279005
O O8 0.699967 0.915862 0.101599
O O9 0.654010 0.843534 0.191200
O O10 0.500000 0.853915 0.000000
O O11 0.500000 0.233849 0.500000
O O12 0.842273 0.253443 0.656331
O O13 0.641344 0.180081 0.632364
O O14 0.749515 0.000000 0.102110
O O15 0.000000 0.954543 0.000000
O O16 0.703125 0.337345 0.625995
O O17 0.000000 0.372062 0.500000
#
# Coordination Sequence:
#
# PCOD9194772 Si02
#       7
#     8   8   8   8   8   8   8
#     4  10  24  41  60  87 125 173 223 271 326 390
#     4  10  22  39  57  90 121 162 204 249 310 381
#     4  10  20  34  57  87 122 160 201 246 304 374
#     4   9  19  35  57  85 115 153 204 265 330 383
#     4  10  20  35  59  94 130 163 198 244 310 384
#     4  10  23  41  61  88 121 163 214 271 329 377
#     4  10  24  37  59  87 117 163 212 263 317 379
#
# _framework density 23.438110000000002
#
# number of rings (size 3 to 8) (size 9 to 14) (size 15 to 20)
#    0.000    2.143    1.429    0.000    8.000    3.143 
#    0.000    0.000    0.000    0.429    0.000    9.000 
#    0.000    0.000    0.000    0.000    0.000    0.000 
#
# Total GULP energy -155956.794782 kJ/mol
# GULP energy per Si atom -5569.885528 kJ/mol
# Density = 2.338476 g / cm^3
# Si number density = 23.438110 Si / 1000 Ang^3
#
#
#
# Elastic Constant Matrix: (Units=GPa)
#
#
# Indices 1 2 3 4 5 6 
#
# 1 72.3837 14.2994 22.4001 0.0000 -14.8987 0.0000
# 2 14.2994 71.9481 20.4099 0.0000 2.5983 0.0000
# 3 22.4001 20.4099 121.1329 0.0000 -12.2035 0.0000
# 4 0.0000 0.0000 0.0000 5.3924 0.0000 1.4677
# 5 -14.8987 2.5983 -12.2035 0.0000 39.4494 0.0000
# 6 0.0000 0.0000 0.0000 1.4677 0.0000 27.0692
#
#
#
# Elastic Compliance Matrix: (Units=1/GPa)
#
#
# Indices 1 2 3 4 5 6 
#
# 1 0.016151 -0.002868 -0.001930 0.000000 0.005691 0.000000
# 2 -0.002868 0.015228 -0.002318 0.000000 -0.002803 0.000000
# 3 -0.001930 -0.002318 0.009232 0.000000 0.002280 0.000000
# 4 0.000000 0.000000 0.000000 0.188223 0.000000 -0.010205
# 5 0.005691 -0.002803 0.002280 0.000000 0.028388 0.000000
# 6 0.000000 0.000000 0.000000 -0.010205 0.000000 0.037496
#
#
# Mechanical properties :
#
#
# Convention : Reuss Voigt Hill
#
# Bulk Modulus (GPa) = 37.90854 42.18706 40.04780
# Shear Modulus (GPa) = 15.73604 28.27257 22.00431
#
# Velocity S-wave (km/s) = 2.59392 3.47690 3.06735
# Velocity P-wave (km/s) = 5.01799 5.84439 5.44689
#
# Compressibility (1/GPa) = 0.02637928
#
# Stress axis : x y z
#
# Youngs Moduli (GPa) = 61.91750 65.67019 108.31304
#
# Poissons Ratio (x) = 0.18834 0.20904
# Poissons Ratio (y) = 0.17757 0.25105
# Poissons Ratio (z) = 0.11950 0.15221
#
# Static dielectric constant tensor:
#      x y z
#    x 2.090060 0.000000 0.099740 
#    y 0.000000 1.958250 0.000000 
#    z 0.099740 0.000000 2.003540 
# 
# From -- ./inp_files/192608.got.cif
#   From: 2010.05.17/outbox.cif.g08.bks.cpg/sg12_97_cif.got.tgz:192608.got - 2010.06.03 13:09:07.
