data_PCOD9194096
_publ_section_title
;
Structure prediction by ZEFSAII (Michael W. Deem and Ramdas Pophale) SiO2 
 PCOD9194096
Probable space group: C 2/M
;
_chemical_formula_sum "Si O2"
_cell_formula_units_Z 48
_cell_length_a 15.227840
_cell_length_b 7.438824
_cell_length_c 29.662740
_cell_angle_alpha 90.000000
_cell_angle_beta 143.578820
_cell_angle_gamma 90.000000
_cell_volume 1994.954005
_symmetry_space_group_name_H-M "C 2/M"
_symmetry_group_IT_number 12
_symmetry_cell_setting 'monoclinic'
loop_
_space_group_symop_operation_xyz
x,y,z
-x,y,-z
-x,-y,-z
x,-y,z
1/2+x,1/2+y,z
1/2-x,1/2+y,-z
1/2-x,1/2-y,-z
1/2+x,1/2-y,z
loop_
_atom_site_type_symbol
_atom_site_label
_atom_site_fract_x
_atom_site_fract_y
_atom_site_fract_z
Si Si1 0.287225 0.285135 0.450304
Si Si2 0.494837 0.203860 0.618594
Si Si3 0.752595 0.715726 0.335922
Si Si4 0.409204 0.213401 0.087292
Si Si5 0.895163 0.279973 0.914874
Si Si6 0.572395 0.296623 0.802709
O O1 0.290322 0.500000 0.459178
O O2 0.396470 0.201870 0.532126
O O3 0.120061 0.217934 0.392696
O O4 0.325213 0.249097 0.414443
O O5 0.648383 0.286701 0.664620
O O6 0.526008 0.000000 0.646314
O O7 0.743495 0.500000 0.325735
O O8 0.586802 0.789832 0.271481
O O9 0.530607 0.273892 0.101305
O O10 0.416816 0.302980 0.138781
O O11 0.425925 0.000000 0.100884
O O12 0.250000 0.250000 0.000000
O O13 0.892728 0.500000 0.915577
O O14 0.726811 0.215653 0.849979
O O15 0.000000 0.223854 0.000000
O O16 0.567038 0.500000 0.782022
#
# Coordination Sequence:
#
# PCOD9194096 Si02
#       6
#     8   8   8   8   8   8
#     4  10  20  34  55  81 108 140 180 224 264 309
#     4   9  19  36  55  78 109 144 179 218 267 317
#     4  10  21  36  55  77 108 146 179 215 266 323
#     4  11  21  35  57  81 105 136 175 220 267 314
#     4   9  17  33  56  77 103 137 170 211 264 317
#     4  10  21  38  56  78 107 143 181 216 264 323
#
# _framework density 24.060704999999999
#
# number of rings (size 3 to 8) (size 9 to 14) (size 15 to 20)
#    0.000    2.167    1.667    1.500    0.000    5.333 
#    0.000    2.500    0.000    0.000    0.000    0.000 
#    0.000    0.000    0.000    0.000    0.000    0.000 
#
# Total GULP energy -134101.926049 kJ/mol
# GULP energy per Si atom -5587.580252 kJ/mol
# Density = 2.400594 g / cm^3
# Si number density = 24.060705 Si / 1000 Ang^3
#
#
#
# Elastic Constant Matrix: (Units=GPa)
#
#
# Indices 1 2 3 4 5 6 
#
# 1 155.4419 0.2512 15.2675 0.0000 37.0099 0.0000
# 2 0.2512 92.5545 -9.2223 0.0000 8.4087 0.0000
# 3 15.2675 -9.2223 57.7161 0.0000 24.0137 0.0000
# 4 0.0000 0.0000 0.0000 0.8431 0.0000 -6.3234
# 5 37.0099 8.4087 24.0137 0.0000 46.9061 0.0000
# 6 0.0000 0.0000 0.0000 -6.3234 0.0000 10.3857
#
#
#
# Elastic Compliance Matrix: (Units=1/GPa)
#
#
# Indices 1 2 3 4 5 6 
#
# 1 0.007981 0.000686 0.000851 0.000000 -0.006856 0.000000
# 2 0.000686 0.011551 0.003495 0.000000 -0.004401 0.000000
# 3 0.000851 0.003495 0.023126 0.000000 -0.013137 0.000000
# 4 0.000000 0.000000 0.000000 -0.332560 0.000000 -0.202481
# 5 -0.006856 -0.004401 -0.013137 0.000000 0.034243 0.000000
# 6 0.000000 0.000000 0.000000 -0.202481 0.000000 -0.026996
#
#
# Mechanical properties :
#
#
# Convention : Reuss Voigt Hill
#
# Bulk Modulus (GPa) = 18.96744 35.36724 27.16734
# Shear Modulus (GPa) = -18.17221 31.58802 6.70791
#
# Velocity S-wave (km/s) = -2.75119 3.62725 1.67151
# Velocity P-wave (km/s) = 1.48047 5.68100 3.87827
#
# Compressibility (1/GPa) = 0.05272192
#
# Stress axis : x y z
#
# Youngs Moduli (GPa) = 125.29927 86.57439 43.24209
#
# Poissons Ratio (x) = -0.05939 -0.03679
# Poissons Ratio (y) = -0.08595 -0.15115
# Poissons Ratio (z) = -0.10661 -0.30262
#
# Static dielectric constant tensor:
#      x y z
#    x 1.916940 0.000000 0.059800 
#    y 0.000000 2.035410 0.000000 
#    z 0.059800 0.000000 1.897980 
# 
# From -- ./inp_files/267722.got.cif
#   From: 2010.05.17/outbox.cif.g08.bks.cpg/sg12_134_cif.got.tgz:267722.got - 2010.06.03 13:09:07.
