data_PCOD9194217
_publ_section_title
;
Structure prediction by ZEFSAII (Michael W. Deem and Ramdas Pophale) SiO2 
 PCOD9194217
Probable space group: C 2/M
;
_chemical_formula_sum "Si O2"
_cell_formula_units_Z 64
_cell_length_a 19.057908
_cell_length_b 19.951191
_cell_length_c 14.936139
_cell_angle_alpha 90.000000
_cell_angle_beta 140.104199
_cell_angle_gamma 90.000000
_cell_volume 3642.561479
_symmetry_space_group_name_H-M "C 2/M"
_symmetry_group_IT_number 12
_symmetry_cell_setting 'monoclinic'
loop_
_space_group_symop_operation_xyz
x,y,z
-x,y,-z
-x,-y,-z
x,-y,z
1/2+x,1/2+y,z
1/2-x,1/2+y,-z
1/2-x,1/2-y,-z
1/2+x,1/2-y,z
loop_
_atom_site_type_symbol
_atom_site_label
_atom_site_fract_x
_atom_site_fract_y
_atom_site_fract_z
Si Si1 0.244781 0.576271 0.610849
Si Si2 0.147986 0.422261 0.878823
Si Si3 0.118932 0.373218 0.653542
Si Si4 0.591424 0.080151 0.291011
Si Si5 0.646908 0.677367 0.911699
Si Si6 0.548211 0.667957 0.147530
Si Si7 0.388076 0.181562 0.840617
Si Si8 0.274396 0.263056 0.176152
O O1 0.281249 0.500000 0.631926
O O2 0.179357 0.582894 0.639072
O O3 0.161481 0.594094 0.449139
O O4 0.347072 0.624687 0.723995
O O5 0.171077 0.500000 0.920518
O O6 0.116384 0.412355 0.744194
O O7 0.037253 0.402017 0.822405
O O8 0.254827 0.376722 0.997808
O O9 0.000000 0.357712 0.500000
O O10 0.181566 0.303470 0.732754
O O11 0.637773 0.125464 0.257305
O O12 0.596793 0.000000 0.280007
O O13 0.541652 0.653889 0.863702
O O14 0.633658 0.703173 0.796985
O O15 0.687943 0.737283 0.017036
O O16 0.584086 0.746075 0.176693
O O17 0.500000 0.652653 0.000000
O O18 0.290688 0.192603 0.816444
O O19 0.500000 0.161570 0.000000
#
# Coordination Sequence:
#
# PCOD9194217 Si02
#       8
#     8   8   8   8   8   8   8   8
#     4  11  23  39  56  81 118 157 188 231 286 338
#     4  10  20  34  55  83 113 146 185 229 283 341
#     4  11  20  33  53  82 115 147 185 227 278 343
#     4  10  23  39  57  84 114 149 193 236 287 339
#     4  10  20  35  58  82 112 148 181 232 281 327
#     4  11  21  37  57  89 116 149 193 230 276 343
#     4  11  20  37  60  83 115 145 185 238 284 335
#     4  10  20  36  55  82 113 144 185 230 282 331
#
# _framework density 17.570052
#
# number of rings (size 3 to 8) (size 9 to 14) (size 15 to 20)
#    0.000    1.500    5.000    1.875    3.500    2.000 
#    2.250    0.625    0.000    0.000    0.000    1.750 
#    0.000    0.000    0.000    0.000    0.000    0.000 
#
# Total GULP energy -178468.911353 kJ/mol
# GULP energy per Si atom -5577.153480 kJ/mol
# Density = 1.753006 g / cm^3
# Si number density = 17.570052 Si / 1000 Ang^3
#
#
#
# Elastic Constant Matrix: (Units=GPa)
#
#
# Indices 1 2 3 4 5 6 
#
# 1 110.9346 38.6054 16.5965 0.0000 6.4783 0.0000
# 2 38.6054 50.3272 27.1799 0.0000 -6.8195 0.0000
# 3 16.5965 27.1799 34.5937 0.0000 2.5380 0.0000
# 4 0.0000 0.0000 0.0000 15.2102 0.0000 -9.0506
# 5 6.4783 -6.8195 2.5380 0.0000 19.1456 0.0000
# 6 0.0000 0.0000 0.0000 -9.0506 0.0000 -2.6973
#
#
#
# Elastic Compliance Matrix: (Units=1/GPa)
#
#
# Indices 1 2 3 4 5 6 
#
# 1 0.014292 -0.016094 0.006628 0.000000 -0.011447 0.000000
# 2 -0.016094 0.058323 -0.040420 0.000000 0.031578 0.000000
# 3 0.006628 -0.040420 0.059282 0.000000 -0.024499 0.000000
# 4 0.000000 0.000000 0.000000 0.021940 0.000000 -0.073618
# 5 -0.011447 0.031578 -0.024499 0.000000 0.070600 0.000000
# 6 0.000000 0.000000 0.000000 -0.073618 0.000000 -0.123721
#
#
# Mechanical properties :
#
#
# Convention : Reuss Voigt Hill
#
# Bulk Modulus (GPa) = 31.12741 40.06879 35.59810
# Shear Modulus (GPa) = 23.67471 13.89662 18.78567
#
# Velocity S-wave (km/s) = 3.67474 2.81539 3.27339
# Velocity P-wave (km/s) = 5.97993 5.78128 5.88145
#
# Compressibility (1/GPa) = 0.03212602
#
# Stress axis : x y z
#
# Youngs Moduli (GPa) = 69.97007 17.14579 16.86853
#
# Poissons Ratio (x) = 0.27594 -0.11180
# Poissons Ratio (y) = 1.12607 0.68182
# Poissons Ratio (z) = -0.46375 0.69303
#
# Static dielectric constant tensor:
#      x y z
#    x 1.646450 0.000000 0.012140 
#    y 0.000000 1.605210 0.000000 
#    z 0.012140 0.000000 1.586940 
# 
# From -- ./inp_files/226906.got.cif
#   From: 2010.05.17/outbox.cif.g08.bks.cpg/sg12_114_cif.got.tgz:226906.got - 2010.06.03 13:09:07.
