data_PCOD9194564
_publ_section_title
;
Structure prediction by ZEFSAII (Michael W. Deem and Ramdas Pophale) SiO2 
 PCOD9194564
Probable space group: C 2/M
;
_chemical_formula_sum "Si O2"
_cell_formula_units_Z 64
_cell_length_a 29.640469
_cell_length_b 8.220750
_cell_length_c 23.747352
_cell_angle_alpha 90.000000
_cell_angle_beta 32.198277
_cell_angle_gamma 90.000000
_cell_volume 3083.311111
_symmetry_space_group_name_H-M "C 2/M"
_symmetry_group_IT_number 12
_symmetry_cell_setting 'monoclinic'
loop_
_space_group_symop_operation_xyz
x,y,z
-x,y,-z
-x,-y,-z
x,-y,z
1/2+x,1/2+y,z
1/2-x,1/2+y,-z
1/2-x,1/2-y,-z
1/2+x,1/2-y,z
loop_
_atom_site_type_symbol
_atom_site_label
_atom_site_fract_x
_atom_site_fract_y
_atom_site_fract_z
Si Si1 0.787792 0.303989 0.900747
Si Si2 0.241835 0.692735 0.329632
Si Si3 0.476782 0.802512 0.230459
Si Si4 0.906156 0.689462 0.091318
Si Si5 0.938284 0.300820 0.514777
Si Si6 0.290507 0.193925 0.398681
Si Si7 0.519057 0.801855 0.311159
Si Si8 0.132681 0.806205 0.990145
O O1 0.790174 0.500000 0.897707
O O2 0.883468 0.245917 0.792063
O O3 0.750000 0.250000 0.000000
O O4 0.721706 0.253123 0.922894
O O5 0.235060 0.500000 0.337302
O O6 0.330673 0.738316 0.207806
O O7 0.159836 0.753640 0.381396
O O8 0.242331 0.748265 0.393947
O O9 0.388808 0.750867 0.294781
O O10 0.477585 0.754110 0.295493
O O11 0.557767 0.730603 0.113321
O O12 0.482947 0.000000 0.221304
O O13 0.910718 0.500000 0.102112
O O14 0.884390 0.713235 0.049224
O O15 0.000000 0.762231 0.000000
O O16 0.939259 0.500000 0.515918
O O17 0.000000 0.245734 0.500000
O O18 0.973940 0.250261 0.416074
O O19 0.250000 0.250000 0.500000
O O20 0.291325 0.000000 0.397402
O O21 0.518608 0.000000 0.312181
O O22 0.135591 0.000000 0.976082
#
# Coordination Sequence:
#
# PCOD9194564 Si02
#       8
#     8   8   8   8   8   8   8   8
#     4  10  20  34  56  85 120 155 195 243 295 356
#     4  11  23  40  64  94 125 157 201 255 307 356
#     4  10  20  36  58  83 115 158 198 238 296 367
#     4  11  25  44  64  86 118 164 209 245 296 366
#     4   9  19  35  59  88 118 156 203 249 295 356
#     4  11  23  39  62  90 120 156 201 246 298 359
#     4   9  17  32  55  81 114 154 197 241 286 346
#     4  11  23  36  57  91 121 148 194 249 304 356
#
# _framework density 20.756907000000002
#
# number of rings (size 3 to 8) (size 9 to 14) (size 15 to 20)
#    0.000    1.750    1.250    3.000    1.750    7.500 
#    0.000    0.000    0.000    2.250    0.000    0.000 
#    0.000    0.000    0.000    0.000    0.000    0.000 
#
# Total GULP energy -178802.447274 kJ/mol
# GULP energy per Si atom -5587.576477 kJ/mol
# Density = 2.070966 g / cm^3
# Si number density = 20.756907 Si / 1000 Ang^3
#
#
#
# Elastic Constant Matrix: (Units=GPa)
#
#
# Indices 1 2 3 4 5 6 
#
# 1 138.2883 9.0426 47.4876 -0.0032 -14.8263 0.0003
# 2 9.0426 14.0078 10.7596 -0.0028 -8.2022 -0.0065
# 3 47.4876 10.7596 98.5333 -0.0056 -9.0593 0.0000
# 4 -0.0032 -0.0028 -0.0056 25.5196 0.0006 5.9554
# 5 -14.8263 -8.2022 -9.0593 0.0006 41.1607 0.0019
# 6 0.0003 -0.0065 0.0000 5.9554 0.0019 21.1387
#
#
#
# Elastic Compliance Matrix: (Units=1/GPa)
#
#
# Indices 1 2 3 4 5 6 
#
# 1 0.008901 -0.001532 -0.003935 0.000000 0.002035 -0.000001
# 2 -0.001532 0.086898 -0.007358 0.000002 0.015145 0.000025
# 3 -0.003935 -0.007358 0.012844 0.000002 -0.000057 -0.000003
# 4 0.000000 0.000002 0.000002 0.041943 0.000001 -0.011817
# 5 0.002035 0.015145 -0.000057 0.000001 0.028033 0.000002
# 6 -0.000001 0.000025 -0.000003 -0.011817 0.000002 0.050636
#
#
# Mechanical properties :
#
#
# Convention : Reuss Voigt Hill
#
# Bulk Modulus (GPa) = 12.04941 42.82322 27.43631
# Shear Modulus (GPa) = 17.69475 29.79977 23.74726
#
# Velocity S-wave (km/s) = 2.92289 3.79312 3.38607
# Velocity P-wave (km/s) = 4.14833 6.31342 5.34172
#
# Compressibility (1/GPa) = 0.08299163
#
# Stress axis : x y z
#
# Youngs Moduli (GPa) = 112.34695 11.50778 77.85856
#
# Poissons Ratio (x) = 0.01762 0.30641
# Poissons Ratio (y) = 0.17207 0.57292
# Poissons Ratio (z) = 0.44214 0.08468
#
# Static dielectric constant tensor:
#      x y z
#    x 1.749730 0.000000 -0.043030 
#    y 0.000000 1.736350 0.000010 
#    z -0.043030 0.000010 1.734400 
# 
# From -- ./inp_files/353335.got.cif
#   From: 2010.05.17/outbox.cif.g08.bks.cpg/sg12_177_cif.got.tgz:353335.got - 2010.06.03 13:09:07.
