data_PCOD9194370
_publ_section_title
;
Structure prediction by ZEFSAII (Michael W. Deem and Ramdas Pophale) SiO2 
 PCOD9194370
Probable space group: C 2/M
;
_chemical_formula_sum "Si O2"
_cell_formula_units_Z 48
_cell_length_a 23.178198
_cell_length_b 14.804976
_cell_length_c 21.429085
_cell_angle_alpha 90.000000
_cell_angle_beta 161.647705
_cell_angle_gamma 90.000000
_cell_volume 2315.298318
_symmetry_space_group_name_H-M "C 2/M"
_symmetry_group_IT_number 12
_symmetry_cell_setting 'monoclinic'
loop_
_space_group_symop_operation_xyz
x,y,z
-x,y,-z
-x,-y,-z
x,-y,z
1/2+x,1/2+y,z
1/2-x,1/2+y,-z
1/2-x,1/2-y,-z
1/2+x,1/2-y,z
loop_
_atom_site_type_symbol
_atom_site_label
_atom_site_fract_x
_atom_site_fract_y
_atom_site_fract_z
Si Si1 0.904951 0.214337 0.468512
Si Si2 0.272820 0.099240 0.145859
Si Si3 0.448666 0.798081 0.632747
Si Si4 0.064959 0.605309 0.136667
Si Si5 0.517079 0.747740 0.191824
Si Si6 0.220273 0.102746 0.234741
O O1 0.016860 0.231139 0.646987
O O2 0.779118 0.128710 0.353360
O O3 0.788328 0.308245 0.340531
O O4 0.000000 0.200782 0.500000
O O5 0.456872 0.111151 0.294752
O O6 0.309000 0.109943 0.256877
O O7 0.194578 0.000000 0.057483
O O8 0.120523 0.169641 0.968685
O O9 0.516392 0.777385 0.771463
O O10 0.228632 0.787426 0.407993
O O11 0.025837 0.500000 0.107316
O O12 0.994603 0.670877 0.119052
O O13 0.000000 0.630342 0.000000
O O14 0.259079 0.000000 0.298389
O O15 0.000000 0.108667 0.000000
#
# Coordination Sequence:
#
# PCOD9194370 Si02
#       6
#     8   8   8   8   8   8
#     4  11  20  35  61  85 121 158 189 251 302 357
#     4  11  22  37  61  92 125 159 203 249 299 373
#     4  10  22  39  60  90 119 165 205 243 303 366
#     4  10  22  40  63  87 111 153 209 256 305 357
#     4  10  22  42  64  85 126 163 202 255 307 361
#     4  10  20  34  55  87 122 158 198 242 299 367
#
# _framework density 20.731669
#
# number of rings (size 3 to 8) (size 9 to 14) (size 15 to 20)
#    0.000    1.667    1.667    4.000    0.000    2.667 
#    0.000    6.667    0.000    0.000    0.000    0.000 
#    0.000    0.000    0.000    0.000    0.000    0.000 
#
# Total GULP energy -133911.779357 kJ/mol
# GULP energy per Si atom -5579.657473 kJ/mol
# Density = 2.068448 g / cm^3
# Si number density = 20.731669 Si / 1000 Ang^3
#
#
#
# Elastic Constant Matrix: (Units=GPa)
#
#
# Indices 1 2 3 4 5 6 
#
# 1 148.2758 47.1492 25.4678 0.0069 -24.0353 -0.0005
# 2 47.1492 94.7707 40.7536 0.0219 -17.1280 0.0040
# 3 25.4678 40.7536 53.4699 0.0038 -15.6560 -0.0008
# 4 0.0069 0.0219 0.0038 5.1308 0.0032 7.8401
# 5 -24.0353 -17.1280 -15.6560 0.0032 36.5175 -0.0023
# 6 -0.0005 0.0040 -0.0008 7.8401 -0.0023 25.9296
#
#
#
# Elastic Compliance Matrix: (Units=1/GPa)
#
#
# Indices 1 2 3 4 5 6 
#
# 1 0.008506 -0.003388 -0.000337 -0.000001 0.003865 0.000001
# 2 -0.003388 0.017257 -0.011232 -0.000106 0.001049 0.000029
# 3 -0.000337 -0.011232 0.029522 0.000032 0.007167 -0.000006
# 4 -0.000001 -0.000106 0.000032 0.362280 -0.000076 -0.109539
# 5 0.003865 0.001049 0.007167 -0.000076 0.033492 0.000026
# 6 0.000001 0.000029 -0.000006 -0.109539 0.000026 0.071686
#
#
# Mechanical properties :
#
#
# Convention : Reuss Voigt Hill
#
# Bulk Modulus (GPa) = 39.41719 58.13973 48.77846
# Shear Modulus (GPa) = 8.91082 25.72532 17.31807
#
# Velocity S-wave (km/s) = 2.07545 3.52642 2.89337
# Velocity P-wave (km/s) = 4.97972 6.68473 5.89420
#
# Compressibility (1/GPa) = 0.02536964
#
# Stress axis : x y z
#
# Youngs Moduli (GPa) = 117.56401 57.94726 33.87294
#
# Poissons Ratio (x) = 0.19634 0.01143
# Poissons Ratio (y) = 0.39834 0.38047
# Poissons Ratio (z) = 0.03966 0.65087
#
# Static dielectric constant tensor:
#      x y z
#    x 1.794920 0.000000 0.009460 
#    y 0.000000 1.724600 0.000000 
#    z 0.009460 0.000000 1.839620 
# 
# From -- ./inp_files/95860.got.cif
#   From: 2010.05.17/outbox.cif.g08.bks.cpg/sg12_48_cif.got.tgz:95860.got - 2010.06.03 13:09:07.
