data_PCOD9194125
_publ_section_title
;
Structure prediction by ZEFSAII (Michael W. Deem and Ramdas Pophale) SiO2 
 PCOD9194125
Probable space group: C 2/M
;
_chemical_formula_sum "Si O2"
_cell_formula_units_Z 64
_cell_length_a 19.578869
_cell_length_b 9.546478
_cell_length_c 15.835663
_cell_angle_alpha 90.000000
_cell_angle_beta 74.671516
_cell_angle_gamma 90.000000
_cell_volume 2854.539063
_symmetry_space_group_name_H-M "C 2/M"
_symmetry_group_IT_number 12
_symmetry_cell_setting 'monoclinic'
loop_
_space_group_symop_operation_xyz
x,y,z
-x,y,-z
-x,-y,-z
x,-y,z
1/2+x,1/2+y,z
1/2-x,1/2+y,-z
1/2-x,1/2-y,-z
1/2+x,1/2-y,z
loop_
_atom_site_type_symbol
_atom_site_label
_atom_site_fract_x
_atom_site_fract_y
_atom_site_fract_z
Si Si1 0.659811 0.338560 0.098253
Si Si2 0.302058 0.840274 0.142335
Si Si3 0.918174 0.839546 0.184554
Si Si4 0.223396 0.158205 0.350831
Si Si5 0.080640 0.839151 0.304994
Si Si6 0.461344 0.837198 0.422265
Si Si7 0.339825 0.661681 0.391646
Si Si8 0.539657 0.839033 0.076916
O O1 0.655896 0.500000 0.069909
O O2 0.741093 0.306138 0.094832
O O3 0.619100 0.331796 0.202068
O O4 0.616343 0.233110 0.054284
O O5 0.362472 0.727252 0.137479
O O6 0.262570 0.843486 0.246587
O O7 0.329157 0.000000 0.118383
O O8 0.882103 0.834641 0.288128
O O9 0.988026 0.747141 0.154966
O O10 0.935067 0.000000 0.158530
O O11 0.142272 0.187927 0.353768
O O12 0.264847 0.266176 0.395874
O O13 0.229488 0.000000 0.382166
O O14 0.017601 0.732331 0.340159
O O15 0.054788 0.000000 0.323829
O O16 0.500000 0.827099 0.500000
O O17 0.388834 0.750407 0.438393
O O18 0.448115 0.000000 0.407122
O O19 0.333261 0.500000 0.418262
O O20 0.545735 0.000000 0.100555
O O21 0.500000 0.832557 0.000000
#
# Coordination Sequence:
#
# PCOD9194125 Si02
#       8
#     8   8   8   8   8   8   8   8
#     4   9  18  34  57  83 107 133 169 212 259 311
#     4   8  15  30  53  80 108 134 162 204 257 308
#     4  10  20  34  55  82 107 133 170 213 256 307
#     4   8  15  30  53  80 108 134 162 204 257 308
#     4   9  18  34  57  83 107 133 169 212 259 311
#     4  11  24  38  51  72 104 141 180 218 256 303
#     4  10  20  34  55  82 107 133 170 213 256 307
#     4  11  24  38  51  72 104 141 180 218 256 303
#
# _framework density 22.420432999999999
#
# number of rings (size 3 to 8) (size 9 to 14) (size 15 to 20)
#    0.000    2.500    0.000    3.750    0.000    8.000 
#    0.000    3.750    0.000    0.000    0.000    0.000 
#    0.000    0.000    0.000    0.000    0.000    0.000 
#
# Total GULP energy -178975.890563 kJ/mol
# GULP energy per Si atom -5592.996580 kJ/mol
# Density = 2.236940 g / cm^3
# Si number density = 22.420433 Si / 1000 Ang^3
#
#
#
# Elastic Constant Matrix: (Units=GPa)
#
#
# Indices 1 2 3 4 5 6 
#
# 1 118.9160 90.5057 14.4732 0.0000 27.8914 0.0000
# 2 90.5057 148.8395 36.5803 0.0000 38.8869 0.0000
# 3 14.4732 36.5803 70.4366 0.0000 5.0489 0.0000
# 4 0.0000 0.0000 0.0000 12.2273 0.0000 14.5493
# 5 27.8914 38.8869 5.0489 0.0000 30.4102 0.0000
# 6 0.0000 0.0000 0.0000 14.5493 0.0000 28.6876
#
#
#
# Elastic Compliance Matrix: (Units=1/GPa)
#
#
# Indices 1 2 3 4 5 6 
#
# 1 0.016072 -0.009444 0.001815 0.000000 -0.002965 0.000000
# 2 -0.009444 0.017167 -0.006095 0.000000 -0.012279 0.000000
# 3 0.001815 -0.006095 0.016750 0.000000 0.003348 0.000000
# 4 0.000000 0.000000 0.000000 0.206252 0.000000 -0.104604
# 5 -0.002965 -0.012279 0.003348 0.000000 0.050749 0.000000
# 6 0.000000 0.000000 0.000000 -0.104604 0.000000 0.087909
#
#
# Mechanical properties :
#
#
# Convention : Reuss Voigt Hill
#
# Bulk Modulus (GPa) = 44.36514 69.03452 56.69983
# Shear Modulus (GPa) = 11.63166 27.37388 19.50277
#
# Velocity S-wave (km/s) = 2.28018 3.49798 2.95255
# Velocity P-wave (km/s) = 5.17331 6.86820 6.08010
#
# Compressibility (1/GPa) = 0.02254022
#
# Stress axis : x y z
#
# Youngs Moduli (GPa) = 62.22095 58.24972 59.70306
#
# Poissons Ratio (x) = 0.55012 -0.10835
# Poissons Ratio (y) = 0.58763 0.36389
# Poissons Ratio (z) = -0.11292 0.35503
#
# Static dielectric constant tensor:
#      x y z
#    x 1.816540 0.000000 -0.005570 
#    y 0.000000 1.770380 0.000000 
#    z -0.005570 0.000000 1.884980 
# 
# From -- ./inp_files/314127.got.cif
#   From: 2010.05.17/outbox.cif.g08.bks.cpg/sg12_158_cif.got.tgz:314127.got - 2010.06.03 13:09:07.
