data_PCOD9194869
_publ_section_title
;
Structure prediction by ZEFSAII (Michael W. Deem and Ramdas Pophale) SiO2 
 PCOD9194869
Probable space group: C 2/M
;
_chemical_formula_sum "Si O2"
_cell_formula_units_Z 56
_cell_length_a 29.624838
_cell_length_b 13.555850
_cell_length_c 7.908828
_cell_angle_alpha 90.000000
_cell_angle_beta 128.435891
_cell_angle_gamma 90.000000
_cell_volume 2487.856510
_symmetry_space_group_name_H-M "C 2/M"
_symmetry_group_IT_number 12
_symmetry_cell_setting 'monoclinic'
loop_
_space_group_symop_operation_xyz
x,y,z
-x,y,-z
-x,-y,-z
x,-y,z
1/2+x,1/2+y,z
1/2-x,1/2+y,-z
1/2-x,1/2-y,-z
1/2+x,1/2-y,z
loop_
_atom_site_type_symbol
_atom_site_label
_atom_site_fract_x
_atom_site_fract_y
_atom_site_fract_z
Si Si1 0.136687 0.813135 0.863813
Si Si2 0.614356 0.890596 0.689056
Si Si3 0.961492 0.891413 0.578564
Si Si4 0.048498 0.298639 0.234457
Si Si5 0.652826 0.716249 0.257216
Si Si6 0.243380 0.609761 0.845642
Si Si7 0.762798 0.611575 0.577398
O O1 0.107829 0.704799 0.790219
O O2 0.102683 0.874358 0.644545
O O3 0.131214 0.846599 0.046086
O O4 0.204797 0.818470 0.984194
O O5 0.572372 0.871947 0.432525
O O6 0.680239 0.881503 0.776830
O O7 0.605786 0.000000 0.740469
O O8 0.975697 0.800031 0.731628
O O9 0.000000 0.887133 0.500000
O O10 0.967222 0.000000 0.669704
O O11 0.102807 0.260644 0.252681
O O12 0.000000 0.341671 0.000000
O O13 0.699370 0.653037 0.471485
O O14 0.689698 0.807823 0.264449
O O15 0.264913 0.500000 0.938869
O O16 0.235797 0.612875 0.624694
O O17 0.772582 0.500000 0.659958
#
# Coordination Sequence:
#
# PCOD9194869 Si02
#       7
#     8   8   8   8   8   8   8
#     4  10  20  34  58  83 116 151 192 237 294 347
#     4  10  21  37  55  80 116 155 198 242 288 343
#     4  10  22  41  62  86 118 154 193 240 296 354
#     4  11  23  39  62  87 117 154 199 247 294 347
#     4  10  20  35  57  86 117 152 196 240 290 347
#     4   9  16  31  55  81 111 150 191 236 291 348
#     4   9  18  33  55  82 117 156 193 239 291 344
#
# _framework density 22.509336999999999
#
# number of rings (size 3 to 8) (size 9 to 14) (size 15 to 20)
#    0.000    2.143    1.429    1.714    0.000    2.286 
#    0.000    0.000    0.000   14.571    0.000    0.000 
#    0.000    0.000    0.000    0.000    0.000    0.000 
#
# Total GULP energy -156350.184661 kJ/mol
# GULP energy per Si atom -5583.935166 kJ/mol
# Density = 2.245811 g / cm^3
# Si number density = 22.509337 Si / 1000 Ang^3
#
#
#
# Elastic Constant Matrix: (Units=GPa)
#
#
# Indices 1 2 3 4 5 6 
#
# 1 31.5516 -8.5250 -8.5861 0.0000 8.8883 0.0000
# 2 -8.5250 105.3332 1.1064 0.0000 5.9417 0.0000
# 3 -8.5861 1.1064 70.5093 0.0000 6.5430 0.0000
# 4 0.0000 0.0000 0.0000 10.5337 0.0000 -2.3724
# 5 8.8883 5.9417 6.5430 0.0000 13.6568 0.0000
# 6 0.0000 0.0000 0.0000 -2.3724 0.0000 16.7309
#
#
#
# Elastic Compliance Matrix: (Units=1/GPa)
#
#
# Indices 1 2 3 4 5 6 
#
# 1 0.045995 0.005698 0.008916 0.000000 -0.036686 0.000000
# 2 0.005698 0.010443 0.001356 0.000000 -0.008902 0.000000
# 3 0.008916 0.001356 0.016577 0.000000 -0.014335 0.000000
# 4 0.000000 0.000000 0.000000 0.098065 0.000000 0.013905
# 5 -0.036686 -0.008902 -0.014335 0.000000 0.107841 0.000000
# 6 0.000000 0.000000 0.000000 0.013905 0.000000 0.061741
#
#
# Mechanical properties :
#
#
# Convention : Reuss Voigt Hill
#
# Bulk Modulus (GPa) = 9.52793 19.48719 14.50756
# Shear Modulus (GPa) = 14.54732 23.07755 18.81244
#
# Velocity S-wave (km/s) = 2.54496 3.20542 2.89409
# Velocity P-wave (km/s) = 3.58857 4.73030 4.19843
#
# Compressibility (1/GPa) = 0.10495464
#
# Stress axis : x y z
#
# Youngs Moduli (GPa) = 21.74169 95.76028 60.32393
#
# Poissons Ratio (x) = -0.54566 -0.53783
# Poissons Ratio (y) = -0.12389 -0.08180
# Poissons Ratio (z) = -0.19384 -0.12986
#
# Static dielectric constant tensor:
#      x y z
#    x 1.829990 0.000000 0.009950 
#    y 0.000000 1.849640 0.000000 
#    z 0.009950 0.000000 1.842160 
# 
# From -- ./inp_files/111713.got.cif
#   From: 2010.05.17/outbox.cif.g08.bks.cpg/sg12_56_cif.got.tgz:111713.got - 2010.06.03 13:09:07.
