data_PCOD9194384
_publ_section_title
;
Structure prediction by ZEFSAII (Michael W. Deem and Ramdas Pophale) SiO2 
 PCOD9194384
Probable space group: C 2/M
;
_chemical_formula_sum "Si O2"
_cell_formula_units_Z 56
_cell_length_a 11.330134
_cell_length_b 18.055876
_cell_length_c 15.397544
_cell_angle_alpha 90.000000
_cell_angle_beta 126.311370
_cell_angle_gamma 90.000000
_cell_volume 2538.271884
_symmetry_space_group_name_H-M "C 2/M"
_symmetry_group_IT_number 12
_symmetry_cell_setting 'monoclinic'
loop_
_space_group_symop_operation_xyz
x,y,z
-x,y,-z
-x,-y,-z
x,-y,z
1/2+x,1/2+y,z
1/2-x,1/2+y,-z
1/2-x,1/2-y,-z
1/2+x,1/2-y,z
loop_
_atom_site_type_symbol
_atom_site_label
_atom_site_fract_x
_atom_site_fract_y
_atom_site_fract_z
Si Si1 0.828610 0.582762 0.445929
Si Si2 0.592208 0.297215 0.314059
Si Si3 0.363890 0.874407 0.652605
Si Si4 0.847570 0.413539 0.973421
Si Si5 0.694610 0.352905 0.750106
Si Si6 0.398751 0.710542 0.872232
Si Si7 0.693482 0.912742 0.851038
O O1 0.788577 0.500000 0.396924
O O2 0.730729 0.648906 0.366660
O O3 0.811818 0.587211 0.542520
O O4 0.000000 0.594343 0.500000
O O5 0.633462 0.214505 0.360124
O O6 0.474884 0.332570 0.327739
O O7 0.522014 0.291665 0.186779
O O8 0.263914 0.886856 0.693591
O O9 0.529112 0.900256 0.744891
O O10 0.873333 0.500000 0.001965
O O11 0.727279 0.403737 0.847253
O O12 0.807330 0.382675 0.049860
O O13 0.000000 0.384296 0.000000
O O14 0.782482 0.276984 0.809311
O O15 0.309648 0.635200 0.849406
O O16 0.500000 0.721223 0.000000
O O17 0.728312 0.000000 0.863350
#
# Coordination Sequence:
#
# PCOD9194384 Si02
#       7
#     8   8   8   8   8   8   8
#     4  11  26  48  73  96 127 172 220 272 328 391
#     4  11  25  43  65 100 134 168 216 274 328 385
#     4  11  23  42  66  98 129 168 220 271 328 393
#     4  10  20  34  55  90 132 173 214 262 318 380
#     4  11  23  39  65  97 134 174 213 271 327 391
#     4  11  24  40  65  97 135 178 223 268 320 386
#     4  11  22  39  64  93 131 177 227 272 319 382
#
# _framework density 22.062255
#
# number of rings (size 3 to 8) (size 9 to 14) (size 15 to 20)
#    0.000    1.143    2.857    3.000    4.000    4.857 
#    0.000    0.714    0.000    0.000    0.000    0.000 
#    0.000    0.000    0.000    0.000    0.000    0.000 
#
# Total GULP energy -156612.514080 kJ/mol
# GULP energy per Si atom -5593.304074 kJ/mol
# Density = 2.201204 g / cm^3
# Si number density = 22.062255 Si / 1000 Ang^3
#
#
#
# Elastic Constant Matrix: (Units=GPa)
#
#
# Indices 1 2 3 4 5 6 
#
# 1 53.5968 18.3214 -4.4397 0.0000 -3.2155 0.0000
# 2 18.3214 75.6909 4.5706 0.0000 0.4047 0.0000
# 3 -4.4397 4.5706 59.2167 0.0000 -17.5065 0.0000
# 4 0.0000 0.0000 0.0000 26.2705 0.0000 4.4571
# 5 -3.2155 0.4047 -17.5065 0.0000 26.3471 0.0000
# 6 0.0000 0.0000 0.0000 4.4571 0.0000 22.2371
#
#
#
# Elastic Compliance Matrix: (Units=1/GPa)
#
#
# Indices 1 2 3 4 5 6 
#
# 1 0.021064 -0.005334 0.003454 0.000000 0.004947 0.000000
# 2 -0.005334 0.014650 -0.002227 0.000000 -0.002356 0.000000
# 3 0.003454 -0.002227 0.021719 0.000000 0.014887 0.000000
# 4 0.000000 0.000000 0.000000 0.039406 0.000000 -0.007898
# 5 0.004947 -0.002356 0.014887 0.000000 0.048487 0.000000
# 6 0.000000 0.000000 0.000000 -0.007898 0.000000 0.046553
#
#
# Mechanical properties :
#
#
# Convention : Reuss Voigt Hill
#
# Bulk Modulus (GPa) = 20.31760 25.04546 22.68153
# Shear Modulus (GPa) = 23.09486 26.30775 24.70130
#
# Velocity S-wave (km/s) = 3.23895 3.45691 3.34970
# Velocity P-wave (km/s) = 4.81839 5.22594 5.02630
#
# Compressibility (1/GPa) = 0.04921840
#
# Stress axis : x y z
#
# Youngs Moduli (GPa) = 47.47443 68.26051 46.04248
#
# Poissons Ratio (x) = 0.36408 -0.15901
# Poissons Ratio (y) = 0.25321 0.10254
# Poissons Ratio (z) = -0.16395 0.15202
#
# Static dielectric constant tensor:
#      x y z
#    x 1.808500 0.000000 -0.014350 
#    y 0.000000 1.804840 0.000000 
#    z -0.014350 0.000000 1.823150 
# 
# From -- ./inp_files/206766.got.cif
#   From: 2010.05.17/outbox.cif.g08.bks.cpg/sg12_104_cif.got.tgz:206766.got - 2010.06.03 13:09:07.
