data_PCOD9194731
_publ_section_title
;
Structure prediction by ZEFSAII (Michael W. Deem and Ramdas Pophale) SiO2 
 PCOD9194731
Probable space group: C 2/M
;
_chemical_formula_sum "Si O2"
_cell_formula_units_Z 56
_cell_length_a 25.026610
_cell_length_b 14.362274
_cell_length_c 8.829005
_cell_angle_alpha 90.000000
_cell_angle_beta 112.704511
_cell_angle_gamma 90.000000
_cell_volume 2927.568044
_symmetry_space_group_name_H-M "C 2/M"
_symmetry_group_IT_number 12
_symmetry_cell_setting 'monoclinic'
loop_
_space_group_symop_operation_xyz
x,y,z
-x,y,-z
-x,-y,-z
x,-y,z
1/2+x,1/2+y,z
1/2-x,1/2+y,-z
1/2-x,1/2-y,-z
1/2+x,1/2-y,z
loop_
_atom_site_type_symbol
_atom_site_label
_atom_site_fract_x
_atom_site_fract_y
_atom_site_fract_z
Si Si1 0.609965 0.110752 0.892137
Si Si2 0.007825 0.705376 0.188781
Si Si3 0.704915 0.772350 0.818957
Si Si4 0.836618 0.892333 0.432507
Si Si5 0.875630 0.389556 0.735879
Si Si6 0.241800 0.389658 0.576162
Si Si7 0.026755 0.896191 0.361851
O O1 0.544031 0.145044 0.797470
O O2 0.653137 0.165710 0.830594
O O3 0.614460 0.000000 0.875185
O O4 0.626021 0.131836 0.086168
O O5 0.071935 0.664980 0.286582
O O6 0.003689 0.811147 0.238545
O O7 0.000000 0.699491 0.000000
O O8 0.679805 0.678285 0.717926
O O9 0.736283 0.829452 0.720110
O O10 0.750000 0.750000 0.000000
O O11 0.797907 0.868678 0.536594
O O12 0.904090 0.887118 0.546317
O O13 0.823010 0.000000 0.376581
O O14 0.888002 0.500000 0.738065
O O15 0.814740 0.371125 0.589163
O O16 0.242222 0.500000 0.612437
O O17 0.000000 0.889624 0.500000
O O18 0.013428 0.000000 0.287355
#
# Coordination Sequence:
#
# PCOD9194731 Si02
#       7
#     8   8   8   8   8   8   8
#     4  10  21  38  58  85 119 150 183 229 286 339
#     4  10  20  34  57  86 114 147 187 231 280 335
#     4  12  24  36  57  86 117 149 185 235 290 337
#     4  10  22  40  60  80 109 153 197 235 280 338
#     4   9  18  35  59  84 114 152 190 229 277 337
#     4  10  21  38  59  83 112 149 193 236 278 334
#     4  10  21  38  58  79 108 147 189 234 282 333
#
# _framework density 19.128504
#
# number of rings (size 3 to 8) (size 9 to 14) (size 15 to 20)
#    0.000    1.857    0.000    3.857    0.000    6.571 
#    0.000    0.000    0.000   10.286    0.000    0.000 
#    0.000    0.000    0.000    0.000    0.000    0.000 
#
# Total GULP energy -156494.210533 kJ/mol
# GULP energy per Si atom -5589.078948 kJ/mol
# Density = 1.908497 g / cm^3
# Si number density = 19.128504 Si / 1000 Ang^3
#
#
#
# Elastic Constant Matrix: (Units=GPa)
#
#
# Indices 1 2 3 4 5 6 
#
# 1 150.3798 58.5324 34.2439 0.0000 -9.7681 0.0000
# 2 58.5324 107.3024 32.1540 0.0000 -18.0731 0.0000
# 3 34.2439 32.1540 36.4604 0.0000 -7.0152 0.0000
# 4 0.0000 0.0000 0.0000 -29.3497 0.0000 -90.4450
# 5 -9.7681 -18.0731 -7.0152 0.0000 14.6058 0.0000
# 6 0.0000 0.0000 0.0000 -90.4450 0.0000 -73.6102
#
#
#
# Elastic Compliance Matrix: (Units=1/GPa)
#
#
# Indices 1 2 3 4 5 6 
#
# 1 0.009264 -0.003457 -0.005821 0.000000 -0.000878 0.000000
# 2 -0.003457 0.015934 -0.008216 0.000000 0.013458 0.000000
# 3 -0.005821 -0.008216 0.041246 0.000000 0.005752 0.000000
# 4 0.000000 0.000000 0.000000 0.012228 0.000000 -0.015024
# 5 -0.000878 0.013458 0.005752 0.000000 0.087295 0.000000
# 6 0.000000 0.000000 0.000000 -0.015024 0.000000 0.004875
#
#
# Mechanical properties :
#
#
# Convention : Reuss Voigt Hill
#
# Bulk Modulus (GPa) = 31.78963 60.44479 46.11721
# Shear Modulus (GPa) = 23.11445 -6.38999 8.36223
#
# Velocity S-wave (km/s) = 3.47994 -1.82970 2.09311
# Velocity P-wave (km/s) = 5.72728 5.21576 5.47750
#
# Compressibility (1/GPa) = 0.03145680
#
# Stress axis : x y z
#
# Youngs Moduli (GPa) = 107.94615 62.75942 24.24469
#
# Poissons Ratio (x) = 0.21695 0.14113
# Poissons Ratio (y) = 0.37316 0.19918
# Poissons Ratio (z) = 0.62836 0.51561
#
# Static dielectric constant tensor:
#      x y z
#    x 1.652310 0.000000 0.005050 
#    y 0.000000 1.668890 0.000000 
#    z 0.005050 0.000000 1.632720 
# 
# From -- ./inp_files/104735.got.cif
#   From: 2010.05.17/outbox.cif.g08.bks.cpg/sg12_53_cif.got.tgz:104735.got - 2010.06.03 13:09:07.
