data_PCOD9194386
_publ_section_title
;
Structure prediction by ZEFSAII (Michael W. Deem and Ramdas Pophale) SiO2 
 PCOD9194386
Probable space group: C 2/M
;
_chemical_formula_sum "Si O2"
_cell_formula_units_Z 58
_cell_length_a 24.375385
_cell_length_b 18.645101
_cell_length_c 13.493995
_cell_angle_alpha 90.000000
_cell_angle_beta 155.944982
_cell_angle_gamma 90.000000
_cell_volume 2499.801495
_symmetry_space_group_name_H-M "C 2/M"
_symmetry_group_IT_number 12
_symmetry_cell_setting 'monoclinic'
loop_
_space_group_symop_operation_xyz
x,y,z
-x,y,-z
-x,-y,-z
x,-y,z
1/2+x,1/2+y,z
1/2-x,1/2+y,-z
1/2-x,1/2-y,-z
1/2+x,1/2-y,z
loop_
_atom_site_type_symbol
_atom_site_label
_atom_site_fract_x
_atom_site_fract_y
_atom_site_fract_z
Si Si1 0.277893 0.414727 0.381876
Si Si2 0.741660 0.656927 0.244270
Si Si3 0.427271 0.204903 0.984297
Si Si4 0.556004 0.632823 0.753125
Si Si5 0.500000 0.000000 0.500000
Si Si6 0.292074 0.923208 0.022297
Si Si7 0.478565 0.203838 0.284144
Si Si8 0.352426 0.585592 0.725318
O O1 0.260255 0.500000 0.355201
O O2 0.144986 0.372022 0.133826
O O3 0.405651 0.394625 0.524520
O O4 0.312147 0.388405 0.550494
O O5 0.683468 0.733272 0.183291
O O6 0.744333 0.606301 0.344519
O O7 0.890139 0.670742 0.449331
O O8 0.640507 0.625434 0.995419
O O9 0.500000 0.213979 0.000000
O O10 0.516508 0.213190 0.230101
O O11 0.554716 0.717896 0.729571
O O12 0.642714 0.591537 0.814790
O O13 0.605870 0.059980 0.718939
O O14 0.353943 0.850846 0.079816
O O15 0.296384 0.000000 0.971464
O O16 0.360149 0.500000 0.731488
O O17 0.500000 0.613014 0.000000
#
# Coordination Sequence:
#
# PCOD9194386 Si02
#       8
#     8   8   8   8   2   8   8   8
#     4  11  23  41  62  90 130 171 220 263 318 387
#     4  11  22  37  65  95 131 162 214 271 321 384
#     4  11  25  42  64  92 128 178 218 259 323 384
#     4  11  22  40  66  96 126 170 211 269 328 379
#     4   8  20  40  68 100 120 166 196 264 346 362
#     4  10  22  41  64  95 131 162 209 263 330 385
#     4  11  24  41  64  98 127 171 217 268 318 388
#     4  10  20  34  55  92 127 162 204 266 325 375
#
# _framework density 23.201841000000002
#
# number of rings (size 3 to 8) (size 9 to 14) (size 15 to 20)
#    0.414    0.966    2.759    2.897    1.931    3.034 
#    0.000    0.690    0.000    1.655    0.000    0.000 
#    0.000    0.000    0.000    0.000    0.000    0.000 
#
# Total GULP energy -161859.954210 kJ/mol
# GULP energy per Si atom -5581.377731 kJ/mol
# Density = 2.314903 g / cm^3
# Si number density = 23.201841 Si / 1000 Ang^3
#
#
#
# Elastic Constant Matrix: (Units=GPa)
#
#
# Indices 1 2 3 4 5 6 
#
# 1 41.6537 13.2459 -1.2470 0.0000 5.0901 0.0000
# 2 13.2459 78.5530 -2.5942 0.0000 1.4830 0.0000
# 3 -1.2470 -2.5942 45.8002 0.0000 -0.7265 0.0000
# 4 0.0000 0.0000 0.0000 12.7354 0.0000 -4.9082
# 5 5.0901 1.4830 -0.7265 0.0000 28.7303 0.0000
# 6 0.0000 0.0000 0.0000 -4.9082 0.0000 15.2881
#
#
#
# Elastic Compliance Matrix: (Units=1/GPa)
#
#
# Indices 1 2 3 4 5 6 
#
# 1 0.025911 -0.004274 0.000394 0.000000 -0.004360 0.000000
# 2 -0.004274 0.013471 0.000648 0.000000 0.000078 0.000000
# 3 0.000394 0.000648 0.021889 0.000000 0.000450 0.000000
# 4 0.000000 0.000000 0.000000 0.089608 0.000000 0.028768
# 5 -0.004360 0.000078 0.000450 0.000000 0.035586 0.000000
# 6 0.000000 0.000000 0.000000 0.028768 0.000000 0.074646
#
#
# Mechanical properties :
#
#
# Convention : Reuss Voigt Hill
#
# Bulk Modulus (GPa) = 18.24583 20.53513 19.39048
# Shear Modulus (GPa) = 17.49207 21.79092 19.64150
#
# Velocity S-wave (km/s) = 2.74872 3.06794 2.91271
# Velocity P-wave (km/s) = 4.23733 4.62813 4.43703
#
# Compressibility (1/GPa) = 0.05480705
#
# Stress axis : x y z
#
# Youngs Moduli (GPa) = 38.59338 74.23433 45.68601
#
# Poissons Ratio (x) = 0.31727 -0.01801
# Poissons Ratio (y) = 0.16494 -0.02960
# Poissons Ratio (z) = -0.01522 -0.04810
#
# Static dielectric constant tensor:
#      x y z
#    x 1.913930 0.000000 -0.021820 
#    y 0.000000 1.857390 0.000000 
#    z -0.021820 0.000000 1.848350 
# 
# From -- ./inp_files/247297.got.cif
#   From: 2010.05.17/outbox.cif.g08.bks.cpg/sg12_124_cif.got.tgz:247297.got - 2010.06.03 13:09:07.
