data_PCOD9195527
_publ_section_title
;
Structure prediction by ZEFSAII (Michael W. Deem and Ramdas Pophale) SiO2 
 PCOD9195527
Probable space group: C 2/M
;
_chemical_formula_sum "Si O2"
_cell_formula_units_Z 32
_cell_length_a 23.424103
_cell_length_b 14.080092
_cell_length_c 22.726981
_cell_angle_alpha 90.000000
_cell_angle_beta 12.317897
_cell_angle_gamma 90.000000
_cell_volume 1599.092100
_symmetry_space_group_name_H-M "C 2/M"
_symmetry_group_IT_number 12
_symmetry_cell_setting 'monoclinic'
loop_
_space_group_symop_operation_xyz
x,y,z
-x,y,-z
-x,-y,-z
x,-y,z
1/2+x,1/2+y,z
1/2-x,1/2+y,-z
1/2-x,1/2-y,-z
1/2+x,1/2-y,z
loop_
_atom_site_type_symbol
_atom_site_label
_atom_site_fract_x
_atom_site_fract_y
_atom_site_fract_z
Si Si1 0.410247 0.188576 0.462028
Si Si2 0.177786 0.102169 0.500662
Si Si3 0.611781 0.387238 0.952916
Si Si4 0.817034 0.639673 0.929705
O O1 0.386907 0.300508 0.469110
O O2 0.541251 0.129700 0.275815
O O3 0.118392 0.149291 0.771250
O O4 0.616033 0.168548 0.307525
O O5 0.469974 0.113076 0.234841
O O6 0.160631 0.000000 0.486077
O O7 0.966869 0.097153 0.766934
O O8 0.657887 0.500000 0.913515
O O9 0.500000 0.371437 0.000000
O O10 0.750000 0.750000 0.000000
#
# Coordination Sequence:
#
# PCOD9195527 Si02
#       4
#     8   8   8   8
#     4  11  21  38  60  82 114 150 186 229 279 335
#     4  11  22  36  57  86 121 154 184 221 270 334
#     4  11  24  40  59  83 108 141 189 242 292 333
#     4  10  20  35  54  82 117 150 186 223 262 322
#
# _framework density 20.011354999999998
#
# number of rings (size 3 to 8) (size 9 to 14) (size 15 to 20)
#    0.000    1.250    0.000    9.750    0.000    8.000 
#    0.000    0.000    0.000    4.500    0.000    0.000 
#    0.000    0.000    0.000    0.000    0.000    0.000 
#
# Total GULP energy -89302.356354 kJ/mol
# GULP energy per Si atom -5581.397272 kJ/mol
# Density = 1.996581 g / cm^3
# Si number density = 20.011355 Si / 1000 Ang^3
#
#
#
# Elastic Constant Matrix: (Units=GPa)
#
#
# Indices 1 2 3 4 5 6 
#
# 1 49.7394 28.5013 -5.4842 0.0674 -9.3418 0.0030
# 2 28.5013 118.0872 1.6799 0.0046 -13.2155 -0.0760
# 3 -5.4842 1.6799 84.6703 0.3484 -8.1350 -0.1235
# 4 0.0674 0.0046 0.3484 67.6691 -0.1401 -10.5835
# 5 -9.3418 -13.2155 -8.1350 -0.1401 34.8492 0.0335
# 6 0.0030 -0.0760 -0.1235 -10.5835 0.0335 22.3433
#
#
#
# Elastic Compliance Matrix: (Units=1/GPa)
#
#
# Indices 1 2 3 4 5 6 
#
# 1 0.024347 -0.005347 0.002164 -0.000030 0.005004 -0.000031
# 2 -0.005347 0.010020 -0.000325 0.000017 0.002290 0.000038
# 3 0.002164 -0.000325 0.012277 -0.000053 0.003322 0.000036
# 4 -0.000030 0.000017 -0.000053 0.015961 0.000043 0.007560
# 5 0.005004 0.002290 0.003322 0.000043 0.031681 -0.000002
# 6 -0.000031 0.000038 0.000036 0.007560 -0.000002 0.048338
#
#
# Mechanical properties :
#
#
# Convention : Reuss Voigt Hill
#
# Bulk Modulus (GPa) = 25.23532 33.54344 29.38938
# Shear Modulus (GPa) = 30.70342 40.15898 35.43120
#
# Velocity S-wave (km/s) = 3.92126 4.48460 4.21236
# Velocity P-wave (km/s) = 5.75670 6.60410 6.19491
#
# Compressibility (1/GPa) = 0.03962700
#
# Stress axis : x y z
#
# Youngs Moduli (GPa) = 41.07240 99.80151 81.45583
#
# Poissons Ratio (x) = 0.53366 -0.17626
# Poissons Ratio (y) = 0.21962 0.02648
# Poissons Ratio (z) = -0.08888 0.03244
#
# Static dielectric constant tensor:
#      x y z
#    x 1.730890 -0.000020 0.013530 
#    y -0.000020 1.668310 0.000260 
#    z 0.013530 0.000260 1.700340 
# 
# From -- ./inp_files/19475.got.cif
#   From: 2010.05.17/outbox.cif.g08.bks.cpg/sg12_10_cif.got.tgz:19475.got - 2010.06.03 13:09:07.
