data_PCOD9195113
_publ_section_title
;
Structure prediction by ZEFSAII (Michael W. Deem and Ramdas Pophale) SiO2 
 PCOD9195113
Probable space group: C 2/M
;
_chemical_formula_sum "Si O2"
_cell_formula_units_Z 32
_cell_length_a 9.881240
_cell_length_b 17.453405
_cell_length_c 8.758548
_cell_angle_alpha 90.000000
_cell_angle_beta 65.918353
_cell_angle_gamma 90.000000
_cell_volume 1379.043045
_symmetry_space_group_name_H-M "C 2/M"
_symmetry_group_IT_number 12
_symmetry_cell_setting 'monoclinic'
loop_
_space_group_symop_operation_xyz
x,y,z
-x,y,-z
-x,-y,-z
x,-y,z
1/2+x,1/2+y,z
1/2-x,1/2+y,-z
1/2-x,1/2-y,-z
1/2+x,1/2-y,z
loop_
_atom_site_type_symbol
_atom_site_label
_atom_site_fract_x
_atom_site_fract_y
_atom_site_fract_z
Si Si1 0.123541 0.147689 0.220286
Si Si2 0.000000 0.225717 0.000000
Si Si3 0.440609 0.500000 0.858498
Si Si4 0.405795 0.000000 0.890691
Si Si5 0.500000 0.224755 0.500000
Si Si6 0.095413 0.641492 0.726941
O O1 0.079864 0.218950 0.344925
O O2 0.262402 0.111567 0.247237
O O3 0.014027 0.075887 0.253680
O O4 0.120603 0.177701 0.044200
O O5 0.065242 0.283678 0.845523
O O6 0.500000 0.500000 0.000000
O O7 0.264693 0.500000 0.982440
O O8 0.463745 0.921337 0.785481
O O9 0.500000 0.000000 0.000000
O O10 0.610644 0.172514 0.548386
#
# Coordination Sequence:
#
# PCOD9195113 Si02
#       6
#     8   4   4   4   4   8
#     4  11  21  40  63  92 132 169 212 263 319 380
#     4  10  20  34  62  94 126 164 212 272 314 374
#     4  12  24  43  66 100 128 162 218 273 326 378
#     4  12  22  41  70  96 120 168 216 281 318 364
#     4  10  26  40  60  98 134 176 204 256 324 386
#     4  11  21  41  64  95 128 167 220 260 317 382
#
# _framework density 23.204497
#
# number of rings (size 3 to 8) (size 9 to 14) (size 15 to 20)
#    0.000    1.000    5.000    1.500    0.000    3.000 
#    4.500    0.000    0.000    0.000    0.000    0.000 
#    0.000    0.000    0.000    0.000    0.000    0.000 
#
# Total GULP energy -89081.320695 kJ/mol
# GULP energy per Si atom -5567.582543 kJ/mol
# Density = 2.315168 g / cm^3
# Si number density = 23.204497 Si / 1000 Ang^3
#
#
#
# Elastic Constant Matrix: (Units=GPa)
#
#
# Indices 1 2 3 4 5 6 
#
# 1 100.3630 13.3493 38.6368 0.0000 34.5295 0.0000
# 2 13.3493 105.2655 39.1923 0.0000 22.9635 0.0000
# 3 38.6368 39.1923 88.7152 0.0000 43.3651 0.0000
# 4 0.0000 0.0000 0.0000 40.4045 0.0000 0.4974
# 5 34.5295 22.9635 43.3651 0.0000 40.2540 0.0000
# 6 0.0000 0.0000 0.0000 0.4974 0.0000 29.1059
#
#
#
# Elastic Compliance Matrix: (Units=1/GPa)
#
#
# Indices 1 2 3 4 5 6 
#
# 1 0.014254 0.001119 -0.000873 0.000000 -0.011924 0.000000
# 2 0.001119 0.011557 -0.004016 0.000000 -0.003226 0.000000
# 3 -0.000873 -0.004016 0.025222 0.000000 -0.024132 0.000000
# 4 0.000000 0.000000 0.000000 0.024755 0.000000 -0.000423
# 5 -0.011924 -0.003226 -0.024132 0.000000 0.062908 0.000000
# 6 0.000000 0.000000 0.000000 -0.000423 0.000000 0.034365
#
#
# Mechanical properties :
#
#
# Convention : Reuss Voigt Hill
#
# Bulk Modulus (GPa) = 22.99247 52.96671 37.97959
# Shear Modulus (GPa) = 25.62810 35.49723 30.56267
#
# Velocity S-wave (km/s) = 3.32693 3.91545 3.63313
# Velocity P-wave (km/s) = 4.96871 6.58154 5.83115
#
# Compressibility (1/GPa) = 0.04349250
#
# Stress axis : x y z
#
# Youngs Moduli (GPa) = 70.15747 86.52870 39.64737
#
# Poissons Ratio (x) = -0.09681 0.03462
# Poissons Ratio (y) = -0.07849 0.15921
# Poissons Ratio (z) = 0.06127 0.34747
#
# Static dielectric constant tensor:
#      x y z
#    x 1.977780 0.000000 -0.027340 
#    y 0.000000 2.603210 0.000000 
#    z -0.027340 0.000000 1.863950 
# 
# From -- ./inp_files/45295.got.cif
#   From: 2010.05.17/outbox.cif.g08.bks.cpg/sg12_23_cif.got.tgz:45295.got - 2010.06.03 13:09:07.
