data_PCOD9195584
_publ_section_title
;
Structure prediction by ZEFSAII (Michael W. Deem and Ramdas Pophale) SiO2 
 PCOD9195584
Probable space group: C 2/M
;
_chemical_formula_sum "Si O2"
_cell_formula_units_Z 48
_cell_length_a 18.808161
_cell_length_b 8.882369
_cell_length_c 32.389160
_cell_angle_alpha 90.000000
_cell_angle_beta 150.560952
_cell_angle_gamma 90.000000
_cell_volume 2659.475795
_symmetry_space_group_name_H-M "C 2/M"
_symmetry_group_IT_number 12
_symmetry_cell_setting 'monoclinic'
loop_
_space_group_symop_operation_xyz
x,y,z
-x,y,-z
-x,-y,-z
x,-y,z
1/2+x,1/2+y,z
1/2-x,1/2+y,-z
1/2-x,1/2-y,-z
1/2+x,1/2-y,z
loop_
_atom_site_type_symbol
_atom_site_label
_atom_site_fract_x
_atom_site_fract_y
_atom_site_fract_z
Si Si1 0.590831 0.818170 0.422054
Si Si2 0.164535 0.679793 0.081430
Si Si3 0.829881 0.179372 0.079456
Si Si4 0.415147 0.181634 0.415288
Si Si5 0.402706 0.819401 0.741967
Si Si6 0.569314 0.819210 0.742263
O O1 0.750000 0.750000 0.500000
O O2 0.509114 0.775127 0.422804
O O3 0.499699 0.770113 0.335766
O O4 0.601548 0.000000 0.426780
O O5 0.164323 0.500000 0.087838
O O6 0.232434 0.709166 0.070765
O O7 0.272979 0.753159 0.168964
O O8 0.000000 0.734610 0.000000
O O9 0.985447 0.251941 0.168176
O O10 0.844675 0.000000 0.082065
O O11 0.750000 0.250000 0.000000
O O12 0.500000 0.223804 0.500000
O O13 0.257554 0.255330 0.334370
O O14 0.398711 0.000000 0.406812
O O15 0.466960 0.776227 0.729275
O O16 0.402307 0.000000 0.744585
O O17 0.578834 0.000000 0.746929
#
# Coordination Sequence:
#
# PCOD9195584 Si02
#       6
#     8   8   8   8   8   8
#     4  10  21  36  54  78 106 136 173 215 259 309
#     4   9  19  35  54  77 104 135 173 214 256 305
#     4  10  20  35  55  78 107 140 174 215 261 310
#     4  10  21  36  54  78 108 140 174 214 262 314
#     4  10  20  35  55  77 103 137 177 218 261 310
#     4   9  19  35  53  75 103 135 173 215 258 305
#
# _framework density 18.048670999999999
#
# number of rings (size 3 to 8) (size 9 to 14) (size 15 to 20)
#    0.000    2.333    0.000    2.000    0.000    4.667 
#    0.000    3.333    0.000    0.000    0.000    0.000 
#    0.000    0.000    0.000    0.000    0.000    0.000 
#
# Total GULP energy -133983.950721 kJ/mol
# GULP energy per Si atom -5582.664613 kJ/mol
# Density = 1.800759 g / cm^3
# Si number density = 18.048671 Si / 1000 Ang^3
#
#
#
# Elastic Constant Matrix: (Units=GPa)
#
#
# Indices 1 2 3 4 5 6 
#
# 1 108.5263 42.6045 115.2703 0.0000 3.1669 0.0000
# 2 42.6045 26.3619 59.6857 0.0000 0.6900 0.0000
# 3 115.2703 59.6857 226.4784 0.0000 1.7685 0.0000
# 4 0.0000 0.0000 0.0000 38.1585 0.0000 5.6885
# 5 3.1669 0.6900 1.7685 0.0000 42.3603 0.0000
# 6 0.0000 0.0000 0.0000 5.6885 0.0000 18.4143
#
#
#
# Elastic Compliance Matrix: (Units=1/GPa)
#
#
# Indices 1 2 3 4 5 6 
#
# 1 0.028009 -0.032180 -0.005765 0.000000 -0.001329 0.000000
# 2 -0.032180 0.131035 -0.018162 0.000000 0.001030 0.000000
# 3 -0.005765 -0.018162 0.012134 0.000000 0.000220 0.000000
# 4 0.000000 0.000000 0.000000 0.027472 0.000000 -0.008486
# 5 -0.001329 0.001030 0.000220 0.000000 0.023680 0.000000
# 6 0.000000 0.000000 0.000000 -0.008486 0.000000 0.056927
#
#
# Mechanical properties :
#
#
# Convention : Reuss Voigt Hill
#
# Bulk Modulus (GPa) = 16.95940 88.49863 52.72902
# Shear Modulus (GPa) = 12.16174 29.37371 20.76772
#
# Velocity S-wave (km/s) = 2.59864 4.03857 3.39580
# Velocity P-wave (km/s) = 4.29194 8.41941 6.68234
#
# Compressibility (1/GPa) = 0.05896433
#
# Stress axis : x y z
#
# Youngs Moduli (GPa) = 35.70269 7.63156 82.41206
#
# Poissons Ratio (x) = 0.24558 0.47508
# Poissons Ratio (y) = 1.14892 1.49677
# Poissons Ratio (z) = 0.20581 0.13860
#
# Static dielectric constant tensor:
#      x y z
#    x 1.608780 0.000000 -0.008940 
#    y 0.000000 1.602840 0.000000 
#    z -0.008940 0.000000 1.584350 
# 
# From -- ./inp_files/244886.got.cif
#   From: 2010.05.17/outbox.cif.g08.bks.cpg/sg12_123_cif.got.tgz:244886.got - 2010.06.03 13:09:07.
