data_PCOD9195150
_publ_section_title
;
Structure prediction by ZEFSAII (Michael W. Deem and Ramdas Pophale) SiO2 
 PCOD9195150
Probable space group: C 2/M
;
_chemical_formula_sum "Si O2"
_cell_formula_units_Z 64
_cell_length_a 25.672089
_cell_length_b 7.878868
_cell_length_c 19.926371
_cell_angle_alpha 90.000000
_cell_angle_beta 115.403892
_cell_angle_gamma 90.000000
_cell_volume 3640.727843
_symmetry_space_group_name_H-M "C 2/M"
_symmetry_group_IT_number 12
_symmetry_cell_setting 'monoclinic'
loop_
_space_group_symop_operation_xyz
x,y,z
-x,y,-z
-x,-y,-z
x,-y,z
1/2+x,1/2+y,z
1/2-x,1/2+y,-z
1/2-x,1/2-y,-z
1/2+x,1/2-y,z
loop_
_atom_site_type_symbol
_atom_site_label
_atom_site_fract_x
_atom_site_fract_y
_atom_site_fract_z
Si Si1 0.007523 0.297346 0.820835
Si Si2 0.948444 0.795635 0.923377
Si Si3 0.996518 0.291645 0.664334
Si Si4 0.114116 0.296857 0.657729
Si Si5 0.203740 0.798368 0.814115
Si Si6 0.330345 0.705079 0.924897
Si Si7 0.562572 0.802609 0.497498
Si Si8 0.640158 0.702187 0.911729
O O1 0.011846 0.500000 0.820546
O O2 0.071641 0.230635 0.872180
O O3 0.964509 0.248989 0.856441
O O4 0.988875 0.236648 0.736571
O O5 0.886791 0.734084 0.915994
O O6 0.948068 0.000000 0.928434
O O7 0.000000 0.732239 0.000000
O O8 0.995542 0.500000 0.662325
O O9 0.950424 0.230348 0.583370
O O10 0.059991 0.237838 0.673385
O O11 0.107681 0.500000 0.649005
O O12 0.172329 0.261322 0.729391
O O13 0.105383 0.228080 0.577231
O O14 0.270456 0.753768 0.858113
O O15 0.170054 0.727091 0.861149
O O16 0.197725 0.000000 0.811941
O O17 0.333046 0.500000 0.928626
O O18 0.334293 0.768899 0.004037
O O19 0.500000 0.801367 0.500000
O O20 0.578762 0.000000 0.496117
O O21 0.650005 0.500000 0.917158
#
# Coordination Sequence:
#
# PCOD9195150 Si02
#       8
#     8   8   8   8   8   8   8   8
#     4  11  20  29  49  77 101 125 156 201 243 280
#     4  10  20  37  55  68  90 126 164 201 242 286
#     4   8  14  25  42  70 100 124 156 195 234 274
#     4   9  15  27  47  68  94 129 164 191 223 282
#     4  11  22  32  47  72 102 128 155 200 245 284
#     4  10  21  37  54  66  86 127 171 203 232 281
#     4   7  11  21  41  66  92 124 159 192 223 268
#     4  10  20  35  50  67  95 131 164 193 236 288
#
# _framework density 17.578903
#
# number of rings (size 3 to 8) (size 9 to 14) (size 15 to 20)
#    0.000    2.500    2.500    2.625    0.000    1.750 
#    0.000    0.000    0.000    4.875    0.000    0.875 
#    0.000    0.000    0.000    0.000    0.000    0.000 
#
# Total GULP energy -178375.313403 kJ/mol
# GULP energy per Si atom -5574.228544 kJ/mol
# Density = 1.753889 g / cm^3
# Si number density = 17.578903 Si / 1000 Ang^3
#
#
#
# Elastic Constant Matrix: (Units=GPa)
#
#
# Indices 1 2 3 4 5 6 
#
# 1 52.8813 -6.8391 52.6439 0.0000 9.4546 0.0000
# 2 -6.8391 10.7833 3.3445 0.0000 -1.9628 0.0000
# 3 52.6439 3.3445 187.9035 0.0000 4.8245 0.0000
# 4 0.0000 0.0000 0.0000 7.4384 0.0000 1.2159
# 5 9.4546 -1.9628 4.8245 0.0000 18.3090 0.0000
# 6 0.0000 0.0000 0.0000 1.2159 0.0000 14.6795
#
#
#
# Elastic Compliance Matrix: (Units=1/GPa)
#
#
# Indices 1 2 3 4 5 6 
#
# 1 0.033297 0.021779 -0.009398 0.000000 -0.012383 0.000000
# 2 0.021779 0.109547 -0.008119 0.000000 0.002637 0.000000
# 3 -0.009398 -0.008119 0.008052 0.000000 0.001861 0.000000
# 4 0.000000 0.000000 0.000000 0.136283 0.000000 -0.011289
# 5 -0.012383 0.002637 0.001861 0.000000 0.060805 0.000000
# 6 0.000000 0.000000 0.000000 -0.011289 0.000000 0.069057
#
#
# Mechanical properties :
#
#
# Convention : Reuss Voigt Hill
#
# Bulk Modulus (GPa) = 6.27280 38.87408 22.57344
# Shear Modulus (GPa) = 10.83054 21.57997 16.20525
#
# Velocity S-wave (km/s) = 2.48485 3.50752 3.03951
# Velocity P-wave (km/s) = 3.43639 6.21013 5.01869
#
# Compressibility (1/GPa) = 0.15941842
#
# Stress axis : x y z
#
# Youngs Moduli (GPa) = 30.03274 9.12850 124.19749
#
# Poissons Ratio (x) = -0.19881 1.16725
# Poissons Ratio (y) = -0.65408 1.00839
# Poissons Ratio (z) = 0.28226 0.07412
#
# Static dielectric constant tensor:
#      x y z
#    x 1.568940 0.000000 -0.019280 
#    y 0.000000 1.642190 0.000000 
#    z -0.019280 0.000000 1.649550 
# 
# From -- ./inp_files/323782.got.cif
#   From: 2010.05.17/outbox.cif.g08.bks.cpg/sg12_162_cif.got.tgz:323782.got - 2010.06.03 13:09:07.
