data_PCOD9195636
_publ_section_title
;
Structure prediction by ZEFSAII (Michael W. Deem and Ramdas Pophale) SiO2 
 PCOD9195636
Probable space group: C 2/M
;
_chemical_formula_sum "Si O2"
_cell_formula_units_Z 60
_cell_length_a 10.368938
_cell_length_b 12.788081
_cell_length_c 18.976169
_cell_angle_alpha 90.000000
_cell_angle_beta 103.917278
_cell_angle_gamma 90.000000
_cell_volume 2442.351502
_symmetry_space_group_name_H-M "C 2/M"
_symmetry_group_IT_number 12
_symmetry_cell_setting 'monoclinic'
loop_
_space_group_symop_operation_xyz
x,y,z
-x,y,-z
-x,-y,-z
x,-y,z
1/2+x,1/2+y,z
1/2-x,1/2+y,-z
1/2-x,1/2-y,-z
1/2+x,1/2-y,z
loop_
_atom_site_type_symbol
_atom_site_label
_atom_site_fract_x
_atom_site_fract_y
_atom_site_fract_z
Si Si1 0.655576 0.114945 0.080382
Si Si2 0.500000 0.294217 0.000000
Si Si3 0.028638 0.339563 0.205006
Si Si4 0.870640 0.341575 0.566118
Si Si5 0.796711 0.113251 0.582715
Si Si6 0.460845 0.382760 0.147785
Si Si7 0.296452 0.385796 0.324924
Si Si8 0.875615 0.657900 0.313511
O O1 0.546655 0.118646 0.128653
O O2 0.800884 0.126854 0.133986
O O3 0.653213 0.000000 0.045880
O O4 0.621584 0.212762 0.027000
O O5 0.513264 0.362609 0.931870
O O6 0.158041 0.375347 0.264486
O O7 0.027845 0.213938 0.196091
O O8 0.903143 0.372410 0.236376
O O9 0.875842 0.215252 0.568698
O O10 0.835324 0.379046 0.483907
O O11 0.745987 0.373653 0.599105
O O12 0.999908 0.380226 0.623563
O O13 0.752094 0.125561 0.658138
O O14 0.858272 0.000000 0.579246
O O15 0.500878 0.500000 0.173219
O O16 0.353878 0.500000 0.318224
O O17 0.377841 0.284245 0.314520
#
# Coordination Sequence:
#
# PCOD9195636 Si02
#       8
#     8   4   8   8   8   8   8   8
#     4  10  20  35  57  84 114 150 184 217 265 320
#     4  10  20  36  60  90 120 140 176 230 266 306
#     4  10  21  35  53  79 110 142 185 230 263 314
#     4   9  20  36  53  79 110 137 178 231 277 331
#     4  10  20  35  55  78 107 143 180 224 280 332
#     4  10  21  38  61  84 111 149 184 217 266 320
#     4  10  20  36  57  78 104 142 183 226 280 334
#     4  10  21  35  53  79 107 139 183 230 273 323
#
# _framework density 24.566488
#
# number of rings (size 3 to 8) (size 9 to 14) (size 15 to 20)
#    0.000    2.133    0.000    2.800    0.000    5.867 
#    0.000    5.333    0.000   30.400    0.000    0.000 
#    0.000    0.000    0.000    0.000    0.000    0.000 
#
# Total GULP energy -167673.483783 kJ/mol
# GULP energy per Si atom -5589.116126 kJ/mol
# Density = 2.451057 g / cm^3
# Si number density = 24.566488 Si / 1000 Ang^3
#
#
#
# Elastic Constant Matrix: (Units=GPa)
#
#
# Indices 1 2 3 4 5 6 
#
# 1 30.2902 11.8574 10.1309 0.0000 -5.2881 0.0000
# 2 11.8574 188.3085 3.1993 0.0000 5.2807 0.0000
# 3 10.1309 3.1993 84.8258 0.0000 -27.5578 0.0000
# 4 0.0000 0.0000 0.0000 4.1202 0.0000 9.2669
# 5 -5.2881 5.2807 -27.5578 0.0000 38.5904 0.0000
# 6 0.0000 0.0000 0.0000 9.2669 0.0000 -1.7348
#
#
#
# Elastic Compliance Matrix: (Units=1/GPa)
#
#
# Indices 1 2 3 4 5 6 
#
# 1 0.035477 -0.002260 -0.003219 0.000000 0.002872 0.000000
# 2 -0.002260 0.005496 -0.000368 0.000000 -0.001324 0.000000
# 3 -0.003219 -0.000368 0.015703 0.000000 0.010823 0.000000
# 4 0.000000 0.000000 0.000000 0.018649 0.000000 0.099619
# 5 0.002872 -0.001324 0.010823 0.000000 0.034217 0.000000
# 6 0.000000 0.000000 0.000000 0.099619 0.000000 -0.044292
#
#
# Mechanical properties :
#
#
# Convention : Reuss Voigt Hill
#
# Bulk Modulus (GPa) = 22.23024 39.31108 30.77066
# Shear Modulus (GPa) = 54.38530 26.74429 40.56480
#
# Velocity S-wave (km/s) = 4.71021 3.30305 4.06794
# Velocity P-wave (km/s) = 6.21692 5.53023 5.88360
#
# Compressibility (1/GPa) = 0.04498377
#
# Stress axis : x y z
#
# Youngs Moduli (GPa) = 28.18760 181.94692 63.68081
#
# Poissons Ratio (x) = 0.41115 0.20497
# Poissons Ratio (y) = 0.06370 0.02341
# Poissons Ratio (z) = 0.09073 0.06689
#
# Static dielectric constant tensor:
#      x y z
#    x 1.984910 0.000000 -0.015030 
#    y 0.000000 1.942400 0.000000 
#    z -0.015030 0.000000 1.950360 
# 
# From -- ./inp_files/304746.got.cif
#   From: 2010.05.17/outbox.cif.g08.bks.cpg/sg12_153_cif.got.tgz:304746.got - 2010.06.03 13:09:07.
