data_PCOD9195035
_publ_section_title
;
Structure prediction by ZEFSAII (Michael W. Deem and Ramdas Pophale) SiO2 
 PCOD9195035
Probable space group: C 2/M
;
_chemical_formula_sum "Si O2"
_cell_formula_units_Z 58
_cell_length_a 26.666980
_cell_length_b 11.656370
_cell_length_c 19.171730
_cell_angle_alpha 90.000000
_cell_angle_beta 147.810379
_cell_angle_gamma 90.000000
_cell_volume 3174.679563
_symmetry_space_group_name_H-M "C 2/M"
_symmetry_group_IT_number 12
_symmetry_cell_setting 'monoclinic'
loop_
_space_group_symop_operation_xyz
x,y,z
-x,y,-z
-x,-y,-z
x,-y,z
1/2+x,1/2+y,z
1/2-x,1/2+y,-z
1/2-x,1/2-y,-z
1/2+x,1/2-y,z
loop_
_atom_site_type_symbol
_atom_site_label
_atom_site_fract_x
_atom_site_fract_y
_atom_site_fract_z
Si Si1 0.900822 0.766924 0.696337
Si Si2 0.455864 0.361713 0.022072
Si Si3 0.500000 0.500000 0.500000
Si Si4 0.240233 0.631844 0.794191
Si Si5 0.235785 0.128920 0.571676
Si Si6 0.512393 0.130033 0.328248
Si Si7 0.788756 0.628589 0.074064
Si Si8 0.611337 0.293992 0.553022
O O1 0.846250 0.857897 0.583239
O O2 0.820009 0.712289 0.649268
O O3 0.941829 0.675635 0.689335
O O4 0.982998 0.814862 0.841727
O O5 0.460147 0.500000 0.029890
O O6 0.500000 0.324722 0.000000
O O7 0.346108 0.330265 0.899207
O O8 0.557109 0.398944 0.523696
O O9 0.227233 0.500000 0.754102
O O10 0.230170 0.630737 0.865628
O O11 0.163675 0.715174 0.671006
O O12 0.189483 0.161744 0.590327
O O13 0.271265 0.000000 0.614402
O O14 0.399979 0.130244 0.190515
O O15 0.543028 0.213901 0.426451
O O16 0.544215 0.000000 0.379807
O O17 0.753550 0.500000 0.007690
O O18 0.750000 0.750000 0.000000
#
# Coordination Sequence:
#
# PCOD9195035 Si02
#       8
#     8   8   2   8   8   8   8   8
#     4  10  20  34  60  85 117 157 197 246 300 355
#     4  10  20  35  57  87 120 156 203 248 294 357
#     4  12  24  40  58  84 122 160 190 250 288 368
#     4  10  21  38  62  85 116 155 195 248 300 356
#     4  10  20  36  55  84 120 155 194 249 297 354
#     4  10  21  38  62  88 116 150 196 249 296 364
#     4  10  21  39  57  83 115 151 196 244 295 355
#     4  11  22  39  60  86 119 152 199 240 305 356
#
# _framework density 18.269559999999998
#
# number of rings (size 3 to 8) (size 9 to 14) (size 15 to 20)
#    0.000    1.793    0.690    3.724    0.000    0.000 
#    4.966    6.897    3.034    2.483    0.000    0.000 
#    0.000    0.000    0.000    0.000    0.000    0.000 
#
# Total GULP energy -161542.503953 kJ/mol
# GULP energy per Si atom -5570.431171 kJ/mol
# Density = 1.822798 g / cm^3
# Si number density = 18.269560 Si / 1000 Ang^3
#
#
#
# Elastic Constant Matrix: (Units=GPa)
#
#
# Indices 1 2 3 4 5 6 
#
# 1 123.1927 45.6574 20.9919 0.0000 9.7521 0.0000
# 2 45.6574 121.4600 49.3303 0.0000 -6.3433 0.0000
# 3 20.9919 49.3303 63.2859 0.0000 -5.2622 0.0000
# 4 0.0000 0.0000 0.0000 4.6159 0.0000 16.4109
# 5 9.7521 -6.3433 -5.2622 0.0000 21.2271 0.0000
# 6 0.0000 0.0000 0.0000 16.4109 0.0000 8.8165
#
#
#
# Elastic Compliance Matrix: (Units=1/GPa)
#
#
# Indices 1 2 3 4 5 6 
#
# 1 0.010141 -0.003741 -0.000947 0.000000 -0.006012 0.000000
# 2 -0.003741 0.013462 -0.008960 0.000000 0.003521 0.000000
# 3 -0.000947 -0.008960 0.023396 0.000000 0.003558 0.000000
# 4 0.000000 0.000000 0.000000 -0.038564 0.000000 0.071782
# 5 -0.006012 0.003521 0.003558 0.000000 0.051806 0.000000
# 6 0.000000 0.000000 0.000000 0.071782 0.000000 -0.020190
#
#
# Mechanical properties :
#
#
# Convention : Reuss Voigt Hill
#
# Bulk Modulus (GPa) = 50.75699 59.98864 55.37281
# Shear Modulus (GPa) = 67.64433 19.72917 43.68675
#
# Velocity S-wave (km/s) = 6.09148 3.28974 4.89533
# Velocity P-wave (km/s) = 8.79303 6.88015 7.89474
#
# Compressibility (1/GPa) = 0.01970172
#
# Stress axis : x y z
#
# Youngs Moduli (GPa) = 98.60630 74.28055 42.74310
#
# Poissons Ratio (x) = 0.27791 0.04050
# Poissons Ratio (y) = 0.36892 0.38298
# Poissons Ratio (z) = 0.09343 0.66556
#
# Static dielectric constant tensor:
#      x y z
#    x 1.615680 0.000000 0.002700 
#    y 0.000000 1.630790 0.000000 
#    z 0.002700 0.000000 1.607840 
# 
# From -- ./inp_files/283517.got.cif
#   From: 2010.05.17/outbox.cif.g08.bks.cpg/sg12_142_cif.got.tgz:283517.got - 2010.06.03 13:09:07.
