data_PCOD9195057
_publ_section_title
;
Structure prediction by ZEFSAII (Michael W. Deem and Ramdas Pophale) SiO2 
 PCOD9195057
Probable space group: C 2/M
;
_chemical_formula_sum "Si O2"
_cell_formula_units_Z 52
_cell_length_a 18.474611
_cell_length_b 20.397386
_cell_length_c 14.263969
_cell_angle_alpha 90.000000
_cell_angle_beta 148.162627
_cell_angle_gamma 90.000000
_cell_volume 2835.443150
_symmetry_space_group_name_H-M "C 2/M"
_symmetry_group_IT_number 12
_symmetry_cell_setting 'monoclinic'
loop_
_space_group_symop_operation_xyz
x,y,z
-x,y,-z
-x,-y,-z
x,-y,z
1/2+x,1/2+y,z
1/2-x,1/2+y,-z
1/2-x,1/2-y,-z
1/2+x,1/2-y,z
loop_
_atom_site_type_symbol
_atom_site_label
_atom_site_fract_x
_atom_site_fract_y
_atom_site_fract_z
Si Si1 0.725742 0.173059 0.994541
Si Si2 0.075384 0.925762 0.880663
Si Si3 0.299187 0.422378 0.457946
Si Si4 0.000000 0.115879 0.000000
Si Si5 0.839140 0.833789 0.325529
Si Si6 0.802575 0.774896 0.708039
Si Si7 0.410132 0.822432 0.680182
O O1 0.808293 0.127255 0.013747
O O2 0.785961 0.155087 0.162784
O O3 0.750000 0.250000 0.000000
O O4 0.563258 0.161233 0.818576
O O5 0.938078 0.908549 0.670125
O O6 0.115829 0.000000 0.898522
O O7 0.038958 0.923447 0.950137
O O8 0.276273 0.500000 0.432929
O O9 0.318796 0.394027 0.375043
O O10 0.175204 0.382580 0.369499
O O11 0.875811 0.163310 0.833334
O O12 0.754300 0.774128 0.276714
O O13 0.000000 0.817802 0.500000
O O14 0.677401 0.795556 0.503355
O O15 0.907320 0.734652 0.756281
#
# Coordination Sequence:
#
# PCOD9195057 Si02
#       7
#     8   8   8   4   8   8   8
#     4  12  24  39  63  95 127 162 202 257 315 371
#     4  11  24  42  63  90 123 163 210 256 310 369
#     4  10  22  41  63  87 122 170 211 248 304 373
#     4  12  21  40  66  92 111 162 212 254 301 374
#     4  11  21  36  59  91 124 161 202 252 307 367
#     4  10  20  34  60  90 123 157 200 249 307 360
#     4  10  21  38  60  88 127 160 195 253 306 361
#
# _framework density 18.339285
#
# number of rings (size 3 to 8) (size 9 to 14) (size 15 to 20)
#    0.000    1.231    3.077    3.923    2.154    3.385 
#    0.000    0.769    0.000    0.923    0.000    0.000 
#    0.000    0.000    0.000    0.000    0.000    0.000 
#
# Total GULP energy -145311.508958 kJ/mol
# GULP energy per Si atom -5588.904191 kJ/mol
# Density = 1.829754 g / cm^3
# Si number density = 18.339285 Si / 1000 Ang^3
#
#
#
# Elastic Constant Matrix: (Units=GPa)
#
#
# Indices 1 2 3 4 5 6 
#
# 1 98.1139 32.0935 33.9170 0.0000 1.2425 0.0000
# 2 32.0935 87.9181 26.1993 0.0000 14.3153 0.0000
# 3 33.9170 26.1993 67.8530 0.0000 13.9701 0.0000
# 4 0.0000 0.0000 0.0000 23.6792 0.0000 0.0157
# 5 1.2425 14.3153 13.9701 0.0000 36.5473 0.0000
# 6 0.0000 0.0000 0.0000 0.0157 0.0000 12.5866
#
#
#
# Elastic Compliance Matrix: (Units=1/GPa)
#
#
# Indices 1 2 3 4 5 6 
#
# 1 0.013405 -0.003646 -0.005962 0.000000 0.003251 0.000000
# 2 -0.003646 0.014248 -0.002774 0.000000 -0.004397 0.000000
# 3 -0.005962 -0.002774 0.020106 0.000000 -0.006396 0.000000
# 4 0.000000 0.000000 0.000000 0.042231 0.000000 -0.000053
# 5 0.003251 -0.004397 -0.006396 0.000000 0.031418 0.000000
# 6 0.000000 0.000000 0.000000 -0.000053 0.000000 0.079450
#
#
# Mechanical properties :
#
#
# Convention : Reuss Voigt Hill
#
# Bulk Modulus (GPa) = 43.48822 48.70052 46.09437
# Shear Modulus (GPa) = 21.43295 25.34095 23.38695
#
# Velocity S-wave (km/s) = 3.42232 3.72127 3.57492
# Velocity P-wave (km/s) = 6.27543 6.71392 6.49837
#
# Compressibility (1/GPa) = 0.02299473
#
# Stress axis : x y z
#
# Youngs Moduli (GPa) = 74.60059 70.18767 49.73683
#
# Poissons Ratio (x) = 0.25590 0.29654
# Poissons Ratio (y) = 0.27199 0.13795
# Poissons Ratio (z) = 0.44478 0.19467
#
# Static dielectric constant tensor:
#      x y z
#    x 1.631660 0.000000 -0.010370 
#    y 0.000000 1.620360 0.000000 
#    z -0.010370 0.000000 1.610620 
# 
# From -- ./inp_files/227447.got.cif
#   From: 2010.05.17/outbox.cif.g08.bks.cpg/sg12_114_cif.got.tgz:227447.got - 2010.06.03 13:09:07.
