data_PCOD9195325
_publ_section_title
;
Structure prediction by ZEFSAII (Michael W. Deem and Ramdas Pophale) SiO2 
 PCOD9195325
Probable space group: C 2/M
;
_chemical_formula_sum "Si O2"
_cell_formula_units_Z 46
_cell_length_a 14.505440
_cell_length_b 7.261705
_cell_length_c 24.344802
_cell_angle_alpha 90.000000
_cell_angle_beta 138.687261
_cell_angle_gamma 90.000000
_cell_volume 1692.897549
_symmetry_space_group_name_H-M "C 2/M"
_symmetry_group_IT_number 12
_symmetry_cell_setting 'monoclinic'
loop_
_space_group_symop_operation_xyz
x,y,z
-x,y,-z
-x,-y,-z
x,-y,z
1/2+x,1/2+y,z
1/2-x,1/2+y,-z
1/2-x,1/2-y,-z
1/2+x,1/2-y,z
loop_
_atom_site_type_symbol
_atom_site_label
_atom_site_fract_x
_atom_site_fract_y
_atom_site_fract_z
Si Si1 0.468575 0.775578 0.106022
Si Si2 0.500000 0.249736 0.000000
Si Si3 0.735774 0.207490 0.290621
Si Si4 0.292998 0.721739 0.439333
Si Si5 0.000000 0.500000 0.500000
Si Si6 0.488349 0.221279 0.326294
Si Si7 0.194626 0.277060 0.859405
O O1 0.614873 0.714588 0.198437
O O2 0.356014 0.730352 0.102162
O O3 0.466132 0.000000 0.096540
O O4 0.453052 0.687569 0.039651
O O5 0.656513 0.188497 0.087834
O O6 0.759972 0.287036 0.361390
O O7 0.876848 0.206036 0.319389
O O8 0.686541 0.000000 0.280618
O O9 0.314234 0.500000 0.450889
O O10 0.430446 0.839575 0.509402
O O11 0.149966 0.774265 0.406182
O O12 0.425282 0.273345 0.238147
O O13 0.485332 0.000000 0.326426
O O14 0.212513 0.500000 0.863317
#
# Coordination Sequence:
#
# PCOD9195325 Si02
#       7
#     8   4   8   8   2   8   8
#     4  10  20  35  53  79 119 169 217 269 338 387
#     4  12  20  32  52  84 120 162 224 288 326 374
#     4  10  20  38  65  91 123 171 223 267 320 396
#     4  10  23  45  71  99 136 179 214 262 339 403
#     4  12  26  44  80 106 140 162 210 280 332 398
#     4  10  20  38  65  91 123 171 223 267 320 396
#     4  10  20  35  53  79 119 169 217 269 338 387
#
# _framework density 27.172348
#
# number of rings (size 3 to 8) (size 9 to 14) (size 15 to 20)
#    0.000    1.739    3.478    1.304    2.435    0.000 
#    0.000    0.870    0.000    2.087    0.000    0.000 
#    0.000    0.000    0.000    0.000    0.000    0.000 
#
# Total GULP energy -128335.349158 kJ/mol
# GULP energy per Si atom -5579.797789 kJ/mol
# Density = 2.711050 g / cm^3
# Si number density = 27.172348 Si / 1000 Ang^3
#
#
#
# Elastic Constant Matrix: (Units=GPa)
#
#
# Indices 1 2 3 4 5 6 
#
# 1 164.7572 12.2722 29.1012 0.0000 29.1206 0.0000
# 2 12.2722 152.5496 8.3685 0.0000 16.0712 0.0000
# 3 29.1012 8.3685 130.2235 0.0000 16.9726 0.0000
# 4 0.0000 0.0000 0.0000 -21.6998 0.0000 11.2942
# 5 29.1206 16.0712 16.9726 0.0000 71.2838 0.0000
# 6 0.0000 0.0000 0.0000 11.2942 0.0000 4.1125
#
#
#
# Elastic Compliance Matrix: (Units=1/GPa)
#
#
# Indices 1 2 3 4 5 6 
#
# 1 0.006720 -0.000222 -0.001173 0.000000 -0.002416 0.000000
# 2 -0.000222 0.006729 -0.000203 0.000000 -0.001378 0.000000
# 3 -0.001173 -0.000203 0.008138 0.000000 -0.001413 0.000000
# 4 0.000000 0.000000 0.000000 -0.018969 0.000000 0.052095
# 5 -0.002416 -0.001378 -0.001413 0.000000 0.015663 0.000000
# 6 0.000000 0.000000 0.000000 0.052095 0.000000 0.100091
#
#
# Mechanical properties :
#
#
# Convention : Reuss Voigt Hill
#
# Bulk Modulus (GPa) = 54.36933 60.77934 57.57434
# Shear Modulus (GPa) = 39.15456 37.25852 38.20654
#
# Velocity S-wave (km/s) = 3.80013 3.70698 3.75384
# Velocity P-wave (km/s) = 6.26954 6.38270 6.32638
#
# Compressibility (1/GPa) = 0.01839272
#
# Stress axis : x y z
#
# Youngs Moduli (GPa) = 148.80461 148.60103 122.87491
#
# Poissons Ratio (x) = 0.03295 0.14409
# Poissons Ratio (y) = 0.03300 0.02498
# Poissons Ratio (z) = 0.17449 0.03021
#
# Static dielectric constant tensor:
#      x y z
#    x 2.058950 0.000000 -0.008570 
#    y 0.000000 0.984660 0.000000 
#    z -0.008570 0.000000 2.260520 
# 
# From -- ./inp_files/360348.got.cif
#   From: 2010.05.17/outbox.cif.g08.bks.cpg/sg12_181_cif.got.tgz:360348.got - 2010.06.03 13:09:07.
