data_PCOD9195059
_publ_section_title
;
Structure prediction by ZEFSAII (Michael W. Deem and Ramdas Pophale) SiO2 
 PCOD9195059
Probable space group: C 2/M
;
_chemical_formula_sum "Si O2"
_cell_formula_units_Z 64
_cell_length_a 10.382615
_cell_length_b 17.385748
_cell_length_c 30.919773
_cell_angle_alpha 90.000000
_cell_angle_beta 33.982408
_cell_angle_gamma 90.000000
_cell_volume 3119.610124
_symmetry_space_group_name_H-M "C 2/M"
_symmetry_group_IT_number 12
_symmetry_cell_setting 'monoclinic'
loop_
_space_group_symop_operation_xyz
x,y,z
-x,y,-z
-x,-y,-z
x,-y,z
1/2+x,1/2+y,z
1/2-x,1/2+y,-z
1/2-x,1/2-y,-z
1/2+x,1/2-y,z
loop_
_atom_site_type_symbol
_atom_site_label
_atom_site_fract_x
_atom_site_fract_y
_atom_site_fract_z
Si Si1 0.428476 0.406088 0.068073
Si Si2 0.422333 0.647474 0.726327
Si Si3 0.464018 0.838965 0.557926
Si Si4 0.233908 0.411302 0.951805
Si Si5 0.045732 0.684581 0.300500
Si Si6 0.067887 0.408127 0.753179
Si Si7 0.311131 0.324592 0.526084
Si Si8 0.960557 0.085310 0.218987
O O1 0.431330 0.500000 0.068027
O O2 0.618245 0.378342 0.049920
O O3 0.171140 0.385398 0.155752
O O4 0.500000 0.381800 0.000000
O O5 0.701370 0.646521 0.643545
O O6 0.360414 0.737006 0.745752
O O7 0.280888 0.612531 0.725554
O O8 0.384546 0.607749 0.783015
O O9 0.500000 0.868315 0.500000
O O10 0.546317 0.747943 0.533925
O O11 0.657915 0.871461 0.535573
O O12 0.175204 0.500000 0.981235
O O13 0.395805 0.414971 0.865005
O O14 0.000000 0.373031 0.000000
O O15 0.934438 0.635188 0.292519
O O16 0.869805 0.706356 0.387970
O O17 0.249073 0.640777 0.268182
O O18 0.063267 0.500000 0.747274
O O19 0.500000 0.371579 0.500000
O O20 0.868368 0.000000 0.252712
#
# Coordination Sequence:
#
# PCOD9195059 Si02
#       8
#     8   8   8   8   8   8   8   8
#     4   9  18  35  59  88 121 165 215 254 296 368
#     4  12  24  38  64  98 122 164 216 260 305 373
#     4  10  20  35  57  91 118 150 202 269 295 346
#     4   9  18  34  60  89 118 164 218 257 294 362
#     4  12  22  40  66  95 120 166 218 260 299 372
#     4  11  25  41  62  95 136 166 199 262 329 371
#     4  10  20  34  60  91 113 152 207 266 291 348
#     4  11  23  41  62  91 132 164 202 264 323 366
#
# _framework density 20.515384000000001
#
# number of rings (size 3 to 8) (size 9 to 14) (size 15 to 20)
#    0.000    1.500    5.000    1.500    3.500    0.000 
#    0.000    0.000    0.000    9.000    0.000    0.000 
#    0.000    0.000    0.000    0.000    0.000    0.000 
#
# Total GULP energy -178371.256278 kJ/mol
# GULP energy per Si atom -5574.101759 kJ/mol
# Density = 2.046869 g / cm^3
# Si number density = 20.515384 Si / 1000 Ang^3
#
#
#
# Elastic Constant Matrix: (Units=GPa)
#
#
# Indices 1 2 3 4 5 6 
#
# 1 162.7482 0.3681 30.2894 0.0211 -4.8073 -0.0416
# 2 0.3681 37.3029 -2.7818 0.0135 1.2012 -0.0334
# 3 30.2894 -2.7818 55.4976 0.0140 -6.4622 -0.0164
# 4 0.0211 0.0135 0.0140 8.3188 0.0000 5.3218
# 5 -4.8073 1.2012 -6.4622 0.0000 42.8436 -0.0136
# 6 -0.0416 -0.0334 -0.0164 5.3218 -0.0136 10.7196
#
#
#
# Elastic Compliance Matrix: (Units=1/GPa)
#
#
# Indices 1 2 3 4 5 6 
#
# 1 0.006846 -0.000353 -0.003729 -0.000034 0.000216 0.000037
# 2 -0.000353 0.026940 0.001476 -0.000145 -0.000572 0.000156
# 3 -0.003729 0.001476 0.020433 -0.000063 0.002622 0.000056
# 4 -0.000034 -0.000145 -0.000063 0.176157 -0.000037 -0.087454
# 5 0.000216 -0.000572 0.002622 -0.000037 0.023776 0.000052
# 6 0.000037 0.000156 0.000056 -0.087454 0.000052 0.136704
#
#
# Mechanical properties :
#
#
# Convention : Reuss Voigt Hill
#
# Bulk Modulus (GPa) = 20.40461 34.58890 27.49675
# Shear Modulus (GPa) = 12.12411 27.55461 19.83936
#
# Velocity S-wave (km/s) = 2.43364 3.66884 3.11311
# Velocity P-wave (km/s) = 4.22663 5.90286 5.13362
#
# Compressibility (1/GPa) = 0.04900853
#
# Stress axis : x y z
#
# Youngs Moduli (GPa) = 146.07912 37.11985 48.93991
#
# Poissons Ratio (x) = 0.01309 0.18248
# Poissons Ratio (y) = 0.05150 -0.07225
# Poissons Ratio (z) = 0.54469 -0.05480
#
# Static dielectric constant tensor:
#      x y z
#    x 1.820340 0.000000 -0.014420 
#    y 0.000000 1.774450 -0.000010 
#    z -0.014420 -0.000010 1.757440 
# 
# From -- ./inp_files/372949.got.cif
#   From: 2010.05.17/outbox.cif.g08.bks.cpg/sg12_187_cif.got.tgz:372949.got - 2010.06.03 13:09:07.
