data_PCOD9195594
_publ_section_title
;
Structure prediction by ZEFSAII (Michael W. Deem and Ramdas Pophale) SiO2 
 PCOD9195594
Probable space group: C 2/M
;
_chemical_formula_sum "Si O2"
_cell_formula_units_Z 32
_cell_length_a 20.405212
_cell_length_b 13.498518
_cell_length_c 16.800979
_cell_angle_alpha 90.000000
_cell_angle_beta 20.465767
_cell_angle_gamma 90.000000
_cell_volume 1618.051863
_symmetry_space_group_name_H-M "C 2/M"
_symmetry_group_IT_number 12
_symmetry_cell_setting 'monoclinic'
loop_
_space_group_symop_operation_xyz
x,y,z
-x,y,-z
-x,-y,-z
x,-y,z
1/2+x,1/2+y,z
1/2-x,1/2+y,-z
1/2-x,1/2-y,-z
1/2+x,1/2-y,z
loop_
_atom_site_type_symbol
_atom_site_label
_atom_site_fract_x
_atom_site_fract_y
_atom_site_fract_z
Si Si1 0.217168 0.724696 0.129189
Si Si2 0.228868 0.112051 0.242545
Si Si3 0.926357 0.115045 0.270402
Si Si4 0.307455 0.266578 0.564826
O O1 0.283951 0.816827 0.107288
O O2 0.994040 0.716893 0.390540
O O3 0.250000 0.750000 0.000000
O O4 0.351557 0.633012 0.994099
O O5 0.278477 0.164950 0.268823
O O6 0.000000 0.106597 0.500000
O O7 0.299917 0.000000 0.155051
O O8 0.821362 0.181200 0.324358
O O9 0.868427 0.162565 0.421778
O O10 0.878428 0.000000 0.322189
#
# Coordination Sequence:
#
# PCOD9195594 Si02
#       4
#     8   8   8   8
#     4   9  19  34  52  78 109 135 169 215 261 314
#     4   9  17  33  58  81 104 137 175 220 268 306
#     4  10  20  35  55  77 106 143 176 212 263 316
#     4   9  19  36  55  80 107 134 177 224 259 306
#
# _framework density 19.776869999999999
#
# number of rings (size 3 to 8) (size 9 to 14) (size 15 to 20)
#    0.000    2.750    0.000    0.750    0.000    8.000 
#    0.000   15.000    0.000    4.500    0.000    0.000 
#    0.000    0.000    0.000    0.000    0.000    0.000 
#
# Total GULP energy -89241.998176 kJ/mol
# GULP energy per Si atom -5577.624886 kJ/mol
# Density = 1.973186 g / cm^3
# Si number density = 19.776870 Si / 1000 Ang^3
#
#
#
# Elastic Constant Matrix: (Units=GPa)
#
#
# Indices 1 2 3 4 5 6 
#
# 1 117.0828 70.1231 28.2216 0.0008 11.8602 -0.0006
# 2 70.1231 141.3167 29.0953 0.0004 6.6296 -0.0006
# 3 28.2216 29.0953 36.6481 0.0013 4.2019 -0.0006
# 4 0.0008 0.0004 0.0013 26.9247 -0.0009 -4.5220
# 5 11.8602 6.6296 4.2019 -0.0009 35.5501 0.0004
# 6 -0.0006 -0.0006 -0.0006 -4.5220 0.0004 14.2860
#
#
#
# Elastic Compliance Matrix: (Units=1/GPa)
#
#
# Indices 1 2 3 4 5 6 
#
# 1 0.013411 -0.005335 -0.005771 0.000000 -0.002797 0.000000
# 2 -0.005335 0.010604 -0.004346 0.000000 0.000316 0.000000
# 3 -0.005771 -0.004346 0.035346 -0.000001 -0.001442 0.000001
# 4 0.000000 0.000000 -0.000001 0.039226 0.000001 0.012416
# 5 -0.002797 0.000316 -0.001442 0.000001 0.029174 -0.000001
# 6 0.000000 0.000000 0.000001 0.012416 -0.000001 0.073929
#
#
# Mechanical properties :
#
#
# Convention : Reuss Voigt Hill
#
# Bulk Modulus (GPa) = 35.14159 61.10306 48.12233
# Shear Modulus (GPa) = 20.65447 26.52603 23.59025
#
# Velocity S-wave (km/s) = 3.23519 3.66630 3.45747
# Velocity P-wave (km/s) = 5.63585 6.99183 6.35014
#
# Compressibility (1/GPa) = 0.02845631
#
# Stress axis : x y z
#
# Youngs Moduli (GPa) = 74.56789 94.30698 28.29161
#
# Poissons Ratio (x) = 0.50314 0.16326
# Poissons Ratio (y) = 0.39783 0.12296
# Poissons Ratio (z) = 0.43031 0.40987
#
# Static dielectric constant tensor:
#      x y z
#    x 1.720330 0.000000 -0.046110 
#    y 0.000000 1.658660 0.000000 
#    z -0.046110 0.000000 1.744720 
# 
# From -- ./inp_files/231602.got.cif
#   From: 2010.05.17/outbox.cif.g08.bks.cpg/sg12_116_cif.got.tgz:231602.got - 2010.06.03 13:09:07.
