data_PCOD9195810
_publ_section_title
;
Structure prediction by ZEFSAII (Michael W. Deem and Ramdas Pophale) SiO2 
 PCOD9195810
Probable space group: C 2/M
;
_chemical_formula_sum "Si O2"
_cell_formula_units_Z 64
_cell_length_a 30.345372
_cell_length_b 8.215991
_cell_length_c 15.013828
_cell_angle_alpha 90.000000
_cell_angle_beta 62.224079
_cell_angle_gamma 90.000000
_cell_volume 3311.903180
_symmetry_space_group_name_H-M "C 2/M"
_symmetry_group_IT_number 12
_symmetry_cell_setting 'monoclinic'
loop_
_space_group_symop_operation_xyz
x,y,z
-x,y,-z
-x,-y,-z
x,-y,z
1/2+x,1/2+y,z
1/2-x,1/2+y,-z
1/2-x,1/2-y,-z
1/2+x,1/2-y,z
loop_
_atom_site_type_symbol
_atom_site_label
_atom_site_fract_x
_atom_site_fract_y
_atom_site_fract_z
Si Si1 0.778116 0.695592 0.886110
Si Si2 0.346223 0.694332 0.568234
Si Si3 0.026900 0.696712 0.236238
Si Si4 0.870815 0.803222 0.196076
Si Si5 0.085188 0.803237 0.657750
Si Si6 0.259085 0.696390 0.270705
Si Si7 0.547027 0.196387 0.015469
Si Si8 0.615667 0.196873 0.276623
O O1 0.778000 0.500000 0.884331
O O2 0.751624 0.752794 0.820331
O O3 0.835569 0.748800 0.825374
O O4 0.750000 0.750000 0.000000
O O5 0.345506 0.500000 0.566348
O O6 0.376431 0.754564 0.453889
O O7 0.289118 0.752589 0.627538
O O8 0.374330 0.747184 0.632188
O O9 0.028721 0.500000 0.233613
O O10 0.066117 0.754429 0.273550
O O11 0.970822 0.749228 0.308640
O O12 0.041578 0.753065 0.122571
O O13 0.898297 0.745619 0.259842
O O14 0.813522 0.746624 0.249010
O O15 0.902560 0.749252 0.080908
O O16 0.870390 0.000000 0.197400
O O17 0.086456 0.000000 0.657275
O O18 0.259832 0.500000 0.269809
O O19 0.545642 0.000000 0.017708
O O20 0.500000 0.253573 0.000000
O O21 0.614832 0.000000 0.279093
#
# Coordination Sequence:
#
# PCOD9195810 Si02
#       8
#     8   8   8   8   8   8   8   8
#     4   9  18  32  50  74 104 136 173 217 263 313
#     4  10  21  38  58  81 109 141 181 231 279 321
#     4  10  21  37  57  82 111 146 185 222 269 326
#     4  10  21  37  57  81 111 148 184 220 270 331
#     4  10  22  38  56  81 112 143 181 229 276 322
#     4   9  20  38  56  78 109 143 182 224 269 326
#     4  10  20  35  55  81 114 145 179 228 273 316
#     4   9  20  38  56  77 109 145 181 223 270 324
#
# _framework density 19.324235999999999
#
# number of rings (size 3 to 8) (size 9 to 14) (size 15 to 20)
#    0.000    2.375    1.250    1.125    1.750    5.750 
#    0.000    2.500    0.000    0.000    0.000    0.000 
#    0.000    0.000    0.000    0.000    0.000    0.000 
#
# Total GULP energy -178585.419980 kJ/mol
# GULP energy per Si atom -5580.794374 kJ/mol
# Density = 1.928025 g / cm^3
# Si number density = 19.324236 Si / 1000 Ang^3
#
#
#
# Elastic Constant Matrix: (Units=GPa)
#
#
# Indices 1 2 3 4 5 6 
#
# 1 106.5833 7.1343 13.0418 0.0000 -30.2739 0.0000
# 2 7.1343 3.4938 0.9090 0.0000 -1.2960 0.0000
# 3 13.0418 0.9090 99.7794 0.0000 -27.8875 0.0000
# 4 0.0000 0.0000 0.0000 26.6363 0.0000 -7.0236
# 5 -30.2739 -1.2960 -27.8875 0.0000 17.5502 0.0000
# 6 0.0000 0.0000 0.0000 -7.0236 0.0000 19.9723
#
#
#
# Elastic Compliance Matrix: (Units=1/GPa)
#
#
# Indices 1 2 3 4 5 6 
#
# 1 0.036984 -0.045721 0.022432 0.000000 0.096066 0.000000
# 2 -0.045721 0.352886 -0.021584 0.000000 -0.087106 0.000000
# 3 0.022432 -0.021584 0.031762 0.000000 0.087572 0.000000
# 4 0.000000 0.000000 0.000000 0.041380 0.000000 0.014552
# 5 0.096066 -0.087106 0.087572 0.000000 0.355411 0.000000
# 6 0.000000 0.000000 0.000000 0.014552 0.000000 0.055187
#
#
# Mechanical properties :
#
#
# Convention : Reuss Voigt Hill
#
# Bulk Modulus (GPa) = 3.01308 28.00294 15.50801
# Shear Modulus (GPa) = 4.65555 25.41653 15.03604
#
# Velocity S-wave (km/s) = 1.55384 3.63060 2.79246
# Velocity P-wave (km/s) = 2.18674 5.66547 4.29414
#
# Compressibility (1/GPa) = 0.33188655
#
# Stress axis : x y z
#
# Youngs Moduli (GPa) = 27.03839 2.83377 31.48392
#
# Poissons Ratio (x) = 0.12956 -0.70625
# Poissons Ratio (y) = 1.23623 0.67955
# Poissons Ratio (z) = -0.60653 0.06116
#
# Static dielectric constant tensor:
#      x y z
#    x 1.671400 0.000000 0.005420 
#    y 0.000000 1.683510 0.000000 
#    z 0.005420 0.000000 1.651820 
# 
# From -- ./inp_files/249027.got.cif
#   From: 2010.05.17/outbox.cif.g08.bks.cpg/sg12_125_cif.got.tgz:249027.got - 2010.06.03 13:09:07.
