data_PCOD9195530
_publ_section_title
;
Structure prediction by ZEFSAII (Michael W. Deem and Ramdas Pophale) SiO2 
 PCOD9195530
Probable space group: C 2/M
;
_chemical_formula_sum "Si O2"
_cell_formula_units_Z 56
_cell_length_a 27.514679
_cell_length_b 7.737738
_cell_length_c 12.319347
_cell_angle_alpha 90.000000
_cell_angle_beta 104.067948
_cell_angle_gamma 90.000000
_cell_volume 2544.143127
_symmetry_space_group_name_H-M "C 2/M"
_symmetry_group_IT_number 12
_symmetry_cell_setting 'monoclinic'
loop_
_space_group_symop_operation_xyz
x,y,z
-x,y,-z
-x,-y,-z
x,-y,z
1/2+x,1/2+y,z
1/2-x,1/2+y,-z
1/2-x,1/2-y,-z
1/2+x,1/2-y,z
loop_
_atom_site_type_symbol
_atom_site_label
_atom_site_fract_x
_atom_site_fract_y
_atom_site_fract_z
Si Si1 0.808073 0.301491 0.031443
Si Si2 0.888215 0.202116 0.441970
Si Si3 0.400870 0.701752 0.212565
Si Si4 0.226521 0.706666 0.604184
Si Si5 0.508863 0.288427 0.882191
Si Si6 0.412095 0.711422 0.691524
Si Si7 0.679883 0.290544 0.206203
O O1 0.810797 0.500000 0.063424
O O2 0.844808 0.209317 0.135345
O O3 0.750000 0.250000 0.000000
O O4 0.827440 0.272562 0.919694
O O5 0.904310 0.279229 0.335047
O O6 0.827977 0.212541 0.414345
O O7 0.908607 0.275809 0.566157
O O8 0.902600 0.000000 0.449521
O O9 0.413876 0.500000 0.230750
O O10 0.439803 0.773171 0.145559
O O11 0.221117 0.500000 0.609770
O O12 0.250000 0.750000 0.500000
O O13 0.266479 0.764412 0.716461
O O14 0.509992 0.500000 0.887952
O O15 0.462426 0.239282 0.780829
O O16 0.500000 0.228012 0.000000
O O17 0.410411 0.500000 0.687787
O O18 0.363830 0.765680 0.735616
O O19 0.679462 0.500000 0.202959
#
# Coordination Sequence:
#
# PCOD9195530 Si02
#       7
#     8   8   8   8   8   8   8
#     4  12  25  40  59  83 113 149 190 237 287 344
#     4  10  20  35  54  82 118 152 193 240 286 339
#     4  10  21  37  59  86 116 152 193 239 289 342
#     4  11  21  34  55  82 115 153 190 231 282 340
#     4   9  17  31  56  86 114 149 193 240 288 337
#     4   9  17  32  55  84 116 148 188 237 286 335
#     4  10  20  36  58  83 114 152 192 237 286 336
#
# _framework density 22.011339
#
# number of rings (size 3 to 8) (size 9 to 14) (size 15 to 20)
#    0.000    1.857    1.429    3.429    0.000    6.857 
#    0.000    2.857    0.000    4.714    0.000    2.000 
#    0.000    0.000    0.000    0.000    0.000    0.000 
#
# Total GULP energy -156497.161821 kJ/mol
# GULP energy per Si atom -5589.184351 kJ/mol
# Density = 2.196124 g / cm^3
# Si number density = 22.011339 Si / 1000 Ang^3
#
#
#
# Elastic Constant Matrix: (Units=GPa)
#
#
# Indices 1 2 3 4 5 6 
#
# 1 113.4325 -3.1177 76.3403 0.0000 -10.2573 0.0000
# 2 -3.1177 35.9978 -3.0787 0.0000 -4.1919 0.0000
# 3 76.3403 -3.0787 172.3707 0.0000 -15.5579 0.0000
# 4 0.0000 0.0000 0.0000 10.6875 0.0000 2.6851
# 5 -10.2573 -4.1919 -15.5579 0.0000 41.0182 0.0000
# 6 0.0000 0.0000 0.0000 2.6851 0.0000 10.9599
#
#
#
# Elastic Compliance Matrix: (Units=1/GPa)
#
#
# Indices 1 2 3 4 5 6 
#
# 1 0.012625 0.000760 -0.005473 0.000000 0.001159 0.000000
# 2 0.000760 0.028264 0.000462 0.000000 0.003254 0.000000
# 3 -0.005473 0.000462 0.008402 0.000000 0.001865 0.000000
# 4 0.000000 0.000000 0.000000 0.099704 0.000000 -0.024426
# 5 0.001159 0.003254 0.001865 0.000000 0.025709 0.000000
# 6 0.000000 0.000000 0.000000 -0.024426 0.000000 0.097226
#
#
# Mechanical properties :
#
#
# Convention : Reuss Voigt Hill
#
# Bulk Modulus (GPa) = 24.51676 51.34319 37.92997
# Shear Modulus (GPa) = 17.00516 29.31026 23.15771
#
# Velocity S-wave (km/s) = 2.78252 3.65307 3.24710
# Velocity P-wave (km/s) = 4.63526 6.41636 5.59711
#
# Compressibility (1/GPa) = 0.04078843
#
# Stress axis : x y z
#
# Youngs Moduli (GPa) = 79.20786 35.38102 119.01820
#
# Poissons Ratio (x) = -0.02690 0.65142
# Poissons Ratio (y) = -0.06022 -0.05496
# Poissons Ratio (z) = 0.43352 -0.01634
#
# Static dielectric constant tensor:
#      x y z
#    x 1.783980 0.000000 -0.005180 
#    y 0.000000 1.829870 0.000000 
#    z -0.005180 0.000000 1.819120 
# 
# From -- ./inp_files/181041.got.cif
#   From: 2010.05.17/outbox.cif.g08.bks.cpg/sg12_91_cif.got.tgz:181041.got - 2010.06.03 13:09:07.
