data_PCOD9195976
_publ_section_title
;
Structure prediction by ZEFSAII (Michael W. Deem and Ramdas Pophale) SiO2 
 PCOD9195976
Probable space group: C 2/M
;
_chemical_formula_sum "Si O2"
_cell_formula_units_Z 64
_cell_length_a 27.962237
_cell_length_b 9.310656
_cell_length_c 22.124565
_cell_angle_alpha 90.000000
_cell_angle_beta 146.188020
_cell_angle_gamma 90.000000
_cell_volume 3205.296328
_symmetry_space_group_name_H-M "C 2/M"
_symmetry_group_IT_number 12
_symmetry_cell_setting 'monoclinic'
loop_
_space_group_symop_operation_xyz
x,y,z
-x,y,-z
-x,-y,-z
x,-y,z
1/2+x,1/2+y,z
1/2-x,1/2+y,-z
1/2-x,1/2-y,-z
1/2+x,1/2-y,z
loop_
_atom_site_type_symbol
_atom_site_label
_atom_site_fract_x
_atom_site_fract_y
_atom_site_fract_z
Si Si1 0.624099 0.829373 0.206190
Si Si2 0.992637 0.171334 0.148819
Si Si3 0.734213 0.334939 0.229600
Si Si4 0.597921 0.334676 0.612015
Si Si5 0.771812 0.827960 0.460550
Si Si6 0.541844 0.671531 0.335482
Si Si7 0.297655 0.335448 0.948091
Si Si8 0.367445 0.335158 0.207783
O O1 0.539290 0.756966 0.144777
O O2 0.659124 0.753866 0.182979
O O3 0.700068 0.802488 0.334916
O O4 0.613555 0.000000 0.187392
O O5 0.043044 0.192624 0.264658
O O6 0.991298 0.000000 0.134025
O O7 0.894697 0.217895 0.058301
O O8 0.734097 0.500000 0.250259
O O9 0.826491 0.259757 0.337238
O O10 0.718566 0.334152 0.141209
O O11 0.500000 0.284508 0.500000
O O12 0.603365 0.500000 0.595114
O O13 0.615663 0.336584 0.702456
O O14 0.750000 0.750000 0.500000
O O15 0.867794 0.779036 0.542492
O O16 0.775068 0.000000 0.474470
O O17 0.536924 0.500000 0.341843
O O18 0.452988 0.731265 0.268158
O O19 0.294261 0.500000 0.965392
O O20 0.220696 0.246928 0.896381
O O21 0.358085 0.500000 0.177619
#
# Coordination Sequence:
#
# PCOD9195976 Si02
#       8
#     8   8   8   8   8   8   8   8
#     4  11  23  36  55  84 113 140 179 226 272 322
#     4  10  20  37  59  78 105 145 185 222 270 325
#     4  10  21  37  55  76 108 144 183 225 270 324
#     4   9  18  32  53  78 107 142 180 222 268 319
#     4  10  20  35  56  79 110 144 176 219 266 320
#     4   9  18  33  55  81 107 140 178 214 261 324
#     4   9  20  38  57  78 106 142 182 228 272 316
#     4   9  18  33  54  79 107 141 178 218 268 322
#
# _framework density 19.966951999999999
#
# number of rings (size 3 to 8) (size 9 to 14) (size 15 to 20)
#    0.000    2.375    1.250    0.750    1.750    2.750 
#    0.000    3.750    0.000    0.000    0.000    0.000 
#    0.000    0.000    0.000    0.000    0.000    0.000 
#
# Total GULP energy -178604.872246 kJ/mol
# GULP energy per Si atom -5581.402258 kJ/mol
# Density = 1.992151 g / cm^3
# Si number density = 19.966952 Si / 1000 Ang^3
#
#
#
# Elastic Constant Matrix: (Units=GPa)
#
#
# Indices 1 2 3 4 5 6 
#
# 1 68.4583 24.4254 5.2150 0.0000 26.0606 0.0000
# 2 24.4254 37.8266 13.4607 0.0000 10.0311 0.0000
# 3 5.2150 13.4607 77.6263 0.0000 27.8318 0.0000
# 4 0.0000 0.0000 0.0000 23.2796 0.0000 9.9095
# 5 26.0606 10.0311 27.8318 0.0000 35.3307 0.0000
# 6 0.0000 0.0000 0.0000 9.9095 0.0000 25.9241
#
#
#
# Elastic Compliance Matrix: (Units=1/GPa)
#
#
# Indices 1 2 3 4 5 6 
#
# 1 0.028552 -0.015390 0.009386 0.000000 -0.024085 0.000000
# 2 -0.015390 0.037345 -0.007958 0.000000 0.007018 0.000000
# 3 0.009386 -0.007958 0.021327 0.000000 -0.021464 0.000000
# 4 0.000000 0.000000 0.000000 0.051304 0.000000 -0.019611
# 5 -0.024085 0.007018 -0.021464 0.000000 0.060985 0.000000
# 6 0.000000 0.000000 0.000000 -0.019611 0.000000 0.046070
#
#
# Mechanical properties :
#
#
# Convention : Reuss Voigt Hill
#
# Bulk Modulus (GPa) = 16.86335 30.01262 23.43799
# Shear Modulus (GPa) = 17.04894 26.29423 21.67158
#
# Velocity S-wave (km/s) = 2.92525 3.63283 3.29807
# Velocity P-wave (km/s) = 4.45797 5.71493 5.12513
#
# Compressibility (1/GPa) = 0.05930019
#
# Stress axis : x y z
#
# Youngs Moduli (GPa) = 35.02408 26.77764 46.88820
#
# Poissons Ratio (x) = 0.41209 -0.44007
# Poissons Ratio (y) = 0.53900 0.37313
# Poissons Ratio (z) = -0.32872 0.21309
#
# Static dielectric constant tensor:
#      x y z
#    x 1.711520 0.000000 0.004590 
#    y 0.000000 1.678770 0.000000 
#    z 0.004590 0.000000 1.727750 
# 
# From -- ./inp_files/249901.got.cif
#   From: 2010.05.17/outbox.cif.g08.bks.cpg/sg12_125_cif.got.tgz:249901.got - 2010.06.03 13:09:07.
