data_PCOD9195936
_publ_section_title
;
Structure prediction by ZEFSAII (Michael W. Deem and Ramdas Pophale) SiO2 
 PCOD9195936
Probable space group: C 2/M
;
_chemical_formula_sum "Si O2"
_cell_formula_units_Z 56
_cell_length_a 34.127355
_cell_length_b 9.068713
_cell_length_c 14.502359
_cell_angle_alpha 90.000000
_cell_angle_beta 45.157944
_cell_angle_gamma 90.000000
_cell_volume 3182.481168
_symmetry_space_group_name_H-M "C 2/M"
_symmetry_group_IT_number 12
_symmetry_cell_setting 'monoclinic'
loop_
_space_group_symop_operation_xyz
x,y,z
-x,y,-z
-x,-y,-z
x,-y,z
1/2+x,1/2+y,z
1/2-x,1/2+y,-z
1/2-x,1/2-y,-z
1/2+x,1/2-y,z
loop_
_atom_site_type_symbol
_atom_site_label
_atom_site_fract_x
_atom_site_fract_y
_atom_site_fract_z
Si Si1 0.968320 0.176057 0.740714
Si Si2 0.639527 0.676912 0.965192
Si Si3 0.591627 0.323175 0.524529
Si Si4 0.813556 0.675741 0.290846
Si Si5 0.200573 0.328891 0.028930
Si Si6 0.315501 0.323089 0.484479
Si Si7 0.412140 0.169934 0.666377
O O1 0.954346 0.253639 0.667154
O O2 0.030803 0.210880 0.665994
O O3 0.964397 0.000000 0.732921
O O4 0.920834 0.216041 0.892900
O O5 0.644161 0.500000 0.954521
O O6 0.651174 0.746464 0.846850
O O7 0.683558 0.744144 0.964250
O O8 0.595584 0.500000 0.507397
O O9 0.641172 0.276329 0.509223
O O10 0.593577 0.251056 0.420992
O O11 0.821586 0.500000 0.275996
O O12 0.748145 0.705765 0.382329
O O13 0.826197 0.741218 0.370521
O O14 0.213722 0.500000 0.987131
O O15 0.146698 0.324602 0.183609
O O16 0.250000 0.250000 0.000000
O O17 0.320852 0.500000 0.461865
O O18 0.427403 0.000000 0.626785
#
# Coordination Sequence:
#
# PCOD9195936 Si02
#       7
#     8   8   8   8   8   8   8
#     4   9  19  36  55  77 105 142 184 219 257 311
#     4  10  20  35  56  78 104 142 178 216 266 316
#     4  10  20  35  56  79 105 139 182 224 262 311
#     4  10  20  36  57  81 107 137 173 218 270 325
#     4  10  21  35  50  75 109 142 179 220 260 313
#     4   9  20  37  56  80 105 135 174 220 268 317
#     4  10  21  34  50  77 110 143 177 216 266 315
#
# _framework density 17.596335
#
# number of rings (size 3 to 8) (size 9 to 14) (size 15 to 20)
#    0.000    2.286    0.000    2.143    2.000    5.714 
#    0.000    0.714    0.000    4.286    0.000    0.000 
#    0.000    0.000    0.000    0.000    0.000    0.000 
#
# Total GULP energy -156291.221659 kJ/mol
# GULP energy per Si atom -5581.829345 kJ/mol
# Density = 1.755628 g / cm^3
# Si number density = 17.596335 Si / 1000 Ang^3
#
#
#
# Elastic Constant Matrix: (Units=GPa)
#
#
# Indices 1 2 3 4 5 6 
#
# 1 102.7574 34.7300 43.8568 0.0000 6.9262 0.0000
# 2 34.7300 51.0904 45.9609 0.0000 5.1180 0.0000
# 3 43.8568 45.9609 98.5425 0.0000 22.0345 0.0000
# 4 0.0000 0.0000 0.0000 31.8538 0.0000 5.6375
# 5 6.9262 5.1180 22.0345 0.0000 14.1713 0.0000
# 6 0.0000 0.0000 0.0000 5.6375 0.0000 24.5348
#
#
#
# Elastic Compliance Matrix: (Units=1/GPa)
#
#
# Indices 1 2 3 4 5 6 
#
# 1 0.013098 -0.006197 -0.003078 0.000000 0.000623 0.000000
# 2 -0.006197 0.040280 -0.020624 0.000000 0.020549 0.000000
# 3 -0.003078 -0.020624 0.029334 0.000000 -0.036657 0.000000
# 4 0.000000 0.000000 0.000000 0.032724 0.000000 -0.007519
# 5 0.000623 0.020549 -0.036657 0.000000 0.119837 0.000000
# 6 0.000000 0.000000 0.000000 -0.007519 0.000000 0.042486
#
#
# Mechanical properties :
#
#
# Convention : Reuss Voigt Hill
#
# Bulk Modulus (GPa) = 43.64147 55.72061 49.68104
# Shear Modulus (GPa) = 14.48457 22.63483 18.55970
#
# Velocity S-wave (km/s) = 2.87219 3.59045 3.25121
# Velocity P-wave (km/s) = 5.98787 6.99451 6.51067
#
# Compressibility (1/GPa) = 0.02291399
#
# Stress axis : x y z
#
# Youngs Moduli (GPa) = 76.34816 24.82601 34.09042
#
# Poissons Ratio (x) = 0.15384 0.10494
# Poissons Ratio (y) = 0.47311 0.70308
# Poissons Ratio (z) = 0.23503 0.51201
#
# Static dielectric constant tensor:
#      x y z
#    x 1.579610 0.000000 -0.029750 
#    y 0.000000 1.588340 0.000000 
#    z -0.029750 0.000000 1.592570 
# 
# From -- ./inp_files/187213.got.cif
#   From: 2010.05.17/outbox.cif.g08.bks.cpg/sg12_94_cif.got.tgz:187213.got - 2010.06.03 13:09:07.
