data_PCOD9195714
_publ_section_title
;
Structure prediction by ZEFSAII (Michael W. Deem and Ramdas Pophale) SiO2 
 PCOD9195714
Probable space group: C 2/M
;
_chemical_formula_sum "Si O2"
_cell_formula_units_Z 64
_cell_length_a 15.810648
_cell_length_b 17.171073
_cell_length_c 22.889841
_cell_angle_alpha 90.000000
_cell_angle_beta 146.955765
_cell_angle_gamma 90.000000
_cell_volume 3388.554841
_symmetry_space_group_name_H-M "C 2/M"
_symmetry_group_IT_number 12
_symmetry_cell_setting 'monoclinic'
loop_
_space_group_symop_operation_xyz
x,y,z
-x,y,-z
-x,-y,-z
x,-y,z
1/2+x,1/2+y,z
1/2-x,1/2+y,-z
1/2-x,1/2-y,-z
1/2+x,1/2-y,z
loop_
_atom_site_type_symbol
_atom_site_label
_atom_site_fract_x
_atom_site_fract_y
_atom_site_fract_z
Si Si1 0.528015 0.590659 0.085725
Si Si2 0.927182 0.796621 0.217761
Si Si3 0.184142 0.295825 0.738134
Si Si4 0.418750 0.411309 0.605259
Si Si5 0.241123 0.156287 0.988199
Si Si6 0.039775 0.361589 0.227750
Si Si7 0.564323 0.913000 0.369631
Si Si8 0.126098 0.151393 0.623839
O O1 0.560658 0.500000 0.118547
O O2 0.669375 0.648036 0.182098
O O3 0.379254 0.619999 0.035559
O O4 0.500000 0.595641 0.000000
O O5 0.818842 0.750871 0.201723
O O6 0.827150 0.850342 0.116359
O O7 0.042335 0.849416 0.322188
O O8 0.018795 0.729447 0.235094
O O9 0.170339 0.233162 0.679342
O O10 0.031182 0.348938 0.651010
O O11 0.424549 0.500000 0.630118
O O12 0.247483 0.397435 0.480099
O O13 0.544432 0.399066 0.626955
O O14 0.250000 0.250000 0.000000
O O15 0.410069 0.124387 0.103382
O O16 0.010458 0.406728 0.271162
O O17 0.211936 0.380759 0.306432
O O18 0.533754 0.000000 0.373648
O O19 0.000000 0.160552 0.500000
#
# Coordination Sequence:
#
# PCOD9195714 Si02
#       8
#     8   8   8   8   8   8   8   8
#     4  11  22  37  59  88 120 151 189 235 287 337
#     4   9  20  36  59  82 110 152 189 230 279 345
#     4  10  21  35  57  83 113 149 187 235 283 342
#     4  10  22  38  56  80 113 153 190 233 289 340
#     4  10  20  37  58  84 115 150 192 232 279 337
#     4  10  20  35  58  84 110 143 188 238 282 329
#     4  10  20  35  55  79 110 148 188 232 284 338
#     4  11  22  36  58  86 113 146 192 243 286 333
#
# _framework density 18.887108000000001
#
# number of rings (size 3 to 8) (size 9 to 14) (size 15 to 20)
#    0.000    1.875    1.250    4.125    1.750    4.250 
#    0.000    1.875    0.000    1.500    0.000    0.000 
#    0.000    0.000    0.000    0.000    0.000    0.000 
#
# Total GULP energy -178582.381911 kJ/mol
# GULP energy per Si atom -5580.699435 kJ/mol
# Density = 1.884412 g / cm^3
# Si number density = 18.887108 Si / 1000 Ang^3
#
#
#
# Elastic Constant Matrix: (Units=GPa)
#
#
# Indices 1 2 3 4 5 6 
#
# 1 45.9142 7.1319 17.2882 0.0002 3.6293 0.0000
# 2 7.1319 62.9582 19.3976 0.0001 1.0263 -0.0001
# 3 17.2882 19.3976 92.9253 0.0001 -0.9363 -0.0003
# 4 0.0002 0.0001 0.0001 -116.8056 -0.0003 -41.1648
# 5 3.6293 1.0263 -0.9363 -0.0003 33.7100 -0.0002
# 6 0.0000 -0.0001 -0.0003 -41.1648 -0.0002 -5.7340
#
#
#
# Elastic Compliance Matrix: (Units=1/GPa)
#
#
# Indices 1 2 3 4 5 6 
#
# 1 0.023768 -0.001367 -0.004163 0.000000 -0.002633 0.000000
# 2 -0.001367 0.017067 -0.003313 0.000000 -0.000464 0.000000
# 3 -0.004163 -0.003313 0.012236 0.000000 0.000889 0.000000
# 4 0.000000 0.000000 0.000000 0.005595 0.000000 -0.040170
# 5 -0.002633 -0.000464 0.000889 0.000000 0.029987 0.000000
# 6 0.000000 0.000000 0.000000 -0.040170 0.000000 0.113982
#
#
# Mechanical properties :
#
#
# Convention : Reuss Voigt Hill
#
# Bulk Modulus (GPa) = 28.26050 32.15922 30.20986
# Shear Modulus (GPa) = 21.54098 -7.23393 7.15353
#
# Velocity S-wave (km/s) = 3.38081 -1.95918 1.94827
# Velocity P-wave (km/s) = 5.49865 3.45632 4.59246
#
# Compressibility (1/GPa) = 0.03538508
#
# Stress axis : x y z
#
# Youngs Moduli (GPa) = 42.07385 58.59365 81.72366
#
# Poissons Ratio (x) = 0.08009 0.34022
# Poissons Ratio (y) = 0.05751 0.27075
# Poissons Ratio (z) = 0.17516 0.19412
#
# Static dielectric constant tensor:
#      x y z
#    x 1.643590 0.000000 -0.006110 
#    y 0.000000 1.629440 0.000000 
#    z -0.006110 0.000000 1.655950 
# 
# From -- ./inp_files/340876.got.cif
#   From: 2010.05.17/outbox.cif.g08.bks.cpg/sg12_171_cif.got.tgz:340876.got - 2010.06.03 13:09:07.
