data_PCOD9195254
_publ_section_title
;
Structure prediction by ZEFSAII (Michael W. Deem and Ramdas Pophale) SiO2 
 PCOD9195254
Probable space group: C 2/M
;
_chemical_formula_sum "Si O2"
_cell_formula_units_Z 64
_cell_length_a 14.545643
_cell_length_b 8.178027
_cell_length_c 29.239930
_cell_angle_alpha 90.000000
_cell_angle_beta 89.525762
_cell_angle_gamma 90.000000
_cell_volume 3478.106822
_symmetry_space_group_name_H-M "C 2/M"
_symmetry_group_IT_number 12
_symmetry_cell_setting 'monoclinic'
loop_
_space_group_symop_operation_xyz
x,y,z
-x,y,-z
-x,-y,-z
x,-y,z
1/2+x,1/2+y,z
1/2-x,1/2+y,-z
1/2-x,1/2-y,-z
1/2+x,1/2-y,z
loop_
_atom_site_type_symbol
_atom_site_label
_atom_site_fract_x
_atom_site_fract_y
_atom_site_fract_z
Si Si1 0.586115 0.806653 0.751733
Si Si2 0.236706 0.300512 0.822654
Si Si3 0.249917 0.802600 0.073455
Si Si4 0.378851 0.306518 0.745435
Si Si5 0.395553 0.197560 0.997222
Si Si6 0.269070 0.693425 0.322808
Si Si7 0.895625 0.802616 0.502814
Si Si8 0.252165 0.697474 0.426700
O O1 0.752799 0.500000 0.074402
O O2 0.646236 0.747249 0.794978
O O3 0.486489 0.727787 0.747632
O O4 0.650877 0.774385 0.707699
O O5 0.072706 0.500000 0.756751
O O6 0.241801 0.242642 0.874678
O O7 0.324537 0.252533 0.791540
O O8 0.156753 0.750952 0.048400
O O9 0.265029 0.000000 0.176393
O O10 0.333048 0.745767 0.040221
O O11 0.363411 0.500000 0.740695
O O12 0.326481 0.223452 0.703356
O O13 0.396591 0.000000 0.998190
O O14 0.500000 0.256314 0.000000
O O15 0.287626 0.500000 0.323710
O O16 0.263478 0.755303 0.374768
O O17 0.841902 0.751083 0.548633
O O18 0.834043 0.745784 0.460028
O O19 0.000000 0.742889 0.500000
O O20 0.897181 0.000000 0.501422
O O21 0.253658 0.500000 0.426003
#
# Coordination Sequence:
#
# PCOD9195254 Si02
#       8
#     8   8   8   8   8   8   8   8
#     4  10  20  35  54  77 104 133 168 208 256 309
#     4   8  17  33  51  71  97 130 165 204 250 301
#     4   9  17  32  51  69  95 130 165 202 245 293
#     4  10  20  35  53  74 101 132 171 215 258 303
#     4   9  18  31  47  70  99 128 161 203 249 296
#     4  10  20  35  53  75 105 138 173 211 252 299
#     4   9  18  33  52  74 101 133 167 203 247 297
#     4   9  19  34  51  74 102 131 166 207 247 293
#
# _framework density 18.400815000000001
#
# number of rings (size 3 to 8) (size 9 to 14) (size 15 to 20)
#    0.000    2.750    0.000    1.875    0.000    3.500 
#    0.000    6.250    0.000    0.000    0.000    0.000 
#    0.000    0.000    0.000    0.000    0.000    0.000 
#
# Total GULP energy -178460.238990 kJ/mol
# GULP energy per Si atom -5576.882468 kJ/mol
# Density = 1.835893 g / cm^3
# Si number density = 18.400815 Si / 1000 Ang^3
#
#
#
# Elastic Constant Matrix: (Units=GPa)
#
#
# Indices 1 2 3 4 5 6 
#
# 1 124.3417 -4.0225 45.3173 0.0000 -2.0371 0.0000
# 2 -4.0225 8.8666 0.5843 0.0000 0.5651 0.0000
# 3 45.3173 0.5843 138.9281 0.0000 10.3269 0.0000
# 4 0.0000 0.0000 0.0000 21.5274 0.0000 0.1405
# 5 -2.0371 0.5651 10.3269 0.0000 8.4786 0.0000
# 6 0.0000 0.0000 0.0000 0.1405 0.0000 9.8873
#
#
#
# Elastic Compliance Matrix: (Units=1/GPa)
#
#
# Indices 1 2 3 4 5 6 
#
# 1 0.009607 0.004186 -0.003631 0.000000 0.006451 0.000000
# 2 0.004186 0.115090 -0.001489 0.000000 -0.004852 0.000000
# 3 -0.003631 -0.001489 0.009287 0.000000 -0.012084 0.000000
# 4 0.000000 0.000000 0.000000 0.046457 0.000000 -0.000660
# 5 0.006451 -0.004852 -0.012084 0.000000 0.134536 0.000000
# 6 0.000000 0.000000 0.000000 -0.000660 0.000000 0.101150
#
#
# Mechanical properties :
#
#
# Convention : Reuss Voigt Hill
#
# Bulk Modulus (GPa) = 7.56908 39.54386 23.55647
# Shear Modulus (GPa) = 10.82178 23.32914 17.07546
#
# Velocity S-wave (km/s) = 2.42774 3.56453 3.04957
# Velocity P-wave (km/s) = 3.46135 6.20307 5.02290
#
# Compressibility (1/GPa) = 0.13211639
#
# Stress axis : x y z
#
# Youngs Moduli (GPa) = 104.09344 8.68888 107.67932
#
# Poissons Ratio (x) = -0.03637 0.39096
# Poissons Ratio (y) = -0.43577 0.16033
# Poissons Ratio (z) = 0.37794 0.01294
#
# Static dielectric constant tensor:
#      x y z
#    x 1.610180 0.000000 0.003320 
#    y 0.000000 1.642310 0.000000 
#    z 0.003320 0.000000 1.626530 
# 
# From -- ./inp_files/359853.got.cif
#   From: 2010.05.17/outbox.cif.g08.bks.cpg/sg12_180_cif.got.tgz:359853.got - 2010.06.03 13:09:07.
