data_PCOD9195869
_publ_section_title
;
Structure prediction by ZEFSAII (Michael W. Deem and Ramdas Pophale) SiO2 
 PCOD9195869
Probable space group: C 2/M
;
_chemical_formula_sum "Si O2"
_cell_formula_units_Z 48
_cell_length_a 29.599708
_cell_length_b 9.055701
_cell_length_c 10.263771
_cell_angle_alpha 90.000000
_cell_angle_beta 117.871117
_cell_angle_gamma 90.000000
_cell_volume 2432.032696
_symmetry_space_group_name_H-M "C 2/M"
_symmetry_group_IT_number 12
_symmetry_cell_setting 'monoclinic'
loop_
_space_group_symop_operation_xyz
x,y,z
-x,y,-z
-x,-y,-z
x,-y,z
1/2+x,1/2+y,z
1/2-x,1/2+y,-z
1/2-x,1/2-y,-z
1/2+x,1/2-y,z
loop_
_atom_site_type_symbol
_atom_site_label
_atom_site_fract_x
_atom_site_fract_y
_atom_site_fract_z
Si Si1 0.755741 0.175146 0.716078
Si Si2 0.146094 0.330539 0.219665
Si Si3 0.040959 0.176904 0.450409
Si Si4 0.351854 0.177334 0.343871
Si Si5 0.816373 0.671181 0.006647
Si Si6 0.042379 0.823075 0.159366
O O1 0.797913 0.257411 0.685150
O O2 0.696670 0.220502 0.632230
O O3 0.759835 0.000000 0.704877
O O4 0.773877 0.221138 0.887664
O O5 0.147269 0.500000 0.264347
O O6 0.097906 0.247662 0.212926
O O7 0.142220 0.326038 0.055614
O O8 0.096075 0.247259 0.546053
O O9 0.023966 0.208413 0.280494
O O10 0.000000 0.231076 0.500000
O O11 0.045625 0.000000 0.470673
O O12 0.338530 0.213830 0.175467
O O13 0.356524 0.000000 0.357794
O O14 0.798089 0.500000 0.988281
O O15 0.047763 0.000000 0.151651
O O16 0.000000 0.770234 0.000000
#
# Coordination Sequence:
#
# PCOD9195869 Si02
#       6
#     8   8   8   8   8   8
#     4   9  17  30  53  85 118 154 194 235 280 336
#     4   9  19  34  55  85 117 147 190 236 279 335
#     4  10  24  42  59  85 116 147 190 239 288 343
#     4  10  20  35  55  83 119 156 192 234 286 340
#     4   8  17  31  50  82 120 151 189 234 277 330
#     4  10  22  41  63  85 112 148 192 239 287 341
#
# _framework density 19.736578000000002
#
# number of rings (size 3 to 8) (size 9 to 14) (size 15 to 20)
#    1.000    1.667    0.000    1.000    2.333    3.333 
#    0.000    0.833    0.000    0.000    0.000    0.000 
#    0.000    0.000    0.000    0.000    0.000    0.000 
#
# Total GULP energy -133767.652365 kJ/mol
# GULP energy per Si atom -5573.652182 kJ/mol
# Density = 1.969166 g / cm^3
# Si number density = 19.736578 Si / 1000 Ang^3
#
#
#
# Elastic Constant Matrix: (Units=GPa)
#
#
# Indices 1 2 3 4 5 6 
#
# 1 152.0909 49.9390 61.9951 0.0000 12.0169 0.0000
# 2 49.9390 30.9398 27.0357 0.0000 1.8463 0.0000
# 3 61.9951 27.0357 70.9154 0.0000 9.6537 0.0000
# 4 0.0000 0.0000 0.0000 20.4767 0.0000 7.5457
# 5 12.0169 1.8463 9.6537 0.0000 25.4484 0.0000
# 6 0.0000 0.0000 0.0000 7.5457 0.0000 9.7595
#
#
#
# Elastic Compliance Matrix: (Units=1/GPa)
#
#
# Indices 1 2 3 4 5 6 
#
# 1 0.015898 -0.020617 -0.005504 0.000000 -0.003923 0.000000
# 2 -0.020617 0.075532 -0.011970 0.000000 0.008796 0.000000
# 3 -0.005504 -0.011970 0.024257 0.000000 -0.005734 0.000000
# 4 0.000000 0.000000 0.000000 0.068294 0.000000 -0.052802
# 5 -0.003923 0.008796 -0.005734 0.000000 0.042685 0.000000
# 6 0.000000 0.000000 0.000000 -0.052802 0.000000 0.143288
#
#
# Mechanical properties :
#
#
# Convention : Reuss Voigt Hill
#
# Bulk Modulus (GPa) = 25.31274 59.09842 42.20558
# Shear Modulus (GPa) = 10.88600 18.80202 14.84401
#
# Velocity S-wave (km/s) = 2.35109 3.08985 2.74543
# Velocity P-wave (km/s) = 4.49703 6.53744 5.61077
#
# Compressibility (1/GPa) = 0.03950579
#
# Stress axis : x y z
#
# Youngs Moduli (GPa) = 62.90003 13.23935 41.22482
#
# Poissons Ratio (x) = 0.27295 0.22692
# Poissons Ratio (y) = 1.29680 0.49345
# Poissons Ratio (z) = 0.34623 0.15847
#
# Static dielectric constant tensor:
#      x y z
#    x 1.701850 0.000000 -0.045540 
#    y 0.000000 1.665760 0.000000 
#    z -0.045540 0.000000 1.724630 
# 
# From -- ./inp_files/180269.got.cif
#   From: 2010.05.17/outbox.cif.g08.bks.cpg/sg12_91_cif.got.tgz:180269.got - 2010.06.03 13:09:07.
