data_PCOD9195899
_publ_section_title
;
Structure prediction by ZEFSAII (Michael W. Deem and Ramdas Pophale) SiO2 
 PCOD9195899
Probable space group: C 2/M
;
_chemical_formula_sum "Si O2"
_cell_formula_units_Z 48
_cell_length_a 24.906689
_cell_length_b 8.619490
_cell_length_c 11.858776
_cell_angle_alpha 90.000000
_cell_angle_beta 68.333042
_cell_angle_gamma 90.000000
_cell_volume 2365.999796
_symmetry_space_group_name_H-M "C 2/M"
_symmetry_group_IT_number 12
_symmetry_cell_setting 'monoclinic'
loop_
_space_group_symop_operation_xyz
x,y,z
-x,y,-z
-x,-y,-z
x,-y,z
1/2+x,1/2+y,z
1/2-x,1/2+y,-z
1/2-x,1/2-y,-z
1/2+x,1/2-y,z
loop_
_atom_site_type_symbol
_atom_site_label
_atom_site_fract_x
_atom_site_fract_y
_atom_site_fract_z
Si Si1 0.729743 0.813891 0.636120
Si Si2 0.440841 0.185831 0.482260
Si Si3 0.878425 0.814756 0.155747
Si Si4 0.612191 0.687577 0.102365
Si Si5 0.835018 0.186287 0.705478
Si Si6 0.017651 0.685343 0.798631
O O1 0.750000 0.750000 0.500000
O O2 0.666916 0.757546 0.722378
O O3 0.775521 0.759051 0.695659
O O4 0.730142 0.000000 0.630711
O O5 0.500000 0.229319 0.500000
O O6 0.386901 0.266924 0.582096
O O7 0.450169 0.222116 0.344186
O O8 0.433580 0.000000 0.499285
O O9 0.942758 0.757667 0.135177
O O10 0.876415 0.000000 0.165562
O O11 0.863744 0.767198 0.038834
O O12 0.609991 0.500000 0.107747
O O13 0.648712 0.743450 0.181864
O O14 0.546838 0.749428 0.159603
O O15 0.832150 0.000000 0.713192
O O16 0.015054 0.500000 0.813502
#
# Coordination Sequence:
#
# PCOD9195899 Si02
#       6
#     8   8   8   8   8   8
#     4  11  24  43  65  90 119 154 198 246 295 352
#     4  10  20  35  55  85 120 151 189 239 294 346
#     4  11  24  41  61  86 119 160 201 243 296 353
#     4  10  22  40  60  86 121 158 197 244 298 354
#     4  10  22  39  61  88 118 155 199 244 292 350
#     4  11  22  37  60  89 122 158 199 248 297 351
#
# _framework density 20.287407000000002
#
# number of rings (size 3 to 8) (size 9 to 14) (size 15 to 20)
#    0.000    1.500    1.667    3.000    0.000    9.667 
#    0.000    0.000    0.000    0.000    0.000    0.000 
#    0.000    0.000    0.000    0.000    0.000    0.000 
#
# Total GULP energy -134174.668095 kJ/mol
# GULP energy per Si atom -5590.611171 kJ/mol
# Density = 2.024123 g / cm^3
# Si number density = 20.287407 Si / 1000 Ang^3
#
#
#
# Elastic Constant Matrix: (Units=GPa)
#
#
# Indices 1 2 3 4 5 6 
#
# 1 112.1644 14.8081 37.8051 0.0000 15.3022 0.0000
# 2 14.8081 18.7584 28.7209 0.0000 11.4215 0.0000
# 3 37.8051 28.7209 107.0717 0.0000 14.9359 0.0000
# 4 0.0000 0.0000 0.0000 23.9939 0.0000 -0.9726
# 5 15.3022 11.4215 14.9359 0.0000 28.9054 0.0000
# 6 0.0000 0.0000 0.0000 -0.9726 0.0000 26.9610
#
#
#
# Elastic Compliance Matrix: (Units=1/GPa)
#
#
# Indices 1 2 3 4 5 6 
#
# 1 0.010563 -0.002223 -0.002668 0.000000 -0.003335 0.000000
# 2 -0.002223 0.111525 -0.024946 0.000000 -0.030000 0.000000
# 3 -0.002668 -0.024946 0.016597 0.000000 0.002693 0.000000
# 4 0.000000 0.000000 0.000000 0.041738 0.000000 0.001506
# 5 -0.003335 -0.030000 0.002693 0.000000 0.046824 0.000000
# 6 0.000000 0.000000 0.000000 0.001506 0.000000 0.037145
#
#
# Mechanical properties :
#
#
# Convention : Reuss Voigt Hill
#
# Bulk Modulus (GPa) = 12.65630 44.51808 28.58719
# Shear Modulus (GPa) = 14.26928 26.41609 20.34268
#
# Velocity S-wave (km/s) = 2.65496 3.61237 3.17002
# Velocity P-wave (km/s) = 3.95607 6.27617 5.24599
#
# Compressibility (1/GPa) = 0.07901204
#
# Stress axis : x y z
#
# Youngs Moduli (GPa) = 94.66776 8.96661 60.25056
#
# Poissons Ratio (x) = 0.01993 0.16076
# Poissons Ratio (y) = 0.21043 1.50299
# Poissons Ratio (z) = 0.25260 0.22368
#
# Static dielectric constant tensor:
#      x y z
#    x 1.715090 0.000000 0.040110 
#    y 0.000000 1.688650 0.000000 
#    z 0.040110 0.000000 1.719770 
# 
# From -- ./inp_files/172425.got.cif
#   From: 2010.05.17/outbox.cif.g08.bks.cpg/sg12_87_cif.got.tgz:172425.got - 2010.06.03 13:09:07.
