data_PCOD9195360
_publ_section_title
;
Structure prediction by ZEFSAII (Michael W. Deem and Ramdas Pophale) SiO2 
 PCOD9195360
Probable space group: C 2/M
;
_chemical_formula_sum "Si O2"
_cell_formula_units_Z 56
_cell_length_a 12.561224
_cell_length_b 12.815998
_cell_length_c 28.786335
_cell_angle_alpha 90.000000
_cell_angle_beta 38.129542
_cell_angle_gamma 90.000000
_cell_volume 2861.321192
_symmetry_space_group_name_H-M "C 2/M"
_symmetry_group_IT_number 12
_symmetry_cell_setting 'monoclinic'
loop_
_space_group_symop_operation_xyz
x,y,z
-x,y,-z
-x,-y,-z
x,-y,z
1/2+x,1/2+y,z
1/2-x,1/2+y,-z
1/2-x,1/2-y,-z
1/2+x,1/2-y,z
loop_
_atom_site_type_symbol
_atom_site_label
_atom_site_fract_x
_atom_site_fract_y
_atom_site_fract_z
Si Si1 0.646025 0.123022 0.488828
Si Si2 0.425651 0.800038 0.886673
Si Si3 0.844588 0.620497 0.016057
Si Si4 0.610681 0.876232 0.244173
Si Si5 0.149266 0.882283 0.917006
Si Si6 0.483569 0.755155 0.377326
Si Si7 0.808996 0.622983 0.272103
O O1 0.500000 0.137587 0.500000
O O2 0.574673 0.166796 0.562069
O O3 0.816700 0.189301 0.418989
O O4 0.685407 0.000000 0.478566
O O5 0.415259 0.831202 0.943762
O O6 0.309074 0.881503 0.897332
O O7 0.608708 0.815223 0.799772
O O8 0.323143 0.690985 0.914077
O O9 0.792847 0.500000 0.026626
O O10 0.000000 0.619563 0.000000
O O11 0.775105 0.837391 0.156883
O O12 0.566421 0.818069 0.306350
O O13 0.444806 0.865458 0.267437
O O14 0.637117 0.000000 0.243010
O O15 0.092201 0.000000 0.925681
O O16 0.000000 0.833443 0.000000
O O17 0.627079 0.674477 0.346333
O O18 0.792075 0.500000 0.267280
#
# Coordination Sequence:
#
# PCOD9195360 Si02
#       7
#     8   8   8   8   8   8   8
#     4  10  22  40  60  85 117 148 180 223 280 347
#     4  10  20  35  54  74 106 147 185 229 285 335
#     4  10  21  36  54  78 108 145 193 244 289 335
#     4   9  19  35  55  82 114 145 187 240 280 321
#     4   9  17  31  53  79 108 147 192 234 280 331
#     4  11  21  36  61  87 112 147 186 228 281 337
#     4  10  21  37  56  80 111 146 185 227 275 337
#
# _framework density 19.571377999999999
#
# number of rings (size 3 to 8) (size 9 to 14) (size 15 to 20)
#    0.000    2.143    0.000    4.286    0.000    4.571 
#    0.000    2.857    0.000   15.000    0.000    0.000 
#    0.000    0.000    0.000    0.000    0.000    0.000 
#
# Total GULP energy -156225.613059 kJ/mol
# GULP energy per Si atom -5579.486181 kJ/mol
# Density = 1.952683 g / cm^3
# Si number density = 19.571378 Si / 1000 Ang^3
#
#
#
# Elastic Constant Matrix: (Units=GPa)
#
#
# Indices 1 2 3 4 5 6 
#
# 1 46.6700 30.1701 15.0455 0.0000 11.0284 0.0000
# 2 30.1701 119.6501 38.3484 0.0001 3.7102 0.0000
# 3 15.0455 38.3484 106.4164 0.0015 8.1042 -0.0006
# 4 0.0000 0.0001 0.0015 67.9730 -0.0003 -40.9630
# 5 11.0284 3.7102 8.1042 -0.0003 26.2052 0.0001
# 6 0.0000 0.0000 -0.0006 -40.9630 0.0001 57.0612
#
#
#
# Elastic Compliance Matrix: (Units=1/GPa)
#
#
# Indices 1 2 3 4 5 6 
#
# 1 0.028507 -0.006586 -0.000834 0.000000 -0.010807 0.000000
# 2 -0.006586 0.010973 -0.003191 0.000000 0.002205 0.000000
# 3 -0.000834 -0.003191 0.010859 0.000000 -0.002556 0.000000
# 4 0.000000 0.000000 0.000000 0.025929 0.000000 0.018614
# 5 -0.010807 0.002205 -0.002556 0.000000 0.043186 0.000000
# 6 0.000000 0.000000 0.000000 0.018614 0.000000 0.030888
#
#
# Mechanical properties :
#
#
# Convention : Reuss Voigt Hill
#
# Bulk Modulus (GPa) = 34.34354 48.87384 41.60869
# Shear Modulus (GPa) = 27.58318 42.85938 35.22128
#
# Velocity S-wave (km/s) = 3.75822 4.68471 4.24681
# Velocity P-wave (km/s) = 6.03475 7.36806 6.73449
#
# Compressibility (1/GPa) = 0.02911756
#
# Stress axis : x y z
#
# Youngs Moduli (GPa) = 35.07912 91.13585 92.08532
#
# Poissons Ratio (x) = 0.60019 0.07682
# Poissons Ratio (y) = 0.23102 0.29384
# Poissons Ratio (z) = 0.02926 0.29081
#
# Static dielectric constant tensor:
#      x y z
#    x 1.696230 0.000000 -0.028250 
#    y 0.000000 1.694720 0.000000 
#    z -0.028250 0.000000 1.703640 
# 
# From -- ./inp_files/358171.got.cif
#   From: 2010.05.17/outbox.cif.g08.bks.cpg/sg12_180_cif.got.tgz:358171.got - 2010.06.03 13:09:07.
