data_PCOD9195688
_publ_section_title
;
Structure prediction by ZEFSAII (Michael W. Deem and Ramdas Pophale) SiO2 
 PCOD9195688
Probable space group: C 2/M
;
_chemical_formula_sum "Si O2"
_cell_formula_units_Z 56
_cell_length_a 25.979727
_cell_length_b 12.451136
_cell_length_c 13.692287
_cell_angle_alpha 90.000000
_cell_angle_beta 43.464996
_cell_angle_gamma 90.000000
_cell_volume 3046.856435
_symmetry_space_group_name_H-M "C 2/M"
_symmetry_group_IT_number 12
_symmetry_cell_setting 'monoclinic'
loop_
_space_group_symop_operation_xyz
x,y,z
-x,y,-z
-x,-y,-z
x,-y,z
1/2+x,1/2+y,z
1/2-x,1/2+y,-z
1/2-x,1/2-y,-z
1/2+x,1/2-y,z
loop_
_atom_site_type_symbol
_atom_site_label
_atom_site_fract_x
_atom_site_fract_y
_atom_site_fract_z
Si Si1 0.817485 0.371208 0.290637
Si Si2 0.349723 0.627821 0.552445
Si Si3 0.414095 0.797365 0.325946
Si Si4 0.157923 0.682035 0.087851
Si Si5 0.444418 0.000000 0.424134
Si Si6 0.558250 0.125484 0.043075
Si Si7 0.826361 0.128411 0.807369
Si Si8 0.388277 0.000000 0.713983
O O1 0.819282 0.500000 0.303194
O O2 0.735763 0.344751 0.361146
O O3 0.841600 0.316334 0.358215
O O4 0.881502 0.346995 0.122421
O O5 0.358891 0.500000 0.528444
O O6 0.403720 0.693786 0.407402
O O7 0.358987 0.652307 0.654982
O O8 0.428010 0.896849 0.380166
O O9 0.484761 0.802588 0.155311
O O10 0.101001 0.639062 0.086293
O O11 0.139183 0.800549 0.153123
O O12 0.153173 0.604220 0.187605
O O13 0.240030 0.667739 0.928944
O O14 0.394064 0.000000 0.590264
O O15 0.528689 0.000000 0.351723
O O16 0.536174 0.000000 0.060479
O O17 0.829004 0.000000 0.818551
#
# Coordination Sequence:
#
# PCOD9195688 Si02
#       8
#     8   8   8   8   4   8   8   4
#     4  10  20  35  60  84 112 142 187 235 276 325
#     4  10  22  38  56  79 111 156 189 219 269 337
#     4  12  20  36  55  88 115 141 183 233 281 329
#     4  11  18  33  58  78 106 143 182 230 276 324
#     4  11  22  32  52  81 120 139 171 225 296 338
#     4  11  19  35  59  88 113 143 182 231 287 334
#     4  10  20  35  55  79 108 145 190 225 268 329
#     4  11  20  34  51  82 111 148 169 223 297 337
#
# _framework density 18.379598999999999
#
# number of rings (size 3 to 8) (size 9 to 14) (size 15 to 20)
#    0.000    1.286    5.714    1.714    0.000    1.143 
#    0.000    0.714    0.000    4.286    0.000    0.000 
#    0.000    0.000    0.000    0.000    0.000    0.000 
#
# Total GULP energy -156246.538589 kJ/mol
# GULP energy per Si atom -5580.233521 kJ/mol
# Density = 1.833777 g / cm^3
# Si number density = 18.379599 Si / 1000 Ang^3
#
#
#
# Elastic Constant Matrix: (Units=GPa)
#
#
# Indices 1 2 3 4 5 6 
#
# 1 33.7871 8.7448 6.2693 0.0000 14.2630 0.0000
# 2 8.7448 68.7160 32.9464 0.0000 10.7041 0.0000
# 3 6.2693 32.9464 67.8925 0.0000 6.0440 0.0000
# 4 0.0000 0.0000 0.0000 27.9361 0.0000 0.7248
# 5 14.2630 10.7041 6.0440 0.0000 24.7189 0.0000
# 6 0.0000 0.0000 0.0000 0.7248 0.0000 13.9805
#
#
#
# Elastic Compliance Matrix: (Units=1/GPa)
#
#
# Indices 1 2 3 4 5 6 
#
# 1 0.039359 -0.001017 -0.001184 0.000000 -0.021980 0.000000
# 2 -0.001017 0.019934 -0.009061 0.000000 -0.005830 0.000000
# 3 -0.001184 -0.009061 0.019244 0.000000 -0.000099 0.000000
# 4 0.000000 0.000000 0.000000 0.035844 0.000000 -0.001858
# 5 -0.021980 -0.005830 -0.000099 0.000000 0.055686 0.000000
# 6 0.000000 0.000000 0.000000 -0.001858 0.000000 0.071625
#
#
# Mechanical properties :
#
#
# Convention : Reuss Voigt Hill
#
# Bulk Modulus (GPa) = 17.85279 29.59075 23.72177
# Shear Modulus (GPa) = 17.67484 21.48945 19.58214
#
# Velocity S-wave (km/s) = 3.10442 3.42307 3.26763
# Velocity P-wave (km/s) = 4.75230 5.63542 5.21259
#
# Compressibility (1/GPa) = 0.05601366
#
# Stress axis : x y z
#
# Youngs Moduli (GPa) = 25.40721 50.16434 51.96363
#
# Poissons Ratio (x) = 0.05102 0.06153
# Poissons Ratio (y) = 0.02584 0.47083
# Poissons Ratio (z) = 0.03009 0.45453
#
# Static dielectric constant tensor:
#      x y z
#    x 1.658870 0.000000 -0.012770 
#    y 0.000000 1.619760 0.000000 
#    z -0.012770 0.000000 1.651220 
# 
# From -- ./inp_files/250556.got.cif
#   From: 2010.05.17/outbox.cif.g08.bks.cpg/sg12_126_cif.got.tgz:250556.got - 2010.06.03 13:09:07.
