data_PCOD9195231
_publ_section_title
;
Structure prediction by ZEFSAII (Michael W. Deem and Ramdas Pophale) SiO2 
 PCOD9195231
Probable space group: C 2/M
;
_chemical_formula_sum "Si O2"
_cell_formula_units_Z 64
_cell_length_a 18.770328
_cell_length_b 12.834545
_cell_length_c 17.522010
_cell_angle_alpha 90.000000
_cell_angle_beta 130.582320
_cell_angle_gamma 90.000000
_cell_volume 3205.886017
_symmetry_space_group_name_H-M "C 2/M"
_symmetry_group_IT_number 12
_symmetry_cell_setting 'monoclinic'
loop_
_space_group_symop_operation_xyz
x,y,z
-x,y,-z
-x,-y,-z
x,-y,z
1/2+x,1/2+y,z
1/2-x,1/2+y,-z
1/2-x,1/2-y,-z
1/2+x,1/2-y,z
loop_
_atom_site_type_symbol
_atom_site_label
_atom_site_fract_x
_atom_site_fract_y
_atom_site_fract_z
Si Si1 0.915668 0.118843 0.092792
Si Si2 0.070611 0.616838 0.312265
Si Si3 0.359846 0.387066 0.446890
Si Si4 0.371069 0.786689 0.182841
Si Si5 0.705288 0.818047 0.535445
Si Si6 0.683600 0.623156 0.128648
Si Si7 0.950087 0.110284 0.343401
Si Si8 0.871591 0.820313 0.742413
O O1 0.864226 0.210889 0.104110
O O2 0.025937 0.127218 0.189062
O O3 0.882129 0.000000 0.084256
O O4 0.898403 0.137032 0.990969
O O5 0.091046 0.500000 0.300206
O O6 0.118584 0.629154 0.430498
O O7 0.111127 0.706486 0.284492
O O8 0.958500 0.634687 0.234699
O O9 0.309462 0.500000 0.422882
O O10 0.318946 0.271824 0.420646
O O11 0.438672 0.382569 0.567817
O O12 0.408349 0.393847 0.398839
O O13 0.277145 0.838592 0.149561
O O14 0.408276 0.706282 0.271704
O O15 0.750000 0.750000 0.500000
O O16 0.790850 0.876860 0.635847
O O17 0.691921 0.500000 0.151943
O O18 0.661840 0.680565 0.192983
O O19 0.927843 0.000000 0.289360
#
# Coordination Sequence:
#
# PCOD9195231 Si02
#       8
#     8   8   8   8   8   8   8   8
#     4  10  22  40  63  88 114 147 194 248 294 336
#     4  10  22  39  57  82 119 158 191 229 283 350
#     4   9  17  31  51  78 113 150 185 229 276 321
#     4  11  20  37  60  88 119 153 188 232 291 352
#     4  10  20  35  52  82 113 152 191 229 276 337
#     4  11  23  40  62  88 115 148 191 244 300 345
#     4   9  17  30  54  83 112 148 188 228 275 329
#     4  10  22  39  62  84 114 154 198 242 286 342
#
# _framework density 19.963279
#
# number of rings (size 3 to 8) (size 9 to 14) (size 15 to 20)
#    0.000    2.000    1.250    3.375    0.000    4.000 
#    0.000    3.125    0.000    9.750    0.000    0.000 
#    0.000    0.000    0.000    0.000    0.000    0.000 
#
# Total GULP energy -178208.418658 kJ/mol
# GULP energy per Si atom -5569.013083 kJ/mol
# Density = 1.991784 g / cm^3
# Si number density = 19.963279 Si / 1000 Ang^3
#
#
#
# Elastic Constant Matrix: (Units=GPa)
#
#
# Indices 1 2 3 4 5 6 
#
# 1 71.5774 21.7394 16.4362 0.0000 -1.6257 0.0000
# 2 21.7394 107.9329 26.8332 0.0000 0.9813 0.0000
# 3 16.4362 26.8332 94.4294 0.0000 -9.0769 0.0000
# 4 0.0000 0.0000 0.0000 -24.3464 0.0000 -8.5148
# 5 -1.6257 0.9813 -9.0769 0.0000 29.9533 0.0000
# 6 0.0000 0.0000 0.0000 -8.5148 0.0000 -3.9060
#
#
#
# Elastic Compliance Matrix: (Units=1/GPa)
#
#
# Indices 1 2 3 4 5 6 
#
# 1 0.015198 -0.002598 -0.001874 0.000000 0.000342 0.000000
# 2 -0.002598 0.010457 -0.002643 0.000000 -0.001284 0.000000
# 3 -0.001874 -0.002643 0.012016 0.000000 0.003626 0.000000
# 4 0.000000 0.000000 0.000000 -0.172861 0.000000 0.376820
# 5 0.000342 -0.001284 0.003626 0.000000 0.034545 0.000000
# 6 0.000000 0.000000 0.000000 0.376820 0.000000 -1.077446
#
#
# Mechanical properties :
#
#
# Convention : Reuss Voigt Hill
#
# Bulk Modulus (GPa) = 42.66116 44.88412 43.77264
# Shear Modulus (GPa) = -4.32508 14.26890 4.97191
#
# Velocity S-wave (km/s) = -1.47351 2.67640 1.57985
# Velocity P-wave (km/s) = 4.30363 5.66418 5.03012
#
# Compressibility (1/GPa) = 0.02344053
#
# Stress axis : x y z
#
# Youngs Moduli (GPa) = 65.79738 95.62937 83.22490
#
# Poissons Ratio (x) = 0.24848 0.15597
# Poissons Ratio (y) = 0.17096 0.21994
# Poissons Ratio (z) = 0.12331 0.25272
#
# Static dielectric constant tensor:
#      x y z
#    x 1.554540 0.000000 0.022480 
#    y 0.000000 1.723100 0.000000 
#    z 0.022480 0.000000 1.741810 
# 
# From -- ./inp_files/283311.got.cif
#   From: 2010.05.17/outbox.cif.g08.bks.cpg/sg12_142_cif.got.tgz:283311.got - 2010.06.03 13:09:07.
