data_PCOD9195590
_publ_section_title
;
Structure prediction by ZEFSAII (Michael W. Deem and Ramdas Pophale) SiO2 
 PCOD9195590
Probable space group: C 2/M
;
_chemical_formula_sum "Si O2"
_cell_formula_units_Z 56
_cell_length_a 14.524539
_cell_length_b 7.783355
_cell_length_c 28.032676
_cell_angle_alpha 90.000000
_cell_angle_beta 118.919000
_cell_angle_gamma 90.000000
_cell_volume 2773.912606
_symmetry_space_group_name_H-M "C 2/M"
_symmetry_group_IT_number 12
_symmetry_cell_setting 'monoclinic'
loop_
_space_group_symop_operation_xyz
x,y,z
-x,y,-z
-x,-y,-z
x,-y,z
1/2+x,1/2+y,z
1/2-x,1/2+y,-z
1/2-x,1/2-y,-z
1/2+x,1/2-y,z
loop_
_atom_site_type_symbol
_atom_site_label
_atom_site_fract_x
_atom_site_fract_y
_atom_site_fract_z
Si Si1 0.723305 0.700378 0.858851
Si Si2 0.273393 0.789862 0.765286
Si Si3 0.165995 0.200411 0.548526
Si Si4 0.448408 0.300734 0.939128
Si Si5 0.122443 0.210219 0.643307
Si Si6 0.496684 0.199699 0.153205
Si Si7 0.607187 0.708645 0.431072
O O1 0.751662 0.500000 0.865000
O O2 0.723181 0.760200 0.803648
O O3 0.821843 0.789461 0.909118
O O4 0.611219 0.719741 0.855654
O O5 0.203799 0.729632 0.703574
O O6 0.394873 0.730942 0.796525
O O7 0.274963 0.000000 0.764315
O O8 0.147128 0.273757 0.596096
O O9 0.288941 0.217384 0.566865
O O10 0.106996 0.267702 0.486543
O O11 0.136056 0.000000 0.544108
O O12 0.479776 0.500000 0.943474
O O13 0.486312 0.216572 0.899349
O O14 0.500000 0.227685 0.000000
O O15 0.000874 0.255071 0.621733
O O16 0.128325 0.000000 0.644507
O O17 0.489453 0.000000 0.163797
O O18 0.616844 0.500000 0.433830
#
# Coordination Sequence:
#
# PCOD9195590 Si02
#       7
#     8   8   8   8   8   8   8
#     4  10  20  35  55  77 104 138 173 208 251 300
#     4   8  17  32  49  72  98 127 166 211 252 291
#     4   9  17  29  46  68  93 123 159 199 245 297
#     4  10  21  37  57  82 109 135 168 209 250 295
#     4   9  16  29  49  69  93 126 164 203 244 294
#     4  10  20  35  55  77 104 138 173 208 251 300
#     4   9  17  29  46  68  93 123 159 199 245 297
#
# _framework density 20.188089999999999
#
# number of rings (size 3 to 8) (size 9 to 14) (size 15 to 20)
#    0.000    2.714    0.000    2.571    0.000    4.571 
#    0.000    0.714    0.000   12.000    0.000    0.000 
#    0.000    0.000    0.000    0.000    0.000    0.000 
#
# Total GULP energy -156177.981289 kJ/mol
# GULP energy per Si atom -5577.785046 kJ/mol
# Density = 2.014214 g / cm^3
# Si number density = 20.188090 Si / 1000 Ang^3
#
#
#
# Elastic Constant Matrix: (Units=GPa)
#
#
# Indices 1 2 3 4 5 6 
#
# 1 102.5788 -7.6047 56.1894 0.0000 12.2662 0.0000
# 2 -7.6047 28.3965 -1.2943 0.0000 -0.7741 0.0000
# 3 56.1894 -1.2943 129.4756 0.0000 22.5379 0.0000
# 4 0.0000 0.0000 0.0000 7.8641 0.0000 3.7068
# 5 12.2662 -0.7741 22.5379 0.0000 14.1293 0.0000
# 6 0.0000 0.0000 0.0000 3.7068 0.0000 14.4967
#
#
#
# Elastic Compliance Matrix: (Units=1/GPa)
#
#
# Indices 1 2 3 4 5 6 
#
# 1 0.013174 0.003210 -0.005157 0.000000 -0.003036 0.000000
# 2 0.003210 0.036051 -0.001234 0.000000 0.001157 0.000000
# 3 -0.005157 -0.001234 0.012711 0.000000 -0.015866 0.000000
# 4 0.000000 0.000000 0.000000 0.144586 0.000000 -0.036971
# 5 -0.003036 0.001157 -0.015866 0.000000 0.098782 0.000000
# 6 0.000000 0.000000 0.000000 -0.036971 0.000000 0.078435
#
#
# Mechanical properties :
#
#
# Convention : Reuss Voigt Hill
#
# Bulk Modulus (GPa) = 17.99388 39.44798 28.72093
# Shear Modulus (GPa) = 12.23617 21.50871 16.87244
#
# Velocity S-wave (km/s) = 2.46460 3.26761 2.89409
# Velocity P-wave (km/s) = 4.12692 5.81541 5.04234
#
# Compressibility (1/GPa) = 0.05557444
#
# Stress axis : x y z
#
# Youngs Moduli (GPa) = 75.90501 27.73881 78.67257
#
# Poissons Ratio (x) = -0.08905 0.40570
# Poissons Ratio (y) = -0.24368 0.09709
# Poissons Ratio (z) = 0.39143 0.03423
#
# Static dielectric constant tensor:
#      x y z
#    x 1.690520 0.000000 0.003080 
#    y 0.000000 1.732280 0.000000 
#    z 0.003080 0.000000 1.715660 
# 
# From -- ./inp_files/359667.got.cif
#   From: 2010.05.17/outbox.cif.g08.bks.cpg/sg12_180_cif.got.tgz:359667.got - 2010.06.03 13:09:07.
