data_PCOD9195753
_publ_section_title
;
Structure prediction by ZEFSAII (Michael W. Deem and Ramdas Pophale) SiO2 
 PCOD9195753
Probable space group: C 2/M
;
_chemical_formula_sum "Si O2"
_cell_formula_units_Z 56
_cell_length_a 18.862309
_cell_length_b 12.710148
_cell_length_c 13.975332
_cell_angle_alpha 90.000000
_cell_angle_beta 117.864794
_cell_angle_gamma 90.000000
_cell_volume 2962.005719
_symmetry_space_group_name_H-M "C 2/M"
_symmetry_group_IT_number 12
_symmetry_cell_setting 'monoclinic'
loop_
_space_group_symop_operation_xyz
x,y,z
-x,y,-z
-x,-y,-z
x,-y,z
1/2+x,1/2+y,z
1/2-x,1/2+y,-z
1/2-x,1/2-y,-z
1/2+x,1/2-y,z
loop_
_atom_site_type_symbol
_atom_site_label
_atom_site_fract_x
_atom_site_fract_y
_atom_site_fract_z
Si Si1 0.761586 0.116509 0.703888
Si Si2 0.343189 0.242954 0.221714
Si Si3 0.833699 0.300878 0.524514
Si Si4 0.702179 0.119282 0.097361
Si Si5 0.053804 0.372990 0.865846
Si Si6 0.374401 0.185928 0.757704
Si Si7 0.404605 0.379008 0.440880
O O1 0.711911 0.153779 0.764513
O O2 0.694186 0.123229 0.577961
O O3 0.834610 0.197768 0.732999
O O4 0.793251 0.000000 0.731920
O O5 0.278556 0.309899 0.121470
O O6 0.413660 0.188634 0.206818
O O7 0.373868 0.321677 0.324793
O O8 0.750000 0.250000 0.500000
O O9 0.867819 0.350716 0.642874
O O10 0.882698 0.202997 0.511342
O O11 0.679374 0.129037 0.195749
O O12 0.722649 0.000000 0.087792
O O13 0.621980 0.146426 0.988564
O O14 0.047628 0.500000 0.847957
O O15 0.967298 0.328532 0.841410
O O16 0.500000 0.386039 0.500000
O O17 0.373064 0.500000 0.430795
#
# Coordination Sequence:
#
# PCOD9195753 Si02
#       7
#     8   8   8   8   8   8   8
#     4   9  19  35  54  76 105 142 176 211 263 323
#     4  10  20  36  56  78 108 140 178 221 263 317
#     4   9  19  33  51  79 109 139 176 213 256 317
#     4  10  21  37  57  79 104 140 184 225 266 312
#     4  11  22  36  56  80 106 139 179 225 274 316
#     4  10  20  35  55  80 110 139 176 223 267 314
#     4  10  20  35  56  82 113 144 175 217 266 317
#
# _framework density 18.906106999999999
#
# number of rings (size 3 to 8) (size 9 to 14) (size 15 to 20)
#    0.000    2.143    0.000    3.857    0.000    4.571 
#    0.000    3.571    0.000   13.286    0.000    0.000 
#    0.000    0.000    0.000    0.000    0.000    0.000 
#
# Total GULP energy -155995.509314 kJ/mol
# GULP energy per Si atom -5571.268190 kJ/mol
# Density = 1.886308 g / cm^3
# Si number density = 18.906107 Si / 1000 Ang^3
#
#
#
# Elastic Constant Matrix: (Units=GPa)
#
#
# Indices 1 2 3 4 5 6 
#
# 1 80.3261 16.1083 -12.3685 0.0000 4.5975 0.0000
# 2 16.1083 62.6141 5.0764 0.0000 6.4058 0.0000
# 3 -12.3685 5.0764 43.4371 0.0000 4.2640 0.0000
# 4 0.0000 0.0000 0.0000 6.4723 0.0000 8.3936
# 5 4.5975 6.4058 4.2640 0.0000 27.9316 0.0000
# 6 0.0000 0.0000 0.0000 8.3936 0.0000 17.9758
#
#
#
# Elastic Compliance Matrix: (Units=1/GPa)
#
#
# Indices 1 2 3 4 5 6 
#
# 1 0.014045 -0.003770 0.004652 0.000000 -0.002157 0.000000
# 2 -0.003770 0.017472 -0.002825 0.000000 -0.002955 0.000000
# 3 0.004652 -0.002825 0.025064 0.000000 -0.003944 0.000000
# 4 0.000000 0.000000 0.000000 0.391687 0.000000 -0.182893
# 5 -0.002157 -0.002955 -0.003944 0.000000 0.037437 0.000000
# 6 0.000000 0.000000 0.000000 -0.182893 0.000000 0.141030
#
#
# Mechanical properties :
#
#
# Convention : Reuss Voigt Hill
#
# Bulk Modulus (GPa) = 18.97749 22.66773 20.82261
# Shear Modulus (GPa) = 7.71385 22.31335 15.01360
#
# Velocity S-wave (km/s) = 2.02211 3.43916 2.82106
# Velocity P-wave (km/s) = 3.93846 5.27125 4.65282
#
# Compressibility (1/GPa) = 0.05269400
#
# Stress axis : x y z
#
# Youngs Moduli (GPa) = 71.20011 57.23430 39.89846
#
# Poissons Ratio (x) = 0.21575 -0.18559
# Poissons Ratio (y) = 0.26840 0.11272
# Poissons Ratio (z) = -0.33119 0.16170
#
# Static dielectric constant tensor:
#      x y z
#    x 1.619590 0.000000 -0.018000 
#    y 0.000000 1.662000 0.000000 
#    z -0.018000 0.000000 1.751920 
# 
# From -- ./inp_files/223345.got.cif
#   From: 2010.05.17/outbox.cif.g08.bks.cpg/sg12_112_cif.got.tgz:223345.got - 2010.06.03 13:09:07.
