data_PCOD9195908
_publ_section_title
;
Structure prediction by ZEFSAII (Michael W. Deem and Ramdas Pophale) SiO2 
 PCOD9195908
Probable space group: C 2/M
;
_chemical_formula_sum "Si O2"
_cell_formula_units_Z 56
_cell_length_a 22.593525
_cell_length_b 14.288611
_cell_length_c 8.929156
_cell_angle_alpha 90.000000
_cell_angle_beta 113.015173
_cell_angle_gamma 90.000000
_cell_volume 2653.149141
_symmetry_space_group_name_H-M "C 2/M"
_symmetry_group_IT_number 12
_symmetry_cell_setting 'monoclinic'
loop_
_space_group_symop_operation_xyz
x,y,z
-x,y,-z
-x,-y,-z
x,-y,z
1/2+x,1/2+y,z
1/2-x,1/2+y,-z
1/2-x,1/2-y,-z
1/2+x,1/2-y,z
loop_
_atom_site_type_symbol
_atom_site_label
_atom_site_fract_x
_atom_site_fract_y
_atom_site_fract_z
Si Si1 0.835596 0.609060 0.414789
Si Si2 0.406460 0.102454 0.796679
Si Si3 0.621469 0.234639 0.784029
Si Si4 0.311709 0.613705 0.700568
Si Si5 0.672526 0.608646 0.631628
Si Si6 0.565242 0.711692 0.035046
Si Si7 0.301016 0.896845 0.946423
O O1 0.833697 0.500000 0.378083
O O2 0.860525 0.616520 0.608867
O O3 0.886120 0.657901 0.353856
O O4 0.761472 0.644403 0.332554
O O5 0.442839 0.198600 0.862527
O O6 0.362948 0.096572 0.901822
O O7 0.439322 0.000000 0.810878
O O8 0.630335 0.328255 0.698045
O O9 0.573455 0.255476 0.871620
O O10 0.684054 0.188330 0.928376
O O11 0.313742 0.500000 0.715396
O O12 0.324516 0.638088 0.538673
O O13 0.368154 0.660236 0.853963
O O14 0.653650 0.500000 0.616517
O O15 0.742445 0.617100 0.776184
O O16 0.500000 0.654117 0.000000
O O17 0.291362 0.000000 0.009619
#
# Coordination Sequence:
#
# PCOD9195908 Si02
#       7
#     8   8   8   8   8   8   8
#     4  10  20  36  62  97 124 145 185 239 305 369
#     4   9  18  36  61  87 117 155 191 232 289 354
#     4  11  23  34  56  88 120 154 189 241 304 340
#     4  10  22  40  63  87 118 158 193 239 297 355
#     4  10  20  35  55  86 120 149 187 231 289 360
#     4  11  26  43  58  81 116 164 212 242 280 343
#     4   9  17  31  51  83 123 150 175 220 287 361
#
# _framework density 21.106992999999999
#
# number of rings (size 3 to 8) (size 9 to 14) (size 15 to 20)
#    0.000    2.000    1.429    1.714    6.000    2.857 
#    0.000    2.857    0.000    3.429    0.000    0.000 
#    0.000    0.000    0.000    0.000    0.000    0.000 
#
# Total GULP energy -156060.549658 kJ/mol
# GULP energy per Si atom -5573.591059 kJ/mol
# Density = 2.105895 g / cm^3
# Si number density = 21.106993 Si / 1000 Ang^3
#
#
#
# Elastic Constant Matrix: (Units=GPa)
#
#
# Indices 1 2 3 4 5 6 
#
# 1 57.0793 18.2299 25.3818 0.0000 -13.3641 0.0000
# 2 18.2299 63.7404 25.8145 0.0000 -12.9788 0.0000
# 3 25.3818 25.8145 94.0080 0.0000 -26.2164 0.0000
# 4 0.0000 0.0000 0.0000 43.8174 0.0000 -6.4086
# 5 -13.3641 -12.9788 -26.2164 0.0000 28.1071 0.0000
# 6 0.0000 0.0000 0.0000 -6.4086 0.0000 2.7716
#
#
#
# Elastic Compliance Matrix: (Units=1/GPa)
#
#
# Indices 1 2 3 4 5 6 
#
# 1 0.021421 -0.003702 -0.003248 0.000000 0.005446 0.000000
# 2 -0.003702 0.018807 -0.003019 0.000000 0.004108 0.000000
# 3 -0.003248 -0.003019 0.015575 0.000000 0.011589 0.000000
# 4 0.000000 0.000000 0.000000 0.034483 0.000000 0.079733
# 5 0.005446 0.004108 0.011589 0.000000 0.050874 0.000000
# 6 0.000000 0.000000 0.000000 0.079733 0.000000 0.545156
#
#
# Mechanical properties :
#
#
# Convention : Reuss Voigt Hill
#
# Bulk Modulus (GPa) = 27.88297 39.29779 33.59038
# Shear Modulus (GPa) = 6.96175 24.63266 15.79720
#
# Velocity S-wave (km/s) = 1.81810 3.41990 2.73872
# Velocity P-wave (km/s) = 4.20075 5.85261 5.09408
#
# Compressibility (1/GPa) = 0.03586419
#
# Stress axis : x y z
#
# Youngs Moduli (GPa) = 46.68224 53.17273 64.20391
#
# Poissons Ratio (x) = 0.19685 0.20856
# Poissons Ratio (y) = 0.17282 0.19384
# Poissons Ratio (z) = 0.15164 0.16054
#
# Static dielectric constant tensor:
#      x y z
#    x 1.767890 0.000000 0.006920 
#    y 0.000000 1.843700 0.000000 
#    z 0.006920 0.000000 1.760750 
# 
# From -- ./inp_files/86333.got.cif
#   From: 2010.05.17/outbox.cif.g08.bks.cpg/sg12_44_cif.got.tgz:86333.got - 2010.06.03 13:09:07.
