data_PCOD9195772
_publ_section_title
;
Structure prediction by ZEFSAII (Michael W. Deem and Ramdas Pophale) SiO2 
 PCOD9195772
Probable space group: C 2/M
;
_chemical_formula_sum "Si O2"
_cell_formula_units_Z 56
_cell_length_a 19.562276
_cell_length_b 7.513314
_cell_length_c 26.021019
_cell_angle_alpha 90.000000
_cell_angle_beta 39.679936
_cell_angle_gamma 90.000000
_cell_volume 2441.940057
_symmetry_space_group_name_H-M "C 2/M"
_symmetry_group_IT_number 12
_symmetry_cell_setting 'monoclinic'
loop_
_space_group_symop_operation_xyz
x,y,z
-x,y,-z
-x,-y,-z
x,-y,z
1/2+x,1/2+y,z
1/2-x,1/2+y,-z
1/2-x,1/2-y,-z
1/2+x,1/2-y,z
loop_
_atom_site_type_symbol
_atom_site_label
_atom_site_fract_x
_atom_site_fract_y
_atom_site_fract_z
Si Si1 0.830719 0.286237 0.500157
Si Si2 0.074712 0.717214 0.349073
Si Si3 0.472854 0.784466 0.180597
Si Si4 0.469303 0.796864 0.071638
Si Si5 0.729330 0.211227 0.351943
Si Si6 0.695751 0.212714 0.086149
Si Si7 0.243933 0.715761 0.169415
O O1 0.836338 0.500000 0.500313
O O2 0.750000 0.250000 0.500000
O O3 0.791256 0.218526 0.578669
O O4 0.952246 0.221735 0.421174
O O5 0.073540 0.500000 0.351667
O O6 0.147530 0.778822 0.355324
O O7 0.135047 0.764524 0.261417
O O8 0.501514 0.715416 0.106902
O O9 0.353591 0.734882 0.265464
O O10 0.572065 0.726276 0.157917
O O11 0.474077 0.000000 0.177528
O O12 0.341223 0.794807 0.145224
O O13 0.509986 0.000000 0.046995
O O14 0.500000 0.708983 0.000000
O O15 0.709733 0.000000 0.364898
O O16 0.751033 0.277840 0.106310
O O17 0.694202 0.000000 0.091655
O O18 0.750000 0.250000 0.000000
O O19 0.253891 0.500000 0.165527
#
# Coordination Sequence:
#
# PCOD9195772 Si02
#       7
#     8   8   8   8   8   8   8
#     4  10  22  38  60  88 115 147 183 224 276 332
#     4   9  18  36  60  83 111 145 183 227 272 322
#     4  10  21  36  56  82 113 149 185 225 281 337
#     4  10  20  35  55  80 111 146 182 225 278 330
#     4  10  20  37  60  85 111 145 190 229 270 327
#     4  10  22  38  56  80 110 148 192 231 280 335
#     4  10  20  35  57  83 107 142 189 229 269 324
#
# _framework density 22.932583999999999
#
# number of rings (size 3 to 8) (size 9 to 14) (size 15 to 20)
#    0.000    2.143    1.429    1.286    2.000    4.857 
#    0.000    1.429    0.000    1.714    0.000    0.000 
#    0.000    0.000    0.000    0.000    0.000    0.000 
#
# Total GULP energy -156380.081413 kJ/mol
# GULP energy per Si atom -5585.002908 kJ/mol
# Density = 2.288039 g / cm^3
# Si number density = 22.932584 Si / 1000 Ang^3
#
#
#
# Elastic Constant Matrix: (Units=GPa)
#
#
# Indices 1 2 3 4 5 6 
#
# 1 120.9397 5.1523 30.2624 0.0000 -1.5925 0.0012
# 2 5.1523 65.0665 0.5715 0.0004 3.7433 0.0002
# 3 30.2624 0.5715 113.8786 0.0000 1.6377 0.0006
# 4 0.0000 0.0004 0.0000 10.6221 0.0000 -7.4676
# 5 -1.5925 3.7433 1.6377 0.0000 43.1362 -0.0002
# 6 0.0012 0.0002 0.0006 -7.4676 -0.0002 15.8589
#
#
#
# Elastic Compliance Matrix: (Units=1/GPa)
#
#
# Indices 1 2 3 4 5 6 
#
# 1 0.008898 -0.000711 -0.002368 -0.000001 0.000480 -0.000001
# 2 -0.000711 0.015503 0.000131 -0.000001 -0.001377 -0.000001
# 3 -0.002368 0.000131 0.009416 0.000000 -0.000456 0.000000
# 4 -0.000001 -0.000001 0.000000 0.140732 0.000000 0.066268
# 5 0.000480 -0.001377 -0.000456 0.000000 0.023337 0.000000
# 6 -0.000001 -0.000001 0.000000 0.066268 0.000000 0.094260
#
#
# Mechanical properties :
#
#
# Convention : Reuss Voigt Hill
#
# Bulk Modulus (GPa) = 35.81528 41.31745 38.56637
# Shear Modulus (GPa) = 16.26810 31.51667 23.89239
#
# Velocity S-wave (km/s) = 2.66632 3.71120 3.23128
# Velocity P-wave (km/s) = 5.01304 6.03490 5.54755
#
# Compressibility (1/GPa) = 0.02792104
#
# Stress axis : x y z
#
# Youngs Moduli (GPa) = 112.38849 64.50251 106.19748
#
# Poissons Ratio (x) = 0.04589 0.25146
# Poissons Ratio (y) = 0.07995 -0.01392
# Poissons Ratio (z) = 0.26612 -0.00845
#
# Static dielectric constant tensor:
#      x y z
#    x 1.834550 0.000000 0.018240 
#    y 0.000000 1.901210 0.000000 
#    z 0.018240 0.000000 1.852200 
# 
# From -- ./inp_files/342303.got.cif
#   From: 2010.05.17/outbox.cif.g08.bks.cpg/sg12_172_cif.got.tgz:342303.got - 2010.06.03 13:09:07.
