data_PCOD9195862
_publ_section_title
;
Structure prediction by ZEFSAII (Michael W. Deem and Ramdas Pophale) SiO2 
 PCOD9195862
Probable space group: C 2/M
;
_chemical_formula_sum "Si O2"
_cell_formula_units_Z 40
_cell_length_a 15.322805
_cell_length_b 8.302660
_cell_length_c 30.984893
_cell_angle_alpha 90.000000
_cell_angle_beta 29.992680
_cell_angle_gamma 90.000000
_cell_volume 1970.513511
_symmetry_space_group_name_H-M "C 2/M"
_symmetry_group_IT_number 12
_symmetry_cell_setting 'monoclinic'
loop_
_space_group_symop_operation_xyz
x,y,z
-x,y,-z
-x,-y,-z
x,-y,z
1/2+x,1/2+y,z
1/2-x,1/2+y,-z
1/2-x,1/2-y,-z
1/2+x,1/2-y,z
loop_
_atom_site_type_symbol
_atom_site_label
_atom_site_fract_x
_atom_site_fract_y
_atom_site_fract_z
Si Si1 0.391981 0.819306 0.406808
Si Si2 0.702897 0.196889 0.221312
Si Si3 0.793749 0.313920 0.592961
Si Si4 0.517205 0.807275 0.768658
Si Si5 0.427879 0.306955 0.902033
O O1 0.250000 0.750000 0.500000
O O2 0.578477 0.743769 0.314024
O O3 0.295294 0.807965 0.402204
O O4 0.425801 0.000000 0.407213
O O5 0.616602 0.243673 0.212540
O O6 0.900811 0.247311 0.144495
O O7 0.696389 0.000000 0.225238
O O8 0.752321 0.500000 0.599205
O O9 0.703062 0.274150 0.677202
O O10 0.000000 0.295577 0.500000
O O11 0.448974 0.755931 0.844359
O O12 0.535119 0.000000 0.759550
O O13 0.429635 0.500000 0.900327
O O14 0.250000 0.250000 0.000000
#
# Coordination Sequence:
#
# PCOD9195862 Si02
#       5
#     8   8   8   8   8
#     4  10  20  35  55  83 115 154 197 241 290 349
#     4   8  19  39  60  80 116 159 193 233 297 360
#     4  10  21  36  55  82 117 158 196 236 292 354
#     4  10  21  40  62  87 117 154 198 247 296 354
#     4  11  23  41  63  89 117 154 198 246 300 360
#
# _framework density 20.299278000000001
#
# number of rings (size 3 to 8) (size 9 to 14) (size 15 to 20)
#    0.000    2.200    0.000    3.600    2.800    2.400 
#    0.000   15.000    0.000    0.000    0.000    0.000 
#    0.000    0.000    0.000    0.000    0.000    0.000 
#
# Total GULP energy -111549.562890 kJ/mol
# GULP energy per Si atom -5577.478145 kJ/mol
# Density = 2.025308 g / cm^3
# Si number density = 20.299278 Si / 1000 Ang^3
#
#
#
# Elastic Constant Matrix: (Units=GPa)
#
#
# Indices 1 2 3 4 5 6 
#
# 1 75.6359 13.7615 68.3819 -0.0003 0.9678 -0.0012
# 2 13.7615 42.1704 33.4545 -0.0011 -4.9621 -0.0026
# 3 68.3819 33.4545 201.8826 -0.0004 -1.6840 -0.0002
# 4 -0.0003 -0.0011 -0.0004 32.8011 -0.0001 5.1027
# 5 0.9678 -4.9621 -1.6840 -0.0001 37.7252 -0.0003
# 6 -0.0012 -0.0026 -0.0002 5.1027 -0.0003 24.2952
#
#
#
# Elastic Compliance Matrix: (Units=1/GPa)
#
#
# Indices 1 2 3 4 5 6 
#
# 1 0.019150 -0.001392 -0.006264 0.000000 -0.000954 0.000001
# 2 -0.001392 0.027844 -0.004113 0.000000 0.003515 0.000003
# 3 -0.006264 -0.004113 0.007756 0.000000 -0.000034 -0.000001
# 4 0.000000 0.000000 0.000000 0.031517 0.000000 -0.006619
# 5 -0.000954 0.003515 -0.000034 0.000000 0.026993 0.000001
# 6 0.000001 0.000003 -0.000001 -0.006619 0.000001 0.042551
#
#
# Mechanical properties :
#
#
# Convention : Reuss Voigt Hill
#
# Bulk Modulus (GPa) = 32.03905 61.20941 46.62423
# Shear Modulus (GPa) = 26.35012 32.57037 29.46024
#
# Velocity S-wave (km/s) = 3.60680 4.00998 3.81372
# Velocity P-wave (km/s) = 5.75873 7.18741 6.51236
#
# Compressibility (1/GPa) = 0.03121192
#
# Stress axis : x y z
#
# Youngs Moduli (GPa) = 52.22024 35.91397 128.92709
#
# Poissons Ratio (x) = 0.05000 0.80755
# Poissons Ratio (y) = 0.07271 0.53031
# Poissons Ratio (z) = 0.32709 0.14772
#
# Static dielectric constant tensor:
#      x y z
#    x 1.725370 0.000000 0.000570 
#    y 0.000000 1.736140 0.000000 
#    z 0.000570 0.000000 1.748000 
# 
# From -- ./inp_files/211446.got.cif
#   From: 2010.05.17/outbox.cif.g08.bks.cpg/sg12_106_cif.got.tgz:211446.got - 2010.06.03 13:09:07.
