data_PCOD9195021
_publ_section_title
;
Structure prediction by ZEFSAII (Michael W. Deem and Ramdas Pophale) SiO2 
 PCOD9195021
Probable space group: C 2/M
;
_chemical_formula_sum "Si O2"
_cell_formula_units_Z 44
_cell_length_a 13.003534
_cell_length_b 15.689704
_cell_length_c 9.925228
_cell_angle_alpha 90.000000
_cell_angle_beta 109.625157
_cell_angle_gamma 90.000000
_cell_volume 1907.331064
_symmetry_space_group_name_H-M "C 2/M"
_symmetry_group_IT_number 12
_symmetry_cell_setting 'monoclinic'
loop_
_space_group_symop_operation_xyz
x,y,z
-x,y,-z
-x,-y,-z
x,-y,z
1/2+x,1/2+y,z
1/2-x,1/2+y,-z
1/2-x,1/2-y,-z
1/2+x,1/2-y,z
loop_
_atom_site_type_symbol
_atom_site_label
_atom_site_fract_x
_atom_site_fract_y
_atom_site_fract_z
Si Si1 0.410836 0.680505 0.576572
Si Si2 0.623172 0.158619 0.068557
Si Si3 0.831710 0.401251 0.205690
Si Si4 0.682277 0.868808 0.390031
Si Si5 0.089718 0.855909 0.137040
Si Si6 0.000000 0.379098 0.500000
O O1 0.500000 0.689570 0.500000
O O2 0.358853 0.772022 0.593578
O O3 0.307965 0.624277 0.485645
O O4 0.461473 0.648328 0.737314
O O5 0.671990 0.118789 0.225854
O O6 0.615655 0.260260 0.092624
O O7 0.500000 0.126365 0.000000
O O8 0.674356 0.136865 0.947461
O O9 0.868003 0.500000 0.218397
O O10 0.708061 0.397487 0.203536
O O11 0.915726 0.350023 0.339726
O O12 0.595410 0.916050 0.445983
O O13 0.000000 0.895292 0.000000
#
# Coordination Sequence:
#
# PCOD9195021 Si02
#       6
#     8   8   8   8   8   4
#     4  10  20  34  59  96 129 161 205 263 329 373
#     4  10  21  39  63  95 124 160 208 267 324 378
#     4  12  26  43  63  90 131 177 215 261 319 385
#     4  10  20  34  60  92 129 163 203 268 316 382
#     4  10  23  40  65  96 125 164 212 271 321 377
#     4  12  21  42  62  92 128 170 217 258 317 380
#
# _framework density 23.068885999999999
#
# number of rings (size 3 to 8) (size 9 to 14) (size 15 to 20)
#    0.000    1.455    4.545    0.818    2.545    0.727 
#    0.000    0.000    0.000    0.545    0.000    0.000 
#    0.000    0.000    0.000    0.000    0.000    0.000 
#
# Total GULP energy -122624.803338 kJ/mol
# GULP energy per Si atom -5573.854697 kJ/mol
# Density = 2.301638 g / cm^3
# Si number density = 23.068886 Si / 1000 Ang^3
#
#
#
# Elastic Constant Matrix: (Units=GPa)
#
#
# Indices 1 2 3 4 5 6 
#
# 1 106.3560 2.2090 73.7834 0.0000 -3.0913 0.0000
# 2 2.2090 40.0732 29.8435 0.0000 1.9629 0.0000
# 3 73.7834 29.8435 223.0891 0.0000 -14.9476 0.0000
# 4 0.0000 0.0000 0.0000 -12.3365 0.0000 -16.6112
# 5 -3.0913 1.9629 -14.9476 0.0000 52.8722 0.0000
# 6 0.0000 0.0000 0.0000 -16.6112 0.0000 -30.7633
#
#
#
# Elastic Compliance Matrix: (Units=1/GPa)
#
#
# Indices 1 2 3 4 5 6 
#
# 1 0.012471 0.002720 -0.004532 0.000000 -0.000653 0.000000
# 2 0.002720 0.028543 -0.004870 0.000000 -0.002278 0.000000
# 3 -0.004532 -0.004870 0.006755 0.000000 0.001826 0.000000
# 4 0.000000 0.000000 0.000000 -0.297003 0.000000 0.160372
# 5 -0.000653 -0.002278 0.001826 0.000000 0.019476 0.000000
# 6 0.000000 0.000000 0.000000 0.160372 0.000000 -0.119102
#
#
# Mechanical properties :
#
#
# Convention : Reuss Voigt Hill
#
# Bulk Modulus (GPa) = 29.06661 64.57669 46.82165
# Shear Modulus (GPa) = -15.43088 19.53329 2.05120
#
# Velocity S-wave (km/s) = -2.58912 2.91303 0.94398
# Velocity P-wave (km/s) = 1.92073 6.27440 4.63990
#
# Compressibility (1/GPa) = 0.03440374
#
# Stress axis : x y z
#
# Youngs Moduli (GPa) = 80.18541 35.03474 148.03099
#
# Poissons Ratio (x) = -0.09529 0.67091
# Poissons Ratio (y) = -0.21809 0.72098
# Poissons Ratio (z) = 0.36342 0.17064
#
# Static dielectric constant tensor:
#      x y z
#    x 1.914070 0.000000 -0.053460 
#    y 0.000000 2.045170 0.000000 
#    z -0.053460 0.000000 1.870500 
# 
# From -- ./inp_files/63705.got.cif
#   From: 2010.05.17/outbox.cif.g08.bks.cpg/sg12_32_cif.got.tgz:63705.got - 2010.06.03 13:09:07.
