data_PCOD9195690
_publ_section_title
;
Structure prediction by ZEFSAII (Michael W. Deem and Ramdas Pophale) SiO2 
 PCOD9195690
Probable space group: C 2/M
;
_chemical_formula_sum "Si O2"
_cell_formula_units_Z 56
_cell_length_a 16.369817
_cell_length_b 7.497594
_cell_length_c 22.875872
_cell_angle_alpha 90.000000
_cell_angle_beta 60.195326
_cell_angle_gamma 90.000000
_cell_volume 2436.270273
_symmetry_space_group_name_H-M "C 2/M"
_symmetry_group_IT_number 12
_symmetry_cell_setting 'monoclinic'
loop_
_space_group_symop_operation_xyz
x,y,z
-x,y,-z
-x,-y,-z
x,-y,z
1/2+x,1/2+y,z
1/2-x,1/2+y,-z
1/2-x,1/2-y,-z
1/2+x,1/2-y,z
loop_
_atom_site_type_symbol
_atom_site_label
_atom_site_fract_x
_atom_site_fract_y
_atom_site_fract_z
Si Si1 0.081674 0.293622 0.430891
Si Si2 0.295794 0.718986 0.355067
Si Si3 0.341207 0.212409 0.928699
Si Si4 0.635146 0.784795 0.212269
Si Si5 0.476687 0.705330 0.352316
Si Si6 0.026389 0.797377 0.928594
Si Si7 0.318489 0.717878 0.215730
O O1 0.091516 0.500000 0.445683
O O2 0.187435 0.220217 0.399267
O O3 0.000000 0.211480 0.500000
O O4 0.040467 0.291730 0.379868
O O5 0.296328 0.500000 0.355518
O O6 0.372403 0.777782 0.375749
O O7 0.330311 0.774849 0.278200
O O8 0.335860 0.270662 0.863199
O O9 0.430987 0.301047 0.926132
O O10 0.356473 0.000000 0.923368
O O11 0.250000 0.250000 0.000000
O O12 0.536113 0.715697 0.271152
O O13 0.716399 0.729809 0.228282
O O14 0.630544 0.000000 0.214549
O O15 0.466970 0.500000 0.373228
O O16 0.104927 0.717386 0.858260
O O17 0.059776 0.000000 0.930477
O O18 0.000000 0.711664 0.000000
O O19 0.322957 0.500000 0.214486
#
# Coordination Sequence:
#
# PCOD9195690 Si02
#       7
#     8   8   8   8   8   8   8
#     4  10  21  40  64  86 115 160 205 241 286 358
#     4   9  18  34  57  84 115 153 195 236 291 356
#     4  11  23  37  55  81 114 151 194 248 300 350
#     4  10  20  37  60  83 112 154 199 240 286 350
#     4  11  22  36  59  91 122 152 191 247 304 350
#     4  10  20  35  55  79 108 148 196 238 292 366
#     4   9  16  31  57  79 104 147 192 237 284 344
#
# _framework density 22.985956999999999
#
# number of rings (size 3 to 8) (size 9 to 14) (size 15 to 20)
#    0.000    2.000    1.429    2.571    0.000    5.714 
#    0.000    2.143    0.000    0.000    0.000    0.000 
#    0.000    0.000    0.000    0.000    0.000    0.000 
#
# Total GULP energy -156425.779265 kJ/mol
# GULP energy per Si atom -5586.634974 kJ/mol
# Density = 2.293364 g / cm^3
# Si number density = 22.985957 Si / 1000 Ang^3
#
#
#
# Elastic Constant Matrix: (Units=GPa)
#
#
# Indices 1 2 3 4 5 6 
#
# 1 127.3005 -7.3832 29.2251 0.0002 -30.6850 0.0005
# 2 -7.3832 64.5867 -5.6859 0.0004 -2.7420 0.0009
# 3 29.2251 -5.6859 113.6209 0.0001 -30.8193 0.0001
# 4 0.0002 0.0004 0.0001 3.6213 0.0001 1.7313
# 5 -30.6850 -2.7420 -30.8193 0.0001 35.6891 0.0002
# 6 0.0005 0.0009 0.0001 1.7313 0.0002 12.0942
#
#
#
# Elastic Compliance Matrix: (Units=1/GPa)
#
#
# Indices 1 2 3 4 5 6 
#
# 1 0.010059 0.001500 -0.000176 -0.000001 0.008611 -0.000001
# 2 0.001500 0.015939 0.001428 -0.000001 0.003748 -0.000001
# 3 -0.000176 0.001428 0.011631 0.000000 0.010002 0.000000
# 4 -0.000001 -0.000001 0.000000 0.296435 -0.000002 -0.042435
# 5 0.008611 0.003748 0.010002 -0.000002 0.044349 -0.000001
# 6 -0.000001 -0.000001 0.000000 -0.042435 -0.000001 0.088758
#
#
# Mechanical properties :
#
#
# Convention : Reuss Voigt Hill
#
# Bulk Modulus (GPa) = 23.18421 37.53556 30.35988
# Shear Modulus (GPa) = 10.50321 29.57106 20.03714
#
# Velocity S-wave (km/s) = 2.13994 3.59065 2.95568
# Velocity P-wave (km/s) = 4.02665 5.79272 4.98846
#
# Compressibility (1/GPa) = 0.04313281
#
# Stress axis : x y z
#
# Youngs Moduli (GPa) = 99.41762 62.73774 85.97637
#
# Poissons Ratio (x) = -0.09410 0.01517
# Poissons Ratio (y) = -0.14912 -0.12281
# Poissons Ratio (z) = 0.01754 -0.08962
#
# Static dielectric constant tensor:
#      x y z
#    x 1.827010 0.000000 0.000570 
#    y 0.000000 1.868130 0.000000 
#    z 0.000570 0.000000 1.875650 
# 
# From -- ./inp_files/313787.got.cif
#   From: 2010.05.17/outbox.cif.g08.bks.cpg/sg12_157_cif.got.tgz:313787.got - 2010.06.03 13:09:07.
