data_PCOD9195940
_publ_section_title
;
Structure prediction by ZEFSAII (Michael W. Deem and Ramdas Pophale) SiO2 
 PCOD9195940
Probable space group: C 2/M
;
_chemical_formula_sum "Si O2"
_cell_formula_units_Z 64
_cell_length_a 16.480781
_cell_length_b 9.465053
_cell_length_c 20.426245
_cell_angle_alpha 90.000000
_cell_angle_beta 106.562031
_cell_angle_gamma 90.000000
_cell_volume 3054.124852
_symmetry_space_group_name_H-M "C 2/M"
_symmetry_group_IT_number 12
_symmetry_cell_setting 'monoclinic'
loop_
_space_group_symop_operation_xyz
x,y,z
-x,y,-z
-x,-y,-z
x,-y,z
1/2+x,1/2+y,z
1/2-x,1/2+y,-z
1/2-x,1/2-y,-z
1/2+x,1/2-y,z
loop_
_atom_site_type_symbol
_atom_site_label
_atom_site_fract_x
_atom_site_fract_y
_atom_site_fract_z
Si Si1 0.600638 0.166740 0.528511
Si Si2 0.840044 0.664477 0.781975
Si Si3 0.109302 0.833877 0.832655
Si Si4 0.305881 0.833984 0.914944
Si Si5 0.076440 0.169153 0.969431
Si Si6 0.726305 0.162723 0.663154
Si Si7 0.878620 0.164377 0.592878
Si Si8 0.494527 0.834776 0.715221
O O1 0.500000 0.182786 0.500000
O O2 0.639852 0.207032 0.607699
O O3 0.639380 0.260543 0.479862
O O4 0.620942 0.000000 0.523622
O O5 0.816480 0.500000 0.780351
O O6 0.854077 0.711659 0.859466
O O7 0.763437 0.746065 0.730092
O O8 0.921889 0.676130 0.754835
O O9 0.207765 0.817238 0.873361
O O10 0.075853 0.738610 0.765930
O O11 0.093360 0.000000 0.814614
O O12 0.063002 0.794959 0.890340
O O13 0.340638 0.743390 0.982502
O O14 0.321014 0.000000 0.931785
O O15 0.087215 0.000000 0.974590
O O16 0.000000 0.209575 0.000000
O O17 0.797616 0.171005 0.622213
O O18 0.719099 0.000000 0.682281
O O19 0.954075 0.249948 0.645656
O O20 0.900490 0.000000 0.589080
O O21 0.507362 0.000000 0.702307
#
# Coordination Sequence:
#
# PCOD9195940 Si02
#       8
#     8   8   8   8   8   8   8   8
#     4  10  21  36  53  77 110 141 173 217 264 312
#     4   9  19  35  54  77 103 133 173 218 260 307
#     4  10  21  36  53  77 110 141 172 216 265 313
#     4  10  21  36  54  78 108 140 174 215 263 313
#     4  10  21  36  55  79 106 139 179 221 264 311
#     4   9  19  35  55  78 103 136 176 216 260 309
#     4  10  20  35  56  79 104 137 177 218 260 309
#     4  10  20  35  56  79 103 135 175 216 260 311
#
# _framework density 20.955266000000002
#
# number of rings (size 3 to 8) (size 9 to 14) (size 15 to 20)
#    0.000    2.250    0.000    2.250    0.000    4.500 
#    0.000    2.500    0.000    0.000    0.000    0.000 
#    0.000    0.000    0.000    0.000    0.000    0.000 
#
# Total GULP energy -178809.302735 kJ/mol
# GULP energy per Si atom -5587.790710 kJ/mol
# Density = 2.090757 g / cm^3
# Si number density = 20.955266 Si / 1000 Ang^3
#
#
#
# Elastic Constant Matrix: (Units=GPa)
#
#
# Indices 1 2 3 4 5 6 
#
# 1 47.2589 14.2495 0.8409 0.0000 8.4016 0.0000
# 2 14.2495 46.4803 38.3951 0.0000 14.4907 0.0000
# 3 0.8409 38.3951 79.4418 0.0000 26.0940 0.0000
# 4 0.0000 0.0000 0.0000 36.6205 0.0000 8.7976
# 5 8.4016 14.4907 26.0940 0.0000 34.5418 0.0000
# 6 0.0000 0.0000 0.0000 8.7976 0.0000 18.2883
#
#
#
# Elastic Compliance Matrix: (Units=1/GPa)
#
#
# Indices 1 2 3 4 5 6 
#
# 1 0.026052 -0.012427 0.008112 0.000000 -0.007252 0.000000
# 2 -0.012427 0.041915 -0.020408 0.000000 0.000855 0.000000
# 3 0.008112 -0.020408 0.026868 0.000000 -0.013709 0.000000
# 4 0.000000 0.000000 0.000000 0.030875 0.000000 -0.014852
# 5 -0.007252 0.000855 -0.013709 0.000000 0.040712 0.000000
# 6 0.000000 0.000000 0.000000 -0.014852 0.000000 0.061824
#
#
# Mechanical properties :
#
#
# Convention : Reuss Voigt Hill
#
# Bulk Modulus (GPa) = 22.03102 31.12801 26.57951
# Shear Modulus (GPa) = 17.07525 25.86983 21.47254
#
# Velocity S-wave (km/s) = 2.85764 3.51739 3.20454
# Velocity P-wave (km/s) = 4.62864 5.60204 5.13844
#
# Compressibility (1/GPa) = 0.04539055
#
# Stress axis : x y z
#
# Youngs Moduli (GPa) = 38.38482 23.85762 37.21891
#
# Poissons Ratio (x) = 0.29649 -0.30193
# Poissons Ratio (y) = 0.47702 0.75954
# Poissons Ratio (z) = -0.31139 0.48687
#
# Static dielectric constant tensor:
#      x y z
#    x 1.822010 0.000000 -0.024380 
#    y 0.000000 1.696950 0.000000 
#    z -0.024380 0.000000 1.702930 
# 
# From -- ./inp_files/320071.got.cif
#   From: 2010.05.17/outbox.cif.g08.bks.cpg/sg12_161_cif.got.tgz:320071.got - 2010.06.03 13:09:07.
