data_PCOD9195232
_publ_section_title
;
Structure prediction by ZEFSAII (Michael W. Deem and Ramdas Pophale) SiO2 
 PCOD9195232
Probable space group: C 2/M
;
_chemical_formula_sum "Si O2"
_cell_formula_units_Z 58
_cell_length_a 22.128791
_cell_length_b 17.330722
_cell_length_c 14.447438
_cell_angle_alpha 90.000000
_cell_angle_beta 32.109640
_cell_angle_gamma 90.000000
_cell_volume 2945.113477
_symmetry_space_group_name_H-M "C 2/M"
_symmetry_group_IT_number 12
_symmetry_cell_setting 'monoclinic'
loop_
_space_group_symop_operation_xyz
x,y,z
-x,y,-z
-x,-y,-z
x,-y,z
1/2+x,1/2+y,z
1/2-x,1/2+y,-z
1/2-x,1/2-y,-z
1/2+x,1/2-y,z
loop_
_atom_site_type_symbol
_atom_site_label
_atom_site_fract_x
_atom_site_fract_y
_atom_site_fract_z
Si Si1 0.350486 0.911619 0.348001
Si Si2 0.342146 0.345176 0.526599
Si Si3 0.329247 0.371575 0.263139
Si Si4 0.500000 0.500000 0.000000
Si Si5 0.680909 0.340729 0.934409
Si Si6 0.131772 0.776274 0.311773
Si Si7 0.412972 0.585373 0.768032
Si Si8 0.448594 0.751936 0.223822
O O1 0.261937 0.892034 0.380725
O O2 0.276173 0.896154 0.537069
O O3 0.442984 0.843671 0.224921
O O4 0.388968 0.000000 0.294585
O O5 0.318866 0.304916 0.654268
O O6 0.452304 0.399457 0.396315
O O7 0.382111 0.280294 0.400639
O O8 0.301321 0.374364 0.190998
O O9 0.379430 0.289249 0.230198
O O10 0.430136 0.432598 0.147320
O O11 0.792208 0.294232 0.820460
O O12 0.643942 0.403025 0.058023
O O13 0.574773 0.281725 0.065369
O O14 0.130943 0.847095 0.241654
O O15 0.000000 0.754746 0.500000
O O16 0.392027 0.500000 0.758494
#
# Coordination Sequence:
#
# PCOD9195232 Si02
#       8
#     8   8   8   2   8   8   8   8
#     4  11  21  33  53  82 119 153 183 214 261 336
#     4   9  19  34  56  78 107 144 182 225 277 315
#     4  11  21  34  56  87 121 143 179 231 277 323
#     4  12  20  32  56  96 120 134 186 236 278 300
#     4  11  21  36  59  79 108 147 177 222 279 336
#     4  10  21  39  58  78 101 138 187 233 270 321
#     4  10  22  35  55  82 106 132 180 237 279 313
#     4  10  20  35  52  82 116 152 181 214 268 339
#
# _framework density 19.693638
#
# number of rings (size 3 to 8) (size 9 to 14) (size 15 to 20)
#    0.000    1.655    2.069    4.138    0.966    3.034 
#    0.000    0.690    0.000    4.552    0.000    0.000 
#    0.000    0.000    0.000    0.000    0.000    0.000 
#
# Total GULP energy -161787.616615 kJ/mol
# GULP energy per Si atom -5578.883332 kJ/mol
# Density = 1.964881 g / cm^3
# Si number density = 19.693638 Si / 1000 Ang^3
#
#
#
# Elastic Constant Matrix: (Units=GPa)
#
#
# Indices 1 2 3 4 5 6 
#
# 1 43.1062 -7.5746 0.3478 0.0000 6.3861 0.0000
# 2 -7.5746 96.7901 2.5733 0.0000 -11.6572 0.0000
# 3 0.3478 2.5733 28.4834 0.0000 -0.2217 0.0000
# 4 0.0000 0.0000 0.0000 16.6124 0.0000 2.0153
# 5 6.3861 -11.6572 -0.2217 0.0000 19.4042 0.0000
# 6 0.0000 0.0000 0.0000 2.0153 0.0000 -13.2983
#
#
#
# Elastic Compliance Matrix: (Units=1/GPa)
#
#
# Indices 1 2 3 4 5 6 
#
# 1 0.024486 0.001032 -0.000450 0.000000 -0.007444 0.000000
# 2 0.001032 0.011207 -0.000975 0.000000 0.006382 0.000000
# 3 -0.000450 -0.000975 0.035201 0.000000 -0.000036 0.000000
# 4 0.000000 0.000000 0.000000 0.059109 0.000000 0.008958
# 5 -0.007444 0.006382 -0.000036 0.000000 0.057819 0.000000
# 6 0.000000 0.000000 0.000000 0.008958 0.000000 -0.073840
#
#
# Mechanical properties :
#
#
# Convention : Reuss Voigt Hill
#
# Bulk Modulus (GPa) = 14.26392 17.67475 15.96933
# Shear Modulus (GPa) = 36.19531 16.07920 26.13725
#
# Velocity S-wave (km/s) = 4.29175 2.86049 3.64702
# Velocity P-wave (km/s) = 5.64069 4.46141 5.08535
#
# Compressibility (1/GPa) = 0.07010695
#
# Stress axis : x y z
#
# Youngs Moduli (GPa) = 40.83924 89.23053 28.40792
#
# Poissons Ratio (x) = -0.09206 0.01279
# Poissons Ratio (y) = -0.04213 0.02771
# Poissons Ratio (z) = 0.01838 0.08703
#
# Static dielectric constant tensor:
#      x y z
#    x 1.714820 0.000000 0.011330 
#    y 0.000000 1.679780 0.000000 
#    z 0.011330 0.000000 1.700910 
# 
# From -- ./inp_files/241282.got.cif
#   From: 2010.05.17/outbox.cif.g08.bks.cpg/sg12_121_cif.got.tgz:241282.got - 2010.06.03 13:09:07.
