data_PCOD9195420
_publ_section_title
;
Structure prediction by ZEFSAII (Michael W. Deem and Ramdas Pophale) SiO2 
 PCOD9195420
Probable space group: C 2/M
;
_chemical_formula_sum "Si O2"
_cell_formula_units_Z 52
_cell_length_a 11.945308
_cell_length_b 13.434029
_cell_length_c 16.580913
_cell_angle_alpha 90.000000
_cell_angle_beta 119.595572
_cell_angle_gamma 90.000000
_cell_volume 2313.652833
_symmetry_space_group_name_H-M "C 2/M"
_symmetry_group_IT_number 12
_symmetry_cell_setting 'monoclinic'
loop_
_space_group_symop_operation_xyz
x,y,z
-x,y,-z
-x,-y,-z
x,-y,z
1/2+x,1/2+y,z
1/2-x,1/2+y,-z
1/2-x,1/2-y,-z
1/2+x,1/2-y,z
loop_
_atom_site_type_symbol
_atom_site_label
_atom_site_fract_x
_atom_site_fract_y
_atom_site_fract_z
Si Si1 0.861464 0.196019 0.411749
Si Si2 0.000000 0.768522 0.000000
Si Si3 0.483548 0.894215 0.859466
Si Si4 0.238356 0.663758 0.866328
Si Si5 0.292294 0.388101 0.700592
Si Si6 0.109039 0.388494 0.351018
Si Si7 0.447642 0.305875 0.277020
O O1 0.793396 0.302371 0.371019
O O2 0.755638 0.135761 0.425742
O O3 0.000000 0.205208 0.500000
O O4 0.888395 0.144520 0.334757
O O5 0.027694 0.697867 0.085766
O O6 0.131123 0.828849 0.037090
O O7 0.627710 0.893520 0.874516
O O8 0.396676 0.884939 0.748945
O O9 0.455626 0.000000 0.889329
O O10 0.271928 0.621108 0.789842
O O11 0.166830 0.769049 0.821708
O O12 0.259150 0.500000 0.663561
O O13 0.439720 0.363425 0.728567
O O14 0.069083 0.500000 0.361843
O O15 0.014230 0.296935 0.335854
#
# Coordination Sequence:
#
# PCOD9195420 Si02
#       7
#     8   4   8   8   8   8   8
#     4  10  21  36  55  83 116 143 173 221 276 324
#     4  12  21  34  55  82 110 140 178 222 272 322
#     4  10  20  35  54  77 106 141 181 222 266 319
#     4  10  20  37  56  76 106 143 179 221 275 323
#     4  10  21  38  58  80 107 144 188 226 265 319
#     4   9  19  36  57  78 104 144 186 221 265 323
#     4   9  19  37  56  77 106 143 182 224 268 319
#
# _framework density 22.475282
#
# number of rings (size 3 to 8) (size 9 to 14) (size 15 to 20)
#    0.000    2.154    0.000    4.846    0.000    7.385 
#    0.000    6.154    0.000    0.000    0.000    0.000 
#    0.000    0.000    0.000    0.000    0.000    0.000 
#
# Total GULP energy -145174.354211 kJ/mol
# GULP energy per Si atom -5583.629008 kJ/mol
# Density = 2.242413 g / cm^3
# Si number density = 22.475282 Si / 1000 Ang^3
#
#
#
# Elastic Constant Matrix: (Units=GPa)
#
#
# Indices 1 2 3 4 5 6 
#
# 1 91.4767 6.1065 2.9390 0.0000 25.5090 0.0000
# 2 6.1065 52.6491 -3.5365 0.0000 3.0123 0.0000
# 3 2.9390 -3.5365 60.5242 0.0000 37.4053 0.0000
# 4 0.0000 0.0000 0.0000 -3.6339 0.0000 2.0603
# 5 25.5090 3.0123 37.4053 0.0000 43.4086 0.0000
# 6 0.0000 0.0000 0.0000 2.0603 0.0000 -3.1836
#
#
#
# Elastic Compliance Matrix: (Units=1/GPa)
#
#
# Indices 1 2 3 4 5 6 
#
# 1 0.015706 -0.000064 0.010557 0.000000 -0.018323 0.000000
# 2 -0.000064 0.019566 0.004198 0.000000 -0.004937 0.000000
# 3 0.010557 0.004198 0.043361 0.000000 -0.043860 0.000000
# 4 0.000000 0.000000 0.000000 -0.434685 0.000000 -0.281309
# 5 -0.018323 -0.004937 -0.043860 0.000000 0.071941 0.000000
# 6 0.000000 0.000000 0.000000 -0.281309 0.000000 -0.496160
#
#
# Mechanical properties :
#
#
# Convention : Reuss Voigt Hill
#
# Bulk Modulus (GPa) = 9.25803 23.96310 16.61056
# Shear Modulus (GPa) = -6.46289 20.59429 7.06570
#
# Velocity S-wave (km/s) = -1.69759 3.03034 1.77499
# Velocity P-wave (km/s) = 0.53455 4.78843 3.40697
#
# Compressibility (1/GPa) = 0.10801439
#
# Stress axis : x y z
#
# Youngs Moduli (GPa) = 63.66897 51.11021 23.06209
#
# Poissons Ratio (x) = 0.00328 -0.24347
# Poissons Ratio (y) = 0.00409 -0.09680
# Poissons Ratio (z) = -0.67217 -0.21454
#
# Static dielectric constant tensor:
#      x y z
#    x 1.826700 0.000000 -0.010520 
#    y 0.000000 1.854640 0.000000 
#    z -0.010520 0.000000 1.843740 
# 
# From -- ./inp_files/305520.got.cif
#   From: 2010.05.17/outbox.cif.g08.bks.cpg/sg12_153_cif.got.tgz:305520.got - 2010.06.03 13:09:07.
