data_PCOD9195495
_publ_section_title
;
Structure prediction by ZEFSAII (Michael W. Deem and Ramdas Pophale) SiO2 
 PCOD9195495
Probable space group: C 2/M
;
_chemical_formula_sum "Si O2"
_cell_formula_units_Z 64
_cell_length_a 33.429055
_cell_length_b 7.653004
_cell_length_c 15.616015
_cell_angle_alpha 90.000000
_cell_angle_beta 133.563253
_cell_angle_gamma 90.000000
_cell_volume 2894.896097
_symmetry_space_group_name_H-M "C 2/M"
_symmetry_group_IT_number 12
_symmetry_cell_setting 'monoclinic'
loop_
_space_group_symop_operation_xyz
x,y,z
-x,y,-z
-x,-y,-z
x,-y,z
1/2+x,1/2+y,z
1/2-x,1/2+y,-z
1/2-x,1/2-y,-z
1/2+x,1/2-y,z
loop_
_atom_site_type_symbol
_atom_site_label
_atom_site_fract_x
_atom_site_fract_y
_atom_site_fract_z
Si Si1 0.419191 0.702100 0.249542
Si Si2 0.783187 0.709155 0.463934
Si Si3 0.749761 0.711042 0.230096
Si Si4 0.559771 0.705928 0.063502
Si Si5 0.963303 0.297527 0.626907
Si Si6 0.627567 0.292770 0.641705
Si Si7 0.128233 0.214908 0.000246
Si Si8 0.098225 0.712164 0.304338
O O1 0.401330 0.500000 0.224100
O O2 0.485365 0.708299 0.343200
O O3 0.395721 0.778962 0.302738
O O4 0.396518 0.775409 0.126604
O O5 0.786590 0.500000 0.460431
O O6 0.750000 0.750000 0.500000
O O7 0.755185 0.775068 0.336131
O O8 0.845089 0.774508 0.569369
O O9 0.747859 0.500000 0.227653
O O10 0.807169 0.761663 0.270265
O O11 0.691904 0.770093 0.105066
O O12 0.551481 0.500000 0.034459
O O13 0.591523 0.775343 0.027151
O O14 0.594351 0.725743 0.201624
O O15 0.500000 0.783460 0.000000
O O16 0.978404 0.500000 0.656765
O O17 0.907876 0.285269 0.488616
O O18 0.950549 0.229005 0.703771
O O19 0.617336 0.500000 0.622353
O O20 0.127159 0.000000 0.000217
O O21 0.097698 0.500000 0.303001
#
# Coordination Sequence:
#
# PCOD9195495 Si02
#       8
#     8   8   8   8   8   8   8   8
#     4  10  22  40  60  86 117 150 192 243 296 344
#     4  10  20  35  54  80 112 146 186 231 278 332
#     4  10  20  38  60  81 115 158 196 236 285 346
#     4  10  20  35  58  86 113 149 197 237 276 339
#     4  11  22  39  61  86 117 153 193 236 291 358
#     4  11  23  38  59  87 118 150 190 246 300 342
#     4   9  19  37  60  84 116 157 196 238 287 341
#     4  10  21  36  54  80 115 149 182 229 286 336
#
# _framework density 22.107873999999999
#
# number of rings (size 3 to 8) (size 9 to 14) (size 15 to 20)
#    0.000    1.875    1.250    2.625    0.000    7.250 
#    0.000    1.875    0.000    0.000    0.000    0.000 
#    0.000    0.000    0.000    0.000    0.000    0.000 
#
# Total GULP energy -178804.331121 kJ/mol
# GULP energy per Si atom -5587.635348 kJ/mol
# Density = 2.205756 g / cm^3
# Si number density = 22.107874 Si / 1000 Ang^3
#
#
#
# Elastic Constant Matrix: (Units=GPa)
#
#
# Indices 1 2 3 4 5 6 
#
# 1 136.9363 -14.7071 30.6020 0.0009 -11.6021 -0.0005
# 2 -14.7071 38.0554 -10.3736 0.0079 -1.5931 -0.0045
# 3 30.6020 -10.3736 84.5978 -0.0002 0.5681 0.0001
# 4 0.0009 0.0079 -0.0002 2592.2800 0.0004-1449.3368
# 5 -11.6021 -1.5931 0.5681 0.0004 40.2943 -0.0002
# 6 -0.0005 -0.0045 0.0001-1449.3368 -0.0002 832.0598
#
#
#
# Elastic Compliance Matrix: (Units=1/GPa)
#
#
# Indices 1 2 3 4 5 6 
#
# 1 0.008413 0.002612 -0.002740 0.000000 0.002564 0.000000
# 2 0.002612 0.028040 0.002481 0.000000 0.001826 0.000000
# 3 -0.002740 0.002481 0.013122 0.000000 -0.000876 0.000000
# 4 0.000000 0.000000 0.000000 0.014765 0.000000 0.025718
# 5 0.002564 0.001826 -0.000876 0.000000 0.025640 0.000000
# 6 0.000000 0.000000 0.000000 0.025718 0.000000 0.045999
#
#
# Mechanical properties :
#
#
# Convention : Reuss Voigt Hill
#
# Bulk Modulus (GPa) = 18.42301 30.07023 24.24662
# Shear Modulus (GPa) = 33.47473 709.86469 371.66971
#
# Velocity S-wave (km/s) = 3.89543 17.93846 12.98004
# Velocity P-wave (km/s) = 5.34639 21.04002 15.35035
#
# Compressibility (1/GPa) = 0.05427995
#
# Stress axis : x y z
#
# Youngs Moduli (GPa) = 118.86688 35.66382 76.20790
#
# Poissons Ratio (x) = -0.09314 0.20882
# Poissons Ratio (y) = -0.31044 -0.18910
# Poissons Ratio (z) = 0.32571 -0.08849
#
# Static dielectric constant tensor:
#      x y z
#    x 1.791350 0.000000 -0.000050 
#    y 0.000000 1.825730 0.000000 
#    z -0.000050 0.000000 1.801740 
# 
# From -- ./inp_files/250093.got.cif
#   From: 2010.05.17/outbox.cif.g08.bks.cpg/sg12_126_cif.got.tgz:250093.got - 2010.06.03 13:09:07.
