data_PCOD9195718
_publ_section_title
;
Structure prediction by ZEFSAII (Michael W. Deem and Ramdas Pophale) SiO2 
 PCOD9195718
Probable space group: C 2/M
;
_chemical_formula_sum "Si O2"
_cell_formula_units_Z 56
_cell_length_a 18.371642
_cell_length_b 8.468474
_cell_length_c 29.528954
_cell_angle_alpha 90.000000
_cell_angle_beta 141.012822
_cell_angle_gamma 90.000000
_cell_volume 2890.366757
_symmetry_space_group_name_H-M "C 2/M"
_symmetry_group_IT_number 12
_symmetry_cell_setting 'monoclinic'
loop_
_space_group_symop_operation_xyz
x,y,z
-x,y,-z
-x,-y,-z
x,-y,z
1/2+x,1/2+y,z
1/2-x,1/2+y,-z
1/2-x,1/2-y,-z
1/2+x,1/2-y,z
loop_
_atom_site_type_symbol
_atom_site_label
_atom_site_fract_x
_atom_site_fract_y
_atom_site_fract_z
Si Si1 0.083489 0.191015 0.999508
Si Si2 0.202674 0.812255 0.429338
Si Si3 0.633179 0.308887 0.571125
Si Si4 0.723151 0.691044 0.713521
Si Si5 0.653176 0.192692 0.855946
Si Si6 0.444034 0.189441 0.288390
Si Si7 0.512759 0.809074 0.142433
O O1 0.036278 0.250198 0.928853
O O2 0.083134 0.000000 0.998747
O O3 0.215154 0.243960 0.071824
O O4 0.000000 0.242841 0.000000
O O5 0.250000 0.750000 0.500000
O O6 0.286327 0.755552 0.429643
O O7 0.073589 0.749779 0.358373
O O8 0.200316 0.000000 0.429541
O O9 0.500000 0.260245 0.500000
O O10 0.637301 0.500000 0.571272
O O11 0.679652 0.259211 0.642832
O O12 0.720727 0.500000 0.713369
O O13 0.638741 0.753211 0.711488
O O14 0.855000 0.742794 0.786003
O O15 0.605851 0.243938 0.784258
O O16 0.569024 0.243947 0.855796
O O17 0.653144 0.000000 0.855817
O O18 0.445884 0.000000 0.289044
O O19 0.512083 0.000000 0.141971
#
# Coordination Sequence:
#
# PCOD9195718 Si02
#       7
#     8   8   8   8   8   8   8
#     4  10  20  35  55  80 111 146 188 238 288 340
#     4  12  25  41  62  89 121 154 193 238 284 339
#     4  10  21  39  63  88 117 155 195 237 289 343
#     4  10  21  37  57  84 119 154 191 240 295 348
#     4   9  19  36  57  81 111 149 189 233 290 349
#     4  11  22  39  63  87 115 152 193 236 289 350
#     4  10  20  35  55  79 111 151 192 234 285 345
#
# _framework density 19.374704000000001
#
# number of rings (size 3 to 8) (size 9 to 14) (size 15 to 20)
#    0.000    1.714    0.000    4.714    0.000    6.286 
#    0.000    4.286    0.000    0.000    0.000    0.000 
#    0.000    0.000    0.000    0.000    0.000    0.000 
#
# Total GULP energy -156547.630658 kJ/mol
# GULP energy per Si atom -5590.986809 kJ/mol
# Density = 1.933061 g / cm^3
# Si number density = 19.374704 Si / 1000 Ang^3
#
#
#
# Elastic Constant Matrix: (Units=GPa)
#
#
# Indices 1 2 3 4 5 6 
#
# 1 244.7683 39.2785 151.9248 0.0000 0.4226 0.0000
# 2 39.2785 20.0228 38.2861 0.0000 0.9007 0.0001
# 3 151.9248 38.2861 246.3886 0.0000 0.4778 0.0000
# 4 0.0000 0.0000 0.0000 26.7606 0.0000 -5.5672
# 5 0.4226 0.9007 0.4778 0.0000 46.7951 0.0000
# 6 0.0000 0.0001 0.0000 -5.5672 0.0000 21.9922
#
#
#
# Elastic Compliance Matrix: (Units=1/GPa)
#
#
# Indices 1 2 3 4 5 6 
#
# 1 0.007484 -0.008340 -0.003319 0.000000 0.000127 0.000000
# 2 -0.008340 0.080425 -0.007352 0.000000 -0.001398 0.000000
# 3 -0.003319 -0.007352 0.007247 0.000000 0.000097 0.000000
# 4 0.000000 0.000000 0.000000 0.039446 0.000000 0.009985
# 5 0.000127 -0.001398 0.000097 0.000000 0.021395 0.000000
# 6 0.000000 0.000000 0.000000 0.009985 0.000000 0.047998
#
#
# Mechanical properties :
#
#
# Convention : Reuss Voigt Hill
#
# Bulk Modulus (GPa) = 17.50274 107.79537 62.64906
# Shear Modulus (GPa) = 19.15269 37.88894 28.52082
#
# Velocity S-wave (km/s) = 3.14752 4.42700 3.84091
# Velocity P-wave (km/s) = 4.71832 9.04926 7.21636
#
# Compressibility (1/GPa) = 0.05713391
#
# Stress axis : x y z
#
# Youngs Moduli (GPa) = 133.62717 12.43399 137.98655
#
# Poissons Ratio (x) = 0.10370 0.45792
# Poissons Ratio (y) = 1.11451 1.01443
# Poissons Ratio (z) = 0.44346 0.09141
#
# Static dielectric constant tensor:
#      x y z
#    x 1.635640 0.000000 0.006800 
#    y 0.000000 1.671270 0.000000 
#    z 0.006800 0.000000 1.638800 
# 
# From -- ./inp_files/363213.got.cif
#   From: 2010.05.17/outbox.cif.g08.bks.cpg/sg12_182_cif.got.tgz:363213.got - 2010.06.03 13:09:07.
