data_PCOD9195285
_publ_section_title
;
Structure prediction by ZEFSAII (Michael W. Deem and Ramdas Pophale) SiO2 
 PCOD9195285
Probable space group: C 2/M
;
_chemical_formula_sum "Si O2"
_cell_formula_units_Z 56
_cell_length_a 31.270080
_cell_length_b 9.006452
_cell_length_c 12.233304
_cell_angle_alpha 90.000000
_cell_angle_beta 116.839174
_cell_angle_gamma 90.000000
_cell_volume 3074.159256
_symmetry_space_group_name_H-M "C 2/M"
_symmetry_group_IT_number 12
_symmetry_cell_setting 'monoclinic'
loop_
_space_group_symop_operation_xyz
x,y,z
-x,y,-z
-x,-y,-z
x,-y,z
1/2+x,1/2+y,z
1/2-x,1/2+y,-z
1/2-x,1/2-y,-z
1/2+x,1/2-y,z
loop_
_atom_site_type_symbol
_atom_site_label
_atom_site_fract_x
_atom_site_fract_y
_atom_site_fract_z
Si Si1 0.084833 0.178458 0.291290
Si Si2 0.095316 0.821720 0.054347
Si Si3 0.183933 0.822049 0.002578
Si Si4 0.864528 0.822914 0.429935
Si Si5 0.208103 0.676616 0.805358
Si Si6 0.019204 0.322518 0.816321
Si Si7 0.552202 0.175894 0.614493
O O1 0.102110 0.215896 0.189274
O O2 0.121008 0.220002 0.430030
O O3 0.033739 0.255228 0.250992
O O4 0.078150 0.000000 0.289079
O O5 0.140762 0.779710 0.032546
O O6 0.089295 0.000000 0.039706
O O7 0.048578 0.744190 0.950918
O O8 0.235576 0.788275 0.116151
O O9 0.181948 0.000000 0.981887
O O10 0.182799 0.740625 0.885046
O O11 0.816876 0.748487 0.327894
O O12 0.908024 0.768190 0.403074
O O13 0.860347 0.000000 0.418905
O O14 0.202529 0.500000 0.796129
O O15 0.016281 0.500000 0.820311
O O16 0.047047 0.284802 0.735992
O O17 0.500000 0.198523 0.500000
O O18 0.563539 0.000000 0.618550
#
# Coordination Sequence:
#
# PCOD9195285 Si02
#       7
#     8   8   8   8   8   8   8
#     4  10  22  38  54  74 105 146 184 220 259 309
#     4  10  21  38  57  76 104 141 182 222 263 312
#     4   9  19  37  60  84 107 137 177 219 264 320
#     4  11  22  35  54  80 109 143 183 219 261 317
#     4  10  20  35  58  85 112 138 169 217 275 322
#     4  11  22  35  54  80 108 139 178 222 268 317
#     4  10  20  35  53  76 108 141 172 216 270 315
#
# _framework density 18.216362
#
# number of rings (size 3 to 8) (size 9 to 14) (size 15 to 20)
#    0.000    1.857    1.429    2.571    0.000    7.714 
#    0.000    0.714    0.000    0.000    0.000    0.000 
#    0.000    0.000    0.000    0.000    0.000    0.000 
#
# Total GULP energy -156429.614195 kJ/mol
# GULP energy per Si atom -5586.771936 kJ/mol
# Density = 1.817490 g / cm^3
# Si number density = 18.216362 Si / 1000 Ang^3
#
#
#
# Elastic Constant Matrix: (Units=GPa)
#
#
# Indices 1 2 3 4 5 6 
#
# 1 35.5466 18.1137 39.2877 0.0000 -2.4338 0.0000
# 2 18.1137 25.4320 47.7031 0.0000 -0.0650 0.0000
# 3 39.2877 47.7031 163.3631 0.0000 0.7733 0.0000
# 4 0.0000 0.0000 0.0000 25.8715 0.0000 8.9757
# 5 -2.4338 -0.0650 0.7733 0.0000 21.2304 0.0000
# 6 0.0000 0.0000 0.0000 8.9757 0.0000 17.3090
#
#
#
# Elastic Compliance Matrix: (Units=1/GPa)
#
#
# Indices 1 2 3 4 5 6 
#
# 1 0.045495 -0.026136 -0.003334 0.000000 0.005257 0.000000
# 2 -0.026136 0.101983 -0.023485 0.000000 -0.001828 0.000000
# 3 -0.003334 -0.023485 0.013786 0.000000 -0.000956 0.000000
# 4 0.000000 0.000000 0.000000 0.047132 0.000000 -0.024441
# 5 0.005257 -0.001828 -0.000956 0.000000 0.047734 0.000000
# 6 0.000000 0.000000 0.000000 -0.024441 0.000000 0.070448
#
#
# Mechanical properties :
#
#
# Convention : Reuss Voigt Hill
#
# Bulk Modulus (GPa) = 18.06603 48.28341 33.17472
# Shear Modulus (GPa) = 11.08796 20.83132 15.95964
#
# Velocity S-wave (km/s) = 2.46982 3.38531 2.96314
# Velocity P-wave (km/s) = 4.25116 6.46865 5.47338
#
# Compressibility (1/GPa) = 0.05535249
#
# Stress axis : x y z
#
# Youngs Moduli (GPa) = 21.98024 9.80559 72.53908
#
# Poissons Ratio (x) = 0.25628 0.24188
# Poissons Ratio (y) = 0.57447 1.70361
# Poissons Ratio (z) = 0.07329 0.23029
#
# Static dielectric constant tensor:
#      x y z
#    x 1.604510 0.000000 -0.000450 
#    y 0.000000 1.603850 0.000000 
#    z -0.000450 0.000000 1.631580 
# 
# From -- ./inp_files/186454.got.cif
#   From: 2010.05.17/outbox.cif.g08.bks.cpg/sg12_94_cif.got.tgz:186454.got - 2010.06.03 13:09:07.
