data_PCOD9195804
_publ_section_title
;
Structure prediction by ZEFSAII (Michael W. Deem and Ramdas Pophale) SiO2 
 PCOD9195804
Probable space group: C 2/M
;
_chemical_formula_sum "Si O2"
_cell_formula_units_Z 56
_cell_length_a 29.765564
_cell_length_b 15.317809
_cell_length_c 8.664959
_cell_angle_alpha 90.000000
_cell_angle_beta 48.103233
_cell_angle_gamma 90.000000
_cell_volume 2940.722339
_symmetry_space_group_name_H-M "C 2/M"
_symmetry_group_IT_number 12
_symmetry_cell_setting 'monoclinic'
loop_
_space_group_symop_operation_xyz
x,y,z
-x,y,-z
-x,-y,-z
x,-y,z
1/2+x,1/2+y,z
1/2-x,1/2+y,-z
1/2-x,1/2-y,-z
1/2+x,1/2-y,z
loop_
_atom_site_type_symbol
_atom_site_label
_atom_site_fract_x
_atom_site_fract_y
_atom_site_fract_z
Si Si1 0.554775 0.594640 0.170677
Si Si2 0.566174 0.097476 0.418258
Si Si3 0.341419 0.806689 0.027465
Si Si4 0.649681 0.350177 0.202369
Si Si5 0.217041 0.099554 0.344292
Si Si6 0.882100 0.191173 0.221396
Si Si7 0.548227 0.264023 0.646243
O O1 0.523259 0.500000 0.248646
O O2 0.604976 0.598671 0.189649
O O3 0.509691 0.678365 0.274726
O O4 0.591656 0.607783 0.928870
O O5 0.500000 0.089367 0.500000
O O6 0.553220 0.163017 0.589317
O O7 0.588758 0.000000 0.405894
O O8 0.609581 0.142872 0.190951
O O9 0.285500 0.868069 0.193321
O O10 0.367495 0.763209 0.123978
O O11 0.319839 0.724209 0.972893
O O12 0.695149 0.396047 0.215308
O O13 0.602624 0.305042 0.424634
O O14 0.175642 0.161930 0.546132
O O15 0.210736 0.000000 0.411469
O O16 0.934145 0.222706 0.217471
#
# Coordination Sequence:
#
# PCOD9195804 Si02
#       7
#     8   8   8   8   8   8   8
#     4  11  21  34  55  84 118 153 187 223 271 334
#     4  10  20  37  60  83 106 136 182 239 290 334
#     4  10  20  38  59  78 105 147 187 227 279 337
#     4   9  20  35  54  79 110 144 185 232 279 324
#     4  11  21  35  55  80 109 144 190 234 276 330
#     4  10  22  36  53  78 115 151 185 225 277 330
#     4  10  20  35  55  81 112 148 183 226 279 335
#
# _framework density 19.042940999999999
#
# number of rings (size 3 to 8) (size 9 to 14) (size 15 to 20)
#    0.000    1.857    0.000    5.571    0.000    4.571 
#    0.000    1.429    0.000    3.429    0.000    0.000 
#    0.000    0.000    0.000    0.000    0.000    0.000 
#
# Total GULP energy -156005.613922 kJ/mol
# GULP energy per Si atom -5571.629069 kJ/mol
# Density = 1.899960 g / cm^3
# Si number density = 19.042941 Si / 1000 Ang^3
#
#
#
# Elastic Constant Matrix: (Units=GPa)
#
#
# Indices 1 2 3 4 5 6 
#
# 1 77.4104 48.5449 26.5895 0.0000 15.4708 0.0000
# 2 48.5449 128.9771 31.3809 0.0000 5.9604 0.0000
# 3 26.5895 31.3809 68.0351 0.0000 2.6983 0.0000
# 4 0.0000 0.0000 0.0000 19.9199 0.0000 -2.1236
# 5 15.4708 5.9604 2.6983 0.0000 33.4713 0.0000
# 6 0.0000 0.0000 0.0000 -2.1236 0.0000 9.8248
#
#
#
# Elastic Compliance Matrix: (Units=1/GPa)
#
#
# Indices 1 2 3 4 5 6 
#
# 1 0.019806 -0.005958 -0.004687 0.000000 -0.007716 0.000000
# 2 -0.005958 0.010577 -0.002593 0.000000 0.001079 0.000000
# 3 -0.004687 -0.002593 0.017678 0.000000 0.001203 0.000000
# 4 0.000000 0.000000 0.000000 0.051385 0.000000 0.011107
# 5 -0.007716 0.001079 0.001203 0.000000 0.033154 0.000000
# 6 0.000000 0.000000 0.000000 0.011107 0.000000 0.104184
#
#
# Mechanical properties :
#
#
# Convention : Reuss Voigt Hill
#
# Bulk Modulus (GPa) = 46.32529 54.16146 50.24337
# Shear Modulus (GPa) = 18.48740 23.83701 21.16221
#
# Velocity S-wave (km/s) = 3.11919 3.54185 3.33722
# Velocity P-wave (km/s) = 6.11163 6.72531 6.42580
#
# Compressibility (1/GPa) = 0.02158648
#
# Stress axis : x y z
#
# Youngs Moduli (GPa) = 50.48899 94.54714 56.56697
#
# Poissons Ratio (x) = 0.56330 0.26511
# Poissons Ratio (y) = 0.30081 0.14667
# Poissons Ratio (z) = 0.23662 0.24514
#
# Static dielectric constant tensor:
#      x y z
#    x 1.681420 0.000000 0.016670 
#    y 0.000000 1.719370 0.000000 
#    z 0.016670 0.000000 1.667090 
# 
# From -- ./inp_files/104424.got.cif
#   From: 2010.05.17/outbox.cif.g08.bks.cpg/sg12_53_cif.got.tgz:104424.got - 2010.06.03 13:09:07.
