data_PCOD9195882
_publ_section_title
;
Structure prediction by ZEFSAII (Michael W. Deem and Ramdas Pophale) SiO2 
 PCOD9195882
Probable space group: C 2/M
;
_chemical_formula_sum "Si O2"
_cell_formula_units_Z 64
_cell_length_a 23.870854
_cell_length_b 11.615283
_cell_length_c 11.450709
_cell_angle_alpha 90.000000
_cell_angle_beta 89.783252
_cell_angle_gamma 90.000000
_cell_volume 3174.877862
_symmetry_space_group_name_H-M "C 2/M"
_symmetry_group_IT_number 12
_symmetry_cell_setting 'monoclinic'
loop_
_space_group_symop_operation_xyz
x,y,z
-x,y,-z
-x,-y,-z
x,-y,z
1/2+x,1/2+y,z
1/2-x,1/2+y,-z
1/2-x,1/2-y,-z
1/2+x,1/2-y,z
loop_
_atom_site_type_symbol
_atom_site_label
_atom_site_fract_x
_atom_site_fract_y
_atom_site_fract_z
Si Si1 0.275986 0.869650 0.867202
Si Si2 0.774976 0.372586 0.362046
Si Si3 0.432978 0.744410 0.496192
Si Si4 0.031536 0.632549 0.107441
Si Si5 0.315982 0.810718 0.118315
Si Si6 0.822984 0.128338 0.460417
Si Si7 0.622684 0.859738 0.277025
Si Si8 0.578761 0.130893 0.747511
O O1 0.217535 0.807828 0.887382
O O2 0.314280 0.825626 0.759157
O O3 0.265062 0.000000 0.839538
O O4 0.309943 0.862872 0.989574
O O5 0.797803 0.500000 0.404430
O O6 0.781878 0.374227 0.222515
O O7 0.804013 0.249726 0.398657
O O8 0.713798 0.369242 0.420801
O O9 0.500000 0.720660 0.500000
O O10 0.389487 0.639526 0.480169
O O11 0.407128 0.809748 0.608800
O O12 0.423064 0.822484 0.382342
O O13 0.045532 0.500000 0.071383
O O14 0.086054 0.681582 0.166460
O O15 0.984218 0.630384 0.206210
O O16 0.000000 0.690038 0.000000
O O17 0.379038 0.803790 0.165833
O O18 0.811490 0.000000 0.407372
O O19 0.620181 0.000000 0.282407
O O20 0.598952 0.000000 0.751150
#
# Coordination Sequence:
#
# PCOD9195882 Si02
#       8
#     8   8   8   8   8   8   8   8
#     4  10  22  38  57  84 121 160 199 247 304 364
#     4  10  20  38  64  91 119 156 203 254 304 357
#     4  12  23  37  58  84 118 158 204 245 296 358
#     4   9  17  30  51  79 112 150 192 244 307 362
#     4  11  21  36  59  87 120 155 200 245 300 363
#     4  10  23  40  59  87 124 163 203 245 302 368
#     4  10  20  35  55  84 120 155 194 247 308 361
#     4  11  21  34  54  84 118 153 197 250 305 359
#
# _framework density 20.158253999999999
#
# number of rings (size 3 to 8) (size 9 to 14) (size 15 to 20)
#    0.000    1.625    2.500    3.000    0.000    3.750 
#    0.000    2.500    0.000    0.000    0.000    0.000 
#    0.000    4.750    0.000    0.000    0.000    0.000 
#
# Total GULP energy -178174.376065 kJ/mol
# GULP energy per Si atom -5567.949252 kJ/mol
# Density = 2.011237 g / cm^3
# Si number density = 20.158254 Si / 1000 Ang^3
#
#
#
# Elastic Constant Matrix: (Units=GPa)
#
#
# Indices 1 2 3 4 5 6 
#
# 1 100.9082 35.0399 6.0565 0.0000 -4.2720 0.0000
# 2 35.0399 94.7246 31.3408 0.0000 2.3004 0.0000
# 3 6.0565 31.3408 65.1815 0.0000 0.3027 0.0000
# 4 0.0000 0.0000 0.0000 -9.4626 0.0000 4.1097
# 5 -4.2720 2.3004 0.3027 0.0000 36.4437 0.0000
# 6 0.0000 0.0000 0.0000 4.1097 0.0000 13.9654
#
#
#
# Elastic Compliance Matrix: (Units=1/GPa)
#
#
# Indices 1 2 3 4 5 6 
#
# 1 0.011540 -0.004699 0.001179 0.000000 0.001640 0.000000
# 2 -0.004699 0.014488 -0.006523 0.000000 -0.001411 0.000000
# 3 0.001179 -0.006523 0.018367 0.000000 0.000397 0.000000
# 4 0.000000 0.000000 0.000000 -0.093703 0.000000 0.027575
# 5 0.001640 -0.001411 0.000397 0.000000 0.027718 0.000000
# 6 0.000000 0.000000 0.000000 0.027575 0.000000 0.063491
#
#
# Mechanical properties :
#
#
# Convention : Reuss Voigt Hill
#
# Bulk Modulus (GPa) = 41.13547 45.07653 43.10600
# Shear Modulus (GPa) = 71.33964 20.74778 46.04371
#
# Velocity S-wave (km/s) = 5.95539 3.21166 4.78442
# Velocity P-wave (km/s) = 8.23039 6.01356 7.20772
#
# Compressibility (1/GPa) = 0.02430992
#
# Stress axis : x y z
#
# Youngs Moduli (GPa) = 86.65269 69.02469 54.44649
#
# Poissons Ratio (x) = 0.32435 -0.06422
# Poissons Ratio (y) = 0.40718 0.35514
# Poissons Ratio (z) = -0.10220 0.45023
#
# Static dielectric constant tensor:
#      x y z
#    x 1.749480 0.000000 0.025240 
#    y 0.000000 1.738030 0.000000 
#    z 0.025240 0.000000 1.761750 
# 
# From -- ./inp_files/174668.got.cif
#   From: 2010.05.17/outbox.cif.g08.bks.cpg/sg12_88_cif.got.tgz:174668.got - 2010.06.03 13:09:07.
