data_PCOD9195748
_publ_section_title
;
Structure prediction by ZEFSAII (Michael W. Deem and Ramdas Pophale) SiO2 
 PCOD9195748
Probable space group: C 2/M
;
_chemical_formula_sum "Si O2"
_cell_formula_units_Z 64
_cell_length_a 20.765493
_cell_length_b 9.034826
_cell_length_c 19.910670
_cell_angle_alpha 90.000000
_cell_angle_beta 82.537160
_cell_angle_gamma 90.000000
_cell_volume 3703.850675
_symmetry_space_group_name_H-M "C 2/M"
_symmetry_group_IT_number 12
_symmetry_cell_setting 'monoclinic'
loop_
_space_group_symop_operation_xyz
x,y,z
-x,y,-z
-x,-y,-z
x,-y,z
1/2+x,1/2+y,z
1/2-x,1/2+y,-z
1/2-x,1/2-y,-z
1/2+x,1/2-y,z
loop_
_atom_site_type_symbol
_atom_site_label
_atom_site_fract_x
_atom_site_fract_y
_atom_site_fract_z
Si Si1 0.313349 0.823837 0.458547
Si Si2 0.915115 0.677653 0.078569
Si Si3 0.432242 0.176498 0.543109
Si Si4 0.936878 0.677614 0.919493
Si Si5 0.280522 0.323856 0.330943
Si Si6 0.841962 0.175991 0.825382
Si Si7 0.858512 0.175629 0.667737
Si Si8 0.203024 0.823686 0.826846
O O1 0.250000 0.750000 0.500000
O O2 0.374576 0.794958 0.497951
O O3 0.321011 0.754603 0.383730
O O4 0.303976 0.000000 0.454993
O O5 0.908052 0.500000 0.086299
O O6 0.857252 0.758137 0.124482
O O7 0.986864 0.717705 0.096155
O O8 0.915653 0.711455 0.998901
O O9 0.500000 0.218654 0.500000
O O10 0.415271 0.262515 0.613324
O O11 0.433481 0.000000 0.556666
O O12 0.932050 0.500000 0.911706
O O13 0.891371 0.757612 0.872465
O O14 0.278618 0.500000 0.342057
O O15 0.207614 0.258951 0.344390
O O16 0.304442 0.294107 0.252021
O O17 0.866920 0.203867 0.745933
O O18 0.770937 0.250056 0.839828
O O19 0.835574 0.000000 0.834964
O O20 0.850265 0.000000 0.659141
O O21 0.207371 0.000000 0.835261
#
# Coordination Sequence:
#
# PCOD9195748 Si02
#       8
#     8   8   8   8   8   8   8   8
#     4  11  21  34  57  83 107 139 182 226 268 320
#     4   9  19  37  59  82 111 144 182 226 271 321
#     4  10  22  39  56  77 108 143 181 223 267 321
#     4   9  19  37  59  82 109 146 185 221 268 328
#     4  10  20  35  55  80 109 142 180 224 270 323
#     4  10  21  36  56  83 112 143 183 227 271 325
#     4  10  20  35  56  80 107 142 180 223 273 321
#     4  10  21  36  56  82 112 146 184 226 274 322
#
# _framework density 17.279313999999999
#
# number of rings (size 3 to 8) (size 9 to 14) (size 15 to 20)
#    0.000    2.125    1.250    2.625    0.000    5.250 
#    2.250    1.250    0.000    0.000    0.000    0.000 
#    0.000    0.000    0.000    0.000    0.000    0.000 
#
# Total GULP energy -178635.226828 kJ/mol
# GULP energy per Si atom -5582.350838 kJ/mol
# Density = 1.723999 g / cm^3
# Si number density = 17.279314 Si / 1000 Ang^3
#
#
#
# Elastic Constant Matrix: (Units=GPa)
#
#
# Indices 1 2 3 4 5 6 
#
# 1 131.6982 73.6632 97.2399 0.0000 -13.9487 0.0000
# 2 73.6632 71.4168 74.3875 0.0000 -0.8078 0.0000
# 3 97.2399 74.3875 120.4768 0.0000 -2.8347 0.0000
# 4 0.0000 0.0000 0.0000 33.8634 0.0000 -1.0813
# 5 -13.9487 -0.8078 -2.8347 0.0000 31.7307 0.0000
# 6 0.0000 0.0000 0.0000 -1.0813 0.0000 31.0568
#
#
#
# Elastic Compliance Matrix: (Units=1/GPa)
#
#
# Indices 1 2 3 4 5 6 
#
# 1 0.024241 -0.013302 -0.011133 0.000000 0.009323 0.000000
# 2 -0.013302 0.046578 -0.018171 0.000000 -0.006285 0.000000
# 3 -0.011133 -0.018171 0.028439 0.000000 -0.002816 0.000000
# 4 0.000000 0.000000 0.000000 0.029563 0.000000 0.001029
# 5 0.009323 -0.006285 -0.002816 0.000000 0.035202 0.000000
# 6 0.000000 0.000000 0.000000 0.001029 0.000000 0.032235
#
#
# Mechanical properties :
#
#
# Convention : Reuss Voigt Hill
#
# Bulk Modulus (GPa) = 71.19013 90.46367 80.82690
# Shear Modulus (GPa) = 17.47322 24.55026 21.01174
#
# Velocity S-wave (km/s) = 3.18342 3.77342 3.49091
# Velocity P-wave (km/s) = 7.40279 8.45295 7.94524
#
# Compressibility (1/GPa) = 0.01404689
#
# Stress axis : x y z
#
# Youngs Moduli (GPa) = 41.25313 21.46914 35.16262
#
# Poissons Ratio (x) = 0.28558 0.39146
# Poissons Ratio (y) = 0.54874 0.63895
# Poissons Ratio (z) = 0.45926 0.39012
#
# Static dielectric constant tensor:
#      x y z
#    x 1.556080 0.000000 -0.000640 
#    y 0.000000 1.575090 0.000000 
#    z -0.000640 0.000000 1.588030 
# 
# From -- ./inp_files/281337.got.cif
#   From: 2010.05.17/outbox.cif.g08.bks.cpg/sg12_141_cif.got.tgz:281337.got - 2010.06.03 13:09:07.
