data_PCOD9195348
_publ_section_title
;
Structure prediction by ZEFSAII (Michael W. Deem and Ramdas Pophale) SiO2 
 PCOD9195348
Probable space group: C 2/M
;
_chemical_formula_sum "Si O2"
_cell_formula_units_Z 64
_cell_length_a 33.909437
_cell_length_b 7.691152
_cell_length_c 11.757418
_cell_angle_alpha 90.000000
_cell_angle_beta 87.054047
_cell_angle_gamma 90.000000
_cell_volume 3062.313258
_symmetry_space_group_name_H-M "C 2/M"
_symmetry_group_IT_number 12
_symmetry_cell_setting 'monoclinic'
loop_
_space_group_symop_operation_xyz
x,y,z
-x,y,-z
-x,-y,-z
x,-y,z
1/2+x,1/2+y,z
1/2-x,1/2+y,-z
1/2-x,1/2-y,-z
1/2+x,1/2-y,z
loop_
_atom_site_type_symbol
_atom_site_label
_atom_site_fract_x
_atom_site_fract_y
_atom_site_fract_z
Si Si1 0.661864 0.209497 0.341345
Si Si2 0.385985 0.206225 0.171038
Si Si3 0.041713 0.789007 0.443927
Si Si4 0.085383 0.295448 0.215602
Si Si5 0.618161 0.705528 0.568707
Si Si6 0.545245 0.213225 0.990469
Si Si7 0.729261 0.210839 0.171053
Si Si8 0.690316 0.794609 0.942551
O O1 0.625550 0.275963 0.267114
O O2 0.652284 0.256511 0.472266
O O3 0.703307 0.267388 0.282278
O O4 0.660988 0.000000 0.335216
O O5 0.377164 0.230288 0.304570
O O6 0.350273 0.279728 0.100001
O O7 0.386421 0.000000 0.150636
O O8 0.428717 0.269204 0.121916
O O9 0.051649 0.727243 0.315753
O O10 0.077794 0.725601 0.517400
O O11 0.000000 0.731715 0.500000
O O12 0.042140 0.000000 0.442129
O O13 0.092844 0.500000 0.196390
O O14 0.069556 0.227532 0.098329
O O15 0.614059 0.500000 0.577129
O O16 0.543603 0.000000 0.993229
O O17 0.500000 0.273293 0.000000
O O18 0.774098 0.271670 0.152199
O O19 0.730277 0.000000 0.168781
O O20 0.706344 0.274093 0.060585
O O21 0.684384 0.000000 0.961997
#
# Coordination Sequence:
#
# PCOD9195348 Si02
#       8
#     8   8   8   8   8   8   8   8
#     4   9  17  32  53  76 101 131 168 210 257 301
#     4  10  20  35  54  73 104 141 169 203 254 309
#     4   9  19  34  50  68  96 132 166 207 257 299
#     4   9  17  30  50  75  99 124 163 209 248 294
#     4  10  21  35  51  73 100 134 175 214 253 300
#     4   9  18  31  49  76 104 130 163 207 253 296
#     4   9  17  31  54  80 106 133 167 210 252 301
#     4   9  18  32  51  79 108 137 167 202 254 306
#
# _framework density 20.899232000000001
#
# number of rings (size 3 to 8) (size 9 to 14) (size 15 to 20)
#    0.000    2.750    0.000    1.125    1.750    4.750 
#    0.000    1.250    0.000    3.750    0.000    0.000 
#    0.000    0.000    0.000    0.000    0.000    0.000 
#
# Total GULP energy -178523.639334 kJ/mol
# GULP energy per Si atom -5578.863729 kJ/mol
# Density = 2.085166 g / cm^3
# Si number density = 20.899232 Si / 1000 Ang^3
#
#
#
# Elastic Constant Matrix: (Units=GPa)
#
#
# Indices 1 2 3 4 5 6 
#
# 1 96.4700 1.1597 43.4516 0.0000 -24.9582 0.0000
# 2 1.1597 32.1671 -6.3177 0.0000 5.1379 0.0000
# 3 43.4516 -6.3177 79.3415 0.0000 -11.2462 0.0000
# 4 0.0000 0.0000 0.0000 -8.3684 0.0000 -1.4355
# 5 -24.9582 5.1379 -11.2462 0.0000 26.2969 0.0000
# 6 0.0000 0.0000 0.0000 -1.4355 0.0000 13.9346
#
#
#
# Elastic Compliance Matrix: (Units=1/GPa)
#
#
# Indices 1 2 3 4 5 6 
#
# 1 0.017738 -0.004500 -0.008050 0.000000 0.014272 0.000000
# 2 -0.004500 0.033467 0.003829 0.000000 -0.009172 0.000000
# 3 -0.008050 0.003829 0.017169 0.000000 -0.001046 0.000000
# 4 0.000000 0.000000 0.000000 -0.117422 0.000000 -0.012097
# 5 0.014272 -0.009172 -0.001046 0.000000 0.052917 0.000000
# 6 0.000000 0.000000 0.000000 -0.012097 0.000000 0.070518
#
#
# Mechanical properties :
#
#
# Convention : Reuss Voigt Hill
#
# Bulk Modulus (GPa) = 19.63367 31.61845 25.62606
# Shear Modulus (GPa) = 45.95358 17.68494 31.81926
#
# Velocity S-wave (km/s) = 4.69424 2.91211 3.90617
# Velocity P-wave (km/s) = 6.22865 5.14480 5.71249
#
# Compressibility (1/GPa) = 0.05093290
#
# Stress axis : x y z
#
# Youngs Moduli (GPa) = 56.37612 29.88019 58.24495
#
# Poissons Ratio (x) = 0.13446 0.46885
# Poissons Ratio (y) = 0.25369 -0.22303
# Poissons Ratio (z) = 0.45381 -0.11442
#
# Static dielectric constant tensor:
#      x y z
#    x 1.754490 0.000000 -0.009630 
#    y 0.000000 1.780610 0.000000 
#    z -0.009630 0.000000 1.748670 
# 
# From -- ./inp_files/187406.got.cif
#   From: 2010.05.17/outbox.cif.g08.bks.cpg/sg12_94_cif.got.tgz:187406.got - 2010.06.03 13:09:07.
