data_PCOD9195318
_publ_section_title
;
Structure prediction by ZEFSAII (Michael W. Deem and Ramdas Pophale) SiO2 
 PCOD9195318
Probable space group: C 2/M
;
_chemical_formula_sum "Si O2"
_cell_formula_units_Z 56
_cell_length_a 17.919130
_cell_length_b 11.425622
_cell_length_c 18.287906
_cell_angle_alpha 90.000000
_cell_angle_beta 127.240993
_cell_angle_gamma 90.000000
_cell_volume 2980.758698
_symmetry_space_group_name_H-M "C 2/M"
_symmetry_group_IT_number 12
_symmetry_cell_setting 'monoclinic'
loop_
_space_group_symop_operation_xyz
x,y,z
-x,y,-z
-x,-y,-z
x,-y,z
1/2+x,1/2+y,z
1/2-x,1/2+y,-z
1/2-x,1/2-y,-z
1/2+x,1/2-y,z
loop_
_atom_site_type_symbol
_atom_site_label
_atom_site_fract_x
_atom_site_fract_y
_atom_site_fract_z
Si Si1 0.923805 0.363679 0.891047
Si Si2 0.128850 0.120484 0.931222
Si Si3 0.954169 0.775482 0.758797
Si Si4 0.105476 0.360462 0.756455
Si Si5 0.600100 0.140958 0.586493
Si Si6 0.734718 0.357120 0.431912
Si Si7 0.274176 0.790290 0.911167
O O1 0.938381 0.500000 0.881961
O O2 0.928324 0.290468 0.819032
O O3 0.823454 0.343470 0.870133
O O4 0.000000 0.334420 0.000000
O O5 0.214946 0.122601 0.925813
O O6 0.033144 0.132585 0.830384
O O7 0.128960 0.000000 0.974956
O O8 0.145990 0.231560 0.991916
O O9 0.865210 0.831825 0.666028
O O10 0.012002 0.689585 0.739051
O O11 0.103814 0.500000 0.759246
O O12 0.113724 0.319338 0.677515
O O13 0.198031 0.310043 0.849452
O O14 0.500000 0.186956 0.500000
O O15 0.683686 0.163409 0.579813
O O16 0.593140 0.000000 0.586429
O O17 0.739518 0.500000 0.455997
O O18 0.750000 0.250000 0.500000
#
# Coordination Sequence:
#
# PCOD9195318 Si02
#       7
#     8   8   8   8   8   8   8
#     4  11  22  37  56  83 122 163 207 260 317 375
#     4  10  20  35  54  76 108 151 198 249 304 361
#     4  11  22  38  59  88 122 159 205 254 315 374
#     4  10  20  35  59  87 117 157 209 258 301 366
#     4   9  18  35  59  86 116 154 200 252 304 362
#     4  11  24  42  67  96 130 163 203 259 319 380
#     4  10  20  35  53  79 110 153 204 249 303 361
#
# _framework density 18.787161999999999
#
# number of rings (size 3 to 8) (size 9 to 14) (size 15 to 20)
#    0.000    1.714    1.429    3.429    0.000    2.286 
#    0.000    2.857    0.000    4.714    0.000    0.000 
#    0.000    0.000    0.000    0.000    0.000    0.000 
#
# Total GULP energy -155975.047250 kJ/mol
# GULP energy per Si atom -5570.537402 kJ/mol
# Density = 1.874440 g / cm^3
# Si number density = 18.787162 Si / 1000 Ang^3
#
#
#
# Elastic Constant Matrix: (Units=GPa)
#
#
# Indices 1 2 3 4 5 6 
#
# 1 87.0706 30.8623 25.4314 0.0000 -5.5104 0.0000
# 2 30.8623 88.6550 38.6325 0.0000 -5.2420 0.0000
# 3 25.4314 38.6325 96.9995 0.0000 8.5760 0.0000
# 4 0.0000 0.0000 0.0000 40.0233 0.0000 0.4167
# 5 -5.5104 -5.2420 8.5760 0.0000 39.7205 0.0000
# 6 0.0000 0.0000 0.0000 0.4167 0.0000 19.6051
#
#
#
# Elastic Compliance Matrix: (Units=1/GPa)
#
#
# Indices 1 2 3 4 5 6 
#
# 1 0.013551 -0.003611 -0.002283 0.000000 0.001896 0.000000
# 2 -0.003611 0.014978 -0.005250 0.000000 0.002609 0.000000
# 3 -0.002283 -0.005250 0.013342 0.000000 -0.003890 0.000000
# 4 0.000000 0.000000 0.000000 0.024991 0.000000 -0.000531
# 5 0.001896 0.002609 -0.003890 0.000000 0.026623 0.000000
# 6 0.000000 0.000000 0.000000 -0.000531 0.000000 0.051018
#
#
# Mechanical properties :
#
#
# Convention : Reuss Voigt Hill
#
# Bulk Modulus (GPa) = 51.05491 51.39749 51.22620
# Shear Modulus (GPa) = 28.84845 31.72306 30.28576
#
# Velocity S-wave (km/s) = 3.92285 4.11365 4.01938
# Velocity P-wave (km/s) = 6.91034 7.06966 6.99045
#
# Compressibility (1/GPa) = 0.01958675
#
# Stress axis : x y z
#
# Youngs Moduli (GPa) = 73.79293 66.76239 74.94848
#
# Poissons Ratio (x) = 0.24106 0.17107
# Poissons Ratio (y) = 0.26645 0.39345
# Poissons Ratio (z) = 0.16843 0.35048
#
# Static dielectric constant tensor:
#      x y z
#    x 1.642290 0.000000 -0.002480 
#    y 0.000000 1.634740 0.000000 
#    z -0.002480 0.000000 1.691080 
# 
# From -- ./inp_files/277076.got.cif
#   From: 2010.05.17/outbox.cif.g08.bks.cpg/sg12_139_cif.got.tgz:277076.got - 2010.06.03 13:09:07.
