data_PCOD9195618
_publ_section_title
;
Structure prediction by ZEFSAII (Michael W. Deem and Ramdas Pophale) SiO2 
 PCOD9195618
Probable space group: C 2/M
;
_chemical_formula_sum "Si O2"
_cell_formula_units_Z 56
_cell_length_a 10.009812
_cell_length_b 10.410389
_cell_length_c 30.015629
_cell_angle_alpha 90.000000
_cell_angle_beta 67.410329
_cell_angle_gamma 90.000000
_cell_volume 2887.842552
_symmetry_space_group_name_H-M "C 2/M"
_symmetry_group_IT_number 12
_symmetry_cell_setting 'monoclinic'
loop_
_space_group_symop_operation_xyz
x,y,z
-x,y,-z
-x,-y,-z
x,-y,z
1/2+x,1/2+y,z
1/2-x,1/2+y,-z
1/2-x,1/2-y,-z
1/2+x,1/2-y,z
loop_
_atom_site_type_symbol
_atom_site_label
_atom_site_fract_x
_atom_site_fract_y
_atom_site_fract_z
Si Si1 0.269756 0.648895 0.863691
Si Si2 0.524899 0.851310 0.822634
Si Si3 0.299998 0.862239 0.540996
Si Si4 0.172368 0.647826 0.978461
Si Si5 0.765055 0.351317 0.289423
Si Si6 0.487844 0.145705 0.671982
Si Si7 0.533931 0.779321 0.566625
O O1 0.313530 0.500000 0.848974
O O2 0.395112 0.750148 0.836614
O O3 0.126847 0.673082 0.852398
O O4 0.230545 0.659680 0.920694
O O5 0.628965 0.840300 0.766508
O O6 0.473056 0.000000 0.831524
O O7 0.382142 0.759992 0.561269
O O8 0.365778 0.850264 0.483131
O O9 0.129712 0.845676 0.563058
O O10 0.341807 0.000000 0.554503
O O11 0.197691 0.500000 0.990155
O O12 0.250000 0.750000 0.000000
O O13 0.000000 0.668787 0.000000
O O14 0.713776 0.500000 0.298260
O O15 0.634896 0.250850 0.302413
O O16 0.865665 0.325438 0.319572
O O17 0.515008 0.152071 0.615712
O O18 0.443792 0.000000 0.690262
#
# Coordination Sequence:
#
# PCOD9195618 Si02
#       7
#     8   8   8   8   8   8   8
#     4  10  21  36  58  85 111 146 190 230 271 323
#     4  10  21  39  59  81 111 145 184 231 279 325
#     4  10  20  36  54  75 105 139 176 220 265 313
#     4  10  21  37  56  82 117 152 187 228 273 322
#     4  10  23  39  57  83 112 142 181 228 276 330
#     4  11  22  37  57  82 111 144 180 222 277 332
#     4  10  20  35  55  78 105 139 178 218 265 323
#
# _framework density 19.391639000000001
#
# number of rings (size 3 to 8) (size 9 to 14) (size 15 to 20)
#    0.000    1.857    0.000    4.286    0.000    4.286 
#    0.000    7.143    0.000    0.000    0.000    0.000 
#    0.000    0.000    0.000    0.000    0.000    0.000 
#
# Total GULP energy -156251.593840 kJ/mol
# GULP energy per Si atom -5580.414066 kJ/mol
# Density = 1.934750 g / cm^3
# Si number density = 19.391639 Si / 1000 Ang^3
#
#
#
# Elastic Constant Matrix: (Units=GPa)
#
#
# Indices 1 2 3 4 5 6 
#
# 1 50.6355 41.4350 -5.8203 0.0000 -4.3667 0.0000
# 2 41.4350 84.1958 1.6758 0.0000 -17.4657 0.0000
# 3 -5.8203 1.6758 35.6014 0.0000 5.7012 0.0000
# 4 0.0000 0.0000 0.0000 19.4915 0.0000 -2.2290
# 5 -4.3667 -17.4657 5.7012 0.0000 30.5051 0.0000
# 6 0.0000 0.0000 0.0000 -2.2290 0.0000 33.2564
#
#
#
# Elastic Compliance Matrix: (Units=1/GPa)
#
#
# Indices 1 2 3 4 5 6 
#
# 1 0.035852 -0.019344 0.007962 0.000000 -0.007431 0.000000
# 2 -0.019344 0.024044 -0.006242 0.000000 0.012164 0.000000
# 3 0.007962 -0.006242 0.031002 0.000000 -0.008228 0.000000
# 4 0.000000 0.000000 0.000000 0.051701 0.000000 0.003465
# 5 -0.007431 0.012164 -0.008228 0.000000 0.040220 0.000000
# 6 0.000000 0.000000 0.000000 0.003465 0.000000 0.030302
#
#
# Mechanical properties :
#
#
# Convention : Reuss Voigt Hill
#
# Bulk Modulus (GPa) = 17.96939 27.22373 22.59656
# Shear Modulus (GPa) = 18.73222 25.52675 22.12949
#
# Velocity S-wave (km/s) = 3.11142 3.63213 3.38181
# Velocity P-wave (km/s) = 4.71111 5.62665 5.18911
#
# Compressibility (1/GPa) = 0.05565020
#
# Stress axis : x y z
#
# Youngs Moduli (GPa) = 27.89207 41.58974 32.25609
#
# Poissons Ratio (x) = 0.80451 -0.25682
# Poissons Ratio (y) = 0.53954 0.20135
# Poissons Ratio (z) = -0.22207 0.25961
#
# Static dielectric constant tensor:
#      x y z
#    x 1.659380 0.000000 0.008930 
#    y 0.000000 1.683280 0.000000 
#    z 0.008930 0.000000 1.667230 
# 
# From -- ./inp_files/355769.got.cif
#   From: 2010.05.17/outbox.cif.g08.bks.cpg/sg12_178_cif.got.tgz:355769.got - 2010.06.03 13:09:07.
