data_PCOD9195635
_publ_section_title
;
Structure prediction by ZEFSAII (Michael W. Deem and Ramdas Pophale) SiO2 
 PCOD9195635
Probable space group: C 2/M
;
_chemical_formula_sum "Si O2"
_cell_formula_units_Z 64
_cell_length_a 16.549218
_cell_length_b 7.500988
_cell_length_c 19.828082
_cell_angle_alpha 90.000000
_cell_angle_beta 89.025579
_cell_angle_gamma 90.000000
_cell_volume 2461.012642
_symmetry_space_group_name_H-M "C 2/M"
_symmetry_group_IT_number 12
_symmetry_cell_setting 'monoclinic'
loop_
_space_group_symop_operation_xyz
x,y,z
-x,y,-z
-x,-y,-z
x,-y,z
1/2+x,1/2+y,z
1/2-x,1/2+y,-z
1/2-x,1/2-y,-z
1/2+x,1/2-y,z
loop_
_atom_site_type_symbol
_atom_site_label
_atom_site_fract_x
_atom_site_fract_y
_atom_site_fract_z
Si Si1 0.035532 0.714119 0.146188
Si Si2 0.778918 0.793549 0.105286
Si Si3 0.125113 0.283095 0.020789
Si Si4 0.871935 0.211066 0.228521
Si Si5 0.627524 0.217187 0.529229
Si Si6 0.877677 0.292466 0.729566
Si Si7 0.541909 0.217670 0.400891
Si Si8 0.277613 0.796626 0.351236
O O1 0.036125 0.500000 0.139062
O O2 0.051350 0.776218 0.069495
O O3 0.107887 0.776303 0.195465
O O4 0.956071 0.760839 0.189195
O O5 0.703722 0.723502 0.063635
O O6 0.805593 0.715636 0.176145
O O7 0.758571 0.000000 0.118656
O O8 0.856107 0.784535 0.054075
O O9 0.124198 0.500000 0.014706
O O10 0.857040 0.292835 0.301959
O O11 0.860712 0.000000 0.236759
O O12 0.612540 0.272067 0.452474
O O13 0.543857 0.269321 0.567421
O O14 0.699196 0.283358 0.576414
O O15 0.631615 0.000000 0.530058
O O16 0.898174 0.500000 0.735646
O O17 0.939037 0.213808 0.673527
O O18 0.791807 0.285872 0.693896
O O19 0.542658 0.000000 0.399931
O O20 0.253677 0.000000 0.361617
#
# Coordination Sequence:
#
# PCOD9195635 Si02
#       8
#     8   8   8   8   8   8   8   8
#     4  10  21  37  56  79 108 140 177 220 264 312
#     4   9  19  36  56  78 105 137 173 214 259 308
#     4   9  18  34  56  79 105 138 173 211 257 310
#     4  11  23  38  56  78 106 139 177 221 267 316
#     4   8  15  29  50  77 105 135 175 219 260 307
#     4  10  20  35  55  78 107 143 179 217 263 313
#     4   8  14  28  52  77 102 137 178 215 257 311
#     4  11  22  35  53  78 108 140 177 222 267 313
#
# _framework density 26.005555000000001
#
# number of rings (size 3 to 8) (size 9 to 14) (size 15 to 20)
#    0.000    2.500    0.000    3.000    0.000    7.000 
#    0.000    5.000    0.000    0.750    0.000    5.250 
#    0.000    0.000    0.000    0.000    0.000    0.000 
#
# Total GULP energy -178814.041468 kJ/mol
# GULP energy per Si atom -5587.938796 kJ/mol
# Density = 2.594637 g / cm^3
# Si number density = 26.005555 Si / 1000 Ang^3
#
#
#
# Elastic Constant Matrix: (Units=GPa)
#
#
# Indices 1 2 3 4 5 6 
#
# 1 59.8131 -9.7320 -14.0963 0.0000 -0.2332 0.0000
# 2 -9.7320 75.9669 -0.1870 0.0000 0.9038 0.0000
# 3 -14.0963 -0.1870 108.7136 0.0000 9.0734 0.0000
# 4 0.0000 0.0000 0.0000 0.1316 0.0000 0.9586
# 5 -0.2332 0.9038 9.0734 0.0000 42.7543 0.0000
# 6 0.0000 0.0000 0.0000 0.9586 0.0000 13.3312
#
#
#
# Elastic Compliance Matrix: (Units=1/GPa)
#
#
# Indices 1 2 3 4 5 6 
#
# 1 0.017635 0.002270 0.002328 0.000000 -0.000446 0.000000
# 2 0.002270 0.013459 0.000346 0.000000 -0.000346 0.000000
# 3 0.002328 0.000346 0.009672 0.000000 -0.002047 0.000000
# 4 0.000000 0.000000 0.000000 15.958106 0.000000 -1.147445
# 5 -0.000446 -0.000346 -0.002047 0.000000 0.023829 0.000000
# 6 0.000000 0.000000 0.000000 -1.147445 0.000000 0.157517
#
#
# Mechanical properties :
#
#
# Convention : Reuss Voigt Hill
#
# Bulk Modulus (GPa) = 19.74146 21.82923 20.78534
# Shear Modulus (GPa) = 0.30889 29.14400 14.72644
#
# Velocity S-wave (km/s) = 0.34501 3.35129 2.38225
# Velocity P-wave (km/s) = 2.78683 4.83603 3.94675
#
# Compressibility (1/GPa) = 0.05065481
#
# Stress axis : x y z
#
# Youngs Moduli (GPa) = 56.70549 74.29734 103.39380
#
# Poissons Ratio (x) = -0.16867 -0.24067
# Poissons Ratio (y) = -0.12873 -0.03581
# Poissons Ratio (z) = -0.13200 -0.02573
#
# Static dielectric constant tensor:
#      x y z
#    x 2.144040 0.000000 0.002650 
#    y 0.000000 1.986060 0.000000 
#    z 0.002650 0.000000 2.037270 
# 
# From -- ./inp_files/314178.got.cif
#   From: 2010.05.17/outbox.cif.g08.bks.cpg/sg12_158_cif.got.tgz:314178.got - 2010.06.03 13:09:07.
