data_PCOD9195060
_publ_section_title
;
Structure prediction by ZEFSAII (Michael W. Deem and Ramdas Pophale) SiO2 
 PCOD9195060
Probable space group: C 2/M
;
_chemical_formula_sum "Si O2"
_cell_formula_units_Z 50
_cell_length_a 18.658419
_cell_length_b 7.443044
_cell_length_c 14.829471
_cell_angle_alpha 90.000000
_cell_angle_beta 106.187185
_cell_angle_gamma 90.000000
_cell_volume 1977.804538
_symmetry_space_group_name_H-M "C 2/M"
_symmetry_group_IT_number 12
_symmetry_cell_setting 'monoclinic'
loop_
_space_group_symop_operation_xyz
x,y,z
-x,y,-z
-x,-y,-z
x,-y,z
1/2+x,1/2+y,z
1/2-x,1/2+y,-z
1/2-x,1/2-y,-z
1/2+x,1/2-y,z
loop_
_atom_site_type_symbol
_atom_site_label
_atom_site_fract_x
_atom_site_fract_y
_atom_site_fract_z
Si Si1 0.330972 0.783995 0.205740
Si Si2 0.500000 0.500000 0.000000
Si Si3 0.192673 0.281584 0.598403
Si Si4 0.550401 0.703128 0.437927
Si Si5 0.359025 0.288180 0.683802
Si Si6 0.663475 0.794682 0.115951
Si Si7 0.435409 0.783856 0.085431
O O1 0.334494 0.730143 0.310683
O O2 0.252716 0.718412 0.138026
O O3 0.400288 0.733956 0.168524
O O4 0.326282 0.000000 0.202064
O O5 0.502616 0.659365 0.079230
O O6 0.191725 0.500000 0.591586
O O7 0.133246 0.203094 0.509441
O O8 0.278235 0.218090 0.621225
O O9 0.500000 0.788465 0.500000
O O10 0.520708 0.500000 0.415396
O O11 0.569468 0.785993 0.346232
O O12 0.360332 0.500000 0.665744
O O13 0.354095 0.271837 0.789738
O O14 0.639836 0.000000 0.108251
O O15 0.625099 0.719730 0.012383
O O16 0.448068 0.000000 0.086579
#
# Coordination Sequence:
#
# PCOD9195060 Si02
#       7
#     8   2   8   8   8   8   8
#     4   9  19  37  61  87 121 149 185 249 306 351
#     4  12  26  40  64  82 120 178 214 226 304 362
#     4   9  18  34  57  83 108 147 189 234 296 352
#     4  10  21  37  53  79 112 148 188 241 292 350
#     4   9  19  36  57  80 113 149 189 237 298 358
#     4  10  20  34  60  91 117 145 193 253 301 347
#     4  10  23  42  59  89 125 159 207 253 287 356
#
# _framework density 25.280557000000002
#
# number of rings (size 3 to 8) (size 9 to 14) (size 15 to 20)
#    0.000    2.400    0.000    2.640    3.360    3.520 
#    2.880    0.000    0.000    0.000    0.000    0.000 
#    0.000    0.000    0.000    0.000    0.000    0.000 
#
# Total GULP energy -139408.307052 kJ/mol
# GULP energy per Si atom -5576.332282 kJ/mol
# Density = 2.522302 g / cm^3
# Si number density = 25.280557 Si / 1000 Ang^3
#
#
#
# Elastic Constant Matrix: (Units=GPa)
#
#
# Indices 1 2 3 4 5 6 
#
# 1 100.1760 12.3572 45.0013 0.0000 -46.7016 0.0000
# 2 12.3572 90.9935 6.9986 0.0000 -18.5770 0.0000
# 3 45.0013 6.9986 52.3636 0.0000 -23.6176 0.0000
# 4 0.0000 0.0000 0.0000 -45.0496 0.0000 -53.7687
# 5 -46.7016 -18.5770 -23.6176 0.0000 71.3041 0.0000
# 6 0.0000 0.0000 0.0000 -53.7687 0.0000 -55.4880
#
#
#
# Elastic Compliance Matrix: (Units=1/GPa)
#
#
# Indices 1 2 3 4 5 6 
#
# 1 0.019998 0.000086 -0.013261 0.000000 0.008728 0.000000
# 2 0.000086 0.011610 -0.000277 0.000000 0.002989 0.000000
# 3 -0.013261 -0.000277 0.031249 0.000000 0.001593 0.000000
# 4 0.000000 0.000000 0.000000 0.141784 0.000000 -0.137390
# 5 0.008728 0.002989 0.001593 0.000000 0.021047 0.000000
# 6 0.000000 0.000000 0.000000 -0.137390 0.000000 0.115111
#
#
# Mechanical properties :
#
#
# Convention : Reuss Voigt Hill
#
# Bulk Modulus (GPa) = 27.81498 41.36082 34.58790
# Shear Modulus (GPa) = 13.16869 6.09835 9.63352
#
# Velocity S-wave (km/s) = 2.28480 1.55483 1.95420
# Velocity P-wave (km/s) = 4.24109 4.42940 4.33627
#
# Compressibility (1/GPa) = 0.03595184
#
# Stress axis : x y z
#
# Youngs Moduli (GPa) = 50.00506 86.13482 32.00068
#
# Poissons Ratio (x) = -0.00741 0.42437
# Poissons Ratio (y) = -0.00430 0.00888
# Poissons Ratio (z) = 0.66313 0.02390
#
# Static dielectric constant tensor:
#      x y z
#    x 2.116730 0.000000 0.002340 
#    y 0.000000 2.004790 0.000000 
#    z 0.002340 0.000000 2.060660 
# 
# From -- ./inp_files/230316.got.cif
#   From: 2010.05.17/outbox.cif.g08.bks.cpg/sg12_116_cif.got.tgz:230316.got - 2010.06.03 13:09:07.
