data_PCOD9195067
_publ_section_title
;
Structure prediction by ZEFSAII (Michael W. Deem and Ramdas Pophale) SiO2 
 PCOD9195067
Probable space group: C 2/M
;
_chemical_formula_sum "Si O2"
_cell_formula_units_Z 44
_cell_length_a 5.709852
_cell_length_b 24.009348
_cell_length_c 14.198592
_cell_angle_alpha 90.000000
_cell_angle_beta 87.692389
_cell_angle_gamma 90.000000
_cell_volume 1944.903984
_symmetry_space_group_name_H-M "C 2/M"
_symmetry_group_IT_number 12
_symmetry_cell_setting 'monoclinic'
loop_
_space_group_symop_operation_xyz
x,y,z
-x,y,-z
-x,-y,-z
x,-y,z
1/2+x,1/2+y,z
1/2-x,1/2+y,-z
1/2-x,1/2-y,-z
1/2+x,1/2-y,z
loop_
_atom_site_type_symbol
_atom_site_label
_atom_site_fract_x
_atom_site_fract_y
_atom_site_fract_z
Si Si1 0.248729 0.000000 0.944123
Si Si2 0.950873 0.392378 0.890851
Si Si3 0.347324 0.780041 0.789436
Si Si4 0.164587 0.058234 0.587354
Si Si5 0.977644 0.660892 0.600903
Si Si6 0.750833 0.933628 0.722014
O O1 0.270709 0.056593 0.886451
O O2 0.500000 0.000000 0.000000
O O3 0.000000 0.000000 0.000000
O O4 0.851483 0.336968 0.847472
O O5 0.175064 0.412800 0.826268
O O6 0.000000 0.382800 0.000000
O O7 0.594294 0.748818 0.809183
O O8 0.379307 0.797130 0.679921
O O9 0.296283 0.114364 0.572043
O O10 0.000000 0.054073 0.500000
O O11 0.018319 0.063140 0.685445
O O12 0.302485 0.000000 0.586736
O O13 0.000000 0.691929 0.500000
O O14 0.152751 0.617066 0.654989
O O15 0.675244 0.000000 0.714874
#
# Coordination Sequence:
#
# PCOD9195067 Si02
#       6
#     4   8   8   8   8   8
#     4  10  22  44  72 112 146 178 224 284 362 432
#     4  10  23  46  74 107 145 188 235 299 363 433
#     4  11  29  50  74 103 139 189 252 304 357 422
#     4  10  20  34  61 100 143 189 231 286 353 441
#     4  11  23  39  65  94 138 185 242 300 361 419
#     4  10  20  37  61  99 148 185 230 279 355 437
#
# _framework density 22.623227
#
# number of rings (size 3 to 8) (size 9 to 14) (size 15 to 20)
#    0.000    1.636    2.727    0.545    5.091    5.091 
#    6.545    0.000    0.000    0.000    0.000    0.000 
#    0.000    0.000    0.000    0.000    0.000    0.000 
#
# Total GULP energy -122480.351870 kJ/mol
# GULP energy per Si atom -5567.288721 kJ/mol
# Density = 2.257174 g / cm^3
# Si number density = 22.623227 Si / 1000 Ang^3
#
#
#
# Elastic Constant Matrix: (Units=GPa)
#
#
# Indices 1 2 3 4 5 6 
#
# 1 61.0705 32.2706 24.8925 0.0000 -2.2208 0.0000
# 2 32.2706 103.4449 22.6162 0.0000 -3.0780 0.0000
# 3 24.8925 22.6162 160.8296 0.0000 -7.6916 0.0000
# 4 0.0000 0.0000 0.0000 35.9885 0.0000 3.6111
# 5 -2.2208 -3.0780 -7.6916 0.0000 26.2167 0.0000
# 6 0.0000 0.0000 0.0000 3.6111 0.0000 -11.9960
#
#
#
# Elastic Compliance Matrix: (Units=1/GPa)
#
#
# Indices 1 2 3 4 5 6 
#
# 1 0.020427 -0.005854 -0.002321 0.000000 0.000362 0.000000
# 2 -0.005854 0.011667 -0.000703 0.000000 0.000668 0.000000
# 3 -0.002321 -0.000703 0.006757 0.000000 0.001703 0.000000
# 4 0.000000 0.000000 0.000000 0.026972 0.000000 0.008119
# 5 0.000362 0.000668 0.001703 0.000000 0.038752 0.000000
# 6 0.000000 0.000000 0.000000 0.008119 0.000000 -0.080917
#
#
# Mechanical properties :
#
#
# Convention : Reuss Voigt Hill
#
# Bulk Modulus (GPa) = 47.40361 53.87820 50.64090
# Shear Modulus (GPa) = 103.20707 26.41288 64.80997
#
# Velocity S-wave (km/s) = 6.76158 3.42059 5.35815
# Velocity P-wave (km/s) = 9.05305 6.28234 7.79184
#
# Compressibility (1/GPa) = 0.02109544
#
# Stress axis : x y z
#
# Youngs Moduli (GPa) = 48.95423 85.71377 147.98871
#
# Poissons Ratio (x) = 0.50179 0.34350
# Poissons Ratio (y) = 0.28659 0.10397
# Poissons Ratio (z) = 0.11363 0.06022
#
# Static dielectric constant tensor:
#      x y z
#    x 2.024140 0.000000 -0.019210 
#    y 0.000000 1.837570 0.000000 
#    z -0.019210 0.000000 1.967170 
# 
# From -- ./inp_files/191914.got.cif
#   From: 2010.05.17/outbox.cif.g08.bks.cpg/sg12_96_cif.got.tgz:191914.got - 2010.06.03 13:09:07.
