data_PCOD9195240
_publ_section_title
;
Structure prediction by ZEFSAII (Michael W. Deem and Ramdas Pophale) SiO2 
 PCOD9195240
Probable space group: C 2/M
;
_chemical_formula_sum "Si O2"
_cell_formula_units_Z 58
_cell_length_a 13.795765
_cell_length_b 26.560333
_cell_length_c 8.842913
_cell_angle_alpha 90.000000
_cell_angle_beta 87.145415
_cell_angle_gamma 90.000000
_cell_volume 3236.200532
_symmetry_space_group_name_H-M "C 2/M"
_symmetry_group_IT_number 12
_symmetry_cell_setting 'monoclinic'
loop_
_space_group_symop_operation_xyz
x,y,z
-x,y,-z
-x,-y,-z
x,-y,z
1/2+x,1/2+y,z
1/2-x,1/2+y,-z
1/2-x,1/2-y,-z
1/2+x,1/2-y,z
loop_
_atom_site_type_symbol
_atom_site_label
_atom_site_fract_x
_atom_site_fract_y
_atom_site_fract_z
Si Si1 0.384003 0.413079 0.700416
Si Si2 0.248480 0.219340 0.219815
Si Si3 0.663776 0.832006 0.224259
Si Si4 0.771501 0.150957 0.501638
Si Si5 0.547890 0.332818 0.731272
Si Si6 0.000000 0.000000 0.500000
Si Si7 0.824162 0.135462 0.996605
Si Si8 0.025425 0.724200 0.829533
O O1 0.291595 0.397139 0.605934
O O2 0.458142 0.366523 0.693871
O O3 0.443964 0.456684 0.611310
O O4 0.349178 0.410863 0.880501
O O5 0.217000 0.277096 0.207646
O O6 0.234611 0.198744 0.388859
O O7 0.361800 0.210571 0.178262
O O8 0.189763 0.184267 0.109172
O O9 0.682895 0.851611 0.391933
O O10 0.723435 0.866735 0.100977
O O11 0.551363 0.819149 0.205253
O O12 0.864621 0.157821 0.389226
O O13 0.591967 0.351749 0.888701
O O14 0.518177 0.274513 0.730971
O O15 0.000000 0.740477 0.000000
#
# Coordination Sequence:
#
# PCOD9195240 Si02
#       8
#     8   8   8   8   8   2   8   8
#     4  11  22  39  58  77 108 139 173 225 293 346
#     4  11  20  33  48  75 113 153 201 239 257 301
#     4  11  21  32  50  74 109 152 204 230 255 313
#     4  10  21  36  49  71 110 154 180 226 283 327
#     4  11  20  34  55  76 108 157 193 222 275 318
#     4  12  24  40  62  92 100 128 188 230 284 378
#     4  10  20  35  53  71 110 153 185 220 280 325
#     4  12  21  30  51  79 111 156 207 233 249 296
#
# _framework density 17.922249999999998
#
# number of rings (size 3 to 8) (size 9 to 14) (size 15 to 20)
#    0.000    1.103    5.517    4.552    0.000    0.552 
#    0.000    1.379    0.000    0.000    0.000    0.000 
#    0.000   17.655    0.552    0.000    0.000    0.000 
#
# Total GULP energy -161472.478403 kJ/mol
# GULP energy per Si atom -5568.016497 kJ/mol
# Density = 1.788146 g / cm^3
# Si number density = 17.922250 Si / 1000 Ang^3
#
#
#
# Elastic Constant Matrix: (Units=GPa)
#
#
# Indices 1 2 3 4 5 6 
#
# 1 73.9296 9.8618 13.4131 0.0000 -4.9863 0.0000
# 2 9.8618 48.8446 20.6911 0.0000 -2.1424 0.0000
# 3 13.4131 20.6911 100.3258 0.0000 -6.9717 0.0000
# 4 0.0000 0.0000 0.0000 14.8008 0.0000 -14.1546
# 5 -4.9863 -2.1424 -6.9717 0.0000 23.2119 0.0000
# 6 0.0000 0.0000 0.0000 -14.1546 0.0000 9.5734
#
#
#
# Elastic Compliance Matrix: (Units=1/GPa)
#
#
# Indices 1 2 3 4 5 6 
#
# 1 0.014220 -0.002224 -0.001271 0.000000 0.002468 0.000000
# 2 -0.002224 0.022792 -0.004382 0.000000 0.000310 0.000000
# 3 -0.001271 -0.004382 0.011228 0.000000 0.002695 0.000000
# 4 0.000000 0.000000 0.000000 -0.163201 0.000000 -0.241299
# 5 0.002468 0.000310 0.002695 0.000000 0.044450 0.000000
# 6 0.000000 0.000000 0.000000 -0.241299 0.000000 -0.252315
#
#
# Mechanical properties :
#
#
# Convention : Reuss Voigt Hill
#
# Bulk Modulus (GPa) = 30.78214 34.55912 32.67063
# Shear Modulus (GPa) = -16.87804 21.45948 2.29072
#
# Velocity S-wave (km/s) = -3.07210 3.46405 1.13178
# Velocity P-wave (km/s) = 2.15149 5.94342 4.46951
#
# Compressibility (1/GPa) = 0.03248637
#
# Stress axis : x y z
#
# Youngs Moduli (GPa) = 70.32287 43.87522 89.05995
#
# Poissons Ratio (x) = 0.09760 0.11319
# Poissons Ratio (y) = 0.15643 0.39023
# Poissons Ratio (z) = 0.08937 0.19225
#
# Static dielectric constant tensor:
#      x y z
#    x 1.662180 0.000000 -0.010810 
#    y 0.000000 1.587430 0.000000 
#    z -0.010810 0.000000 1.720370 
# 
# From -- ./inp_files/65377.got.cif
#   From: 2010.05.17/outbox.cif.g08.bks.cpg/sg12_33_cif.got.tgz:65377.got - 2010.06.03 13:09:07.
