data_PCOD9195007
_publ_section_title
;
Structure prediction by ZEFSAII (Michael W. Deem and Ramdas Pophale) SiO2 
 PCOD9195007
Probable space group: C 2/M
;
_chemical_formula_sum "Si O2"
_cell_formula_units_Z 58
_cell_length_a 24.750737
_cell_length_b 7.483139
_cell_length_c 22.446877
_cell_angle_alpha 90.000000
_cell_angle_beta 141.392096
_cell_angle_gamma 90.000000
_cell_volume 2594.201441
_symmetry_space_group_name_H-M "C 2/M"
_symmetry_group_IT_number 12
_symmetry_cell_setting 'monoclinic'
loop_
_space_group_symop_operation_xyz
x,y,z
-x,y,-z
-x,-y,-z
x,-y,z
1/2+x,1/2+y,z
1/2-x,1/2+y,-z
1/2-x,1/2-y,-z
1/2+x,1/2-y,z
loop_
_atom_site_type_symbol
_atom_site_label
_atom_site_fract_x
_atom_site_fract_y
_atom_site_fract_z
Si Si1 0.402304 0.292040 0.419411
Si Si2 0.442566 0.784047 0.645235
Si Si3 0.118395 0.716845 0.732632
Si Si4 0.096284 0.789057 0.254459
Si Si5 0.730717 0.287848 0.051516
Si Si6 0.211401 0.705892 0.566678
Si Si7 0.000000 0.500000 0.000000
Si Si8 0.945515 0.216756 0.038478
O O1 0.500000 0.216336 0.500000
O O2 0.409382 0.500000 0.442162
O O3 0.366917 0.274895 0.322320
O O4 0.342050 0.208048 0.417764
O O5 0.525325 0.723331 0.678316
O O6 0.447094 0.734346 0.718262
O O7 0.353280 0.716307 0.538727
O O8 0.441539 0.000000 0.640931
O O9 0.116994 0.500000 0.731535
O O10 0.194198 0.783565 0.840958
O O11 0.193496 0.712699 0.342483
O O12 0.033528 0.722303 0.148223
O O13 0.103747 0.000000 0.248817
O O14 0.733634 0.500000 0.061737
O O15 0.750000 0.250000 0.000000
O O16 0.634731 0.236510 0.988145
O O17 0.226251 0.500000 0.561605
O O18 0.938353 0.339750 0.974858
O O19 0.946645 0.000000 0.029201
#
# Coordination Sequence:
#
# PCOD9195007 Si02
#       8
#     8   8   8   8   8   8   2   8
#     4  11  23  38  57  85 121 157 200 253 302 366
#     4  10  20  34  59  90 124 159 204 251 299 372
#     4  10  21  38  61  89 119 163 202 244 311 372
#     4  10  22  39  61  88 122 160 204 252 313 368
#     4  10  22  40  66  97 131 164 211 271 333 392
#     4  10  21  38  59  85 118 164 203 245 304 367
#     4  12  26  44  76  94 128 178 226 272 332 394
#     4  10  24  46  67  96 132 172 218 277 333 386
#
# _framework density 22.357555999999999
#
# number of rings (size 3 to 8) (size 9 to 14) (size 15 to 20)
#    0.000    1.793    1.379    1.862    1.931    3.862 
#    2.483    4.138    0.000    0.000    0.000    0.000 
#    0.000    0.000    0.000    0.000    0.000    0.000 
#
# Total GULP energy -161784.516612 kJ/mol
# GULP energy per Si atom -5578.776435 kJ/mol
# Density = 2.230667 g / cm^3
# Si number density = 22.357556 Si / 1000 Ang^3
#
#
#
# Elastic Constant Matrix: (Units=GPa)
#
#
# Indices 1 2 3 4 5 6 
#
# 1 69.5923 3.3892 -7.5997 0.0000 1.7427 0.0000
# 2 3.3892 79.2707 4.4591 0.0000 13.0142 0.0002
# 3 -7.5997 4.4591 91.0663 0.0000 8.0567 0.0000
# 4 0.0000 0.0000 0.0000 3.1422 0.0000 -16.7133
# 5 1.7427 13.0142 8.0567 0.0000 31.8181 0.0000
# 6 0.0000 0.0002 0.0000 -16.7133 0.0000 27.2024
#
#
#
# Elastic Compliance Matrix: (Units=1/GPa)
#
#
# Indices 1 2 3 4 5 6 
#
# 1 0.014563 -0.000548 0.001323 0.000000 -0.000908 0.000000
# 2 -0.000548 0.013546 -0.000227 0.000000 -0.005453 0.000000
# 3 0.001323 -0.000227 0.011355 0.000000 -0.002855 0.000000
# 4 0.000000 0.000000 0.000000 -0.140322 0.000000 -0.086214
# 5 -0.000908 -0.005453 -0.002855 0.000000 0.034432 0.000000
# 6 0.000000 0.000000 0.000000 -0.086214 0.000000 -0.016209
#
#
# Mechanical properties :
#
#
# Convention : Reuss Voigt Hill
#
# Bulk Modulus (GPa) = 24.65427 26.71406 25.68416
# Shear Modulus (GPa) = -71.21497 28.41126 -21.40186
#
# Velocity S-wave (km/s) = -5.64995 3.56865 -3.09731
# Velocity P-wave (km/s) = 5.61350 5.38097 1.13059
#
# Compressibility (1/GPa) = 0.04056093
#
# Stress axis : x y z
#
# Youngs Moduli (GPa) = 68.66595 73.81995 88.06652
#
# Poissons Ratio (x) = 0.04045 -0.11647
# Poissons Ratio (y) = 0.03762 0.01995
# Poissons Ratio (z) = -0.09081 0.01673
#
# Static dielectric constant tensor:
#      x y z
#    x 1.766960 0.000000 0.028590 
#    y 0.000000 1.838110 0.000000 
#    z 0.028590 0.000000 1.919790 
# 
# From -- ./inp_files/324609.got.cif
#   From: 2010.05.17/outbox.cif.g08.bks.cpg/sg12_163_cif.got.tgz:324609.got - 2010.06.03 13:09:07.
