data_PCOD9195716
_publ_section_title
;
Structure prediction by ZEFSAII (Michael W. Deem and Ramdas Pophale) SiO2 
 PCOD9195716
Probable space group: C 2/M
;
_chemical_formula_sum "Si O2"
_cell_formula_units_Z 56
_cell_length_a 21.719076
_cell_length_b 8.168344
_cell_length_c 18.904118
_cell_angle_alpha 90.000000
_cell_angle_beta 121.940849
_cell_angle_gamma 90.000000
_cell_volume 2845.981745
_symmetry_space_group_name_H-M "C 2/M"
_symmetry_group_IT_number 12
_symmetry_cell_setting 'monoclinic'
loop_
_space_group_symop_operation_xyz
x,y,z
-x,y,-z
-x,-y,-z
x,-y,z
1/2+x,1/2+y,z
1/2-x,1/2+y,-z
1/2-x,1/2-y,-z
1/2+x,1/2-y,z
loop_
_atom_site_type_symbol
_atom_site_label
_atom_site_fract_x
_atom_site_fract_y
_atom_site_fract_z
Si Si1 0.224439 0.302099 0.378878
Si Si2 0.080346 0.697872 0.027038
Si Si3 0.293521 0.200104 0.792083
Si Si4 0.142557 0.196405 0.767478
Si Si5 0.334313 0.696350 0.060490
Si Si6 0.367160 0.691747 0.544468
Si Si7 0.984086 0.688884 0.412324
O O1 0.218186 0.500000 0.381227
O O2 0.204743 0.250032 0.288307
O O3 0.307743 0.261963 0.448932
O O4 0.173410 0.222300 0.406442
O O5 0.078582 0.500000 0.027229
O O6 0.138108 0.754513 0.120837
O O7 0.113884 0.746068 0.971657
O O8 0.000000 0.756163 0.000000
O O9 0.218993 0.256452 0.782636
O O10 0.292850 0.000000 0.792229
O O11 0.136759 0.255273 0.845106
O O12 0.078383 0.236660 0.674365
O O13 0.146738 0.000000 0.773631
O O14 0.334299 0.500000 0.060147
O O15 0.250000 0.750000 0.000000
O O16 0.384710 0.500000 0.547510
O O17 0.439866 0.793575 0.581768
O O18 0.964206 0.500000 0.411105
O O19 0.000000 0.763239 0.500000
#
# Coordination Sequence:
#
# PCOD9195716 Si02
#       7
#     8   8   8   8   8   8   8
#     4   9  18  33  56  80 108 149 195 239 283 340
#     4  10  21  38  60  87 122 160 199 246 303 363
#     4   9  17  34  57  82 112 149 193 237 287 349
#     4  10  21  38  61  86 115 155 199 242 291 354
#     4  11  22  39  64  90 122 158 200 252 302 360
#     4  10  20  35  55  79 110 151 192 234 290 349
#     4  11  24  39  56  83 118 149 188 244 296 346
#
# _framework density 19.676866
#
# number of rings (size 3 to 8) (size 9 to 14) (size 15 to 20)
#    0.000    2.000    1.429    2.143    0.000    5.429 
#    0.000    2.857    0.000    0.000    0.000    0.000 
#    0.000    0.000    0.000    0.000    0.000    0.000 
#
# Total GULP energy -156310.668898 kJ/mol
# GULP energy per Si atom -5582.523889 kJ/mol
# Density = 1.963208 g / cm^3
# Si number density = 19.676866 Si / 1000 Ang^3
#
#
#
# Elastic Constant Matrix: (Units=GPa)
#
#
# Indices 1 2 3 4 5 6 
#
# 1 114.3955 9.3794 83.3720 0.0000 14.4418 0.0000
# 2 9.3794 14.3725 15.8288 0.0000 1.0962 0.0000
# 3 83.3720 15.8288 193.8403 0.0000 -2.4611 0.0000
# 4 0.0000 0.0000 0.0000 19.2227 0.0000 -6.8440
# 5 14.4418 1.0962 -2.4611 0.0000 29.5270 0.0000
# 6 0.0000 0.0000 0.0000 -6.8440 0.0000 20.3914
#
#
#
# Elastic Compliance Matrix: (Units=1/GPa)
#
#
# Indices 1 2 3 4 5 6 
#
# 1 0.014262 -0.002069 -0.006059 0.000000 -0.007404 0.000000
# 2 -0.002069 0.077088 -0.005434 0.000000 -0.002303 0.000000
# 3 -0.006059 -0.005434 0.008258 0.000000 0.003854 0.000000
# 4 0.000000 0.000000 0.000000 0.059082 0.000000 0.019830
# 5 -0.007404 -0.002303 0.003854 0.000000 0.037895 0.000000
# 6 0.000000 0.000000 0.000000 0.019830 0.000000 0.055696
#
#
# Mechanical properties :
#
#
# Convention : Reuss Voigt Hill
#
# Bulk Modulus (GPa) = 13.79643 59.97428 36.88536
# Shear Modulus (GPa) = 16.47083 28.09676 22.28379
#
# Velocity S-wave (km/s) = 2.89635 3.78287 3.36890
# Velocity P-wave (km/s) = 4.26753 7.04456 5.82399
#
# Compressibility (1/GPa) = 0.07248250
#
# Stress axis : x y z
#
# Youngs Moduli (GPa) = 70.11690 12.97214 121.10007
#
# Poissons Ratio (x) = 0.02684 0.73376
# Poissons Ratio (y) = 0.14510 0.65807
# Poissons Ratio (z) = 0.42485 0.07049
#
# Static dielectric constant tensor:
#      x y z
#    x 1.664580 0.000000 -0.013730 
#    y 0.000000 1.693760 0.000000 
#    z -0.013730 0.000000 1.692130 
# 
# From -- ./inp_files/281621.got.cif
#   From: 2010.05.17/outbox.cif.g08.bks.cpg/sg12_141_cif.got.tgz:281621.got - 2010.06.03 13:09:07.
