data_PCOD9195548
_publ_section_title
;
Structure prediction by ZEFSAII (Michael W. Deem and Ramdas Pophale) SiO2 
 PCOD9195548
Probable space group: C 2/M
;
_chemical_formula_sum "Si O2"
_cell_formula_units_Z 56
_cell_length_a 13.106167
_cell_length_b 23.801009
_cell_length_c 11.802973
_cell_angle_alpha 90.000000
_cell_angle_beta 118.557017
_cell_angle_gamma 90.000000
_cell_volume 3233.896013
_symmetry_space_group_name_H-M "C 2/M"
_symmetry_group_IT_number 12
_symmetry_cell_setting 'monoclinic'
loop_
_space_group_symop_operation_xyz
x,y,z
-x,y,-z
-x,-y,-z
x,-y,z
1/2+x,1/2+y,z
1/2-x,1/2+y,-z
1/2-x,1/2-y,-z
1/2+x,1/2-y,z
loop_
_atom_site_type_symbol
_atom_site_label
_atom_site_fract_x
_atom_site_fract_y
_atom_site_fract_z
Si Si1 0.374932 0.065476 0.154319
Si Si2 0.270916 0.433952 0.145034
Si Si3 0.540965 0.354425 0.649950
Si Si4 0.862241 0.564636 0.410962
Si Si5 0.743787 0.719929 0.673968
Si Si6 0.288426 0.667024 0.591326
Si Si7 0.072471 0.366174 0.152110
O O1 0.334990 0.068588 0.262449
O O2 0.482839 0.107540 0.193825
O O3 0.410727 0.000000 0.151998
O O4 0.277517 0.078678 0.007518
O O5 0.288342 0.500000 0.162296
O O6 0.384061 0.400980 0.245681
O O7 0.169454 0.412892 0.175148
O O8 0.500000 0.370942 0.500000
O O9 0.628961 0.301905 0.677851
O O10 0.426538 0.341595 0.661082
O O11 0.842132 0.500000 0.437320
O O12 0.783098 0.609960 0.431533
O O13 0.000000 0.575887 0.500000
O O14 0.737534 0.693464 0.545096
O O15 0.752019 0.786544 0.664508
O O16 0.858202 0.690418 0.784137
O O17 0.000000 0.357639 0.000000
#
# Coordination Sequence:
#
# PCOD9195548 Si02
#       7
#     8   8   8   8   8   8   8
#     4   9  17  30  49  74 103 135 170 205 247 299
#     4   9  17  30  49  73 103 137 167 202 251 299
#     4   9  19  34  50  74 100 125 167 211 244 292
#     4  10  21  35  52  76 102 129 167 210 246 287
#     4   9  19  34  52  75  99 128 167 206 247 297
#     4  10  20  35  55  73  99 135 165 200 249 299
#     4   9  16  29  50  75 102 129 164 211 254 292
#
# _framework density 17.316573999999999
#
# number of rings (size 3 to 8) (size 9 to 14) (size 15 to 20)
#    0.000    2.714    0.000    1.286    0.000    6.571 
#    0.000    9.286    0.000    7.714    0.000    0.000 
#    0.000    0.000    0.000    0.000    0.000    0.000 
#
# Total GULP energy -155992.976642 kJ/mol
# GULP energy per Si atom -5571.177737 kJ/mol
# Density = 1.727716 g / cm^3
# Si number density = 17.316574 Si / 1000 Ang^3
#
#
#
# Elastic Constant Matrix: (Units=GPa)
#
#
# Indices 1 2 3 4 5 6 
#
# 1 86.3384 64.9004 18.2571 0.0000 18.4935 0.0000
# 2 64.9004 100.4800 24.0754 0.0000 13.9627 0.0000
# 3 18.2571 24.0754 30.7194 0.0000 14.3461 0.0000
# 4 0.0000 0.0000 0.0000 19.0656 0.0000 -4.7344
# 5 18.4935 13.9627 14.3461 0.0000 19.7073 0.0000
# 6 0.0000 0.0000 0.0000 -4.7344 0.0000 12.3917
#
#
#
# Elastic Compliance Matrix: (Units=1/GPa)
#
#
# Indices 1 2 3 4 5 6 
#
# 1 0.025763 -0.015420 0.004488 0.000000 -0.016518 0.000000
# 2 -0.015420 0.021569 -0.011152 0.000000 0.007307 0.000000
# 3 0.004488 -0.011152 0.055909 0.000000 -0.037010 0.000000
# 4 0.000000 0.000000 0.000000 0.057948 0.000000 0.022140
# 5 -0.016518 0.007307 -0.037010 0.000000 0.088007 0.000000
# 6 0.000000 0.000000 0.000000 0.022140 0.000000 0.089158
#
#
# Mechanical properties :
#
#
# Convention : Reuss Voigt Hill
#
# Bulk Modulus (GPa) = 16.92851 48.00040 32.46445
# Shear Modulus (GPa) = 12.43119 17.58658 15.00888
#
# Velocity S-wave (km/s) = 2.68223 3.19029 2.94723
# Velocity P-wave (km/s) = 4.40336 6.43041 5.51089
#
# Compressibility (1/GPa) = 0.05907196
#
# Stress axis : x y z
#
# Youngs Moduli (GPa) = 38.81574 46.36325 17.88620
#
# Poissons Ratio (x) = 0.71493 -0.08027
# Poissons Ratio (y) = 0.59855 0.19946
# Poissons Ratio (z) = -0.17419 0.51703
#
# Static dielectric constant tensor:
#      x y z
#    x 1.586790 0.000000 0.004520 
#    y 0.000000 1.584420 0.000000 
#    z 0.004520 0.000000 1.605610 
# 
# From -- ./inp_files/133976.got.cif
#   From: 2010.05.17/outbox.cif.g08.bks.cpg/sg12_67_cif.got.tgz:133976.got - 2010.06.03 13:09:07.
