data_PCOD9195892
_publ_section_title
;
Structure prediction by ZEFSAII (Michael W. Deem and Ramdas Pophale) SiO2 
 PCOD9195892
Probable space group: C 2/M
;
_chemical_formula_sum "Si O2"
_cell_formula_units_Z 32
_cell_length_a 19.166134
_cell_length_b 11.986331
_cell_length_c 17.778831
_cell_angle_alpha 90.000000
_cell_angle_beta 24.604335
_cell_angle_gamma 90.000000
_cell_volume 1700.521485
_symmetry_space_group_name_H-M "C 2/M"
_symmetry_group_IT_number 12
_symmetry_cell_setting 'monoclinic'
loop_
_space_group_symop_operation_xyz
x,y,z
-x,y,-z
-x,-y,-z
x,-y,z
1/2+x,1/2+y,z
1/2-x,1/2+y,-z
1/2-x,1/2-y,-z
1/2+x,1/2-y,z
loop_
_atom_site_type_symbol
_atom_site_label
_atom_site_fract_x
_atom_site_fract_y
_atom_site_fract_z
Si Si1 0.895349 0.714080 0.250701
Si Si2 0.237018 0.760193 0.102064
Si Si3 0.871267 0.000000 0.735056
Si Si4 0.590101 0.867448 0.588883
Si Si5 0.250803 0.500000 0.681776
O O1 0.747813 0.804704 0.397291
O O2 0.906460 0.665239 0.325428
O O3 0.848619 0.610519 0.243691
O O4 0.076378 0.763009 0.051335
O O5 0.082431 0.681678 0.276308
O O6 0.191429 0.887566 0.165059
O O7 0.250000 0.750000 0.000000
O O8 0.801208 0.000000 0.719172
O O9 0.072988 0.000000 0.535970
O O10 0.599052 0.000000 0.573234
#
# Coordination Sequence:
#
# PCOD9195892 Si02
#       5
#     8   8   4   8   4
#     4  10  20  35  56  86 114 159 196 245 296 350
#     4  10  22  35  56  86 120 149 197 248 294 346
#     4  11  23  39  61  94 121 160 196 251 300 351
#     4  10  20  35  55  84 123 154 197 242 296 353
#     4  11  21  39  65  86 127 156 202 244 299 362
#
# _framework density 18.817757
#
# number of rings (size 3 to 8) (size 9 to 14) (size 15 to 20)
#    0.000    1.750    3.750    0.750    5.250    3.000 
#    0.000    0.000    0.000    3.000    0.000    3.500 
#    0.000    0.000    0.000    0.000    0.000    0.000 
#
# Total GULP energy -89328.188657 kJ/mol
# GULP energy per Si atom -5583.011791 kJ/mol
# Density = 1.877493 g / cm^3
# Si number density = 18.817757 Si / 1000 Ang^3
#
#
#
# Elastic Constant Matrix: (Units=GPa)
#
#
# Indices 1 2 3 4 5 6 
#
# 1 27.2739 18.0031 32.5264 0.0005 -14.2713 -0.0001
# 2 18.0031 153.8036 89.3764 0.0008 -16.8454 -0.0003
# 3 32.5264 89.3764 164.7388 0.0013 -41.7460 -0.0004
# 4 0.0005 0.0008 0.0013 18.0669 -0.0005 -2.4258
# 5 -14.2713 -16.8454 -41.7460 -0.0005 30.5271 0.0001
# 6 -0.0001 -0.0003 -0.0004 -2.4258 0.0001 12.2743
#
#
#
# Elastic Compliance Matrix: (Units=1/GPa)
#
#
# Indices 1 2 3 4 5 6 
#
# 1 0.052668 -0.001073 -0.005704 -0.000001 0.016230 0.000000
# 2 -0.001073 0.009672 -0.005831 0.000000 -0.003138 0.000000
# 3 -0.005704 -0.005831 0.013572 0.000000 0.012675 0.000000
# 4 -0.000001 0.000000 0.000000 0.056859 0.000000 0.011237
# 5 0.016230 -0.003138 0.012675 0.000000 0.055947 0.000000
# 6 0.000000 0.000000 0.000000 0.011237 0.000000 0.083692
#
#
# Mechanical properties :
#
#
# Convention : Reuss Voigt Hill
#
# Bulk Modulus (GPa) = 19.72507 69.51424 44.61965
# Shear Modulus (GPa) = 15.89702 25.90100 20.89901
#
# Velocity S-wave (km/s) = 2.90968 3.71403 3.33618
# Velocity P-wave (km/s) = 4.66832 7.44399 6.21314
#
# Compressibility (1/GPa) = 0.05069690
#
# Stress axis : x y z
#
# Youngs Moduli (GPa) = 18.98676 103.39154 73.68164
#
# Poissons Ratio (x) = 0.11090 0.42030
# Poissons Ratio (y) = 0.02037 0.42962
# Poissons Ratio (z) = 0.10831 0.60285
#
# Static dielectric constant tensor:
#      x y z
#    x 1.645890 0.000000 -0.022970 
#    y 0.000000 1.538720 0.000000 
#    z -0.022970 0.000000 1.704670 
# 
# From -- ./inp_files/70462.got.cif
#   From: 2010.05.17/outbox.cif.g08.bks.cpg/sg12_36_cif.got.tgz:70462.got - 2010.06.03 13:09:07.
