data_PCOD9195999
_publ_section_title
;
Structure prediction by ZEFSAII (Michael W. Deem and Ramdas Pophale) SiO2 
 PCOD9195999
Probable space group: C 2/M
;
_chemical_formula_sum "Si O2"
_cell_formula_units_Z 44
_cell_length_a 7.772784
_cell_length_b 12.778751
_cell_length_c 24.432261
_cell_angle_alpha 90.000000
_cell_angle_beta 124.639716
_cell_angle_gamma 90.000000
_cell_volume 1996.607175
_symmetry_space_group_name_H-M "C 2/M"
_symmetry_group_IT_number 12
_symmetry_cell_setting 'monoclinic'
loop_
_space_group_symop_operation_xyz
x,y,z
-x,y,-z
-x,-y,-z
x,-y,z
1/2+x,1/2+y,z
1/2-x,1/2+y,-z
1/2-x,1/2-y,-z
1/2+x,1/2-y,z
loop_
_atom_site_type_symbol
_atom_site_label
_atom_site_fract_x
_atom_site_fract_y
_atom_site_fract_z
Si Si1 0.140444 0.386012 0.940221
Si Si2 0.388024 0.812311 0.695815
Si Si3 0.159639 0.114561 0.231725
Si Si4 0.517914 0.337740 0.088165
Si Si5 0.057459 0.178849 0.402930
Si Si6 0.000000 0.321095 0.500000
O O1 0.040908 0.500000 0.923867
O O2 0.287717 0.375889 0.913190
O O3 0.986207 0.288466 0.913890
O O4 0.305496 0.373696 0.019870
O O5 0.596650 0.877800 0.741863
O O6 0.383087 0.714345 0.737212
O O7 0.410850 0.760996 0.640251
O O8 0.165057 0.871295 0.653329
O O9 0.032699 0.125356 0.152683
O O10 0.121479 0.000000 0.250472
O O11 0.279131 0.120965 0.450554
O O12 0.027657 0.245687 0.452725
#
# Coordination Sequence:
#
# PCOD9195999 Si02
#       6
#     8   8   8   8   8   4
#     4  10  20  37  56  78 109 141 174 236 291 322
#     4   9  19  33  50  78 111 139 183 227 260 322
#     4  11  21  36  55  76 106 147 181 222 273 324
#     4  10  20  35  56  80 106 140 189 226 272 342
#     4   8  14  27  47  80 110 136 183 223 257 322
#     4   8  12  22  50  82 106 142 180 214 270 316
#
# _framework density 22.037383999999999
#
# number of rings (size 3 to 8) (size 9 to 14) (size 15 to 20)
#    0.000    2.545    0.000    3.273    0.000    0.000 
#    0.000   15.455    0.000    0.000    0.000  287.636 
#    0.000    0.000    0.000    0.000    0.000    0.000 
#
# Total GULP energy -122691.976420 kJ/mol
# GULP energy per Si atom -5576.908019 kJ/mol
# Density = 2.198723 g / cm^3
# Si number density = 22.037384 Si / 1000 Ang^3
#
#
#
# Elastic Constant Matrix: (Units=GPa)
#
#
# Indices 1 2 3 4 5 6 
#
# 1 57.4092 10.4748 26.9248 0.0000 -8.2438 0.0000
# 2 10.4748 131.6107 13.5592 0.0000 -7.7392 0.0000
# 3 26.9248 13.5592 86.8744 0.0000 -23.4036 0.0000
# 4 0.0000 0.0000 0.0000 -39.4606 0.0000 -17.7765
# 5 -8.2438 -7.7392 -23.4036 0.0000 25.4345 0.0000
# 6 0.0000 0.0000 0.0000 -17.7765 0.0000 -7.6495
#
#
#
# Elastic Compliance Matrix: (Units=1/GPa)
#
#
# Indices 1 2 3 4 5 6 
#
# 1 0.020522 -0.000967 -0.005979 0.000000 0.000856 0.000000
# 2 -0.000967 0.007820 -0.000484 0.000000 0.001620 0.000000
# 3 -0.005979 -0.000484 0.017122 0.000000 0.013670 0.000000
# 4 0.000000 0.000000 0.000000 0.540675 0.000000 -1.256458
# 5 0.000856 0.001620 0.013670 0.000000 0.052665 0.000000
# 6 0.000000 0.000000 0.000000 -1.256458 0.000000 2.789116
#
#
# Mechanical properties :
#
#
# Convention : Reuss Voigt Hill
#
# Bulk Modulus (GPa) = 32.67538 41.97909 37.32723
# Shear Modulus (GPa) = 1.44802 10.66058 6.05430
#
# Velocity S-wave (km/s) = 0.81148 2.20182 1.65929
# Velocity P-wave (km/s) = 3.96704 5.05514 4.54378
#
# Compressibility (1/GPa) = 0.03060408
#
# Stress axis : x y z
#
# Youngs Moduli (GPa) = 48.72761 127.87204 58.40424
#
# Poissons Ratio (x) = 0.12366 0.34919
# Poissons Ratio (y) = 0.04712 0.02829
# Poissons Ratio (z) = 0.29134 0.06193
#
# Static dielectric constant tensor:
#      x y z
#    x 1.861050 0.000000 0.057290 
#    y 0.000000 1.738350 0.000000 
#    z 0.057290 0.000000 1.821660 
# 
# From -- ./inp_files/355933.got.cif
#   From: 2010.05.17/outbox.cif.g08.bks.cpg/sg12_178_cif.got.tgz:355933.got - 2010.06.03 13:09:07.
