data_PCOD9195514
_publ_section_title
;
Structure prediction by ZEFSAII (Michael W. Deem and Ramdas Pophale) SiO2 
 PCOD9195514
Probable space group: C 2/M
;
_chemical_formula_sum "Si O2"
_cell_formula_units_Z 56
_cell_length_a 19.987904
_cell_length_b 8.652471
_cell_length_c 28.624167
_cell_angle_alpha 90.000000
_cell_angle_beta 38.285536
_cell_angle_gamma 90.000000
_cell_volume 3067.173090
_symmetry_space_group_name_H-M "C 2/M"
_symmetry_group_IT_number 12
_symmetry_cell_setting 'monoclinic'
loop_
_space_group_symop_operation_xyz
x,y,z
-x,y,-z
-x,-y,-z
x,-y,z
1/2+x,1/2+y,z
1/2-x,1/2+y,-z
1/2-x,1/2-y,-z
1/2+x,1/2-y,z
loop_
_atom_site_type_symbol
_atom_site_label
_atom_site_fract_x
_atom_site_fract_y
_atom_site_fract_z
Si Si1 0.319754 0.314855 0.867228
Si Si2 0.343241 0.314646 0.301372
Si Si3 0.866099 0.180628 0.449478
Si Si4 0.005391 0.317072 0.702566
Si Si5 0.579527 0.312791 0.998324
Si Si6 0.385315 0.180925 0.538728
Si Si7 0.472796 0.687489 0.868417
O O1 0.313096 0.500000 0.871842
O O2 0.399773 0.262838 0.782037
O O3 0.378420 0.263849 0.883771
O O4 0.201875 0.244216 0.925517
O O5 0.358657 0.500000 0.298436
O O6 0.397693 0.232965 0.315866
O O7 0.216106 0.283660 0.372065
O O8 0.413615 0.267722 0.217824
O O9 0.750000 0.250000 0.500000
O O10 0.881269 0.214306 0.495474
O O11 0.958502 0.261164 0.368040
O O12 0.866378 0.000000 0.438673
O O13 0.991488 0.500000 0.711081
O O14 0.579446 0.500000 0.998275
O O15 0.541736 0.258806 0.070635
O O16 0.500000 0.262264 0.000000
O O17 0.500000 0.197640 0.500000
O O18 0.372816 0.000000 0.531245
O O19 0.469580 0.500000 0.871327
#
# Coordination Sequence:
#
# PCOD9195514 Si02
#       7
#     8   8   8   8   8   8   8
#     4  10  20  36  58  81 109 144 186 232 280 336
#     4   9  17  33  56  79 111 149 189 235 282 335
#     4  12  23  37  59  85 116 152 192 238 286 339
#     4  11  21  35  58  87 113 142 186 239 289 338
#     4  10  20  35  54  81 116 148 184 227 276 335
#     4  10  21  37  56  83 117 156 197 237 285 340
#     4   8  16  32  55  80 105 143 186 228 277 325
#
# _framework density 18.257853999999998
#
# number of rings (size 3 to 8) (size 9 to 14) (size 15 to 20)
#    0.000    2.000    1.429    4.286    0.000    0.571 
#    2.571    2.857    0.000    0.000    0.000    0.000 
#    0.000    0.000    0.000    0.000    0.000    0.000 
#
# Total GULP energy -156259.479659 kJ/mol
# GULP energy per Si atom -5580.695702 kJ/mol
# Density = 1.821630 g / cm^3
# Si number density = 18.257854 Si / 1000 Ang^3
#
#
#
# Elastic Constant Matrix: (Units=GPa)
#
#
# Indices 1 2 3 4 5 6 
#
# 1 78.0446 23.0474 70.5686 0.0001 -3.4454 -0.0008
# 2 23.0474 32.5970 17.0899 0.0003 -1.1306 -0.0019
# 3 70.5686 17.0899 139.1982 0.0000 -6.6253 0.0000
# 4 0.0001 0.0003 0.0000 26.9437 0.0001 -0.0219
# 5 -3.4454 -1.1306 -6.6253 0.0001 24.3750 0.0001
# 6 -0.0008 -0.0019 0.0000 -0.0219 0.0001 16.2707
#
#
#
# Elastic Compliance Matrix: (Units=1/GPa)
#
#
# Indices 1 2 3 4 5 6 
#
# 1 0.028181 -0.013291 -0.012658 0.000000 -0.000074 0.000000
# 2 -0.013291 0.039061 0.001965 0.000000 0.000467 0.000004
# 3 -0.012658 0.001965 0.013453 0.000000 0.001959 0.000000
# 4 0.000000 0.000000 0.000000 0.037114 0.000000 0.000050
# 5 -0.000074 0.000467 0.001959 0.000000 0.041569 0.000000
# 6 0.000000 0.000004 0.000000 0.000050 0.000000 0.061460
#
#
# Mechanical properties :
#
#
# Convention : Reuss Voigt Hill
#
# Bulk Modulus (GPa) = 30.55697 52.36129 41.45913
# Shear Modulus (GPa) = 17.87520 22.79346 20.33433
#
# Velocity S-wave (km/s) = 3.13236 3.53713 3.34088
# Velocity P-wave (km/s) = 5.46396 6.73964 6.13505
#
# Compressibility (1/GPa) = 0.03272576
#
# Stress axis : x y z
#
# Youngs Moduli (GPa) = 35.48533 25.60092 74.33083
#
# Poissons Ratio (x) = 0.34026 0.94091
# Poissons Ratio (y) = 0.47163 -0.14603
# Poissons Ratio (z) = 0.44919 -0.05030
#
# Static dielectric constant tensor:
#      x y z
#    x 1.607300 0.000000 0.013310 
#    y 0.000000 1.626500 0.000000 
#    z 0.013310 0.000000 1.642260 
# 
# From -- ./inp_files/380643.got.cif
#   From: 2010.05.17/outbox.cif.g08.bks.cpg/sg12_191_cif.got.tgz:380643.got - 2010.06.03 13:09:07.
