data_PCOD9195670
_publ_section_title
;
Structure prediction by ZEFSAII (Michael W. Deem and Ramdas Pophale) SiO2 
 PCOD9195670
Probable space group: C 2/M
;
_chemical_formula_sum "Si O2"
_cell_formula_units_Z 64
_cell_length_a 19.574011
_cell_length_b 9.022459
_cell_length_c 31.817808
_cell_angle_alpha 90.000000
_cell_angle_beta 39.661785
_cell_angle_gamma 90.000000
_cell_volume 3586.483934
_symmetry_space_group_name_H-M "C 2/M"
_symmetry_group_IT_number 12
_symmetry_cell_setting 'monoclinic'
loop_
_space_group_symop_operation_xyz
x,y,z
-x,y,-z
-x,-y,-z
x,-y,z
1/2+x,1/2+y,z
1/2-x,1/2+y,-z
1/2-x,1/2-y,-z
1/2+x,1/2-y,z
loop_
_atom_site_type_symbol
_atom_site_label
_atom_site_fract_x
_atom_site_fract_y
_atom_site_fract_z
Si Si1 0.049229 0.177908 0.704331
Si Si2 0.201544 0.822504 0.179464
Si Si3 0.914348 0.824087 0.921515
Si Si4 0.875940 0.174606 0.552669
Si Si5 0.163180 0.822606 0.809999
Si Si6 0.731484 0.823983 0.076347
Si Si7 0.306067 0.175502 0.293948
Si Si8 0.768893 0.824174 0.446465
O O1 0.101565 0.258790 0.719562
O O2 0.120908 0.218171 0.629739
O O3 0.925003 0.213257 0.756991
O O4 0.059026 0.000000 0.706114
O O5 0.268513 0.750531 0.185343
O O6 0.238418 0.758661 0.117195
O O7 0.212901 0.000000 0.175039
O O8 0.868951 0.735363 0.903161
O O9 0.036505 0.788879 0.874399
O O10 0.907452 0.000000 0.915143
O O11 0.835109 0.794428 0.998038
O O12 0.804639 0.197129 0.628085
O O13 0.823739 0.271974 0.541148
O O14 0.000000 0.208358 0.500000
O O15 0.866035 0.000000 0.546160
O O16 0.196155 0.758095 0.749213
O O17 0.176039 0.000000 0.804789
O O18 0.722770 0.000000 0.086926
O O19 0.322525 0.000000 0.280116
O O20 0.750000 0.750000 0.500000
O O21 0.768915 0.000000 0.451345
#
# Coordination Sequence:
#
# PCOD9195670 Si02
#       8
#     8   8   8   8   8   8   8   8
#     4   9  20  38  57  76 104 143 179 215 263 318
#     4  11  23  38  55  78 109 142 178 219 266 316
#     4   9  20  38  58  80 108 143 178 213 259 316
#     4   9  19  36  56  78 107 142 176 213 263 319
#     4  11  23  38  55  77 109 145 178 215 264 317
#     4  10  20  36  59  84 108 137 177 220 261 310
#     4  10  20  35  57  82 106 136 178 223 262 309
#     4  10  20  35  55  79 107 139 177 219 264 313
#
# _framework density 17.844774999999998
#
# number of rings (size 3 to 8) (size 9 to 14) (size 15 to 20)
#    0.000    2.125    0.000    2.625    0.000    8.250 
#    0.000    7.500    0.000    0.000    0.000    0.000 
#    0.000    0.000    0.000    0.000    0.000    0.000 
#
# Total GULP energy -178711.859990 kJ/mol
# GULP energy per Si atom -5584.745625 kJ/mol
# Density = 1.780416 g / cm^3
# Si number density = 17.844775 Si / 1000 Ang^3
#
#
#
# Elastic Constant Matrix: (Units=GPa)
#
#
# Indices 1 2 3 4 5 6 
#
# 1 152.8382 79.8384 91.1568 0.0001 11.7702 0.0003
# 2 79.8384 69.6302 64.0963 0.0004 7.3695 0.0012
# 3 91.1568 64.0963 92.2982 -0.0001 7.3597 -0.0004
# 4 0.0001 0.0004 -0.0001 30.5666 0.0000 4.9712
# 5 11.7702 7.3695 7.3597 0.0000 31.8263 0.0002
# 6 0.0003 0.0012 -0.0004 4.9712 0.0002 40.2036
#
#
#
# Elastic Compliance Matrix: (Units=1/GPa)
#
#
# Indices 1 2 3 4 5 6 
#
# 1 0.019368 -0.012580 -0.010242 0.000000 -0.001881 0.000000
# 2 -0.012580 0.048243 -0.020944 0.000000 -0.001675 -0.000002
# 3 -0.010242 -0.020944 0.035460 0.000000 0.000438 0.000001
# 4 0.000000 0.000000 0.000000 0.033387 0.000000 -0.004128
# 5 -0.001881 -0.001675 0.000438 0.000000 0.032403 0.000000
# 6 0.000000 -0.000002 0.000001 -0.004128 0.000000 0.025384
#
#
# Mechanical properties :
#
#
# Convention : Reuss Voigt Hill
#
# Bulk Modulus (GPa) = 64.35949 87.21662 75.78805
# Shear Modulus (GPa) = 17.42429 25.83099 21.62764
#
# Velocity S-wave (km/s) = 3.12819 3.80878 3.48514
# Velocity P-wave (km/s) = 7.01370 8.26581 7.66537
#
# Compressibility (1/GPa) = 0.01553772
#
# Stress axis : x y z
#
# Youngs Moduli (GPa) = 51.63159 20.72856 28.20105
#
# Poissons Ratio (x) = 0.26077 0.28884
# Poissons Ratio (y) = 0.64953 0.59064
# Poissons Ratio (z) = 0.52882 0.43414
#
# Static dielectric constant tensor:
#      x y z
#    x 1.562500 0.000000 -0.008050 
#    y 0.000000 1.596310 0.000000 
#    z -0.008050 0.000000 1.614960 
# 
# From -- ./inp_files/378220.got.cif
#   From: 2010.05.17/outbox.cif.g08.bks.cpg/sg12_190_cif.got.tgz:378220.got - 2010.06.03 13:09:07.
