data_PCOD9195533
_publ_section_title
;
Structure prediction by ZEFSAII (Michael W. Deem and Ramdas Pophale) SiO2 
 PCOD9195533
Probable space group: C 2/M
;
_chemical_formula_sum "Si O2"
_cell_formula_units_Z 52
_cell_length_a 16.765916
_cell_length_b 21.769108
_cell_length_c 12.117005
_cell_angle_alpha 90.000000
_cell_angle_beta 43.526532
_cell_angle_gamma 90.000000
_cell_volume 3045.700798
_symmetry_space_group_name_H-M "C 2/M"
_symmetry_group_IT_number 12
_symmetry_cell_setting 'monoclinic'
loop_
_space_group_symop_operation_xyz
x,y,z
-x,y,-z
-x,-y,-z
x,-y,z
1/2+x,1/2+y,z
1/2-x,1/2+y,-z
1/2-x,1/2-y,-z
1/2+x,1/2-y,z
loop_
_atom_site_type_symbol
_atom_site_label
_atom_site_fract_x
_atom_site_fract_y
_atom_site_fract_z
Si Si1 0.876022 0.296338 0.675069
Si Si2 0.054240 0.366119 0.180941
Si Si3 0.199903 0.685905 0.600566
Si Si4 0.310800 0.205305 0.129592
Si Si5 0.968550 0.500000 0.713608
Si Si6 0.204849 0.873267 0.691509
Si Si7 0.000000 0.196520 0.000000
Si Si8 0.195745 0.500000 0.329580
O O1 0.893626 0.344540 0.754988
O O2 0.807034 0.237845 0.790075
O O3 0.797327 0.328309 0.660274
O O4 0.000000 0.280347 0.500000
O O5 0.031502 0.438274 0.214534
O O6 0.935229 0.327840 0.286321
O O7 0.140600 0.347948 0.996134
O O8 0.250000 0.750000 0.500000
O O9 0.210003 0.686706 0.722347
O O10 0.267751 0.633351 0.465222
O O11 0.409966 0.258256 0.029725
O O12 0.859576 0.500000 0.737598
O O13 0.083798 0.500000 0.522540
O O14 0.230281 0.939663 0.716225
O O15 0.079042 0.846045 0.843828
#
# Coordination Sequence:
#
# PCOD9195533 Si02
#       8
#     8   8   8   8   4   8   4   4
#     4  11  19  34  57  86 109 145 185 233 284 339
#     4  12  21  36  54  87 115 145 191 231 284 332
#     4  12  19  35  58  78 114 152 179 228 283 342
#     4  11  22  36  55  84 120 148 180 232 287 339
#     4  11  22  34  58  81 112 152 184 240 276 334
#     4  11  21  34  58  82 112 144 190 224 286 334
#     4  10  20  35  54  83 112 148 172 232 284 332
#     4  11  20  37  55  82 112 145 192 235 278 326
#
# _framework density 17.073246000000001
#
# number of rings (size 3 to 8) (size 9 to 14) (size 15 to 20)
#    0.000    0.769    9.231    0.462    0.000    0.308 
#    0.000    2.308    0.000    0.000    0.000    0.538 
#    0.000    0.000    0.000    0.000    0.000    0.000 
#
# Total GULP energy -145063.469290 kJ/mol
# GULP energy per Si atom -5579.364203 kJ/mol
# Density = 1.703439 g / cm^3
# Si number density = 17.073246 Si / 1000 Ang^3
#
#
#
# Elastic Constant Matrix: (Units=GPa)
#
#
# Indices 1 2 3 4 5 6 
#
# 1 32.2329 20.6704 20.7430 0.0000 -7.3243 0.0000
# 2 20.6704 85.6187 35.6500 0.0000 -0.1226 0.0000
# 3 20.7430 35.6500 115.3176 0.0000 -5.7122 0.0000
# 4 0.0000 0.0000 0.0000 15.9254 0.0000 7.6430
# 5 -7.3243 -0.1226 -5.7122 0.0000 18.9220 0.0000
# 6 0.0000 0.0000 0.0000 7.6430 0.0000 16.8205
#
#
#
# Elastic Compliance Matrix: (Units=1/GPa)
#
#
# Indices 1 2 3 4 5 6 
#
# 1 0.042685 -0.008493 -0.004301 0.000000 0.015169 0.000000
# 2 -0.008493 0.015121 -0.003355 0.000000 -0.004202 0.000000
# 3 -0.004301 -0.003355 0.010557 0.000000 0.001500 0.000000
# 4 0.000000 0.000000 0.000000 0.080305 0.000000 -0.036489
# 5 0.015169 -0.004202 0.001500 0.000000 0.059146 0.000000
# 6 0.000000 0.000000 0.000000 -0.036489 0.000000 0.076031
#
#
# Mechanical properties :
#
#
# Convention : Reuss Voigt Hill
#
# Bulk Modulus (GPa) = 27.72752 43.03288 35.38020
# Shear Modulus (GPa) = 15.23624 20.74062 17.98843
#
# Velocity S-wave (km/s) = 2.99056 3.48918 3.24945
# Velocity P-wave (km/s) = 5.31038 6.44144 5.90306
#
# Compressibility (1/GPa) = 0.03606526
#
# Stress axis : x y z
#
# Youngs Moduli (GPa) = 23.42731 66.13315 94.72439
#
# Poissons Ratio (x) = 0.56164 0.40743
# Poissons Ratio (y) = 0.19896 0.31781
# Poissons Ratio (z) = 0.10077 0.22189
#
# Static dielectric constant tensor:
#      x y z
#    x 1.590560 0.000000 0.008250 
#    y 0.000000 1.581990 0.000000 
#    z 0.008250 0.000000 1.597380 
# 
# From -- ./inp_files/159498.got.cif
#   From: 2010.05.17/outbox.cif.g08.bks.cpg/sg12_80_cif.got.tgz:159498.got - 2010.06.03 13:09:07.
