data_PCOD9195301
_publ_section_title
;
Structure prediction by ZEFSAII (Michael W. Deem and Ramdas Pophale) SiO2 
 PCOD9195301
Probable space group: C 2/M
;
_chemical_formula_sum "Si O2"
_cell_formula_units_Z 64
_cell_length_a 18.512284
_cell_length_b 11.906796
_cell_length_c 22.431823
_cell_angle_alpha 90.000000
_cell_angle_beta 135.556171
_cell_angle_gamma 90.000000
_cell_volume 3462.163682
_symmetry_space_group_name_H-M "C 2/M"
_symmetry_group_IT_number 12
_symmetry_cell_setting 'monoclinic'
loop_
_space_group_symop_operation_xyz
x,y,z
-x,y,-z
-x,-y,-z
x,-y,z
1/2+x,1/2+y,z
1/2-x,1/2+y,-z
1/2-x,1/2-y,-z
1/2+x,1/2-y,z
loop_
_atom_site_type_symbol
_atom_site_label
_atom_site_fract_x
_atom_site_fract_y
_atom_site_fract_z
Si Si1 0.048417 0.626465 0.118765
Si Si2 0.224213 0.214871 0.198587
Si Si3 0.172958 0.127069 0.915032
Si Si4 0.450195 0.870162 0.317789
Si Si5 0.508464 0.794477 0.225345
Si Si6 0.645728 0.728681 0.024229
Si Si7 0.807478 0.131402 0.688084
Si Si8 0.411936 0.864181 0.493376
O O1 0.029577 0.500000 0.086742
O O2 0.164908 0.666815 0.173512
O O3 0.028686 0.633529 0.178071
O O4 0.969095 0.719716 0.046199
O O5 0.347826 0.204801 0.266702
O O6 0.178988 0.179108 0.107497
O O7 0.194902 0.147153 0.241374
O O8 0.281164 0.166153 0.951090
O O9 0.091093 0.216991 0.843780
O O10 0.148423 0.000000 0.884387
O O11 0.167930 0.142022 0.983699
O O12 0.487973 0.863121 0.272590
O O13 0.544280 0.834496 0.416042
O O14 0.422043 0.000000 0.316483
O O15 0.603304 0.708657 0.285444
O O16 0.699439 0.171094 0.595724
O O17 0.823311 0.000000 0.684563
O O18 0.500000 0.825117 0.500000
O O19 0.408612 0.000000 0.488793
#
# Coordination Sequence:
#
# PCOD9195301 Si02
#       8
#     8   8   8   8   8   8   8   8
#     4  10  22  39  57  77 111 150 183 232 278 323
#     4  11  21  35  55  85 109 138 188 230 273 333
#     4  10  20  35  53  77 114 149 180 230 278 322
#     4  11  21  36  59  84 112 144 185 234 272 323
#     4  10  21  37  55  84 113 145 189 222 273 340
#     4  10  21  36  52  81 108 143 195 227 271 337
#     4  10  20  36  58  84 117 146 175 229 281 326
#     4   9  17  32  56  85 111 142 181 220 278 333
#
# _framework density 18.485548999999999
#
# number of rings (size 3 to 8) (size 9 to 14) (size 15 to 20)
#    0.000    1.875    2.500    1.875    0.000    3.000 
#    0.000    0.625    0.000    6.750    0.000    8.750 
#    0.000    0.000    0.000    0.000    0.000    0.000 
#
# Total GULP energy -178407.237111 kJ/mol
# GULP energy per Si atom -5575.226160 kJ/mol
# Density = 1.844348 g / cm^3
# Si number density = 18.485549 Si / 1000 Ang^3
#
#
#
# Elastic Constant Matrix: (Units=GPa)
#
#
# Indices 1 2 3 4 5 6 
#
# 1 73.9063 11.3201 25.3407 0.0000 0.5496 0.0000
# 2 11.3201 47.3947 16.3788 0.0000 7.0021 0.0000
# 3 25.3407 16.3788 102.4637 0.0000 -1.9768 0.0000
# 4 0.0000 0.0000 0.0000 21.4404 0.0000 4.7741
# 5 0.5496 7.0021 -1.9768 0.0000 29.3164 0.0000
# 6 0.0000 0.0000 0.0000 4.7741 0.0000 12.4772
#
#
#
# Elastic Compliance Matrix: (Units=1/GPa)
#
#
# Indices 1 2 3 4 5 6 
#
# 1 0.015047 -0.002456 -0.003327 0.000000 0.000080 0.000000
# 2 -0.002456 0.023685 -0.003291 0.000000 -0.005833 0.000000
# 3 -0.003327 -0.003291 0.011139 0.000000 0.001600 0.000000
# 4 0.000000 0.000000 0.000000 0.050985 0.000000 -0.019508
# 5 0.000080 -0.005833 0.001600 0.000000 0.035610 0.000000
# 6 0.000000 0.000000 0.000000 -0.019508 0.000000 0.087610
#
#
# Mechanical properties :
#
#
# Convention : Reuss Voigt Hill
#
# Bulk Modulus (GPa) = 31.52307 36.64932 34.08620
# Shear Modulus (GPa) = 19.77851 24.02848 21.90350
#
# Velocity S-wave (km/s) = 3.27455 3.60926 3.44597
# Velocity P-wave (km/s) = 5.60239 6.10229 5.85767
#
# Compressibility (1/GPa) = 0.03172280
#
# Stress axis : x y z
#
# Youngs Moduli (GPa) = 66.45827 42.22058 89.77162
#
# Poissons Ratio (x) = 0.10369 0.29869
# Poissons Ratio (y) = 0.16322 0.29546
# Poissons Ratio (z) = 0.22112 0.13896
#
# Static dielectric constant tensor:
#      x y z
#    x 1.651570 0.000000 -0.007110 
#    y 0.000000 1.605340 0.000000 
#    z -0.007110 0.000000 1.675440 
# 
# From -- ./inp_files/315747.got.cif
#   From: 2010.05.17/outbox.cif.g08.bks.cpg/sg12_158_cif.got.tgz:315747.got - 2010.06.03 13:09:07.
