data_PCOD9195223
_publ_section_title
;
Structure prediction by ZEFSAII (Michael W. Deem and Ramdas Pophale) SiO2 
 PCOD9195223
Probable space group: C 2/M
;
_chemical_formula_sum "Si O2"
_cell_formula_units_Z 64
_cell_length_a 31.121422
_cell_length_b 8.923401
_cell_length_c 11.306191
_cell_angle_alpha 90.000000
_cell_angle_beta 95.001473
_cell_angle_gamma 90.000000
_cell_volume 3127.875146
_symmetry_space_group_name_H-M "C 2/M"
_symmetry_group_IT_number 12
_symmetry_cell_setting 'monoclinic'
loop_
_space_group_symop_operation_xyz
x,y,z
-x,y,-z
-x,-y,-z
x,-y,z
1/2+x,1/2+y,z
1/2-x,1/2+y,-z
1/2-x,1/2-y,-z
1/2+x,1/2-y,z
loop_
_atom_site_type_symbol
_atom_site_label
_atom_site_fract_x
_atom_site_fract_y
_atom_site_fract_z
Si Si1 0.051227 0.329864 0.493548
Si Si2 0.858285 0.321066 0.860904
Si Si3 0.898339 0.319173 0.116489
Si Si4 0.862713 0.674772 0.344888
Si Si5 0.989801 0.827308 0.136194
Si Si6 0.758794 0.319637 0.871185
Si Si7 0.924713 0.827086 0.722332
Si Si8 0.721357 0.680182 0.601164
O O1 0.056118 0.500000 0.444623
O O2 0.086763 0.322485 0.605431
O O3 0.067114 0.200513 0.411595
O O4 0.000000 0.310952 0.500000
O O5 0.861857 0.500000 0.858282
O O6 0.808615 0.282875 0.857730
O O7 0.882265 0.254237 0.755103
O O8 0.882797 0.266626 0.984487
O O9 0.898687 0.500000 0.118310
O O10 0.864949 0.270371 0.209831
O O11 0.946217 0.260253 0.149333
O O12 0.849371 0.500000 0.346053
O O13 0.828590 0.765827 0.414649
O O14 0.032206 0.760848 0.207073
O O15 0.984336 0.000000 0.174821
O O16 0.000000 0.827920 0.000000
O O17 0.753535 0.500000 0.881273
O O18 0.735538 0.275674 0.740572
O O19 0.750000 0.250000 0.000000
O O20 0.922021 0.000000 0.755258
O O21 0.724691 0.500000 0.593693
O O22 0.750000 0.750000 0.500000
#
# Coordination Sequence:
#
# PCOD9195223 Si02
#       8
#     8   8   8   8   8   8   8   8
#     4  10  22  41  64  88 119 160 204 251 303 362
#     4  10  21  37  59  88 120 153 193 247 304 362
#     4  10  20  35  60  90 117 153 203 250 299 362
#     4  10  22  41  65  92 124 161 204 256 310 365
#     4  10  20  35  52  77 119 161 195 242 301 359
#     4  10  23  43  67  94 125 162 207 259 318 378
#     4  11  23  37  56  84 118 156 200 246 299 360
#     4  11  25  44  67  97 131 170 216 264 320 384
#
# _framework density 20.461175000000001
#
# number of rings (size 3 to 8) (size 9 to 14) (size 15 to 20)
#    0.000    1.750    1.250    2.250    1.750    6.000 
#    0.000    0.000    0.000    0.000    0.000    0.000 
#    0.000    0.000    0.000    0.000    0.000    0.000 
#
# Total GULP energy -178430.396760 kJ/mol
# GULP energy per Si atom -5575.949899 kJ/mol
# Density = 2.041460 g / cm^3
# Si number density = 20.461175 Si / 1000 Ang^3
#
#
#
# Elastic Constant Matrix: (Units=GPa)
#
#
# Indices 1 2 3 4 5 6 
#
# 1 114.5720 39.5446 30.1424 0.0000 -20.9925 0.0000
# 2 39.5446 20.2866 20.0446 0.0000 -7.1690 0.0000
# 3 30.1424 20.0446 63.4880 0.0000 -11.4942 0.0000
# 4 0.0000 0.0000 0.0000 25.0211 0.0000 1.5569
# 5 -20.9925 -7.1690 -11.4942 0.0000 29.8108 0.0000
# 6 0.0000 0.0000 0.0000 1.5569 0.0000 18.3171
#
#
#
# Elastic Compliance Matrix: (Units=1/GPa)
#
#
# Indices 1 2 3 4 5 6 
#
# 1 0.030008 -0.062309 0.007029 0.000000 0.008857 0.000000
# 2 -0.062309 0.203420 -0.036260 0.000000 -0.008939 0.000000
# 3 0.007029 -0.036260 0.024919 0.000000 0.005838 0.000000
# 4 0.000000 0.000000 0.000000 0.040179 0.000000 -0.003415
# 5 0.008857 -0.008939 0.005838 0.000000 0.039883 0.000000
# 6 0.000000 0.000000 0.000000 -0.003415 0.000000 0.054884
#
#
# Mechanical properties :
#
#
# Convention : Reuss Voigt Hill
#
# Bulk Modulus (GPa) = 13.28607 41.97887 27.63247
# Shear Modulus (GPa) = 8.31310 21.87081 15.09196
#
# Velocity S-wave (km/s) = 2.01784 3.27294 2.71881
# Velocity P-wave (km/s) = 3.45490 5.90286 4.83632
#
# Compressibility (1/GPa) = 0.07526681
#
# Stress axis : x y z
#
# Youngs Moduli (GPa) = 33.32489 4.91595 40.13040
#
# Poissons Ratio (x) = 0.30631 -0.28207
# Poissons Ratio (y) = 2.07643 1.45512
# Poissons Ratio (z) = -0.23424 0.17825
#
# Static dielectric constant tensor:
#      x y z
#    x 1.730120 0.000000 0.049070 
#    y 0.000000 1.714850 0.000000 
#    z 0.049070 0.000000 1.843300 
# 
# From -- ./inp_files/187559.got.cif
#   From: 2010.05.17/outbox.cif.g08.bks.cpg/sg12_94_cif.got.tgz:187559.got - 2010.06.03 13:09:07.
