data_PCOD9195436
_publ_section_title
;
Structure prediction by ZEFSAII (Michael W. Deem and Ramdas Pophale) SiO2 
 PCOD9195436
Probable space group: C 2/M
;
_chemical_formula_sum "Si O2"
_cell_formula_units_Z 64
_cell_length_a 20.346836
_cell_length_b 7.512978
_cell_length_c 19.230658
_cell_angle_alpha 90.000000
_cell_angle_beta 90.830374
_cell_angle_gamma 90.000000
_cell_volume 2939.392183
_symmetry_space_group_name_H-M "C 2/M"
_symmetry_group_IT_number 12
_symmetry_cell_setting 'monoclinic'
loop_
_space_group_symop_operation_xyz
x,y,z
-x,y,-z
-x,-y,-z
x,-y,z
1/2+x,1/2+y,z
1/2-x,1/2+y,-z
1/2-x,1/2-y,-z
1/2+x,1/2-y,z
loop_
_atom_site_type_symbol
_atom_site_label
_atom_site_fract_x
_atom_site_fract_y
_atom_site_fract_z
Si Si1 0.599495 0.786325 0.845628
Si Si2 0.270428 0.785719 0.079398
Si Si3 0.851142 0.794950 0.838403
Si Si4 0.825392 0.213883 0.422635
Si Si5 0.076337 0.781301 0.298762
Si Si6 0.175813 0.212762 0.419364
Si Si7 0.926065 0.788152 0.309240
Si Si8 0.473735 0.784545 0.924084
O O1 0.657938 0.720929 0.895965
O O2 0.608521 0.742212 0.765333
O O3 0.528367 0.722180 0.869872
O O4 0.597631 0.000000 0.852166
O O5 0.215769 0.715390 0.132568
O O6 0.271237 0.000000 0.085761
O O7 0.250000 0.750000 0.000000
O O8 0.888386 0.718971 0.771732
O O9 0.903456 0.788321 0.901751
O O10 0.836751 0.000000 0.820127
O O11 0.832142 0.282144 0.501917
O O12 0.750781 0.251326 0.397863
O O13 0.880568 0.282574 0.370680
O O14 0.831622 0.000000 0.425390
O O15 0.121665 0.724194 0.363959
O O16 0.000988 0.719875 0.305270
O O17 0.074659 0.000000 0.296824
O O18 0.168514 0.000000 0.422510
O O19 0.931479 0.000000 0.319751
O O20 0.468634 0.000000 0.922530
O O21 0.500000 0.733982 0.000000
#
# Coordination Sequence:
#
# PCOD9195436 Si02
#       8
#     8   8   8   8   8   8   8   8
#     4  10  21  36  54  78 106 138 177 216 258 316
#     4  10  22  38  56  78 105 136 175 222 265 315
#     4  10  20  35  54  78 105 134 174 218 257 306
#     4   9  19  34  53  82 111 137 175 217 259 307
#     4   9  18  33  54  79 105 137 176 215 256 304
#     4   9  18  34  57  80 106 142 177 212 258 311
#     4  10  20  35  54  77 109 141 174 219 261 305
#     4  10  20  35  55  77 103 136 172 213 262 312
#
# _framework density 21.773209999999999
#
# number of rings (size 3 to 8) (size 9 to 14) (size 15 to 20)
#    0.000    2.375    1.250    0.750    1.750    3.250 
#    0.000    3.750    0.000    0.000    0.000    4.375 
#    0.000    0.000    0.000    0.000    0.000    0.000 
#
# Total GULP energy -178707.257386 kJ/mol
# GULP energy per Si atom -5584.601793 kJ/mol
# Density = 2.172365 g / cm^3
# Si number density = 21.773210 Si / 1000 Ang^3
#
#
#
# Elastic Constant Matrix: (Units=GPa)
#
#
# Indices 1 2 3 4 5 6 
#
# 1 89.8175 -1.0643 29.9551 0.0000 0.3943 0.0000
# 2 -1.0643 56.6251 -3.6853 0.0000 -3.7084 0.0000
# 3 29.9551 -3.6853 83.9999 0.0000 -0.8623 0.0000
# 4 0.0000 0.0000 0.0000 13.0225 0.0000 -2.9891
# 5 0.3943 -3.7084 -0.8623 0.0000 42.9179 0.0000
# 6 0.0000 0.0000 0.0000 -2.9891 0.0000 4.7015
#
#
#
# Elastic Compliance Matrix: (Units=1/GPa)
#
#
# Indices 1 2 3 4 5 6 
#
# 1 0.012639 -0.000070 -0.004512 0.000000 -0.000213 0.000000
# 2 -0.000070 0.017814 0.000823 0.000000 0.001556 0.000000
# 3 -0.004512 0.000823 0.013554 0.000000 0.000385 0.000000
# 4 0.000000 0.000000 0.000000 0.089912 0.000000 0.057164
# 5 -0.000213 0.001556 0.000385 0.000000 0.023444 0.000000
# 6 0.000000 0.000000 0.000000 0.057164 0.000000 0.249043
#
#
# Mechanical properties :
#
#
# Convention : Reuss Voigt Hill
#
# Bulk Modulus (GPa) = 27.40697 31.20593 29.30645
# Shear Modulus (GPa) = 11.73468 25.81084 18.77276
#
# Velocity S-wave (km/s) = 2.32405 3.44676 2.93950
# Velocity P-wave (km/s) = 4.45156 5.49578 5.00100
#
# Compressibility (1/GPa) = 0.03648707
#
# Stress axis : x y z
#
# Youngs Moduli (GPa) = 79.12210 56.13515 73.77929
#
# Poissons Ratio (x) = 0.00393 0.33292
# Poissons Ratio (y) = 0.00554 -0.06068
# Poissons Ratio (z) = 0.35702 -0.04617
#
# Static dielectric constant tensor:
#      x y z
#    x 1.771390 0.000000 -0.022140 
#    y 0.000000 1.851240 0.000000 
#    z -0.022140 0.000000 1.781880 
# 
# From -- ./inp_files/281314.got.cif
#   From: 2010.05.17/outbox.cif.g08.bks.cpg/sg12_141_cif.got.tgz:281314.got - 2010.06.03 13:09:07.
