data_PCOD9195954
_publ_section_title
;
Structure prediction by ZEFSAII (Michael W. Deem and Ramdas Pophale) SiO2 
 PCOD9195954
Probable space group: C 2/M
;
_chemical_formula_sum "Si O2"
_cell_formula_units_Z 56
_cell_length_a 18.548006
_cell_length_b 7.621615
_cell_length_c 29.359349
_cell_angle_alpha 90.000000
_cell_angle_beta 38.775241
_cell_angle_gamma 90.000000
_cell_volume 2599.262676
_symmetry_space_group_name_H-M "C 2/M"
_symmetry_group_IT_number 12
_symmetry_cell_setting 'monoclinic'
loop_
_space_group_symop_operation_xyz
x,y,z
-x,y,-z
-x,-y,-z
x,-y,z
1/2+x,1/2+y,z
1/2-x,1/2+y,-z
1/2-x,1/2-y,-z
1/2+x,1/2-y,z
loop_
_atom_site_type_symbol
_atom_site_label
_atom_site_fract_x
_atom_site_fract_y
_atom_site_fract_z
Si Si1 0.199239 0.290808 0.574546
Si Si2 0.485225 0.212353 0.142034
Si Si3 0.868312 0.785358 0.571848
Si Si4 0.564196 0.704081 0.279746
Si Si5 0.151881 0.704074 0.138727
Si Si6 0.222912 0.214753 0.284424
Si Si7 0.090342 0.790979 0.992218
O O1 0.190919 0.500000 0.583339
O O2 0.250000 0.250000 0.500000
O O3 0.285110 0.226933 0.571943
O O4 0.070768 0.219457 0.643519
O O5 0.564754 0.279178 0.144167
O O6 0.353531 0.272625 0.211412
O O7 0.480828 0.000000 0.146372
O O8 0.540862 0.263203 0.066802
O O9 0.821225 0.729880 0.644215
O O10 0.000000 0.729333 0.500000
O O11 0.868278 0.000000 0.571239
O O12 0.593969 0.500000 0.260000
O O13 0.597144 0.788772 0.215625
O O14 0.638759 0.773791 0.285380
O O15 0.165594 0.500000 0.119023
O O16 0.280253 0.781857 0.075573
O O17 0.220844 0.000000 0.285636
O O18 0.098417 0.000000 0.979469
O O19 0.000000 0.717977 0.000000
#
# Coordination Sequence:
#
# PCOD9195954 Si02
#       7
#     8   8   8   8   8   8   8
#     4  11  22  37  59  84 112 145 180 222 270 320
#     4  10  20  35  56  79 105 142 188 231 267 315
#     4   9  17  32  56  81 105 139 181 221 261 309
#     4  11  22  36  57  83 110 141 179 224 271 321
#     4  10  21  37  56  79 109 144 180 222 273 326
#     4   9  18  33  53  79 107 137 181 229 268 313
#     4  10  21  36  54  79 112 145 177 221 280 336
#
# _framework density 21.544571000000001
#
# number of rings (size 3 to 8) (size 9 to 14) (size 15 to 20)
#    0.000    2.000    0.000    3.857    0.000    6.000 
#    0.000    0.714    0.000   11.143    0.000    0.000 
#    0.000    0.000    0.000    0.000    0.000    0.000 
#
# Total GULP energy -156527.241965 kJ/mol
# GULP energy per Si atom -5590.258642 kJ/mol
# Density = 2.149553 g / cm^3
# Si number density = 21.544571 Si / 1000 Ang^3
#
#
#
# Elastic Constant Matrix: (Units=GPa)
#
#
# Indices 1 2 3 4 5 6 
#
# 1 237.5512 -7.9282 102.7499 0.0174 -8.1916 -0.0015
# 2 -7.9282 40.0476 -28.4817 0.0077 -7.1887 0.0173
# 3 102.7499 -28.4817 165.8889 0.0199 -13.1644 -0.0098
# 4 0.0174 0.0077 0.0199 22.8453 -0.0005 7.2027
# 5 -8.1916 -7.1887 -13.1644 -0.0005 45.3196 0.0012
# 6 -0.0015 0.0173 -0.0098 7.2027 0.0012 -5.1869
#
#
#
# Elastic Compliance Matrix: (Units=1/GPa)
#
#
# Indices 1 2 3 4 5 6 
#
# 1 0.005846 -0.001712 -0.003943 0.000000 -0.000360 0.000000
# 2 -0.001712 0.030675 0.006846 -0.000030 0.006545 0.000049
# 3 -0.003943 0.006846 0.009904 -0.000007 0.003250 -0.000003
# 4 0.000000 -0.000030 -0.000007 0.030444 -0.000008 0.042276
# 5 -0.000360 0.006545 0.003250 -0.000008 0.023983 0.000011
# 6 0.000000 0.000049 -0.000003 0.042276 0.000011 -0.134089
#
#
# Mechanical properties :
#
#
# Convention : Reuss Voigt Hill
#
# Bulk Modulus (GPa) = 20.48865 64.01862 42.25364
# Shear Modulus (GPa) = -258.38956 37.73878 -110.32539
#
# Velocity S-wave (km/s) = -10.96325 4.18982 -7.16374
# Velocity P-wave (km/s) = 12.27708 7.29282 6.98361
#
# Compressibility (1/GPa) = 0.04880751
#
# Stress axis : x y z
#
# Youngs Moduli (GPa) = 171.06693 32.59949 100.97011
#
# Poissons Ratio (x) = 0.05580 0.39815
# Poissons Ratio (y) = 0.29284 -0.69128
# Poissons Ratio (z) = 0.67456 -0.22319
#
# Static dielectric constant tensor:
#      x y z
#    x 1.766100 0.000000 -0.020050 
#    y 0.000000 1.836220 0.000000 
#    z -0.020050 0.000000 1.700620 
# 
# From -- ./inp_files/275145.got.cif
#   From: 2010.05.17/outbox.cif.g08.bks.cpg/sg12_138_cif.got.tgz:275145.got - 2010.06.03 13:09:07.
