data_PCOD9195956
_publ_section_title
;
Structure prediction by ZEFSAII (Michael W. Deem and Ramdas Pophale) SiO2 
 PCOD9195956
Probable space group: C 2/M
;
_chemical_formula_sum "Si O2"
_cell_formula_units_Z 56
_cell_length_a 19.620392
_cell_length_b 8.928823
_cell_length_c 30.829399
_cell_angle_alpha 90.000000
_cell_angle_beta 36.555906
_cell_angle_gamma 90.000000
_cell_volume 3216.819145
_symmetry_space_group_name_H-M "C 2/M"
_symmetry_group_IT_number 12
_symmetry_cell_setting 'monoclinic'
loop_
_space_group_symop_operation_xyz
x,y,z
-x,y,-z
-x,-y,-z
x,-y,z
1/2+x,1/2+y,z
1/2-x,1/2+y,-z
1/2-x,1/2-y,-z
1/2+x,1/2-y,z
loop_
_atom_site_type_symbol
_atom_site_label
_atom_site_fract_x
_atom_site_fract_y
_atom_site_fract_z
Si Si1 0.590902 0.328243 0.493390
Si Si2 0.727421 0.179350 0.058099
Si Si3 0.365184 0.178887 0.066339
Si Si4 0.678514 0.821093 0.220782
Si Si5 0.989275 0.677472 0.774068
Si Si6 0.384473 0.680511 0.655179
Si Si7 0.735179 0.677101 0.654677
O O1 0.500000 0.329071 0.500000
O O2 0.629162 0.500000 0.480122
O O3 0.513213 0.278534 0.573522
O O4 0.695075 0.228405 0.423824
O O5 0.812988 0.249559 0.049581
O O6 0.599831 0.210433 0.141568
O O7 0.741244 0.000000 0.050066
O O8 0.750000 0.250000 0.000000
O O9 0.294401 0.250849 0.142069
O O10 0.347229 0.000000 0.075263
O O11 0.500000 0.208498 0.000000
O O12 0.581022 0.792640 0.234234
O O13 0.645186 0.747659 0.283198
O O14 0.690917 0.000000 0.218696
O O15 0.015995 0.500000 0.761637
O O16 0.104909 0.769808 0.718158
O O17 0.378092 0.500000 0.658527
O O18 0.297031 0.743185 0.663806
O O19 0.743583 0.500000 0.655671
#
# Coordination Sequence:
#
# PCOD9195956 Si02
#       7
#     8   8   8   8   8   8   8
#     4   8  16  32  52  74 103 139 174 213 264 313
#     4  10  21  37  58  81 106 139 177 220 266 311
#     4  10  21  37  57  80 108 142 176 213 261 316
#     4  10  21  37  57  80 107 139 175 219 266 310
#     4   9  20  38  55  74 106 143 174 211 264 317
#     4  10  20  35  56  79 106 141 177 215 262 315
#     4  11  21  32  53  82 107 136 177 222 262 306
#
# _framework density 17.408501999999999
#
# number of rings (size 3 to 8) (size 9 to 14) (size 15 to 20)
#    0.000    2.286    0.000    4.714    0.000    8.857 
#    0.000    2.143    0.000    0.000    0.000    0.000 
#    0.000    0.000    0.000    0.000    0.000    0.000 
#
# Total GULP energy -156247.412093 kJ/mol
# GULP energy per Si atom -5580.264718 kJ/mol
# Density = 1.736888 g / cm^3
# Si number density = 17.408502 Si / 1000 Ang^3
#
#
#
# Elastic Constant Matrix: (Units=GPa)
#
#
# Indices 1 2 3 4 5 6 
#
# 1 57.3786 57.0877 87.3951 -0.0005 2.4142 -0.0017
# 2 57.0877 101.9631 96.0779 0.0013 -6.0227 -0.0005
# 3 87.3951 96.0779 180.8251 -0.0004 14.1948 0.0002
# 4 -0.0005 0.0013 -0.0004 30.2656 0.0001 3.4227
# 5 2.4142 -6.0227 14.1948 0.0001 31.6622 0.0002
# 6 -0.0017 -0.0005 0.0002 3.4227 0.0002 29.1110
#
#
#
# Elastic Compliance Matrix: (Units=1/GPa)
#
#
# Indices 1 2 3 4 5 6 
#
# 1 0.078035 -0.015085 -0.030066 0.000001 0.004660 0.000004
# 2 -0.015085 0.025192 -0.006801 -0.000001 0.008991 0.000000
# 3 -0.030066 -0.006801 0.024457 0.000000 -0.009966 -0.000002
# 4 0.000001 -0.000001 0.000000 0.033486 -0.000001 -0.003937
# 5 0.004660 0.008991 -0.009966 -0.000001 0.037406 0.000000
# 6 0.000004 0.000000 -0.000002 -0.003937 0.000000 0.034814
#
#
# Mechanical properties :
#
#
# Convention : Reuss Voigt Hill
#
# Bulk Modulus (GPa) = 42.04938 91.25426 66.65182
# Shear Modulus (GPa) = 14.48350 24.84816 19.66583
#
# Velocity S-wave (km/s) = 2.88753 3.78214 3.36470
# Velocity P-wave (km/s) = 5.94341 8.46203 7.31198
#
# Compressibility (1/GPa) = 0.02378156
#
# Stress axis : x y z
#
# Youngs Moduli (GPa) = 12.81484 39.69448 40.88774
#
# Poissons Ratio (x) = 0.59878 1.22933
# Poissons Ratio (y) = 0.19331 0.27807
# Poissons Ratio (z) = 0.38529 0.26995
#
# Static dielectric constant tensor:
#      x y z
#    x 1.562430 0.000000 0.003690 
#    y 0.000000 1.578760 0.000000 
#    z 0.003690 0.000000 1.593900 
# 
# From -- ./inp_files/275028.got.cif
#   From: 2010.05.17/outbox.cif.g08.bks.cpg/sg12_138_cif.got.tgz:275028.got - 2010.06.03 13:09:07.
