data_PCOD9195180
_publ_section_title
;
Structure prediction by ZEFSAII (Michael W. Deem and Ramdas Pophale) SiO2 
 PCOD9195180
Probable space group: C 2/M
;
_chemical_formula_sum "Si O2"
_cell_formula_units_Z 64
_cell_length_a 17.005827
_cell_length_b 18.066640
_cell_length_c 11.901373
_cell_angle_alpha 90.000000
_cell_angle_beta 73.379085
_cell_angle_gamma 90.000000
_cell_volume 3503.778477
_symmetry_space_group_name_H-M "C 2/M"
_symmetry_group_IT_number 12
_symmetry_cell_setting 'monoclinic'
loop_
_space_group_symop_operation_xyz
x,y,z
-x,y,-z
-x,-y,-z
x,-y,z
1/2+x,1/2+y,z
1/2-x,1/2+y,-z
1/2-x,1/2-y,-z
1/2+x,1/2-y,z
loop_
_atom_site_type_symbol
_atom_site_label
_atom_site_fract_x
_atom_site_fract_y
_atom_site_fract_z
Si Si1 0.036201 0.871112 0.197643
Si Si2 0.969573 0.292621 0.886484
Si Si3 0.262564 0.337942 0.515575
Si Si4 0.207546 0.325137 0.968837
Si Si5 0.360773 0.177992 0.252881
Si Si6 0.851705 0.146442 0.268337
Si Si7 0.339484 0.415858 0.032521
Si Si8 0.591744 0.586207 0.415092
O O1 0.042475 0.782458 0.179204
O O2 0.085754 0.898664 0.284923
O O3 0.940416 0.890610 0.252808
O O4 0.075924 0.903489 0.068722
O O5 0.881824 0.330259 0.937315
O O6 0.044064 0.341424 0.807465
O O7 0.000000 0.269866 0.000000
O O8 0.250000 0.250000 0.500000
O O9 0.186074 0.360667 0.625271
O O10 0.281776 0.374205 0.386517
O O11 0.343863 0.358880 0.553032
O O12 0.267929 0.390340 0.978650
O O13 0.250000 0.250000 0.000000
O O14 0.190163 0.326681 0.842567
O O15 0.364492 0.265793 0.276785
O O16 0.832201 0.132516 0.147152
O O17 0.331859 0.500000 0.069710
O O18 0.500000 0.598637 0.500000
O O19 0.613757 0.500000 0.426871
#
# Coordination Sequence:
#
# PCOD9195180 Si02
#       8
#     8   8   8   8   8   8   8   8
#     4  11  19  34  54  80 113 147 184 223 271 343
#     4   9  18  32  57  84 111 140 181 235 291 329
#     4  10  21  37  58  79 110 147 198 237 270 329
#     4  11  18  34  57  80 109 146 178 227 291 334
#     4   9  18  34  56  81 104 139 190 234 273 325
#     4  10  20  35  51  77 113 147 181 225 279 328
#     4  12  24  33  51  84 114 146 185 228 279 343
#     4  11  23  37  53  78 117 158 186 224 290 350
#
# _framework density 18.265996000000001
#
# number of rings (size 3 to 8) (size 9 to 14) (size 15 to 20)
#    0.000    1.625    3.750    3.000    0.000    2.000 
#    0.000    0.000    0.000    4.125    0.000    0.875 
#    0.000    0.000    0.000    0.000    0.000    0.000 
#
# Total GULP energy -178388.596430 kJ/mol
# GULP energy per Si atom -5574.643638 kJ/mol
# Density = 1.822442 g / cm^3
# Si number density = 18.265996 Si / 1000 Ang^3
#
#
#
# Elastic Constant Matrix: (Units=GPa)
#
#
# Indices 1 2 3 4 5 6 
#
# 1 91.3419 21.4036 40.8318 0.0000 -16.7497 0.0000
# 2 21.4036 30.3994 6.1749 0.0000 -4.3276 0.0000
# 3 40.8318 6.1749 121.2043 0.0000 -28.1130 0.0000
# 4 0.0000 0.0000 0.0000 5.3486 0.0000 0.2677
# 5 -16.7497 -4.3276 -28.1130 0.0000 34.5291 0.0000
# 6 0.0000 0.0000 0.0000 0.2677 0.0000 10.2359
#
#
#
# Elastic Compliance Matrix: (Units=1/GPa)
#
#
# Indices 1 2 3 4 5 6 
#
# 1 0.015597 -0.009724 -0.004052 0.000000 0.003048 0.000000
# 2 -0.009724 0.039636 0.001621 0.000000 0.001570 0.000000
# 3 -0.004052 0.001621 0.011248 0.000000 0.007396 0.000000
# 4 0.000000 0.000000 0.000000 0.187210 0.000000 -0.004897
# 5 0.003048 0.001570 0.007396 0.000000 0.036658 0.000000
# 6 0.000000 0.000000 0.000000 -0.004897 0.000000 0.097823
#
#
# Mechanical properties :
#
#
# Convention : Reuss Voigt Hill
#
# Bulk Modulus (GPa) = 23.71309 42.19625 32.95467
# Shear Modulus (GPa) = 11.72222 21.65841 16.69031
#
# Velocity S-wave (km/s) = 2.53603 3.44717 3.02609
# Velocity P-wave (km/s) = 4.64602 6.24461 5.50366
#
# Compressibility (1/GPa) = 0.04217080
#
# Stress axis : x y z
#
# Youngs Moduli (GPa) = 64.11591 25.22929 88.90134
#
# Poissons Ratio (x) = 0.24534 0.36022
# Poissons Ratio (y) = 0.62349 -0.14410
# Poissons Ratio (z) = 0.25979 -0.04089
#
# Static dielectric constant tensor:
#      x y z
#    x 1.642100 0.000000 -0.046990 
#    y 0.000000 1.616050 0.000000 
#    z -0.046990 0.000000 1.608280 
# 
# From -- ./inp_files/157807.got.cif
#   From: 2010.05.17/outbox.cif.g08.bks.cpg/sg12_79_cif.got.tgz:157807.got - 2010.06.03 13:09:07.
