data_PCOD9195026
_publ_section_title
;
Structure prediction by ZEFSAII (Michael W. Deem and Ramdas Pophale) SiO2 
 PCOD9195026
Probable space group: C 2/M
;
_chemical_formula_sum "Si O2"
_cell_formula_units_Z 46
_cell_length_a 5.483188
_cell_length_b 22.416494
_cell_length_c 17.411129
_cell_angle_alpha 90.000000
_cell_angle_beta 108.108073
_cell_angle_gamma 90.000000
_cell_volume 2034.075469
_symmetry_space_group_name_H-M "C 2/M"
_symmetry_group_IT_number 12
_symmetry_cell_setting 'monoclinic'
loop_
_space_group_symop_operation_xyz
x,y,z
-x,y,-z
-x,-y,-z
x,-y,z
1/2+x,1/2+y,z
1/2-x,1/2+y,-z
1/2-x,1/2-y,-z
1/2+x,1/2-y,z
loop_
_atom_site_type_symbol
_atom_site_label
_atom_site_fract_x
_atom_site_fract_y
_atom_site_fract_z
Si Si1 0.535134 0.500000 0.729011
Si Si2 0.000000 0.500000 0.500000
Si Si3 0.125517 0.099611 0.410262
Si Si4 0.035410 0.500000 0.728269
Si Si5 0.427741 0.873803 0.640843
Si Si6 0.016603 0.286820 0.790810
Si Si7 0.801527 0.500000 0.052792
Si Si8 0.800955 0.366364 0.051796
O O1 0.477452 0.557771 0.671007
O O2 0.831712 0.500000 0.775688
O O3 0.332994 0.500000 0.777222
O O4 0.775535 0.552117 0.477074
O O5 0.347996 0.141380 0.397297
O O6 0.867667 0.131381 0.412775
O O7 0.979164 0.443608 0.667711
O O8 0.467934 0.836110 0.721082
O O9 0.745921 0.255394 0.783022
O O10 0.120156 0.318666 0.877166
O O11 0.500000 0.500000 0.000000
O O12 0.833568 0.433213 0.089128
O O13 0.000000 0.500000 0.000000
O O14 0.500000 0.358801 0.000000
O O15 0.000000 0.360896 0.000000
#
# Coordination Sequence:
#
# PCOD9195026 Si02
#       8
#     4   2   8   4   8   8   4   8
#     4   7  12  23  40  69 104 138 164 199 256 333
#     4  10  20  34  60 104 140 156 184 242 320 398
#     4   9  18  31  53  82 122 156 181 225 293 368
#     4   8  14  27  50  73 100 135 176 221 280 344
#     4  10  20  37  55  82 119 159 196 240 300 363
#     4  12  26  41  60  86 117 163 221 265 304 358
#     4   8  16  33  56  82 112 146 180 223 296 379
#     4  10  21  39  63  91 123 157 199 259 324 378
#
# _framework density 22.614695000000001
#
# number of rings (size 3 to 8) (size 9 to 14) (size 15 to 20)
#    0.000    2.435    0.000    3.130    0.000    4.174 
#    0.000    0.000    0.000   16.696    0.000   12.174 
#    0.000    0.000    0.000    0.000    0.000    0.000 
#
# Total GULP energy -128095.162220 kJ/mol
# GULP energy per Si atom -5569.354879 kJ/mol
# Density = 2.256322 g / cm^3
# Si number density = 22.614695 Si / 1000 Ang^3
#
#
#
# Elastic Constant Matrix: (Units=GPa)
#
#
# Indices 1 2 3 4 5 6 
#
# 1 211.3628 2.9658 32.5071 0.0000 34.3181 0.0000
# 2 2.9658 45.0882 19.2235 0.0000 -9.3844 0.0000
# 3 32.5071 19.2235 81.9255 0.0000 11.8608 0.0000
# 4 0.0000 0.0000 0.0000 -120.9473 0.0000 49.5432
# 5 34.3181 -9.3844 11.8608 0.0000 34.4223 0.0000
# 6 0.0000 0.0000 0.0000 49.5432 0.0000 10.4699
#
#
#
# Elastic Compliance Matrix: (Units=1/GPa)
#
#
# Indices 1 2 3 4 5 6 
#
# 1 0.005864 -0.001034 -0.001260 0.000000 -0.005694 0.000000
# 2 -0.001034 0.027921 -0.007781 0.000000 0.011323 0.000000
# 3 -0.001260 -0.007781 0.015427 0.000000 -0.006181 0.000000
# 4 0.000000 0.000000 0.000000 -0.002814 0.000000 0.013315
# 5 -0.005694 0.011323 -0.006181 0.000000 0.039944 0.000000
# 6 0.000000 0.000000 0.000000 0.013315 0.000000 0.032505
#
#
# Mechanical properties :
#
#
# Convention : Reuss Voigt Hill
#
# Bulk Modulus (GPa) = 34.40806 49.75213 42.08009
# Shear Modulus (GPa) = 33.62847 3.70099 18.66473
#
# Velocity S-wave (km/s) = 3.86037 1.28066 2.87598
# Velocity P-wave (km/s) = 5.92604 4.92285 5.44758
#
# Compressibility (1/GPa) = 0.02906296
#
# Stress axis : x y z
#
# Youngs Moduli (GPa) = 170.53304 35.81548 64.82294
#
# Poissons Ratio (x) = 0.03702 0.08167
# Poissons Ratio (y) = 0.17627 0.50437
# Poissons Ratio (z) = 0.21485 0.27867
#
# Static dielectric constant tensor:
#      x y z
#    x 1.948510 0.000000 -0.013420 
#    y 0.000000 1.815320 0.000000 
#    z -0.013420 0.000000 1.898950 
# 
# From -- ./inp_files/298151.got.cif
#   From: 2010.05.17/outbox.cif.g08.bks.cpg/sg12_150_cif.got.tgz:298151.got - 2010.06.03 13:09:07.
