data_PCOD9195440
_publ_section_title
;
Structure prediction by ZEFSAII (Michael W. Deem and Ramdas Pophale) SiO2 
 PCOD9195440
Probable space group: C 2/M
;
_chemical_formula_sum "Si O2"
_cell_formula_units_Z 48
_cell_length_a 10.507293
_cell_length_b 14.157472
_cell_length_c 18.193703
_cell_angle_alpha 90.000000
_cell_angle_beta 64.049020
_cell_angle_gamma 90.000000
_cell_volume 2433.542133
_symmetry_space_group_name_H-M "C 2/M"
_symmetry_group_IT_number 12
_symmetry_cell_setting 'monoclinic'
loop_
_space_group_symop_operation_xyz
x,y,z
-x,y,-z
-x,-y,-z
x,-y,z
1/2+x,1/2+y,z
1/2-x,1/2+y,-z
1/2-x,1/2-y,-z
1/2+x,1/2-y,z
loop_
_atom_site_type_symbol
_atom_site_label
_atom_site_fract_x
_atom_site_fract_y
_atom_site_fract_z
Si Si1 0.073668 0.500000 0.559728
Si Si2 0.554526 0.108343 0.810542
Si Si3 0.842291 0.000000 0.565211
Si Si4 0.558703 0.195242 0.651771
Si Si5 0.653816 0.806180 0.928461
Si Si6 0.236722 0.107759 0.956309
Si Si7 0.367763 0.705908 0.591032
O O1 0.243895 0.500000 0.518015
O O2 0.041779 0.595599 0.612329
O O3 0.000000 0.500000 0.500000
O O4 0.547546 0.172400 0.740234
O O5 0.657277 0.151222 0.846504
O O6 0.397460 0.105809 0.885433
O O7 0.591944 0.000000 0.782692
O O8 0.824708 0.096703 0.612181
O O9 0.000000 0.000000 0.500000
O O10 0.431831 0.255468 0.649803
O O11 0.715072 0.243507 0.601082
O O12 0.666005 0.692698 0.928517
O O13 0.500000 0.830408 0.000000
O O14 0.760476 0.854210 0.960005
O O15 0.182278 0.000000 0.965281
O O16 0.500000 0.716171 0.500000
#
# Coordination Sequence:
#
# PCOD9195440 Si02
#       7
#     4   8   4   8   8   8   8
#     4  10  20  36  56  82 107 139 190 231 275 329
#     4  10  20  35  54  77 111 143 186 226 273 328
#     4   8  18  36  58  76 104 141 176 228 274 329
#     4  11  22  36  57  85 110 149 181 237 284 334
#     4   9  18  33  56  82 105 145 181 221 269 329
#     4   9  18  33  55  80 110 142 183 223 271 321
#     4  10  21  38  58  79 109 143 191 229 284 337
#
# _framework density 19.724333999999999
#
# number of rings (size 3 to 8) (size 9 to 14) (size 15 to 20)
#    0.000    2.333    0.833    1.500    2.333    5.000 
#    0.000    0.000    1.833    0.000    0.000    0.000 
#    0.000    0.000    0.000    0.000    0.000    0.000 
#
# Total GULP energy -133667.175483 kJ/mol
# GULP energy per Si atom -5569.465645 kJ/mol
# Density = 1.967944 g / cm^3
# Si number density = 19.724334 Si / 1000 Ang^3
#
#
#
# Elastic Constant Matrix: (Units=GPa)
#
#
# Indices 1 2 3 4 5 6 
#
# 1 101.4271 35.8613 31.0283 0.0000 24.4807 0.0000
# 2 35.8613 59.4041 28.2816 0.0000 20.7877 0.0000
# 3 31.0283 28.2816 82.8214 0.0000 29.8538 0.0000
# 4 0.0000 0.0000 0.0000 23.6638 0.0000 7.8554
# 5 24.4807 20.7877 29.8538 0.0000 31.5984 0.0000
# 6 0.0000 0.0000 0.0000 7.8554 0.0000 33.8488
#
#
#
# Elastic Compliance Matrix: (Units=1/GPa)
#
#
# Indices 1 2 3 4 5 6 
#
# 1 0.013587 -0.005668 -0.001068 0.000000 -0.005788 0.000000
# 2 -0.005668 0.024907 -0.003121 0.000000 -0.009045 0.000000
# 3 -0.001068 -0.003121 0.018958 0.000000 -0.015030 0.000000
# 4 0.000000 0.000000 0.000000 0.045786 0.000000 -0.010626
# 5 -0.005788 -0.009045 -0.015030 0.000000 0.056283 0.000000
# 6 0.000000 0.000000 0.000000 -0.010626 0.000000 0.032009
#
#
# Mechanical properties :
#
#
# Convention : Reuss Voigt Hill
#
# Bulk Modulus (GPa) = 26.49922 48.22168 37.36045
# Shear Modulus (GPa) = 22.33892 27.72096 25.02994
#
# Velocity S-wave (km/s) = 3.36900 3.75296 3.56615
# Velocity P-wave (km/s) = 5.34766 6.57879 5.99491
#
# Compressibility (1/GPa) = 0.03773696
#
# Stress axis : x y z
#
# Youngs Moduli (GPa) = 73.59800 40.14953 52.74796
#
# Poissons Ratio (x) = 0.22758 0.05635
# Poissons Ratio (y) = 0.41717 0.16463
# Poissons Ratio (z) = 0.07863 0.12531
#
# Static dielectric constant tensor:
#      x y z
#    x 1.714970 0.000000 -0.015180 
#    y 0.000000 1.758560 0.000000 
#    z -0.015180 0.000000 1.702090 
# 
# From -- ./inp_files/262133.got.cif
#   From: 2010.05.17/outbox.cif.g08.bks.cpg/sg12_132_cif.got.tgz:262133.got - 2010.06.03 13:09:07.
