data_PCOD9195715
_publ_section_title
;
Structure prediction by ZEFSAII (Michael W. Deem and Ramdas Pophale) SiO2 
 PCOD9195715
Probable space group: C 2/M
;
_chemical_formula_sum "Si O2"
_cell_formula_units_Z 48
_cell_length_a 13.951471
_cell_length_b 10.221578
_cell_length_c 20.970151
_cell_angle_alpha 90.000000
_cell_angle_beta 121.913156
_cell_angle_gamma 90.000000
_cell_volume 2538.461763
_symmetry_space_group_name_H-M "C 2/M"
_symmetry_group_IT_number 12
_symmetry_cell_setting 'monoclinic'
loop_
_space_group_symop_operation_xyz
x,y,z
-x,y,-z
-x,-y,-z
x,-y,z
1/2+x,1/2+y,z
1/2-x,1/2+y,-z
1/2-x,1/2-y,-z
1/2+x,1/2-y,z
loop_
_atom_site_type_symbol
_atom_site_label
_atom_site_fract_x
_atom_site_fract_y
_atom_site_fract_z
Si Si1 0.210503 0.657351 0.428133
Si Si2 0.519875 0.708873 0.191551
Si Si3 0.720860 0.644569 0.936372
Si Si4 0.546465 0.848766 0.701858
Si Si5 0.415896 0.845171 0.915455
Si Si6 0.739737 0.849943 0.670400
O O1 0.241422 0.500000 0.441680
O O2 0.250000 0.750000 0.500000
O O3 0.255081 0.736860 0.381558
O O4 0.074104 0.661330 0.376217
O O5 0.411014 0.637564 0.124697
O O6 0.470637 0.777538 0.237279
O O7 0.559353 0.796275 0.146058
O O8 0.634982 0.642279 0.255530
O O9 0.761604 0.500000 0.970929
O O10 0.790636 0.681416 0.897488
O O11 0.750000 0.750000 0.000000
O O12 0.648191 0.808415 0.691327
O O13 0.567581 0.000000 0.724222
O O14 0.431512 0.000000 0.919270
O O15 0.500000 0.791288 0.000000
O O16 0.711183 0.000000 0.637942
#
# Coordination Sequence:
#
# PCOD9195715 Si02
#       6
#     8   8   8   8   8   8
#     4  10  21  39  63  93 124 158 195 232 279 335
#     4  11  20  36  59  84 112 148 197 252 295 344
#     4  11  23  38  55  80 110 145 189 241 299 355
#     4   9  20  37  60  87 117 157 196 231 286 352
#     4  10  20  35  55  79 110 150 191 237 299 362
#     4  10  21  39  60  86 120 155 193 239 291 343
#
# _framework density 18.909089999999999
#
# number of rings (size 3 to 8) (size 9 to 14) (size 15 to 20)
#    0.000    1.833    1.667    2.500    0.000    2.000 
#    0.000   10.833    0.000    0.000    0.000    0.000 
#    0.000    0.000    0.000    0.000    0.000    0.000 
#
# Total GULP energy -133658.899581 kJ/mol
# GULP energy per Si atom -5569.120816 kJ/mol
# Density = 1.886605 g / cm^3
# Si number density = 18.909090 Si / 1000 Ang^3
#
#
#
# Elastic Constant Matrix: (Units=GPa)
#
#
# Indices 1 2 3 4 5 6 
#
# 1 149.1774 67.2684 46.4745 0.0000 -30.4307 0.0000
# 2 67.2684 113.8560 71.1147 0.0000 -19.3352 0.0000
# 3 46.4745 71.1147 99.3315 0.0000 -16.8177 0.0000
# 4 0.0000 0.0000 0.0000 -31.9447 0.0000 12.6747
# 5 -30.4307 -19.3352 -16.8177 0.0000 20.8132 0.0000
# 6 0.0000 0.0000 0.0000 12.6747 0.0000 21.0266
#
#
#
# Elastic Compliance Matrix: (Units=1/GPa)
#
#
# Indices 1 2 3 4 5 6 
#
# 1 0.011259 -0.004662 0.000143 0.000000 0.012247 0.000000
# 2 -0.004662 0.018602 -0.010849 0.000000 0.001699 0.000000
# 3 0.000143 -0.010849 0.018648 0.000000 0.005198 0.000000
# 4 0.000000 0.000000 0.000000 -0.025262 0.000000 0.015228
# 5 0.012247 0.001699 0.005198 0.000000 0.071731 0.000000
# 6 0.000000 0.000000 0.000000 0.015228 0.000000 0.038379
#
#
# Mechanical properties :
#
#
# Convention : Reuss Voigt Hill
#
# Bulk Modulus (GPa) = 56.26348 81.34224 68.80286
# Shear Modulus (GPa) = 29.40872 13.81286 21.61079
#
# Velocity S-wave (km/s) = 3.94797 2.70569 3.38432
# Velocity P-wave (km/s) = 7.11346 7.27131 7.19281
#
# Compressibility (1/GPa) = 0.01777352
#
# Stress axis : x y z
#
# Youngs Moduli (GPa) = 88.81621 53.75702 53.62581
#
# Poissons Ratio (x) = 0.25060 -0.00768
# Poissons Ratio (y) = 0.41404 0.58180
# Poissons Ratio (z) = -0.01271 0.58322
#
# Static dielectric constant tensor:
#      x y z
#    x 1.666370 0.000000 0.016740 
#    y 0.000000 1.662570 0.000000 
#    z 0.016740 0.000000 1.662260 
# 
# From -- ./inp_files/262159.got.cif
#   From: 2010.05.17/outbox.cif.g08.bks.cpg/sg12_132_cif.got.tgz:262159.got - 2010.06.03 13:09:07.
