data_PCOD9195102
_publ_section_title
;
Structure prediction by ZEFSAII (Michael W. Deem and Ramdas Pophale) SiO2 
 PCOD9195102
Probable space group: C 2/M
;
_chemical_formula_sum "Si O2"
_cell_formula_units_Z 56
_cell_length_a 8.948021
_cell_length_b 23.616213
_cell_length_c 17.625614
_cell_angle_alpha 90.000000
_cell_angle_beta 136.230456
_cell_angle_gamma 90.000000
_cell_volume 2576.538213
_symmetry_space_group_name_H-M "C 2/M"
_symmetry_group_IT_number 12
_symmetry_cell_setting 'monoclinic'
loop_
_space_group_symop_operation_xyz
x,y,z
-x,y,-z
-x,-y,-z
x,-y,z
1/2+x,1/2+y,z
1/2-x,1/2+y,-z
1/2-x,1/2-y,-z
1/2+x,1/2-y,z
loop_
_atom_site_type_symbol
_atom_site_label
_atom_site_fract_x
_atom_site_fract_y
_atom_site_fract_z
Si Si1 0.662672 0.500000 0.991655
Si Si2 0.878044 0.500000 0.874011
Si Si3 0.091358 0.321987 0.782972
Si Si4 0.459535 0.801505 0.068331
Si Si5 0.995663 0.729136 0.580968
Si Si6 0.373892 0.383820 0.227229
Si Si7 0.974747 0.124891 0.106650
Si Si8 0.861188 0.145728 0.379908
O O1 0.605928 0.560360 0.932821
O O2 0.500000 0.500000 0.000000
O O3 0.915350 0.500000 0.105249
O O4 0.731425 0.445356 0.813851
O O5 0.000000 0.500000 0.000000
O O6 0.060526 0.283291 0.848955
O O7 0.068890 0.294237 0.690603
O O8 0.322460 0.353958 0.867678
O O9 0.893346 0.366998 0.713388
O O10 0.668250 0.841803 0.146249
O O11 0.000000 0.729190 0.000000
O O12 0.235731 0.835788 0.979966
O O13 0.133117 0.786068 0.617422
O O14 0.000000 0.697417 0.500000
O O15 0.750000 0.750000 0.500000
O O16 0.532342 0.371493 0.216647
O O17 0.474179 0.373677 0.345059
O O18 0.000000 0.124099 0.500000
#
# Coordination Sequence:
#
# PCOD9195102 Si02
#       8
#     4   4   8   8   8   8   8   8
#     4  12  22  32  56  91 128 160 205 253 279 341
#     4  12  18  38  61  87 124 165 211 243 286 364
#     4  11  22  35  62  92 121 154 202 256 314 356
#     4   9  18  36  56  85 124 165 198 239 295 372
#     4  11  22  42  67  91 112 149 209 270 305 361
#     4  10  20  34  62  87 120 167 202 244 304 354
#     4  11  21  34  57  92 128 161 201 247 296 364
#     4  10  22  41  60  88 120 151 202 256 307 367
#
# _framework density 21.734589
#
# number of rings (size 3 to 8) (size 9 to 14) (size 15 to 20)
#    0.000    1.429    5.714    1.714    4.000    0.000 
#    0.000    0.357    0.000   30.857    0.000    2.500 
#    0.000    0.000    0.000    0.000    0.000    0.000 
#
# Total GULP energy -155951.961263 kJ/mol
# GULP energy per Si atom -5569.712902 kJ/mol
# Density = 2.168512 g / cm^3
# Si number density = 21.734589 Si / 1000 Ang^3
#
#
#
# Elastic Constant Matrix: (Units=GPa)
#
#
# Indices 1 2 3 4 5 6 
#
# 1 153.8621 14.2965 44.5330 0.0000 -18.3543 0.0000
# 2 14.2965 43.4054 14.7726 0.0000 -5.9516 0.0000
# 3 44.5330 14.7726 95.8042 0.0000 -27.9448 0.0000
# 4 0.0000 0.0000 0.0000 -35.6755 0.0000 -30.8202
# 5 -18.3543 -5.9516 -27.9448 0.0000 62.6141 0.0000
# 6 0.0000 0.0000 0.0000 -30.8202 0.0000 -13.9912
#
#
#
# Elastic Compliance Matrix: (Units=1/GPa)
#
#
# Indices 1 2 3 4 5 6 
#
# 1 0.007613 -0.001347 -0.003124 0.000000 0.000709 0.000000
# 2 -0.001347 0.024582 -0.002987 0.000000 0.000609 0.000000
# 3 -0.003124 -0.002987 0.013797 0.000000 0.004958 0.000000
# 4 0.000000 0.000000 0.000000 0.031040 0.000000 -0.068376
# 5 0.000709 0.000609 0.004958 0.000000 0.018449 0.000000
# 6 0.000000 0.000000 0.000000 -0.068376 0.000000 0.079148
#
#
# Mechanical properties :
#
#
# Convention : Reuss Voigt Hill
#
# Bulk Modulus (GPa) = 32.17892 48.91954 40.54923
# Shear Modulus (GPa) = 25.01185 17.22078 21.11631
#
# Velocity S-wave (km/s) = 3.39600 2.81787 3.12036
# Velocity P-wave (km/s) = 5.49679 5.75706 5.62843
#
# Compressibility (1/GPa) = 0.03107625
#
# Stress axis : x y z
#
# Youngs Moduli (GPa) = 131.34737 40.67975 72.47973
#
# Poissons Ratio (x) = 0.05480 0.22645
# Poissons Ratio (y) = 0.17693 0.21648
# Poissons Ratio (z) = 0.41038 0.12150
#
# Static dielectric constant tensor:
#      x y z
#    x 1.931260 0.000000 -0.051680 
#    y 0.000000 1.850000 0.000000 
#    z -0.051680 0.000000 1.888690 
# 
# From -- ./inp_files/259911.got.cif
#   From: 2010.05.17/outbox.cif.g08.bks.cpg/sg12_130_cif.got.tgz:259911.got - 2010.06.03 13:09:07.
