data_PCOD9195242
_publ_section_title
;
Structure prediction by ZEFSAII (Michael W. Deem and Ramdas Pophale) SiO2 
 PCOD9195242
Probable space group: C 2/M
;
_chemical_formula_sum "Si O2"
_cell_formula_units_Z 56
_cell_length_a 19.744650
_cell_length_b 8.170732
_cell_length_c 33.599557
_cell_angle_alpha 90.000000
_cell_angle_beta 30.533517
_cell_angle_gamma 90.000000
_cell_volume 2753.872582
_symmetry_space_group_name_H-M "C 2/M"
_symmetry_group_IT_number 12
_symmetry_cell_setting 'monoclinic'
loop_
_space_group_symop_operation_xyz
x,y,z
-x,y,-z
-x,-y,-z
x,-y,z
1/2+x,1/2+y,z
1/2-x,1/2+y,-z
1/2-x,1/2-y,-z
1/2+x,1/2-y,z
loop_
_atom_site_type_symbol
_atom_site_label
_atom_site_fract_x
_atom_site_fract_y
_atom_site_fract_z
Si Si1 0.661214 0.197527 0.751052
Si Si2 0.597237 0.801833 0.074693
Si Si3 0.148092 0.196393 0.585213
Si Si4 0.374779 0.304499 0.315434
Si Si5 0.321934 0.809389 0.832960
Si Si6 0.924657 0.691420 0.000829
Si Si7 0.659731 0.698515 0.264568
O O1 0.510285 0.252502 0.838336
O O2 0.697794 0.256318 0.688506
O O3 0.756716 0.249951 0.739033
O O4 0.662562 0.000000 0.749913
O O5 0.595949 0.000000 0.075641
O O6 0.750000 0.750000 0.000000
O O7 0.547473 0.741140 0.056730
O O8 0.250000 0.250000 0.500000
O O9 0.184677 0.249650 0.611799
O O10 0.995544 0.249777 0.654002
O O11 0.145967 0.000000 0.586224
O O12 0.387861 0.500000 0.309928
O O13 0.523127 0.229937 0.239379
O O14 0.230026 0.708667 0.909604
O O15 0.288733 0.763340 0.804011
O O16 0.298173 0.000000 0.852229
O O17 0.962492 0.500000 0.979834
O O18 0.000000 0.769323 0.000000
O O19 0.665342 0.500000 0.259501
#
# Coordination Sequence:
#
# PCOD9195242 Si02
#       7
#     8   8   8   8   8   8   8
#     4  10  20  36  57  80 106 139 183 228 267 315
#     4  10  21  34  50  73 101 137 178 221 269 316
#     4   9  19  36  59  84 109 139 174 214 261 317
#     4  10  21  37  56  79 108 142 177 213 262 322
#     4  11  21  33  52  78 105 137 183 231 270 316
#     4  10  20  35  53  71  97 138 182 225 277 326
#     4   9  19  37  58  80 109 144 180 220 269 323
#
# _framework density 20.335000999999998
#
# number of rings (size 3 to 8) (size 9 to 14) (size 15 to 20)
#    0.000    2.143    0.000    4.286    0.000    9.429 
#    0.000    2.143    0.000    4.286    0.000    0.000 
#    0.000    0.000    0.000    0.000    0.000    0.000 
#
# Total GULP energy -156303.122048 kJ/mol
# GULP energy per Si atom -5582.254359 kJ/mol
# Density = 2.028872 g / cm^3
# Si number density = 20.335001 Si / 1000 Ang^3
#
#
#
# Elastic Constant Matrix: (Units=GPa)
#
#
# Indices 1 2 3 4 5 6 
#
# 1 109.2156 15.1429 29.2886 -0.0004 31.4149 0.0008
# 2 15.1429 16.0933 -2.6269 0.0026 2.1590 0.0005
# 3 29.2886 -2.6269 95.0100 -0.0016 26.0649 0.0010
# 4 -0.0004 0.0026 -0.0016 22.3915 0.0005 2.1360
# 5 31.4149 2.1590 26.0649 0.0005 30.6937 0.0013
# 6 0.0008 0.0005 0.0010 2.1360 0.0013 24.0748
#
#
#
# Elastic Compliance Matrix: (Units=1/GPa)
#
#
# Indices 1 2 3 4 5 6 
#
# 1 0.015145 -0.012656 -0.001317 0.000002 -0.013492 0.000000
# 2 -0.012656 0.074398 0.005007 -0.000009 0.003468 -0.000001
# 3 -0.001317 0.005007 0.014076 0.000001 -0.010957 0.000000
# 4 0.000002 -0.000009 0.000001 0.045041 -0.000003 -0.003996
# 5 -0.013492 0.003468 -0.010957 -0.000003 0.055450 -0.000002
# 6 0.000000 -0.000001 0.000000 -0.003996 -0.000002 0.041892
#
#
# Mechanical properties :
#
#
# Convention : Reuss Voigt Hill
#
# Bulk Modulus (GPa) = 11.67044 33.76979 22.72012
# Shear Modulus (GPa) = 17.09432 27.33296 22.21364
#
# Velocity S-wave (km/s) = 2.90252 3.67022 3.30871
# Velocity P-wave (km/s) = 4.12121 5.88247 5.07877
#
# Compressibility (1/GPa) = 0.08568656
#
# Stress axis : x y z
#
# Youngs Moduli (GPa) = 66.02831 13.44127 71.04490
#
# Poissons Ratio (x) = 0.17011 0.09358
# Poissons Ratio (y) = 0.83562 -0.35572
# Poissons Ratio (z) = 0.08698 -0.06730
#
# Static dielectric constant tensor:
#      x y z
#    x 1.773890 0.000000 0.006300 
#    y 0.000000 1.725900 0.000000 
#    z 0.006300 0.000000 1.714310 
# 
# From -- ./inp_files/313742.got.cif
#   From: 2010.05.17/outbox.cif.g08.bks.cpg/sg12_157_cif.got.tgz:313742.got - 2010.06.03 13:09:07.
