data_PCOD9195560
_publ_section_title
;
Structure prediction by ZEFSAII (Michael W. Deem and Ramdas Pophale) SiO2 
 PCOD9195560
Probable space group: C 2/M
;
_chemical_formula_sum "Si O2"
_cell_formula_units_Z 56
_cell_length_a 14.995901
_cell_length_b 15.930123
_cell_length_c 22.553578
_cell_angle_alpha 90.000000
_cell_angle_beta 142.367563
_cell_angle_gamma 90.000000
_cell_volume 3289.723496
_symmetry_space_group_name_H-M "C 2/M"
_symmetry_group_IT_number 12
_symmetry_cell_setting 'monoclinic'
loop_
_space_group_symop_operation_xyz
x,y,z
-x,y,-z
-x,-y,-z
x,-y,z
1/2+x,1/2+y,z
1/2-x,1/2+y,-z
1/2-x,1/2-y,-z
1/2+x,1/2-y,z
loop_
_atom_site_type_symbol
_atom_site_label
_atom_site_fract_x
_atom_site_fract_y
_atom_site_fract_z
Si Si1 0.233630 0.164659 0.264478
Si Si2 0.645521 0.500000 0.148463
Si Si3 0.339457 0.400890 0.183206
Si Si4 0.219452 0.347975 0.998092
Si Si5 0.703712 0.500000 0.046164
Si Si6 0.528250 0.903336 0.443614
Si Si7 0.664495 0.601086 0.356635
Si Si8 0.574878 0.200896 0.099476
O O1 0.186093 0.080760 0.206715
O O2 0.410696 0.160959 0.355202
O O3 0.190692 0.153586 0.310516
O O4 0.146613 0.236218 0.184169
O O5 0.729092 0.500000 0.129760
O O6 0.471356 0.500000 0.050218
O O7 0.318132 0.500000 0.175612
O O8 0.327911 0.375123 0.108066
O O9 0.501056 0.380773 0.292017
O O10 0.207621 0.355392 0.146450
O O11 0.250000 0.250000 0.000000
O O12 0.239378 0.415418 0.956193
O O13 0.055457 0.350029 0.937888
O O14 0.500000 0.904503 0.500000
O O15 0.699487 0.882854 0.528152
O O16 0.502496 0.000000 0.409739
O O17 0.671090 0.500000 0.346148
O O18 0.500000 0.240225 0.000000
#
# Coordination Sequence:
#
# PCOD9195560 Si02
#       8
#     8   4   8   8   4   8   8   8
#     4  11  18  33  49  76 108 139 160 204 266 306
#     4  11  22  30  49  74 107 131 164 203 255 322
#     4  10  20  35  55  75  98 134 179 218 253 297
#     4  11  22  37  52  73 103 139 177 214 255 303
#     4  11  24  34  51  72 101 143 178 205 251 308
#     4   8  14  27  49  78 103 131 164 204 255 318
#     4   9  16  30  55  80 102 129 168 210 259 314
#     4  10  24  34  51  72 104 135 177 218 246 290
#
# _framework density 17.022707
#
# number of rings (size 3 to 8) (size 9 to 14) (size 15 to 20)
#    0.000    2.000    2.143    3.429    7.000    0.857 
#    0.000    0.714    0.000    0.000    0.000    0.000 
#    0.000    6.286    0.000    0.000    0.000    0.000 
#
# Total GULP energy -156018.335801 kJ/mol
# GULP energy per Si atom -5572.083421 kJ/mol
# Density = 1.698396 g / cm^3
# Si number density = 17.022707 Si / 1000 Ang^3
#
#
#
# Elastic Constant Matrix: (Units=GPa)
#
#
# Indices 1 2 3 4 5 6 
#
# 1 55.0280 14.4087 14.6771 0.0000 13.8525 0.0000
# 2 14.4087 51.8084 16.3802 0.0000 3.5186 0.0000
# 3 14.6771 16.3802 93.1531 0.0000 29.7917 0.0000
# 4 0.0000 0.0000 0.0000 21.0888 0.0000 8.4761
# 5 13.8525 3.5186 29.7917 0.0000 28.3424 0.0000
# 6 0.0000 0.0000 0.0000 8.4761 0.0000 4.8963
#
#
#
# Elastic Compliance Matrix: (Units=1/GPa)
#
#
# Indices 1 2 3 4 5 6 
#
# 1 0.022238 -0.005775 0.001143 0.000000 -0.011353 0.000000
# 2 -0.005775 0.022004 -0.004502 0.000000 0.004823 0.000000
# 3 0.001143 -0.004502 0.017092 0.000000 -0.017966 0.000000
# 4 0.000000 0.000000 0.000000 0.155875 0.000000 -0.269843
# 5 -0.011353 0.004823 -0.017966 0.000000 0.059118 0.000000
# 6 0.000000 0.000000 0.000000 -0.269843 0.000000 0.671374
#
#
# Mechanical properties :
#
#
# Convention : Reuss Voigt Hill
#
# Bulk Modulus (GPa) = 23.22025 32.32462 27.77243
# Shear Modulus (GPa) = 5.10035 21.16704 13.13370
#
# Velocity S-wave (km/s) = 1.73283 3.53010 2.78067
# Velocity P-wave (km/s) = 4.20404 5.97041 5.16332
#
# Compressibility (1/GPa) = 0.04306586
#
# Stress axis : x y z
#
# Youngs Moduli (GPa) = 44.96831 45.44680 58.50567
#
# Poissons Ratio (x) = 0.26245 -0.06684
# Poissons Ratio (y) = 0.25969 0.26337
# Poissons Ratio (z) = -0.05138 0.20459
#
# Static dielectric constant tensor:
#      x y z
#    x 1.590460 0.000000 0.022940 
#    y 0.000000 1.485520 0.000000 
#    z 0.022940 0.000000 1.615820 
# 
# From -- ./inp_files/339959.got.cif
#   From: 2010.05.17/outbox.cif.g08.bks.cpg/sg12_170_cif.got.tgz:339959.got - 2010.06.03 13:09:07.
