data_PCOD9195796
_publ_section_title
;
Structure prediction by ZEFSAII (Michael W. Deem and Ramdas Pophale) SiO2 
 PCOD9195796
Probable space group: C 2/M
;
_chemical_formula_sum "Si O2"
_cell_formula_units_Z 48
_cell_length_a 15.531396
_cell_length_b 7.584177
_cell_length_c 19.620221
_cell_angle_alpha 90.000000
_cell_angle_beta 87.725298
_cell_angle_gamma 90.000000
_cell_volume 2309.300749
_symmetry_space_group_name_H-M "C 2/M"
_symmetry_group_IT_number 12
_symmetry_cell_setting 'monoclinic'
loop_
_space_group_symop_operation_xyz
x,y,z
-x,y,-z
-x,-y,-z
x,-y,z
1/2+x,1/2+y,z
1/2-x,1/2+y,-z
1/2-x,1/2-y,-z
1/2+x,1/2-y,z
loop_
_atom_site_type_symbol
_atom_site_label
_atom_site_fract_x
_atom_site_fract_y
_atom_site_fract_z
Si Si1 0.635869 0.791721 0.325007
Si Si2 0.281221 0.711957 0.422380
Si Si3 0.728249 0.789962 0.922139
Si Si4 0.467239 0.216064 0.075966
Si Si5 0.889047 0.294495 0.824862
Si Si6 0.524783 0.713536 0.575655
O O1 0.712942 0.718017 0.369465
O O2 0.625642 0.716035 0.249514
O O3 0.547592 0.772281 0.369406
O O4 0.654361 0.000000 0.316685
O O5 0.283251 0.500000 0.416259
O O6 0.250000 0.750000 0.500000
O O7 0.378944 0.775746 0.410265
O O8 0.631210 0.727485 0.910203
O O9 0.801861 0.714394 0.871421
O O10 0.729775 0.000000 0.913270
O O11 0.750000 0.750000 0.000000
O O12 0.533547 0.279561 0.131416
O O13 0.468135 0.000000 0.075685
O O14 0.500000 0.270166 0.000000
O O15 0.911552 0.500000 0.813918
O O16 0.500000 0.771408 0.500000
O O17 0.524889 0.500000 0.575478
#
# Coordination Sequence:
#
# PCOD9195796 Si02
#       6
#     8   8   8   8   8   8
#     4  10  22  37  56  82 112 143 179 228 278 322
#     4  10  20  35  55  81 109 143 183 224 272 324
#     4  11  21  35  58  85 109 143 186 226 268 322
#     4   9  17  33  57  79 105 145 182 215 265 329
#     4  10  21  39  57  79 113 146 178 225 279 325
#     4  10  20  35  56  80 108 144 181 222 271 323
#
# _framework density 20.785513000000002
#
# number of rings (size 3 to 8) (size 9 to 14) (size 15 to 20)
#    0.000    2.000    3.333    0.500    0.000    3.000 
#    0.000    2.500    0.000    0.000    0.000    0.000 
#    0.000    0.000    0.000    0.000    0.000    0.000 
#
# Total GULP energy -134066.411165 kJ/mol
# GULP energy per Si atom -5586.100465 kJ/mol
# Density = 2.073820 g / cm^3
# Si number density = 20.785513 Si / 1000 Ang^3
#
#
#
# Elastic Constant Matrix: (Units=GPa)
#
#
# Indices 1 2 3 4 5 6 
#
# 1 194.6876 -7.5630 99.6114 0.0000 34.7801 0.0000
# 2 -7.5630 46.3654 -4.7072 0.0000 11.7128 0.0000
# 3 99.6114 -4.7072 192.3250 0.0000 27.8136 0.0000
# 4 0.0000 0.0000 0.0000 11.3953 0.0000 -10.0686
# 5 34.7801 11.7128 27.8136 0.0000 33.6875 0.0000
# 6 0.0000 0.0000 0.0000 -10.0686 0.0000 19.0332
#
#
#
# Elastic Compliance Matrix: (Units=1/GPa)
#
#
# Indices 1 2 3 4 5 6 
#
# 1 0.008027 0.002665 -0.003134 0.000000 -0.006627 0.000000
# 2 0.002665 0.025232 0.001026 0.000000 -0.012372 0.000000
# 3 -0.003134 0.001026 0.007304 0.000000 -0.003151 0.000000
# 4 0.000000 0.000000 0.000000 0.164772 0.000000 0.087165
# 5 -0.006627 -0.012372 -0.003151 0.000000 0.043430 0.000000
# 6 0.000000 0.000000 0.000000 0.087165 0.000000 0.098650
#
#
# Mechanical properties :
#
#
# Convention : Reuss Voigt Hill
#
# Bulk Modulus (GPa) = 23.99328 67.56227 45.77778
# Shear Modulus (GPa) = 13.88147 35.89232 24.88689
#
# Velocity S-wave (km/s) = 2.58707 4.15998 3.46398
# Velocity P-wave (km/s) = 4.52684 7.45982 6.17014
#
# Compressibility (1/GPa) = 0.04167833
#
# Stress axis : x y z
#
# Youngs Moduli (GPa) = 124.57407 39.63194 136.91876
#
# Poissons Ratio (x) = -0.10563 0.42911
# Poissons Ratio (y) = -0.33203 -0.14053
# Poissons Ratio (z) = 0.39042 -0.04068
#
# Static dielectric constant tensor:
#      x y z
#    x 1.715800 0.000000 0.049300 
#    y 0.000000 1.810850 0.000000 
#    z 0.049300 0.000000 1.699870 
# 
# From -- ./inp_files/267595.got.cif
#   From: 2010.05.17/outbox.cif.g08.bks.cpg/sg12_134_cif.got.tgz:267595.got - 2010.06.03 13:09:07.
