data_PCOD9195395
_publ_section_title
;
Structure prediction by ZEFSAII (Michael W. Deem and Ramdas Pophale) SiO2 
 PCOD9195395
Probable space group: C 2/M
;
_chemical_formula_sum "Si O2"
_cell_formula_units_Z 40
_cell_length_a 14.783822
_cell_length_b 8.380759
_cell_length_c 22.821708
_cell_angle_alpha 90.000000
_cell_angle_beta 132.041726
_cell_angle_gamma 90.000000
_cell_volume 2099.939067
_symmetry_space_group_name_H-M "C 2/M"
_symmetry_group_IT_number 12
_symmetry_cell_setting 'monoclinic'
loop_
_space_group_symop_operation_xyz
x,y,z
-x,y,-z
-x,-y,-z
x,-y,z
1/2+x,1/2+y,z
1/2-x,1/2+y,-z
1/2-x,1/2-y,-z
1/2+x,1/2-y,z
loop_
_atom_site_type_symbol
_atom_site_label
_atom_site_fract_x
_atom_site_fract_y
_atom_site_fract_z
Si Si1 0.971924 0.688730 0.399494
Si Si2 0.875401 0.809317 0.123379
Si Si3 0.188014 0.188367 0.565589
Si Si4 0.104594 0.192638 0.001173
Si Si5 0.465920 0.192611 0.700802
O O1 0.947015 0.500000 0.393903
O O2 0.883151 0.782079 0.404415
O O3 0.964712 0.738293 0.328876
O O4 0.108604 0.720866 0.482464
O O5 0.911604 0.753470 0.073426
O O6 0.969452 0.756189 0.213527
O O7 0.869565 0.000000 0.119563
O O8 0.740273 0.744373 0.077943
O O9 0.325982 0.244993 0.632924
O O10 0.187482 0.000000 0.551613
O O11 0.100616 0.000000 0.999733
O O12 0.000000 0.250744 0.000000
O O13 0.465116 0.000000 0.702924
#
# Coordination Sequence:
#
# PCOD9195395 Si02
#       5
#     8   8   8   8   8
#     4  10  20  35  54  76 103 140 181 218 261 312
#     4  10  21  35  55  83 108 134 173 217 258 307
#     4  10  20  35  54  77 105 139 178 221 265 306
#     4   9  19  38  60  79 105 140 172 207 258 316
#     4  10  22  37  53  75 108 144 174 213 264 312
#
# _framework density 19.048172000000001
#
# number of rings (size 3 to 8) (size 9 to 14) (size 15 to 20)
#    0.000    2.200    0.000    3.600    0.000    6.000 
#    0.000    6.000    0.000    0.000    0.000    0.000 
#    0.000    0.000    0.000    0.000    0.000    0.000 
#
# Total GULP energy -111662.413713 kJ/mol
# GULP energy per Si atom -5583.120686 kJ/mol
# Density = 1.900482 g / cm^3
# Si number density = 19.048172 Si / 1000 Ang^3
#
#
#
# Elastic Constant Matrix: (Units=GPa)
#
#
# Indices 1 2 3 4 5 6 
#
# 1 97.4430 3.9343 35.8818 0.0000 -1.8761 0.0000
# 2 3.9343 9.5143 -6.0957 0.0000 -2.7403 0.0000
# 3 35.8818 -6.0957 63.9204 0.0000 -13.9101 0.0000
# 4 0.0000 0.0000 0.0000 34.9662 0.0000 1.1639
# 5 -1.8761 -2.7403 -13.9101 0.0000 14.8426 0.0000
# 6 0.0000 0.0000 0.0000 1.1639 0.0000 20.2928
#
#
#
# Elastic Compliance Matrix: (Units=1/GPa)
#
#
# Indices 1 2 3 4 5 6 
#
# 1 0.015975 -0.019929 -0.014106 0.000000 -0.014880 0.000000
# 2 -0.019929 0.157606 0.040199 0.000000 0.064252 0.000000
# 3 -0.014106 0.040199 0.035957 0.000000 0.039336 0.000000
# 4 0.000000 0.000000 0.000000 0.028654 0.000000 -0.001644
# 5 -0.014880 0.064252 0.039336 0.000000 0.114220 0.000000
# 6 0.000000 0.000000 0.000000 -0.001644 0.000000 0.049373
#
#
# Mechanical properties :
#
#
# Convention : Reuss Voigt Hill
#
# Bulk Modulus (GPa) = 4.50723 26.47986 15.49354
# Shear Modulus (GPa) = 10.78955 23.16414 16.97685
#
# Velocity S-wave (km/s) = 2.38257 3.49102 2.98863
# Velocity P-wave (km/s) = 3.15281 5.49375 4.47893
#
# Compressibility (1/GPa) = 0.22186556
#
# Stress axis : x y z
#
# Youngs Moduli (GPa) = 62.59795 6.34494 27.81116
#
# Poissons Ratio (x) = 0.12645 0.39231
# Poissons Ratio (y) = 1.24752 -1.11799
# Poissons Ratio (z) = 0.88302 -0.25506
#
# Static dielectric constant tensor:
#      x y z
#    x 1.677880 0.000000 -0.010040 
#    y 0.000000 1.650720 0.000000 
#    z -0.010040 0.000000 1.634000 
# 
# From -- ./inp_files/308166.got.cif
#   From: 2010.05.17/outbox.cif.g08.bks.cpg/sg12_155_cif.got.tgz:308166.got - 2010.06.03 13:09:07.
