data_PCOD9195324
_publ_section_title
;
Structure prediction by ZEFSAII (Michael W. Deem and Ramdas Pophale) SiO2 
 PCOD9195324
Probable space group: C 2/M
;
_chemical_formula_sum "Si O2"
_cell_formula_units_Z 44
_cell_length_a 10.509535
_cell_length_b 33.644987
_cell_length_c 8.158106
_cell_angle_alpha 90.000000
_cell_angle_beta 43.904051
_cell_angle_gamma 90.000000
_cell_volume 2000.368919
_symmetry_space_group_name_H-M "C 2/M"
_symmetry_group_IT_number 12
_symmetry_cell_setting 'monoclinic'
loop_
_space_group_symop_operation_xyz
x,y,z
-x,y,-z
-x,-y,-z
x,-y,z
1/2+x,1/2+y,z
1/2-x,1/2+y,-z
1/2-x,1/2-y,-z
1/2+x,1/2-y,z
loop_
_atom_site_type_symbol
_atom_site_label
_atom_site_fract_x
_atom_site_fract_y
_atom_site_fract_z
Si Si1 0.031829 0.709516 0.655862
Si Si2 0.440771 0.625375 0.369576
Si Si3 0.120111 0.043393 0.726192
Si Si4 0.000000 0.578565 0.500000
Si Si5 0.492067 0.129259 0.196344
Si Si6 0.967030 0.208508 0.220477
O O1 0.949006 0.675442 0.848553
O O2 0.954250 0.753756 0.754266
O O3 0.251975 0.709840 0.468784
O O4 0.000000 0.696404 0.500000
O O5 0.500000 0.630169 0.500000
O O6 0.470257 0.580338 0.285548
O O7 0.222327 0.629247 0.560194
O O8 0.526757 0.663047 0.195989
O O9 0.328911 0.053796 0.586479
O O10 0.117324 0.000000 0.645208
O O11 0.000000 0.040673 0.000000
O O12 0.073230 0.604335 0.274474
O O13 0.500000 0.114595 0.000000
O O14 0.000000 0.217447 0.000000
#
# Coordination Sequence:
#
# PCOD9195324 Si02
#       6
#     8   8   8   4   8   8
#     4  10  20  35  53  79 118 151 200 246 286 355
#     4  10  22  37  56  86 117 149 198 250 296 368
#     4  10  22  40  65  91 118 159 199 247 315 367
#     4  10  21  40  64  92 126 158 204 256 293 372
#     4  10  21  36  59  87 117 162 199 242 304 351
#     4  10  21  35  53  80 112 155 197 242 299 348
#
# _framework density 21.995943
#
# number of rings (size 3 to 8) (size 9 to 14) (size 15 to 20)
#    0.000    2.000    0.909    1.909    2.545    2.545 
#    0.000    0.000    0.000    2.727    0.000    0.000 
#    0.000    0.000    0.000    0.000    0.000    0.000 
#
# Total GULP energy -122635.336046 kJ/mol
# GULP energy per Si atom -5574.333457 kJ/mol
# Density = 2.194588 g / cm^3
# Si number density = 21.995943 Si / 1000 Ang^3
#
#
#
# Elastic Constant Matrix: (Units=GPa)
#
#
# Indices 1 2 3 4 5 6 
#
# 1 34.6904 6.8797 -8.1079 0.0000 6.2482 0.0000
# 2 6.8797 143.2741 19.0831 0.0000 13.4986 0.0000
# 3 -8.1079 19.0831 50.9233 0.0000 6.0840 0.0000
# 4 0.0000 0.0000 0.0000 26.2231 0.0000 0.2597
# 5 6.2482 13.4986 6.0840 0.0000 49.2581 0.0000
# 6 0.0000 0.0000 0.0000 0.2597 0.0000 98.1422
#
#
#
# Elastic Compliance Matrix: (Units=1/GPa)
#
#
# Indices 1 2 3 4 5 6 
#
# 1 0.031430 -0.001942 0.006237 0.000000 -0.004225 0.000000
# 2 -0.001942 0.007609 -0.002985 0.000000 -0.001470 0.000000
# 3 0.006237 -0.002985 0.022071 0.000000 -0.002699 0.000000
# 4 0.000000 0.000000 0.000000 0.038135 0.000000 -0.000101
# 5 -0.004225 -0.001470 -0.002699 0.000000 0.021573 0.000000
# 6 0.000000 0.000000 0.000000 -0.000101 0.000000 0.010190
#
#
# Mechanical properties :
#
#
# Convention : Reuss Voigt Hill
#
# Bulk Modulus (GPa) = 15.69109 29.39974 22.54541
# Shear Modulus (GPa) = 33.41522 48.79354 41.10438
#
# Velocity S-wave (km/s) = 3.90186 4.71499 4.32757
# Velocity P-wave (km/s) = 5.23913 6.56022 5.93654
#
# Compressibility (1/GPa) = 0.06373045
#
# Stress axis : x y z
#
# Youngs Moduli (GPa) = 31.81657 131.42405 45.30738
#
# Poissons Ratio (x) = 0.25520 -0.28257
# Poissons Ratio (y) = 0.06178 0.13524
# Poissons Ratio (z) = -0.19843 0.39229
#
# Static dielectric constant tensor:
#      x y z
#    x 1.820050 0.000000 -0.033670 
#    y 0.000000 1.926180 0.000000 
#    z -0.033670 0.000000 1.787950 
# 
# From -- ./inp_files/54066.got.cif
#   From: 2010.05.17/outbox.cif.g08.bks.cpg/sg12_28_cif.got.tgz:54066.got - 2010.06.03 13:09:07.
