data_PCOD9195499
_publ_section_title
;
Structure prediction by ZEFSAII (Michael W. Deem and Ramdas Pophale) SiO2 
 PCOD9195499
Probable space group: C 2/M
;
_chemical_formula_sum "Si O2"
_cell_formula_units_Z 64
_cell_length_a 19.475387
_cell_length_b 7.636541
_cell_length_c 20.572892
_cell_angle_alpha 90.000000
_cell_angle_beta 82.434490
_cell_angle_gamma 90.000000
_cell_volume 3033.060232
_symmetry_space_group_name_H-M "C 2/M"
_symmetry_group_IT_number 12
_symmetry_cell_setting 'monoclinic'
loop_
_space_group_symop_operation_xyz
x,y,z
-x,y,-z
-x,-y,-z
x,-y,z
1/2+x,1/2+y,z
1/2-x,1/2+y,-z
1/2-x,1/2-y,-z
1/2+x,1/2-y,z
loop_
_atom_site_type_symbol
_atom_site_label
_atom_site_fract_x
_atom_site_fract_y
_atom_site_fract_z
Si Si1 0.670867 0.297589 0.850367
Si Si2 0.033188 0.214711 0.928319
Si Si3 0.324240 0.296622 0.416744
Si Si4 0.309832 0.789740 0.779365
Si Si5 0.535726 0.291346 0.197467
Si Si6 0.577889 0.709376 0.483145
Si Si7 0.186824 0.288598 0.368943
Si Si8 0.602200 0.203042 0.723514
O O1 0.679127 0.500000 0.868900
O O2 0.611683 0.222553 0.904752
O O3 0.747082 0.219337 0.831497
O O4 0.637005 0.290197 0.782444
O O5 0.988126 0.268410 0.871281
O O6 0.034474 0.000000 0.928409
O O7 0.000000 0.271918 0.000000
O O8 0.311941 0.500000 0.434755
O O9 0.368912 0.217054 0.469510
O O10 0.249519 0.220582 0.406518
O O11 0.370237 0.286684 0.345792
O O12 0.385779 0.754116 0.796734
O O13 0.304541 0.724326 0.705804
O O14 0.300602 0.000000 0.777515
O O15 0.528083 0.500000 0.200457
O O16 0.480101 0.217673 0.255571
O O17 0.500000 0.778599 0.500000
O O18 0.573899 0.500000 0.494125
O O19 0.613620 0.741292 0.409550
O O20 0.191933 0.500000 0.366545
O O21 0.622130 0.000000 0.720740
#
# Coordination Sequence:
#
# PCOD9195499 Si02
#       8
#     8   8   8   8   8   8   8   8
#     4   9  17  34  57  80 112 148 179 219 271 321
#     4   8  15  31  57  84 107 142 190 225 257 316
#     4  10  20  38  58  76 107 145 181 220 275 335
#     4  10  20  35  54  80 113 145 183 225 273 325
#     4  10  21  35  54  79 112 148 180 224 277 320
#     4  10  23  39  55  79 107 137 179 231 279 330
#     4  10  21  37  57  77 104 144 183 223 269 329
#     4  11  21  33  54  83 109 138 183 229 267 322
#
# _framework density 21.100801000000001
#
# number of rings (size 3 to 8) (size 9 to 14) (size 15 to 20)
#    0.000    2.250    1.250    2.625    1.750    2.250 
#    0.000    0.625    0.000    9.375    0.000    0.000 
#    0.000    0.000    0.000    0.000    0.000    0.000 
#
# Total GULP energy -178664.189832 kJ/mol
# GULP energy per Si atom -5583.255932 kJ/mol
# Density = 2.105277 g / cm^3
# Si number density = 21.100801 Si / 1000 Ang^3
#
#
#
# Elastic Constant Matrix: (Units=GPa)
#
#
# Indices 1 2 3 4 5 6 
#
# 1 170.0983 0.7699 45.0604 0.0000 -20.6871 0.0000
# 2 0.7699 46.6851 -5.2475 0.0000 3.8812 0.0000
# 3 45.0604 -5.2475 71.7591 0.0000 -26.2040 0.0000
# 4 0.0000 0.0000 0.0000 2.5708 0.0000 6.1512
# 5 -20.6871 3.8812 -26.2040 0.0000 30.5092 0.0000
# 6 0.0000 0.0000 0.0000 6.1512 0.0000 9.9995
#
#
#
# Elastic Compliance Matrix: (Units=1/GPa)
#
#
# Indices 1 2 3 4 5 6 
#
# 1 0.007117 -0.000689 -0.003970 0.000000 0.001503 0.000000
# 2 -0.000689 0.021751 0.001227 0.000000 -0.002180 0.000000
# 3 -0.003970 0.001227 0.022551 0.000000 0.016521 0.000000
# 4 0.000000 0.000000 0.000000 -0.824336 0.000000 0.507093
# 5 0.001503 -0.002180 0.016521 0.000000 0.048263 0.000000
# 6 0.000000 0.000000 0.000000 0.507093 0.000000 -0.211934
#
#
# Mechanical properties :
#
#
# Convention : Reuss Voigt Hill
#
# Bulk Modulus (GPa) = 22.44457 41.07867 31.76162
# Shear Modulus (GPa) = -5.46523 25.14656 9.84067
#
# Velocity S-wave (km/s) = -1.61111 3.45590 2.16189
# Velocity P-wave (km/s) = 2.68310 5.95268 4.61700
#
# Compressibility (1/GPa) = 0.04455421
#
# Stress axis : x y z
#
# Youngs Moduli (GPa) = 140.51578 45.97575 44.34370
#
# Poissons Ratio (x) = 0.03166 0.17606
# Poissons Ratio (y) = 0.09676 -0.05440
# Poissons Ratio (z) = 0.55789 -0.05640
#
# Static dielectric constant tensor:
#      x y z
#    x 1.780490 0.000000 -0.012410 
#    y 0.000000 1.789780 0.000000 
#    z -0.012410 0.000000 1.731420 
# 
# From -- ./inp_files/314140.got.cif
#   From: 2010.05.17/outbox.cif.g08.bks.cpg/sg12_158_cif.got.tgz:314140.got - 2010.06.03 13:09:07.
