data_PCOD9195505
_publ_section_title
;
Structure prediction by ZEFSAII (Michael W. Deem and Ramdas Pophale) SiO2 
 PCOD9195505
Probable space group: C 2/M
;
_chemical_formula_sum "Si O2"
_cell_formula_units_Z 64
_cell_length_a 21.227441
_cell_length_b 20.712985
_cell_length_c 17.942218
_cell_angle_alpha 90.000000
_cell_angle_beta 151.751002
_cell_angle_gamma 90.000000
_cell_volume 3733.850089
_symmetry_space_group_name_H-M "C 2/M"
_symmetry_group_IT_number 12
_symmetry_cell_setting 'monoclinic'
loop_
_space_group_symop_operation_xyz
x,y,z
-x,y,-z
-x,-y,-z
x,-y,z
1/2+x,1/2+y,z
1/2-x,1/2+y,-z
1/2-x,1/2-y,-z
1/2+x,1/2-y,z
loop_
_atom_site_type_symbol
_atom_site_label
_atom_site_fract_x
_atom_site_fract_y
_atom_site_fract_z
Si Si1 0.361370 0.709430 0.819663
Si Si2 0.296275 0.425835 0.945046
Si Si3 0.871946 0.680681 0.316198
Si Si4 0.091552 0.926759 0.776046
Si Si5 0.484737 0.691967 0.393904
Si Si6 0.099684 0.071144 0.202738
Si Si7 0.243608 0.293158 0.418648
Si Si8 0.284854 0.429351 0.514045
O O1 0.235694 0.715110 0.742440
O O2 0.364703 0.632873 0.807459
O O3 0.347041 0.751983 0.731152
O O4 0.500000 0.727836 0.000000
O O5 0.250944 0.500000 0.890194
O O6 0.321848 0.412811 0.059594
O O7 0.444967 0.422425 0.064861
O O8 0.198568 0.376682 0.802027
O O9 0.918381 0.738498 0.311393
O O10 0.000000 0.660661 0.500000
O O11 0.096972 0.869246 0.722323
O O12 0.936110 0.928495 0.639657
O O13 0.123282 0.000000 0.783202
O O14 0.500000 0.685584 0.500000
O O15 0.620696 0.697086 0.487815
O O16 0.189314 0.074397 0.370550
O O17 0.118778 0.000000 0.188259
O O18 0.250000 0.250000 0.500000
O O19 0.208191 0.366449 0.405366
O O20 0.226800 0.500000 0.435466
#
# Coordination Sequence:
#
# PCOD9195505 Si02
#       8
#     8   8   8   8   8   8   8   8
#     4  12  22  34  55  83 112 148 189 228 275 335
#     4   9  18  34  54  79 112 148 187 232 271 328
#     4  11  22  37  52  75 119 152 179 223 289 339
#     4   8  16  31  53  80 106 139 186 229 272 328
#     4  10  20  35  54  80 121 147 174 233 290 329
#     4   9  17  31  52  81 110 139 185 234 272 317
#     4  11  20  35  59  81 112 149 192 232 273 331
#     4   8  15  29  52  78 105 137 182 233 273 313
#
# _framework density 17.140485000000002
#
# number of rings (size 3 to 8) (size 9 to 14) (size 15 to 20)
#    0.000    2.250    5.000    1.500    0.000    1.750 
#    0.000    0.000    0.000    1.125    0.000    0.000 
#    0.000    0.000    0.000    0.000    0.000    0.000 
#
# Total GULP energy -178141.461315 kJ/mol
# GULP energy per Si atom -5566.920666 kJ/mol
# Density = 1.710147 g / cm^3
# Si number density = 17.140485 Si / 1000 Ang^3
#
#
#
# Elastic Constant Matrix: (Units=GPa)
#
#
# Indices 1 2 3 4 5 6 
#
# 1 48.0412 21.6280 21.2759 0.0000 -13.0088 0.0000
# 2 21.6280 130.0368 52.3043 0.0000 -27.7142 0.0000
# 3 21.2759 52.3043 77.1404 0.0000 -15.3535 0.0000
# 4 0.0000 0.0000 0.0000 228.1641 0.0000 -181.3705
# 5 -13.0088 -27.7142 -15.3535 0.0000 17.3094 0.0000
# 6 0.0000 0.0000 0.0000 -181.3705 0.0000 176.5920
#
#
#
# Elastic Compliance Matrix: (Units=1/GPa)
#
#
# Indices 1 2 3 4 5 6 
#
# 1 0.027315 0.001281 -0.004746 0.000000 0.018370 0.000000
# 2 0.001281 0.013653 -0.006155 0.000000 0.017364 0.000000
# 3 -0.004746 -0.006155 0.019156 0.000000 0.003570 0.000000
# 4 0.000000 0.000000 0.000000 0.023874 0.000000 0.024520
# 5 0.018370 0.017364 0.003570 0.000000 0.102546 0.000000
# 6 0.000000 0.000000 0.000000 0.024520 0.000000 0.030847
#
#
# Mechanical properties :
#
#
# Convention : Reuss Voigt Hill
#
# Bulk Modulus (GPa) = 24.45914 49.51499 36.98707
# Shear Modulus (GPa) = 19.97926 95.08046 57.52986
#
# Velocity S-wave (km/s) = 3.41782 7.45598 5.79971
# Velocity P-wave (km/s) = 5.46590 10.15247 8.15318
#
# Compressibility (1/GPa) = 0.04088451
#
# Stress axis : x y z
#
# Youngs Moduli (GPa) = 36.61015 73.24161 52.20247
#
# Poissons Ratio (x) = -0.09382 0.24775
# Poissons Ratio (y) = -0.04690 0.32130
# Poissons Ratio (z) = 0.17375 0.45079
#
# Static dielectric constant tensor:
#      x y z
#    x 1.616200 0.000000 0.009000 
#    y 0.000000 1.605680 0.000000 
#    z 0.009000 0.000000 1.584480 
# 
# From -- ./inp_files/285783.got.cif
#   From: 2010.05.17/outbox.cif.g08.bks.cpg/sg12_143_cif.got.tgz:285783.got - 2010.06.03 13:09:07.
