data_PCOD9195521
_publ_section_title
;
Structure prediction by ZEFSAII (Michael W. Deem and Ramdas Pophale) SiO2 
 PCOD9195521
Probable space group: C 2/M
;
_chemical_formula_sum "Si O2"
_cell_formula_units_Z 36
_cell_length_a 9.040416
_cell_length_b 22.300454
_cell_length_c 10.195389
_cell_angle_alpha 90.000000
_cell_angle_beta 114.035879
_cell_angle_gamma 90.000000
_cell_volume 1877.218811
_symmetry_space_group_name_H-M "C 2/M"
_symmetry_group_IT_number 12
_symmetry_cell_setting 'monoclinic'
loop_
_space_group_symop_operation_xyz
x,y,z
-x,y,-z
-x,-y,-z
x,-y,z
1/2+x,1/2+y,z
1/2-x,1/2+y,-z
1/2-x,1/2-y,-z
1/2+x,1/2-y,z
loop_
_atom_site_type_symbol
_atom_site_label
_atom_site_fract_x
_atom_site_fract_y
_atom_site_fract_z
Si Si1 0.943698 0.626612 0.782879
Si Si2 0.000000 0.134084 0.000000
Si Si3 0.221741 0.278454 0.848679
Si Si4 0.211633 0.431063 0.021663
Si Si5 0.690034 0.699288 0.581448
O O1 0.848989 0.612303 0.883692
O O2 0.804457 0.640018 0.625288
O O3 0.055595 0.685058 0.804952
O O4 0.087459 0.577279 0.853530
O O5 0.112467 0.092097 0.952866
O O6 0.872818 0.176825 0.878615
O O7 0.210381 0.230412 0.730655
O O8 0.250000 0.250000 0.000000
O O9 0.208803 0.500000 0.062371
O O10 0.500000 0.685675 0.500000
O O11 0.750000 0.750000 0.500000
#
# Coordination Sequence:
#
# PCOD9195521 Si02
#       5
#     8   4   8   8   8
#     4  10  20  35  54  82 112 155 193 242 298 356
#     4  10  21  32  58  90 120 150 195 254 304 350
#     4  11  21  37  56  87 126 159 198 237 295 368
#     4  10  20  37  62  87 113 150 210 269 305 338
#     4  12  24  38  56  87 128 166 197 233 297 377
#
# _framework density 19.177305
#
# number of rings (size 3 to 8) (size 9 to 14) (size 15 to 20)
#    0.000    1.333    2.222    7.000    3.111    0.000 
#    0.000    0.000    0.000    2.667    0.000    7.778 
#    0.000    0.000    0.000    0.000    0.000    0.000 
#
# Total GULP energy -100219.410983 kJ/mol
# GULP energy per Si atom -5567.745055 kJ/mol
# Density = 1.913366 g / cm^3
# Si number density = 19.177305 Si / 1000 Ang^3
#
#
#
# Elastic Constant Matrix: (Units=GPa)
#
#
# Indices 1 2 3 4 5 6 
#
# 1 140.8537 28.0088 24.0076 0.0000 27.0463 0.0000
# 2 28.0088 68.7823 22.6793 0.0000 6.3967 0.0000
# 3 24.0076 22.6793 72.5279 0.0000 12.8769 0.0000
# 4 0.0000 0.0000 0.0000 16.1197 0.0000 5.0124
# 5 27.0463 6.3967 12.8769 0.0000 37.9764 0.0000
# 6 0.0000 0.0000 0.0000 5.0124 0.0000 8.4048
#
#
#
# Elastic Compliance Matrix: (Units=1/GPa)
#
#
# Indices 1 2 3 4 5 6 
#
# 1 0.008889 -0.002743 -0.001109 0.000000 -0.005492 0.000000
# 2 -0.002743 0.017098 -0.004548 0.000000 0.000616 0.000000
# 3 -0.001109 -0.004548 0.016281 0.000000 -0.003964 0.000000
# 4 0.000000 0.000000 0.000000 0.076159 0.000000 -0.045419
# 5 -0.005492 0.000616 -0.003964 0.000000 0.031484 0.000000
# 6 0.000000 0.000000 0.000000 -0.045419 0.000000 0.146066
#
#
# Mechanical properties :
#
#
# Convention : Reuss Voigt Hill
#
# Bulk Modulus (GPa) = 39.26636 47.95058 43.60847
# Shear Modulus (GPa) = 15.56342 26.33140 20.94741
#
# Velocity S-wave (km/s) = 2.85187 3.70949 3.30858
# Velocity P-wave (km/s) = 5.60037 6.58826 6.11430
#
# Compressibility (1/GPa) = 0.02546709
#
# Stress axis : x y z
#
# Youngs Moduli (GPa) = 112.50249 58.48684 61.42139
#
# Poissons Ratio (x) = 0.16043 0.06814
# Poissons Ratio (y) = 0.30859 0.27933
# Poissons Ratio (z) = 0.12481 0.26599
#
# Static dielectric constant tensor:
#      x y z
#    x 1.723540 0.000000 0.037800 
#    y 0.000000 1.686530 0.000000 
#    z 0.037800 0.000000 1.683430 
# 
# From -- ./inp_files/121112.got.cif
#   From: 2010.05.17/outbox.cif.g08.bks.cpg/sg12_61_cif.got.tgz:121112.got - 2010.06.03 13:09:07.
