data_PCOD9195255
_publ_section_title
;
Structure prediction by ZEFSAII (Michael W. Deem and Ramdas Pophale) SiO2 
 PCOD9195255
Probable space group: C 2/M
;
_chemical_formula_sum "Si O2"
_cell_formula_units_Z 48
_cell_length_a 13.630412
_cell_length_b 13.310495
_cell_length_c 23.906768
_cell_angle_alpha 90.000000
_cell_angle_beta 33.973224
_cell_angle_gamma 90.000000
_cell_volume 2423.732342
_symmetry_space_group_name_H-M "C 2/M"
_symmetry_group_IT_number 12
_symmetry_cell_setting 'monoclinic'
loop_
_space_group_symop_operation_xyz
x,y,z
-x,y,-z
-x,-y,-z
x,-y,z
1/2+x,1/2+y,z
1/2-x,1/2+y,-z
1/2-x,1/2-y,-z
1/2+x,1/2-y,z
loop_
_atom_site_type_symbol
_atom_site_label
_atom_site_fract_x
_atom_site_fract_y
_atom_site_fract_z
Si Si1 0.220400 0.314795 0.676454
Si Si2 0.403847 0.883939 0.898007
Si Si3 0.525399 0.300527 0.052935
Si Si4 0.303122 0.115155 0.432397
Si Si5 0.185731 0.316064 0.272178
Si Si6 0.459190 0.611224 0.655424
O O1 0.233568 0.317035 0.604326
O O2 0.365203 0.384258 0.638827
O O3 0.254687 0.209927 0.692589
O O4 0.031305 0.355850 0.785917
O O5 0.453111 0.803664 0.922775
O O6 0.433960 0.000000 0.898991
O O7 0.201698 0.864016 0.978921
O O8 0.352271 0.354282 0.159660
O O9 0.500000 0.280910 0.000000
O O10 0.504201 0.125917 0.355799
O O11 0.162291 0.135046 0.547624
O O12 0.273030 0.000000 0.428921
O O13 0.135009 0.204941 0.270708
O O14 0.437751 0.500000 0.689538
#
# Coordination Sequence:
#
# PCOD9195255 Si02
#       6
#     8   8   8   8   8   8
#     4   9  19  31  53  76 102 126 163 204 248 287
#     4  10  20  35  53  74 102 131 163 206 251 291
#     4  10  21  35  52  75  99 131 170 205 244 296
#     4  11  19  31  53  79 101 130 166 201 243 298
#     4   9  21  33  49  75 106 130 160 208 252 288
#     4   9  18  32  51  75 102 129 164 206 246 288
#
# _framework density 19.804167
#
# number of rings (size 3 to 8) (size 9 to 14) (size 15 to 20)
#    1.000    1.333    0.000    3.500    0.000    2.667 
#    0.000    0.000    0.000    1.000    0.000    3.500 
#    0.000    0.000    0.000    0.000    0.000    0.000 
#
# Total GULP energy -133692.428272 kJ/mol
# GULP energy per Si atom -5570.517845 kJ/mol
# Density = 1.975909 g / cm^3
# Si number density = 19.804167 Si / 1000 Ang^3
#
#
#
# Elastic Constant Matrix: (Units=GPa)
#
#
# Indices 1 2 3 4 5 6 
#
# 1 27.8232 -4.8276 16.0993 0.0000 -4.4055 0.0000
# 2 -4.8276 30.7652 1.7915 -0.0002 0.9383 0.0000
# 3 16.0993 1.7915 98.2325 -0.0011 -33.7536 -0.0001
# 4 0.0000 -0.0002 -0.0011 1.4382 0.0000 -1.8415
# 5 -4.4055 0.9383 -33.7536 0.0000 32.2555 0.0000
# 6 0.0000 0.0000 -0.0001 -1.8415 0.0000 9.5536
#
#
#
# Elastic Compliance Matrix: (Units=1/GPa)
#
#
# Indices 1 2 3 4 5 6 
#
# 1 0.041257 0.007016 -0.007844 -0.000009 -0.002777 -0.000002
# 2 0.007016 0.033856 -0.002774 0.000002 -0.002929 0.000000
# 3 -0.007844 -0.002774 0.017450 0.000019 0.017270 0.000004
# 4 -0.000009 0.000002 0.000019 0.923181 0.000019 0.177945
# 5 -0.002777 -0.002929 0.017270 0.000019 0.048781 0.000004
# 6 -0.000002 0.000000 0.000004 0.177945 0.000004 0.138972
#
#
# Mechanical properties :
#
#
# Convention : Reuss Voigt Hill
#
# Bulk Modulus (GPa) = 11.71516 20.32746 16.02131
# Shear Modulus (GPa) = 4.03501 18.23329 11.13415
#
# Velocity S-wave (km/s) = 1.42894 3.03756 2.37367
# Velocity P-wave (km/s) = 2.94123 4.75278 3.95220
#
# Compressibility (1/GPa) = 0.08535951
#
# Stress axis : x y z
#
# Youngs Moduli (GPa) = 24.23805 29.53684 57.30593
#
# Poissons Ratio (x) = -0.20722 0.44950
# Poissons Ratio (y) = -0.17004 0.15895
# Poissons Ratio (z) = 0.19012 0.08193
#
# Static dielectric constant tensor:
#      x y z
#    x 1.688190 0.000000 -0.030000 
#    y 0.000000 1.716230 0.000000 
#    z -0.030000 0.000000 1.713980 
# 
# From -- ./inp_files/361213.got.cif
#   From: 2010.05.17/outbox.cif.g08.bks.cpg/sg12_181_cif.got.tgz:361213.got - 2010.06.03 13:09:07.
