data_PCOD9195746
_publ_section_title
;
Structure prediction by ZEFSAII (Michael W. Deem and Ramdas Pophale) SiO2 
 PCOD9195746
Probable space group: C 2/M
;
_chemical_formula_sum "Si O2"
_cell_formula_units_Z 64
_cell_length_a 17.179780
_cell_length_b 18.012556
_cell_length_c 24.134310
_cell_angle_alpha 90.000000
_cell_angle_beta 155.236101
_cell_angle_gamma 90.000000
_cell_volume 3128.365446
_symmetry_space_group_name_H-M "C 2/M"
_symmetry_group_IT_number 12
_symmetry_cell_setting 'monoclinic'
loop_
_space_group_symop_operation_xyz
x,y,z
-x,y,-z
-x,-y,-z
x,-y,z
1/2+x,1/2+y,z
1/2-x,1/2+y,-z
1/2-x,1/2-y,-z
1/2+x,1/2-y,z
loop_
_atom_site_type_symbol
_atom_site_label
_atom_site_fract_x
_atom_site_fract_y
_atom_site_fract_z
Si Si1 0.449953 0.318662 0.571555
Si Si2 0.336772 0.085284 0.672506
Si Si3 0.200465 0.809387 0.104244
Si Si4 0.532745 0.079136 0.678340
Si Si5 0.278299 0.854596 0.854124
Si Si6 0.746466 0.834335 0.560854
Si Si7 0.312966 0.166130 0.057479
Si Si8 0.430994 0.582910 0.185784
O O1 0.358912 0.376962 0.470050
O O2 0.666490 0.337293 0.724682
O O3 0.378555 0.237311 0.506442
O O4 0.351984 0.323132 0.569618
O O5 0.432727 0.079365 0.673579
O O6 0.471152 0.141603 0.793733
O O7 0.326043 0.000000 0.687209
O O8 0.335625 0.850443 0.233601
O O9 0.248858 0.723092 0.130608
O O10 0.220574 0.845919 0.057777
O O11 0.000000 0.813787 0.000000
O O12 0.383210 0.095152 0.534761
O O13 0.628072 0.000000 0.732891
O O14 0.165096 0.914660 0.815699
O O15 0.500000 0.869207 0.000000
O O16 0.902393 0.857548 0.705182
O O17 0.250000 0.250000 0.000000
O O18 0.224592 0.109865 0.957054
O O19 0.495296 0.500000 0.215134
#
# Coordination Sequence:
#
# PCOD9195746 Si02
#       8
#     8   8   8   8   8   8   8   8
#     4   9  16  28  52  76 105 141 182 230 277 319
#     4   9  18  30  48  76 109 139 177 227 273 318
#     4  10  20  35  55  80 109 140 182 230 273 331
#     4   9  16  28  48  75 106 138 174 224 276 321
#     4  10  20  35  55  82 114 147 187 231 275 333
#     4   9  16  28  48  77 107 139 180 229 275 327
#     4  11  20  35  56  81 109 146 184 226 275 332
#     4  11  22  34  53  82 115 149 184 229 282 331
#
# _framework density 20.457968000000001
#
# number of rings (size 3 to 8) (size 9 to 14) (size 15 to 20)
#    0.000    2.250    2.500    1.500    3.500    4.000 
#    0.000    0.000    0.000    1.500    0.000    3.500 
#    0.000    0.000    0.000    0.000    0.000    0.000 
#
# Total GULP energy -178149.078815 kJ/mol
# GULP energy per Si atom -5567.158713 kJ/mol
# Density = 2.041140 g / cm^3
# Si number density = 20.457968 Si / 1000 Ang^3
#
#
#
# Elastic Constant Matrix: (Units=GPa)
#
#
# Indices 1 2 3 4 5 6 
#
# 1 9.6459 6.4634 13.1257 0.0035 -0.4175 0.0030
# 2 6.4634 68.0602 31.4967 0.0115 8.5304 0.0000
# 3 13.1257 31.4967 146.8634 0.0165 -6.4362 0.0018
# 4 0.0035 0.0115 0.0165 8.8708 0.0065 -3.4320
# 5 -0.4175 8.5304 -6.4362 0.0065 15.5986 0.0006
# 6 0.0030 0.0000 0.0018 -3.4320 0.0006 9.3207
#
#
#
# Elastic Compliance Matrix: (Units=1/GPa)
#
#
# Indices 1 2 3 4 5 6 
#
# 1 0.121329 -0.007839 -0.008995 -0.000045 0.003823 -0.000054
# 2 -0.007839 0.018724 -0.003842 -0.000004 -0.012035 0.000002
# 3 -0.008995 -0.003842 0.008675 -0.000013 0.005440 -0.000004
# 4 -0.000045 -0.000004 -0.000013 0.131457 -0.000061 0.048405
# 5 0.003823 -0.012035 0.005440 -0.000061 0.073037 -0.000030
# 6 -0.000054 0.000002 -0.000004 0.048405 -0.000030 0.125112
#
#
# Mechanical properties :
#
#
# Convention : Reuss Voigt Hill
#
# Bulk Modulus (GPa) = 9.31304 36.30457 22.80880
# Shear Modulus (GPa) = 9.00126 18.32359 13.66242
#
# Velocity S-wave (km/s) = 2.09986 2.99602 2.58704
# Velocity P-wave (km/s) = 3.23132 5.45460 4.48297
#
# Compressibility (1/GPa) = 0.10737637
#
# Stress axis : x y z
#
# Youngs Moduli (GPa) = 8.24205 53.40781 115.26800
#
# Poissons Ratio (x) = 0.41864 1.03684
# Poissons Ratio (y) = 0.06461 0.44291
# Poissons Ratio (z) = 0.07414 0.20522
#
# Static dielectric constant tensor:
#      x y z
#    x 1.724970 0.000000 0.003940 
#    y 0.000000 1.771410 0.000000 
#    z 0.003940 0.000000 1.807600 
# 
# From -- ./inp_files/366817.got.cif
#   From: 2010.05.17/outbox.cif.g08.bks.cpg/sg12_184_cif.got.tgz:366817.got - 2010.06.03 13:09:07.
