data_PCOD9195575
_publ_section_title
;
Structure prediction by ZEFSAII (Michael W. Deem and Ramdas Pophale) SiO2 
 PCOD9195575
Probable space group: C 2/M
;
_chemical_formula_sum "Si O2"
_cell_formula_units_Z 48
_cell_length_a 18.146326
_cell_length_b 7.555682
_cell_length_c 21.651931
_cell_angle_alpha 90.000000
_cell_angle_beta 49.895491
_cell_angle_gamma 90.000000
_cell_volume 2270.633514
_symmetry_space_group_name_H-M "C 2/M"
_symmetry_group_IT_number 12
_symmetry_cell_setting 'monoclinic'
loop_
_space_group_symop_operation_xyz
x,y,z
-x,y,-z
-x,-y,-z
x,-y,z
1/2+x,1/2+y,z
1/2-x,1/2+y,-z
1/2-x,1/2-y,-z
1/2+x,1/2-y,z
loop_
_atom_site_type_symbol
_atom_site_label
_atom_site_fract_x
_atom_site_fract_y
_atom_site_fract_z
Si Si1 0.887866 0.788862 0.912130
Si Si2 0.026285 0.712205 0.735348
Si Si3 0.234701 0.288791 0.580127
Si Si4 0.349182 0.217601 0.744340
Si Si5 0.402827 0.204856 0.580830
Si Si6 0.288458 0.701804 0.081453
O O1 0.806496 0.703602 0.911840
O O2 0.988895 0.757366 0.823994
O O3 0.870034 0.000000 0.921754
O O4 0.869716 0.722571 0.991709
O O5 0.028496 0.500000 0.729379
O O6 0.131124 0.778302 0.659745
O O7 0.943447 0.773117 0.732449
O O8 0.237141 0.500000 0.587267
O O9 0.250000 0.250000 0.500000
O O10 0.320567 0.211268 0.574140
O O11 0.363109 0.278462 0.666840
O O12 0.254014 0.280863 0.832540
O O13 0.344831 0.000000 0.748469
O O14 0.500000 0.286084 0.500000
O O15 0.426866 0.000000 0.582622
O O16 0.317191 0.500000 0.079632
#
# Coordination Sequence:
#
# PCOD9195575 Si02
#       6
#     8   8   8   8   8   8
#     4   9  15  23  41  70  99 127 165 211 249 286
#     4   9  18  33  51  71  99 134 167 202 250 302
#     4  11  23  38  56  77 102 132 167 208 254 305
#     4   8  14  28  50  71  95 131 169 202 241 294
#     4  10  20  35  55  77 102 133 169 207 251 305
#     4   8  14  25  41  65  99 135 168 202 245 295
#
# _framework density 21.139472999999999
#
# number of rings (size 3 to 8) (size 9 to 14) (size 15 to 20)
#    0.000    2.833    0.000    3.000    0.000    5.000 
#    0.000    3.333    0.000    1.000    0.000    7.000 
#    0.000    0.000    0.000    0.000    0.000    0.000 
#
# Total GULP energy -133770.436981 kJ/mol
# GULP energy per Si atom -5573.768208 kJ/mol
# Density = 2.109136 g / cm^3
# Si number density = 21.139473 Si / 1000 Ang^3
#
#
#
# Elastic Constant Matrix: (Units=GPa)
#
#
# Indices 1 2 3 4 5 6 
#
# 1 53.6426 -11.6973 69.0848 0.0000 5.5602 0.0001
# 2 -11.6973 55.2978 -8.6406 -0.0002 0.2908 0.0003
# 3 69.0848 -8.6406 259.3836 0.0000 11.7660 0.0000
# 4 0.0000 -0.0002 0.0000 11.1413 0.0000 1.8832
# 5 5.5602 0.2908 11.7660 0.0000 30.3380 0.0000
# 6 0.0001 0.0003 0.0000 1.8832 0.0000 11.3994
#
#
#
# Elastic Compliance Matrix: (Units=1/GPa)
#
#
# Indices 1 2 3 4 5 6 
#
# 1 0.029922 0.005142 -0.007682 0.000000 -0.002554 -0.000001
# 2 0.005142 0.019068 -0.000696 0.000000 -0.000855 -0.000001
# 3 -0.007682 -0.000696 0.005918 0.000000 -0.000881 0.000000
# 4 0.000000 0.000000 0.000000 0.092334 0.000000 -0.015254
# 5 -0.002554 -0.000855 -0.000881 0.000000 0.033780 0.000000
# 6 -0.000001 -0.000001 0.000000 -0.015254 0.000000 0.090244
#
#
# Mechanical properties :
#
#
# Convention : Reuss Voigt Hill
#
# Bulk Modulus (GPa) = 20.64558 51.75752 36.20155
# Shear Modulus (GPa) = 17.01364 31.88089 24.44726
#
# Velocity S-wave (km/s) = 2.84003 3.88767 3.40439
# Velocity P-wave (km/s) = 4.53232 6.68498 5.71099
#
# Compressibility (1/GPa) = 0.04843651
#
# Stress axis : x y z
#
# Youngs Moduli (GPa) = 33.42048 52.44525 168.97083
#
# Poissons Ratio (x) = -0.26970 1.29808
# Poissons Ratio (y) = -0.17186 0.11755
# Poissons Ratio (z) = 0.25675 0.03649
#
# Static dielectric constant tensor:
#      x y z
#    x 1.711670 0.000000 -0.007230 
#    y 0.000000 1.700720 0.000000 
#    z -0.007230 0.000000 1.838940 
# 
# From -- ./inp_files/313604.got.cif
#   From: 2010.05.17/outbox.cif.g08.bks.cpg/sg12_157_cif.got.tgz:313604.got - 2010.06.03 13:09:07.
