data_PCOD9195429
_publ_section_title
;
Structure prediction by ZEFSAII (Michael W. Deem and Ramdas Pophale) SiO2 
 PCOD9195429
Probable space group: C 2/M
;
_chemical_formula_sum "Si O2"
_cell_formula_units_Z 40
_cell_length_a 19.156990
_cell_length_b 8.903604
_cell_length_c 28.629460
_cell_angle_alpha 90.000000
_cell_angle_beta 25.940373
_cell_angle_gamma 90.000000
_cell_volume 2136.093880
_symmetry_space_group_name_H-M "C 2/M"
_symmetry_group_IT_number 12
_symmetry_cell_setting 'monoclinic'
loop_
_space_group_symop_operation_xyz
x,y,z
-x,y,-z
-x,-y,-z
x,-y,z
1/2+x,1/2+y,z
1/2-x,1/2+y,-z
1/2-x,1/2-y,-z
1/2+x,1/2-y,z
loop_
_atom_site_type_symbol
_atom_site_label
_atom_site_fract_x
_atom_site_fract_y
_atom_site_fract_z
Si Si1 0.336253 0.176928 0.737383
Si Si2 0.459511 0.677173 0.946413
Si Si3 0.614216 0.322187 0.389488
Si Si4 0.157075 0.178137 0.169901
Si Si5 0.989957 0.677266 0.181612
O O1 0.408704 0.236628 0.645410
O O2 0.392553 0.264539 0.749214
O O3 0.144495 0.200281 0.848119
O O4 0.364232 0.000000 0.726046
O O5 0.424311 0.500000 0.971211
O O6 0.440038 0.734890 0.905107
O O7 0.338549 0.768324 0.051346
O O8 0.500000 0.270722 0.500000
O O9 0.586377 0.500000 0.398558
O O10 0.798669 0.304465 0.293605
O O11 0.056664 0.256622 0.189327
O O12 0.144867 0.000000 0.173839
O O13 0.026957 0.500000 0.155512
#
# Coordination Sequence:
#
# PCOD9195429 Si02
#       5
#     8   8   8   8   8
#     4  10  21  36  55  80 108 139 177 218 261 312
#     4  10  20  35  54  77 108 144 180 215 256 310
#     4   9  19  38  62  83 103 132 172 218 267 318
#     4  12  23  34  51  77 111 145 178 217 260 307
#     4  10  20  35  55  79 108 140 176 216 260 312
#
# _framework density 18.725769
#
# number of rings (size 3 to 8) (size 9 to 14) (size 15 to 20)
#    0.000    1.800    0.000    4.800    0.000    6.000 
#    0.000    1.000    0.000    0.000    0.000    0.000 
#    0.000    0.000    0.000    0.000    0.000    0.000 
#
# Total GULP energy -111782.751283 kJ/mol
# GULP energy per Si atom -5589.137564 kJ/mol
# Density = 1.868315 g / cm^3
# Si number density = 18.725769 Si / 1000 Ang^3
#
#
#
# Elastic Constant Matrix: (Units=GPa)
#
#
# Indices 1 2 3 4 5 6 
#
# 1 89.5164 32.1358 4.0170 -0.0007 27.4546 0.0005
# 2 32.1358 65.0722 4.3714 -0.0016 8.1006 0.0004
# 3 4.0170 4.3714 47.8974 -0.0036 26.1121 -0.0003
# 4 -0.0007 -0.0016 -0.0036 23.3064 0.0005 6.1888
# 5 27.4546 8.1006 26.1121 0.0005 24.1240 -0.0001
# 6 0.0005 0.0004 -0.0003 6.1888 -0.0001 28.9478
#
#
#
# Elastic Compliance Matrix: (Units=1/GPa)
#
#
# Indices 1 2 3 4 5 6 
#
# 1 0.050428 -0.014102 0.062852 0.000014 -0.120687 -0.000003
# 2 -0.014102 0.020239 -0.013927 -0.000002 0.024328 0.000000
# 3 0.062852 -0.013927 0.130089 0.000027 -0.207663 -0.000006
# 4 0.000014 -0.000002 0.000027 0.045489 -0.000045 -0.009725
# 5 -0.120687 0.024328 -0.207663 -0.000045 0.395409 0.000010
# 6 -0.000003 0.000000 -0.000006 -0.009725 0.000010 0.036624
#
#
# Mechanical properties :
#
#
# Convention : Reuss Voigt Hill
#
# Bulk Modulus (GPa) = 3.69821 31.50381 17.60101
# Shear Modulus (GPa) = 7.15548 26.07309 16.61428
#
# Velocity S-wave (km/s) = 1.95691 3.73549 2.98189
# Velocity P-wave (km/s) = 2.66180 5.95529 4.61252
#
# Compressibility (1/GPa) = 0.27040117
#
# Stress axis : x y z
#
# Youngs Moduli (GPa) = 19.83033 49.40977 7.68707
#
# Poissons Ratio (x) = 0.69678 -0.48315
# Poissons Ratio (y) = 0.27965 0.10706
# Poissons Ratio (z) = -1.24638 0.68814
#
# Static dielectric constant tensor:
#      x y z
#    x 1.642370 0.000000 -0.007830 
#    y 0.000000 1.619190 0.000000 
#    z -0.007830 0.000000 1.645190 
# 
# From -- ./inp_files/151615.got.cif
#   From: 2010.05.17/outbox.cif.g08.bks.cpg/sg12_76_cif.got.tgz:151615.got - 2010.06.03 13:09:07.
