data_PCOD9195441
_publ_section_title
;
Structure prediction by ZEFSAII (Michael W. Deem and Ramdas Pophale) SiO2 
 PCOD9195441
Probable space group: C 2/M
;
_chemical_formula_sum "Si O2"
_cell_formula_units_Z 60
_cell_length_a 14.913845
_cell_length_b 7.539634
_cell_length_c 20.895433
_cell_angle_alpha 90.000000
_cell_angle_beta 74.002989
_cell_angle_gamma 90.000000
_cell_volume 2258.600383
_symmetry_space_group_name_H-M "C 2/M"
_symmetry_group_IT_number 12
_symmetry_cell_setting 'monoclinic'
loop_
_space_group_symop_operation_xyz
x,y,z
-x,y,-z
-x,-y,-z
x,-y,z
1/2+x,1/2+y,z
1/2-x,1/2+y,-z
1/2-x,1/2-y,-z
1/2+x,1/2-y,z
loop_
_atom_site_type_symbol
_atom_site_label
_atom_site_fract_x
_atom_site_fract_y
_atom_site_fract_z
Si Si1 0.701735 0.796039 0.153406
Si Si2 0.899315 0.783984 0.096950
Si Si3 0.000000 0.742673 0.500000
Si Si4 0.395707 0.285736 0.948151
Si Si5 0.514407 0.785490 0.251435
Si Si6 0.184128 0.699928 0.700405
Si Si7 0.388908 0.286989 0.638256
Si Si8 0.333276 0.695913 0.436853
O O1 0.803552 0.719636 0.147722
O O2 0.684305 0.791681 0.080556
O O3 0.606902 0.712625 0.198670
O O4 0.703193 0.000000 0.174557
O O5 0.002037 0.725982 0.098071
O O6 0.898757 0.000000 0.099483
O O7 0.892756 0.735508 0.022993
O O8 0.077595 0.686960 0.431947
O O9 0.073778 0.810450 0.538544
O O10 0.391247 0.500000 0.946045
O O11 0.411394 0.715632 0.254183
O O12 0.537157 0.740823 0.320348
O O13 0.510778 0.000000 0.244989
O O14 0.191068 0.500000 0.723876
O O15 0.288295 0.775896 0.684396
O O16 0.165911 0.689468 0.627181
O O17 0.382231 0.500000 0.623853
O O18 0.315651 0.500000 0.415142
O O19 0.250000 0.750000 0.500000
#
# Coordination Sequence:
#
# PCOD9195441 Si02
#       8
#     8   8   4   8   8   8   8   8
#     4  10  20  35  54  77 111 149 180 223 279 321
#     4   8  16  32  54  80 112 147 179 223 276 321
#     4  12  23  38  61  86 111 140 175 222 279 332
#     4   9  17  32  55  82 109 142 188 227 264 323
#     4  10  23  40  55  78 111 145 185 226 268 324
#     4  10  22  40  57  77 108 142 176 220 271 321
#     4  11  22  39  60  80 106 140 177 222 275 327
#     4  12  23  38  59  85 112 139 173 216 271 330
#
# _framework density 26.565124999999998
#
# number of rings (size 3 to 8) (size 9 to 14) (size 15 to 20)
#    0.000    1.867    2.667    2.800    0.000    2.133 
#    0.000    3.667    0.000    0.000    0.000    0.000 
#    0.000    0.000    0.000    0.000    0.000    0.000 
#
# Total GULP energy -167529.737682 kJ/mol
# GULP energy per Si atom -5584.324589 kJ/mol
# Density = 2.650466 g / cm^3
# Si number density = 26.565125 Si / 1000 Ang^3
#
#
#
# Elastic Constant Matrix: (Units=GPa)
#
#
# Indices 1 2 3 4 5 6 
#
# 1 202.3726 9.3177 33.0863 0.0000 -35.2424 0.0000
# 2 9.3177 103.1803 9.1585 0.0000 -5.0828 0.0000
# 3 33.0863 9.1585 79.0983 0.0000 -19.9415 0.0000
# 4 0.0000 0.0000 0.0000 34.4416 0.0000 5.8973
# 5 -35.2424 -5.0828 -19.9415 0.0000 69.5131 0.0000
# 6 0.0000 0.0000 0.0000 5.8973 0.0000 2.0603
#
#
#
# Elastic Compliance Matrix: (Units=1/GPa)
#
#
# Indices 1 2 3 4 5 6 
#
# 1 0.005646 -0.000240 -0.001743 0.000000 0.002345 0.000000
# 2 -0.000240 0.009814 -0.000955 0.000000 0.000322 0.000000
# 3 -0.001743 -0.000955 0.014274 0.000000 0.003142 0.000000
# 4 0.000000 0.000000 0.000000 0.056942 0.000000 -0.162985
# 5 0.002345 0.000322 0.003142 0.000000 0.016499 0.000000
# 6 0.000000 0.000000 0.000000 -0.162985 0.000000 0.951876
#
#
# Mechanical properties :
#
#
# Convention : Reuss Voigt Hill
#
# Bulk Modulus (GPa) = 41.91215 54.19734 48.05475
# Shear Modulus (GPa) = 4.67780 43.40891 24.04335
#
# Velocity S-wave (km/s) = 1.32842 4.04673 3.01171
# Velocity P-wave (km/s) = 4.26196 6.50236 5.49750
#
# Compressibility (1/GPa) = 0.02385943
#
# Stress axis : x y z
#
# Youngs Moduli (GPa) = 177.12694 101.89485 70.05741
#
# Poissons Ratio (x) = 0.02442 0.12208
# Poissons Ratio (y) = 0.04245 0.06690
# Poissons Ratio (z) = 0.30867 0.09730
#
# Static dielectric constant tensor:
#      x y z
#    x 2.068810 0.000000 -0.028280 
#    y 0.000000 2.009480 0.000000 
#    z -0.028280 0.000000 2.199360 
# 
# From -- ./inp_files/338658.got.cif
#   From: 2010.05.17/outbox.cif.g08.bks.cpg/sg12_170_cif.got.tgz:338658.got - 2010.06.03 13:09:07.
