data_PCOD9195362
_publ_section_title
;
Structure prediction by ZEFSAII (Michael W. Deem and Ramdas Pophale) SiO2 
 PCOD9195362
Probable space group: C 2/M
;
_chemical_formula_sum "Si O2"
_cell_formula_units_Z 56
_cell_length_a 15.104984
_cell_length_b 7.614056
_cell_length_c 24.135811
_cell_angle_alpha 90.000000
_cell_angle_beta 64.960820
_cell_angle_gamma 90.000000
_cell_volume 2514.984638
_symmetry_space_group_name_H-M "C 2/M"
_symmetry_group_IT_number 12
_symmetry_cell_setting 'monoclinic'
loop_
_space_group_symop_operation_xyz
x,y,z
-x,y,-z
-x,-y,-z
x,-y,z
1/2+x,1/2+y,z
1/2-x,1/2+y,-z
1/2-x,1/2-y,-z
1/2+x,1/2-y,z
loop_
_atom_site_type_symbol
_atom_site_label
_atom_site_fract_x
_atom_site_fract_y
_atom_site_fract_z
Si Si1 0.095929 0.790122 0.006985
Si Si2 0.914041 0.710060 0.449565
Si Si3 0.710604 0.288962 0.711095
Si Si4 0.363722 0.785674 0.579079
Si Si5 0.810358 0.787553 0.905231
Si Si6 0.044329 0.209327 0.681745
Si Si7 0.659256 0.710050 0.226347
O O1 0.120734 0.723289 0.062619
O O2 0.082536 0.000000 0.015362
O O3 0.197573 0.758209 0.947783
O O4 0.000000 0.721520 0.000000
O O5 0.911555 0.500000 0.452394
O O6 0.850451 0.774042 0.518699
O O7 0.897658 0.759473 0.390566
O O8 0.026253 0.764407 0.432568
O O9 0.710435 0.500000 0.707446
O O10 0.788763 0.221881 0.644991
O O11 0.606302 0.225307 0.717435
O O12 0.744932 0.244973 0.763145
O O13 0.359733 0.000000 0.580265
O O14 0.838167 0.722333 0.836871
O O15 0.816594 0.000000 0.903641
O O16 0.934381 0.280248 0.714519
O O17 0.037114 0.000000 0.687484
O O18 0.650625 0.500000 0.224934
#
# Coordination Sequence:
#
# PCOD9195362 Si02
#       7
#     8   8   8   8   8   8   8
#     4   9  18  34  58  86 111 136 171 210 247 294
#     4   9  16  30  52  72  95 131 171 211 262 322
#     4  10  20  35  54  74  98 134 178 218 258 312
#     4   8  15  29  50  73  95 127 170 215 262 313
#     4   9  19  35  54  77 109 144 172 205 251 298
#     4  10  21  34  50  75 104 131 167 219 269 305
#     4  10  21  37  52  72 107 142 170 209 259 301
#
# _framework density 22.266535999999999
#
# number of rings (size 3 to 8) (size 9 to 14) (size 15 to 20)
#    0.000    2.714    1.429    0.857    0.000    3.143 
#    0.000    5.000    0.000    0.000    0.000    0.000 
#    0.000    0.000    0.000    0.000    0.000    0.000 
#
# Total GULP energy -156201.827965 kJ/mol
# GULP energy per Si atom -5578.636713 kJ/mol
# Density = 2.221586 g / cm^3
# Si number density = 22.266536 Si / 1000 Ang^3
#
#
#
# Elastic Constant Matrix: (Units=GPa)
#
#
# Indices 1 2 3 4 5 6 
#
# 1 107.8138 5.4953 43.9697 0.0000 33.7762 0.0000
# 2 5.4953 40.8550 -0.6974 0.0000 2.6123 0.0000
# 3 43.9697 -0.6974 105.8631 0.0000 36.8871 0.0000
# 4 0.0000 0.0000 0.0000 18.5509 0.0000 1.2880
# 5 33.7762 2.6123 36.8871 0.0000 26.7486 0.0000
# 6 0.0000 0.0000 0.0000 1.2880 0.0000 9.7519
#
#
#
# Elastic Compliance Matrix: (Units=1/GPa)
#
#
# Indices 1 2 3 4 5 6 
#
# 1 0.015399 -0.000762 0.000671 0.000000 -0.020295 0.000000
# 2 -0.000762 0.024874 0.001909 0.000000 -0.004099 0.000000
# 3 0.000671 0.001909 0.018365 0.000000 -0.026359 0.000000
# 4 0.000000 0.000000 0.000000 0.054405 0.000000 -0.007185
# 5 -0.020295 -0.004099 -0.026359 0.000000 0.099762 0.000000
# 6 0.000000 0.000000 0.000000 -0.007185 0.000000 0.103493
#
#
# Mechanical properties :
#
#
# Convention : Reuss Voigt Hill
#
# Bulk Modulus (GPa) = 16.05862 39.11857 27.58860
# Shear Modulus (GPa) = 14.99613 24.72789 19.86201
#
# Velocity S-wave (km/s) = 2.59797 3.33609 2.98990
# Velocity P-wave (km/s) = 4.02827 5.69612 4.93319
#
# Compressibility (1/GPa) = 0.06227183
#
# Stress axis : x y z
#
# Youngs Moduli (GPa) = 64.94120 40.20263 54.45251
#
# Poissons Ratio (x) = 0.03064 -0.03653
# Poissons Ratio (y) = 0.04949 -0.10393
# Poissons Ratio (z) = -0.04356 -0.07673
#
# Static dielectric constant tensor:
#      x y z
#    x 1.845710 0.000000 0.016510 
#    y 0.000000 1.829210 0.000000 
#    z 0.016510 0.000000 1.838920 
# 
# From -- ./inp_files/337903.got.cif
#   From: 2010.05.17/outbox.cif.g08.bks.cpg/sg12_169_cif.got.tgz:337903.got - 2010.06.03 13:09:07.
