data_PCOD9195986
_publ_section_title
;
Structure prediction by ZEFSAII (Michael W. Deem and Ramdas Pophale) SiO2 
 PCOD9195986
Probable space group: C 2/M
;
_chemical_formula_sum "Si O2"
_cell_formula_units_Z 48
_cell_length_a 20.193902
_cell_length_b 7.694118
_cell_length_c 12.086122
_cell_angle_alpha 90.000000
_cell_angle_beta 83.958155
_cell_angle_gamma 90.000000
_cell_volume 1867.441284
_symmetry_space_group_name_H-M "C 2/M"
_symmetry_group_IT_number 12
_symmetry_cell_setting 'monoclinic'
loop_
_space_group_symop_operation_xyz
x,y,z
-x,y,-z
-x,-y,-z
x,-y,z
1/2+x,1/2+y,z
1/2-x,1/2+y,-z
1/2-x,1/2-y,-z
1/2+x,1/2-y,z
loop_
_atom_site_type_symbol
_atom_site_label
_atom_site_fract_x
_atom_site_fract_y
_atom_site_fract_z
Si Si1 0.255776 0.706522 0.628328
Si Si2 0.346228 0.201216 0.909156
Si Si3 0.900294 0.212363 0.581211
Si Si4 0.796716 0.204233 0.141315
Si Si5 0.957587 0.792106 0.348322
Si Si6 0.488671 0.791439 0.879367
O O1 0.253667 0.500000 0.639443
O O2 0.250000 0.750000 0.500000
O O3 0.330728 0.772464 0.643689
O O4 0.202928 0.777004 0.726297
O O5 0.276634 0.278424 0.879988
O O6 0.415775 0.279281 0.856736
O O7 0.344165 0.000000 0.876599
O O8 0.345403 0.209026 0.043843
O O9 0.969049 0.270450 0.624597
O O10 0.906402 0.268452 0.450989
O O11 0.899673 0.000000 0.584177
O O12 0.800788 0.000000 0.115672
O O13 0.955179 0.746795 0.220499
O O14 0.957387 0.000000 0.355230
O O15 0.482986 0.000000 0.886762
O O16 0.500000 0.722866 0.000000
#
# Coordination Sequence:
#
# PCOD9195986 Si02
#       6
#     8   8   8   8   8   8
#     4  11  22  36  53  76 108 142 174 210 258 311
#     4   9  19  36  56  77 104 138 174 214 259 308
#     4   8  17  34  56  79 102 130 167 214 259 301
#     4  10  20  35  56  80 103 132 176 222 261 303
#     4   9  17  34  58  79  99 129 172 215 255 300
#     4  10  21  35  50  74 109 141 168 205 256 307
#
# _framework density 25.703617999999999
#
# number of rings (size 3 to 8) (size 9 to 14) (size 15 to 20)
#    0.000    2.500    0.000    3.000    0.000    3.000 
#    0.000    7.500    0.000    0.000    0.000    0.000 
#    0.000    0.000    0.000    0.000    0.000    0.000 
#
# Total GULP energy -134128.751660 kJ/mol
# GULP energy per Si atom -5588.697986 kJ/mol
# Density = 2.564512 g / cm^3
# Si number density = 25.703618 Si / 1000 Ang^3
#
#
#
# Elastic Constant Matrix: (Units=GPa)
#
#
# Indices 1 2 3 4 5 6 
#
# 1 50.2149 -4.6914 10.7732 0.0000 -19.0440 0.0000
# 2 -4.6914 65.3326 -9.6333 0.0000 -0.9572 0.0000
# 3 10.7732 -9.6333 170.8308 0.0000 -19.7802 0.0000
# 4 0.0000 0.0000 0.0000 27.7589 0.0000 6.0724
# 5 -19.0440 -0.9572 -19.7802 0.0000 46.0505 0.0000
# 6 0.0000 0.0000 0.0000 6.0724 0.0000 0.0576
#
#
#
# Elastic Compliance Matrix: (Units=1/GPa)
#
#
# Indices 1 2 3 4 5 6 
#
# 1 0.023853 0.001817 -0.000269 0.000000 0.009787 0.000000
# 2 0.001817 0.015596 0.000936 0.000000 0.001478 0.000000
# 3 -0.000269 0.000936 0.006222 0.000000 0.002581 0.000000
# 4 0.000000 0.000000 0.000000 -0.001633 0.000000 0.172141
# 5 0.009787 0.001478 0.002581 0.000000 0.026902 0.000000
# 6 0.000000 0.000000 0.000000 0.172141 0.000000 -0.786907
#
#
# Mechanical properties :
#
#
# Convention : Reuss Voigt Hill
#
# Bulk Modulus (GPa) = 19.74715 31.03058 25.38886
# Shear Modulus (GPa) = -7.10173 34.10207 13.50017
#
# Velocity S-wave (km/s) = -1.66401 3.64640 2.29426
# Velocity P-wave (km/s) = 2.00185 5.46141 4.11305
#
# Compressibility (1/GPa) = 0.05064023
#
# Stress axis : x y z
#
# Youngs Moduli (GPa) = 41.92264 64.11732 160.71172
#
# Poissons Ratio (x) = -0.11648 0.04317
# Poissons Ratio (y) = -0.07616 -0.15043
# Poissons Ratio (z) = 0.01126 -0.06001
#
# Static dielectric constant tensor:
#      x y z
#    x 2.092280 0.000000 0.071470 
#    y 0.000000 1.926220 0.000000 
#    z 0.071470 0.000000 2.092840 
# 
# From -- ./inp_files/172320.got.cif
#   From: 2010.05.17/outbox.cif.g08.bks.cpg/sg12_87_cif.got.tgz:172320.got - 2010.06.03 13:09:07.
