data_PCOD9195492
_publ_section_title
;
Structure prediction by ZEFSAII (Michael W. Deem and Ramdas Pophale) SiO2 
 PCOD9195492
Probable space group: C 2/M
;
_chemical_formula_sum "Si O2"
_cell_formula_units_Z 56
_cell_length_a 15.466396
_cell_length_b 7.992623
_cell_length_c 25.030636
_cell_angle_alpha 90.000000
_cell_angle_beta 118.481322
_cell_angle_gamma 90.000000
_cell_volume 2719.729324
_symmetry_space_group_name_H-M "C 2/M"
_symmetry_group_IT_number 12
_symmetry_cell_setting 'monoclinic'
loop_
_space_group_symop_operation_xyz
x,y,z
-x,y,-z
-x,-y,-z
x,-y,z
1/2+x,1/2+y,z
1/2-x,1/2+y,-z
1/2-x,1/2-y,-z
1/2+x,1/2-y,z
loop_
_atom_site_type_symbol
_atom_site_label
_atom_site_fract_x
_atom_site_fract_y
_atom_site_fract_z
Si Si1 0.652347 0.195281 0.809218
Si Si2 0.325501 0.805463 0.802494
Si Si3 0.933100 0.195047 0.730442
Si Si4 0.671953 0.799043 0.932407
Si Si5 0.322365 0.702564 0.591665
Si Si6 0.101601 0.701261 0.501074
Si Si7 0.475531 0.203626 0.933316
O O1 0.710668 0.285207 0.779420
O O2 0.535804 0.213733 0.770734
O O3 0.685736 0.266762 0.876768
O O4 0.677902 0.000000 0.813952
O O5 0.365486 0.713492 0.762610
O O6 0.379267 0.742573 0.872651
O O7 0.351738 0.000000 0.803662
O O8 0.875949 0.258579 0.661418
O O9 0.956099 0.000000 0.728960
O O10 0.565882 0.746835 0.922486
O O11 0.671530 0.000000 0.928766
O O12 0.750000 0.750000 0.000000
O O13 0.319351 0.500000 0.590514
O O14 0.207908 0.760953 0.555710
O O15 0.383983 0.756862 0.557480
O O16 0.100149 0.500000 0.505844
O O17 0.000000 0.761914 0.500000
O O18 0.471845 0.000000 0.936069
O O19 0.500000 0.266021 0.000000
#
# Coordination Sequence:
#
# PCOD9195492 Si02
#       7
#     8   8   8   8   8   8   8
#     4  11  23  40  59  83 116 153 198 249 299 359
#     4  11  22  39  61  85 115 153 197 246 303 363
#     4  11  23  40  60  85 122 163 203 248 297 351
#     4  10  20  35  54  80 111 145 186 240 301 361
#     4   9  20  37  57  86 121 156 197 242 286 341
#     4   9  18  35  60  89 121 157 196 236 286 343
#     4   9  17  32  54  78 108 143 183 234 295 357
#
# _framework density 20.590285000000002
#
# number of rings (size 3 to 8) (size 9 to 14) (size 15 to 20)
#    0.000    2.000    1.429    2.143    0.000    4.857 
#    0.000    1.429    0.000    3.000    0.000    0.000 
#    0.000    0.000    0.000    0.000    0.000    0.000 
#
# Total GULP energy -156258.435134 kJ/mol
# GULP energy per Si atom -5580.658398 kJ/mol
# Density = 2.054342 g / cm^3
# Si number density = 20.590285 Si / 1000 Ang^3
#
#
#
# Elastic Constant Matrix: (Units=GPa)
#
#
# Indices 1 2 3 4 5 6 
#
# 1 152.5041 -2.9603 52.9235 0.0000 -5.9583 0.0000
# 2 -2.9603 19.6162 -0.2594 0.0000 1.7646 0.0000
# 3 52.9235 -0.2594 128.7267 0.0000 -8.5644 0.0000
# 4 0.0000 0.0000 0.0000 18.4222 0.0000 -2.4623
# 5 -5.9583 1.7646 -8.5644 0.0000 17.0532 0.0000
# 6 0.0000 0.0000 0.0000 -2.4623 0.0000 23.3984
#
#
#
# Elastic Compliance Matrix: (Units=1/GPa)
#
#
# Indices 1 2 3 4 5 6 
#
# 1 0.007690 0.001027 -0.003091 0.000000 0.001028 0.000000
# 2 0.001027 0.051603 -0.000672 0.000000 -0.005318 0.000000
# 3 -0.003091 -0.000672 0.009281 0.000000 0.003650 0.000000
# 4 0.000000 0.000000 0.000000 0.055057 0.000000 0.005794
# 5 0.001028 -0.005318 0.003650 0.000000 0.061383 0.000000
# 6 0.000000 0.000000 0.000000 0.005794 0.000000 0.043348
#
#
# Mechanical properties :
#
#
# Convention : Reuss Voigt Hill
#
# Bulk Modulus (GPa) = 15.84755 44.47275 30.16015
# Shear Modulus (GPa) = 19.61808 28.51763 24.06785
#
# Velocity S-wave (km/s) = 3.09007 3.72560 3.42262
# Velocity P-wave (km/s) = 4.52158 6.33661 5.50442
#
# Compressibility (1/GPa) = 0.06310123
#
# Stress axis : x y z
#
# Youngs Moduli (GPa) = 130.03865 19.37882 107.74963
#
# Poissons Ratio (x) = -0.01990 0.33307
# Poissons Ratio (y) = -0.13357 0.07242
# Poissons Ratio (z) = 0.40197 0.01303
#
# Static dielectric constant tensor:
#      x y z
#    x 1.726340 0.000000 0.022050 
#    y 0.000000 1.733160 0.000000 
#    z 0.022050 0.000000 1.757120 
# 
# From -- ./inp_files/339017.got.cif
#   From: 2010.05.17/outbox.cif.g08.bks.cpg/sg12_170_cif.got.tgz:339017.got - 2010.06.03 13:09:07.
