data_PCOD9195910
_publ_section_title
;
Structure prediction by ZEFSAII (Michael W. Deem and Ramdas Pophale) SiO2 
 PCOD9195910
Probable space group: C 2/M
;
_chemical_formula_sum "Si O2"
_cell_formula_units_Z 64
_cell_length_a 18.016319
_cell_length_b 20.483829
_cell_length_c 24.170947
_cell_angle_alpha 90.000000
_cell_angle_beta 157.445447
_cell_angle_gamma 90.000000
_cell_volume 3421.428569
_symmetry_space_group_name_H-M "C 2/M"
_symmetry_group_IT_number 12
_symmetry_cell_setting 'monoclinic'
loop_
_space_group_symop_operation_xyz
x,y,z
-x,y,-z
-x,-y,-z
x,-y,z
1/2+x,1/2+y,z
1/2-x,1/2+y,-z
1/2-x,1/2-y,-z
1/2+x,1/2-y,z
loop_
_atom_site_type_symbol
_atom_site_label
_atom_site_fract_x
_atom_site_fract_y
_atom_site_fract_z
Si Si1 0.970091 0.719297 0.317206
Si Si2 0.110411 0.840194 0.130356
Si Si3 0.124973 0.577167 0.917322
Si Si4 0.327796 0.352800 0.530802
Si Si5 0.013163 0.922428 0.759212
Si Si6 0.223331 0.421546 0.657617
Si Si7 0.248665 0.706781 0.943666
Si Si8 0.190169 0.077791 0.598663
O O1 0.789152 0.700861 0.230052
O O2 0.120181 0.659651 0.416148
O O3 0.081874 0.781642 0.417094
O O4 0.896520 0.732253 0.203721
O O5 0.186161 0.895058 0.223714
O O6 0.959108 0.796523 0.060575
O O7 0.000000 0.866374 0.000000
O O8 0.148696 0.500000 0.917130
O O9 0.897138 0.588519 0.770932
O O10 0.270773 0.588337 0.068768
O O11 0.189868 0.631894 0.917827
O O12 0.465151 0.389325 0.668467
O O13 0.301935 0.390134 0.455957
O O14 0.860242 0.899499 0.701010
O O15 0.987175 0.000000 0.735295
O O16 0.225492 0.500000 0.658805
O O17 0.000000 0.399678 0.500000
O O18 0.250000 0.750000 0.000000
O O19 0.000000 0.101651 0.500000
O O20 0.170273 0.000000 0.578136
#
# Coordination Sequence:
#
# PCOD9195910 Si02
#       8
#     8   8   8   8   8   8   8   8
#     4  10  23  38  55  89 120 156 203 247 296 361
#     4  10  22  39  57  84 121 154 201 247 289 356
#     4  10  20  38  61  89 120 154 201 249 297 363
#     4  11  21  40  61  82 123 158 197 250 300 364
#     4  10  20  35  60  89 114 155 198 237 297 357
#     4  10  20  35  55  86 123 154 193 241 289 349
#     4  11  21  38  63  87 118 163 204 250 306 359
#     4  10  22  41  65  91 119 153 202 260 312 368
#
# _framework density 18.705636999999999
#
# number of rings (size 3 to 8) (size 9 to 14) (size 15 to 20)
#    0.000    1.750    2.500    1.875    0.000    1.250 
#    0.000    4.375    0.000    3.000    0.000    0.000 
#    0.000    0.000    0.000    0.000    0.000    0.000 
#
# Total GULP energy -178555.361374 kJ/mol
# GULP energy per Si atom -5579.855043 kJ/mol
# Density = 1.866306 g / cm^3
# Si number density = 18.705637 Si / 1000 Ang^3
#
#
#
# Elastic Constant Matrix: (Units=GPa)
#
#
# Indices 1 2 3 4 5 6 
#
# 1 80.8179 22.9397 52.5208 -0.0026 9.6065 -0.0027
# 2 22.9397 25.3206 28.8684 -0.0020 4.5388 0.0255
# 3 52.5208 28.8684 129.8985 0.0567 10.2979 0.0615
# 4 -0.0026 -0.0020 0.0567 20.3533 0.0149 -7.4797
# 5 9.6065 4.5388 10.2979 0.0149 32.8231 -0.0056
# 6 -0.0027 0.0255 0.0615 -7.4797 -0.0056 7.7926
#
#
#
# Elastic Compliance Matrix: (Units=1/GPa)
#
#
# Indices 1 2 3 4 5 6 
#
# 1 0.019107 -0.011094 -0.005064 0.000073 -0.002469 0.000151
# 2 -0.011094 0.059784 -0.008617 -0.000029 -0.002316 -0.000162
# 3 -0.005064 -0.008617 0.011741 -0.000090 -0.001010 -0.000153
# 4 0.000073 -0.000029 -0.000090 0.075909 -0.000011 0.072862
# 5 -0.002469 -0.002316 -0.001010 -0.000011 0.031826 0.000027
# 6 0.000151 -0.000162 -0.000153 0.072862 0.000027 0.198266
#
#
# Mechanical properties :
#
#
# Convention : Reuss Voigt Hill
#
# Bulk Modulus (GPa) = 24.34172 49.41054 36.87613
# Shear Modulus (GPa) = 10.87245 20.97432 15.92339
#
# Velocity S-wave (km/s) = 2.41351 3.35219 2.92080
# Velocity P-wave (km/s) = 4.56158 6.43856 5.57956
#
# Compressibility (1/GPa) = 0.04108173
#
# Stress axis : x y z
#
# Youngs Moduli (GPa) = 52.33659 16.72677 85.17094
#
# Poissons Ratio (x) = 0.18557 0.43132
# Poissons Ratio (y) = 0.58063 0.73392
# Poissons Ratio (z) = 0.26504 0.14414
#
# Static dielectric constant tensor:
#      x y z
#    x 1.621660 0.000000 0.016880 
#    y 0.000000 1.639970 -0.000020 
#    z 0.016880 -0.000020 1.671400 
# 
# From -- ./inp_files/344926.got.cif
#   From: 2010.05.17/outbox.cif.g08.bks.cpg/sg12_173_cif.got.tgz:344926.got - 2010.06.03 13:09:07.
