data_PCOD9195886
_publ_section_title
;
Structure prediction by ZEFSAII (Michael W. Deem and Ramdas Pophale) SiO2 
 PCOD9195886
Probable space group: C 2/M
;
_chemical_formula_sum "Si O2"
_cell_formula_units_Z 58
_cell_length_a 22.774002
_cell_length_b 9.090373
_cell_length_c 25.025799
_cell_angle_alpha 90.000000
_cell_angle_beta 36.515873
_cell_angle_gamma 90.000000
_cell_volume 3082.898009
_symmetry_space_group_name_H-M "C 2/M"
_symmetry_group_IT_number 12
_symmetry_cell_setting 'monoclinic'
loop_
_space_group_symop_operation_xyz
x,y,z
-x,y,-z
-x,-y,-z
x,-y,z
1/2+x,1/2+y,z
1/2-x,1/2+y,-z
1/2-x,1/2-y,-z
1/2+x,1/2-y,z
loop_
_atom_site_type_symbol
_atom_site_label
_atom_site_fract_x
_atom_site_fract_y
_atom_site_fract_z
Si Si1 0.643879 0.824257 0.582184
Si Si2 0.000000 0.500000 0.500000
Si Si3 0.240545 0.176241 0.210556
Si Si4 0.892048 0.827158 0.170119
Si Si5 0.147326 0.331803 0.075568
Si Si6 0.413312 0.831058 0.003819
Si Si7 0.043299 0.827077 0.754095
Si Si8 0.966511 0.337239 0.635049
O O1 0.750000 0.750000 0.500000
O O2 0.601530 0.769533 0.669339
O O3 0.564102 0.781845 0.594528
O O4 0.654625 0.000000 0.571975
O O5 0.012134 0.373680 0.442994
O O6 0.294603 0.241372 0.223316
O O7 0.130871 0.240166 0.285834
O O8 0.236931 0.000000 0.214437
O O9 0.318064 0.221104 0.106899
O O10 0.914197 0.810175 0.216911
O O11 0.986020 0.762231 0.069281
O O12 0.880902 0.000000 0.166960
O O13 0.152430 0.500000 0.091554
O O14 0.114479 0.335015 0.038005
O O15 0.067467 0.234691 0.164737
O O16 0.250000 0.250000 0.000000
O O17 0.432812 0.000000 0.005416
O O18 0.046567 0.000000 0.738350
O O19 0.944307 0.500000 0.675273
#
# Coordination Sequence:
#
# PCOD9195886 Si02
#       8
#     8   2   8   8   8   8   8   8
#     4  11  24  43  66  98 127 160 203 260 324 382
#     4   8  20  48  70  84 122 160 202 254 310 392
#     4  11  22  36  59  93 126 162 207 259 315 366
#     4  10  21  37  57  87 123 171 219 254 302 366
#     4  10  20  35  55  84 120 167 212 253 311 374
#     4   9  20  36  53  80 125 168 204 258 308 360
#     4  10  22  40  61  87 124 166 211 261 313 377
#     4   9  22  43  67  91 119 159 203 249 312 382
#
# _framework density 18.813466999999999
#
# number of rings (size 3 to 8) (size 9 to 14) (size 15 to 20)
#    0.414    1.655    0.000    2.483    1.931    7.172 
#    2.483    0.345    0.000    0.000    0.000    0.000 
#    0.000    0.000    0.000    0.000    0.000    0.000 
#
# Total GULP energy -161473.121070 kJ/mol
# GULP energy per Si atom -5568.038658 kJ/mol
# Density = 1.877065 g / cm^3
# Si number density = 18.813467 Si / 1000 Ang^3
#
#
#
# Elastic Constant Matrix: (Units=GPa)
#
#
# Indices 1 2 3 4 5 6 
#
# 1 68.7791 46.8373 64.5019 0.0000 -23.8711 0.0000
# 2 46.8373 73.3077 46.2023 0.0002 -23.1494 -0.0003
# 3 64.5019 46.2023 127.2612 0.0000 -21.7645 -0.0001
# 4 0.0000 0.0002 0.0000 37.4824 0.0000 -6.3780
# 5 -23.8711 -23.1494 -21.7645 0.0000 37.7908 0.0000
# 6 0.0000 -0.0003 -0.0001 -6.3780 0.0000 21.6630
#
#
#
# Elastic Compliance Matrix: (Units=1/GPa)
#
#
# Indices 1 2 3 4 5 6 
#
# 1 0.040058 -0.014242 -0.013641 0.000000 0.008723 0.000000
# 2 -0.014242 0.025180 -0.000914 0.000000 0.005902 0.000000
# 3 -0.013641 -0.000914 0.015013 0.000000 -0.000530 0.000000
# 4 0.000000 0.000000 0.000000 0.028086 0.000000 0.008269
# 5 0.008723 0.005902 -0.000530 0.000000 0.035282 0.000000
# 6 0.000000 0.000000 0.000000 0.008269 0.000000 0.048596
#
#
# Mechanical properties :
#
#
# Convention : Reuss Voigt Hill
#
# Bulk Modulus (GPa) = 44.13494 64.93679 54.53587
# Shear Modulus (GPa) = 19.42804 26.84101 23.13453
#
# Velocity S-wave (km/s) = 3.21700 3.78125 3.51048
# Velocity P-wave (km/s) = 6.10810 7.32495 6.74403
#
# Compressibility (1/GPa) = 0.02265778
#
# Stress axis : x y z
#
# Youngs Moduli (GPa) = 24.96409 39.71374 66.60992
#
# Poissons Ratio (x) = 0.56559 0.90861
# Poissons Ratio (y) = 0.35553 0.06088
# Poissons Ratio (z) = 0.34053 0.03630
#
# Static dielectric constant tensor:
#      x y z
#    x 1.792280 0.000000 0.011700 
#    y 0.000000 1.641780 0.000000 
#    z 0.011700 0.000000 1.573900 
# 
# From -- ./inp_files/367532.got.cif
#   From: 2010.05.17/outbox.cif.g08.bks.cpg/sg12_184_cif.got.tgz:367532.got - 2010.06.03 13:09:07.
