data_PCOD9195542
_publ_section_title
;
Structure prediction by ZEFSAII (Michael W. Deem and Ramdas Pophale) SiO2 
 PCOD9195542
Probable space group: C 2/M
;
_chemical_formula_sum "Si O2"
_cell_formula_units_Z 58
_cell_length_a 26.944177
_cell_length_b 12.735927
_cell_length_c 8.643208
_cell_angle_alpha 90.000000
_cell_angle_beta 81.700670
_cell_angle_gamma 90.000000
_cell_volume 2934.933778
_symmetry_space_group_name_H-M "C 2/M"
_symmetry_group_IT_number 12
_symmetry_cell_setting 'monoclinic'
loop_
_space_group_symop_operation_xyz
x,y,z
-x,y,-z
-x,-y,-z
x,-y,z
1/2+x,1/2+y,z
1/2-x,1/2+y,-z
1/2-x,1/2-y,-z
1/2+x,1/2-y,z
loop_
_atom_site_type_symbol
_atom_site_label
_atom_site_fract_x
_atom_site_fract_y
_atom_site_fract_z
Si Si1 0.776424 0.115508 0.542734
Si Si2 0.955241 0.875972 0.236832
Si Si3 0.500000 0.000000 0.000000
Si Si4 0.336477 0.623887 0.809358
Si Si5 0.468076 0.807390 0.819364
Si Si6 0.829961 0.310251 0.385890
Si Si7 0.915926 0.235905 0.556491
Si Si8 0.876789 0.244753 0.066105
O O1 0.790487 0.146032 0.713118
O O2 0.804088 0.195649 0.418071
O O3 0.716821 0.117372 0.551915
O O4 0.797326 0.000000 0.508345
O O5 0.941416 0.837555 0.416476
O O6 0.908662 0.841071 0.149546
O O7 0.001697 0.801384 0.170429
O O8 0.964948 0.000000 0.223534
O O9 0.501297 0.093558 0.133724
O O10 0.338570 0.500000 0.838805
O O11 0.384548 0.661679 0.687626
O O12 0.338660 0.688417 0.966495
O O13 0.452337 0.803805 0.647240
O O14 0.417285 0.805684 0.943741
O O15 0.876210 0.308790 0.483101
O O16 0.850483 0.318565 0.203800
#
# Coordination Sequence:
#
# PCOD9195542 Si02
#       8
#     8   8   2   8   8   8   8   8
#     4   9  18  35  55  79 109 146 183 224 285 335
#     4  11  21  36  60  92 124 149 185 243 303 355
#     4  12  24  48  60  72 116 168 206 254 276 328
#     4   9  17  30  53  82 116 150 178 220 281 354
#     4  11  23  41  60  79 115 158 200 243 292 338
#     4   9  19  36  57  79 114 142 179 237 277 344
#     4   9  20  36  56  85 115 147 192 230 293 344
#     4  10  20  35  54  85 114 150 192 226 293 346
#
# _framework density 19.761945000000001
#
# number of rings (size 3 to 8) (size 9 to 14) (size 15 to 20)
#    0.000    2.207    1.379    1.241    0.000    8.828 
#    2.483    1.379    0.000    0.000    0.000    0.000 
#    0.000    0.000    0.000    0.000    0.000    0.000 
#
# Total GULP energy -161457.178012 kJ/mol
# GULP energy per Si atom -5567.488897 kJ/mol
# Density = 1.971697 g / cm^3
# Si number density = 19.761945 Si / 1000 Ang^3
#
#
#
# Elastic Constant Matrix: (Units=GPa)
#
#
# Indices 1 2 3 4 5 6 
#
# 1 45.7244 4.3807 5.5923 0.0000 2.4301 0.0000
# 2 4.3807 54.3272 4.8268 0.0000 9.1475 0.0000
# 3 5.5923 4.8268 73.0508 0.0000 1.6991 0.0000
# 4 0.0000 0.0000 0.0000 9.9686 0.0000 4.6772
# 5 2.4301 9.1475 1.6991 0.0000 21.4038 0.0000
# 6 0.0000 0.0000 0.0000 4.6772 0.0000 2.5544
#
#
#
# Elastic Compliance Matrix: (Units=1/GPa)
#
#
# Indices 1 2 3 4 5 6 
#
# 1 0.022289 -0.001349 -0.001575 0.000000 -0.001829 0.000000
# 2 -0.001349 0.020007 -0.001025 0.000000 -0.008316 0.000000
# 3 -0.001575 -0.001025 0.013889 0.000000 -0.000486 0.000000
# 4 0.000000 0.000000 0.000000 0.712142 0.000000 -1.303987
# 5 -0.001829 -0.008316 -0.000486 0.000000 0.050521 0.000000
# 6 0.000000 0.000000 0.000000 -1.303987 0.000000 2.779187
#
#
# Mechanical properties :
#
#
# Convention : Reuss Voigt Hill
#
# Bulk Modulus (GPa) = 20.70976 22.52245 21.61610
# Shear Modulus (GPa) = 1.38044 17.33887 9.35966
#
# Velocity S-wave (km/s) = 0.83669 2.96529 2.17864
# Velocity P-wave (km/s) = 3.38168 4.81098 4.15820
#
# Compressibility (1/GPa) = 0.04828640
#
# Stress axis : x y z
#
# Youngs Moduli (GPa) = 44.86476 49.98225 72.00106
#
# Poissons Ratio (x) = 0.06745 0.11337
# Poissons Ratio (y) = 0.06054 0.07382
# Poissons Ratio (z) = 0.07064 0.05124
#
# Static dielectric constant tensor:
#      x y z
#    x 1.749880 0.000000 0.017460 
#    y 0.000000 1.648400 0.000000 
#    z 0.017460 0.000000 1.711570 
# 
# From -- ./inp_files/109940.got.cif
#   From: 2010.05.17/outbox.cif.g08.bks.cpg/sg12_55_cif.got.tgz:109940.got - 2010.06.03 13:09:07.
