data_PCOD9195871
_publ_section_title
;
Structure prediction by ZEFSAII (Michael W. Deem and Ramdas Pophale) SiO2 
 PCOD9195871
Probable space group: C 2/M
;
_chemical_formula_sum "Si O2"
_cell_formula_units_Z 56
_cell_length_a 20.940742
_cell_length_b 29.983273
_cell_length_c 11.156209
_cell_angle_alpha 90.000000
_cell_angle_beta 157.862707
_cell_angle_gamma 90.000000
_cell_volume 2639.550924
_symmetry_space_group_name_H-M "C 2/M"
_symmetry_group_IT_number 12
_symmetry_cell_setting 'monoclinic'
loop_
_space_group_symop_operation_xyz
x,y,z
-x,y,-z
-x,-y,-z
x,-y,z
1/2+x,1/2+y,z
1/2-x,1/2+y,-z
1/2-x,1/2-y,-z
1/2+x,1/2-y,z
loop_
_atom_site_type_symbol
_atom_site_label
_atom_site_fract_x
_atom_site_fract_y
_atom_site_fract_z
Si Si1 0.725694 0.770510 0.090012
Si Si2 0.341211 0.141931 0.134180
Si Si3 0.336356 0.049593 0.633471
Si Si4 0.957179 0.810751 0.231510
Si Si5 0.205280 0.050311 0.873696
Si Si6 0.782060 0.049587 0.823220
Si Si7 0.562299 0.379755 0.233358
O O1 0.906643 0.784304 0.453641
O O2 0.750000 0.750000 0.000000
O O3 0.623161 0.816465 0.892497
O O4 0.643327 0.728356 0.013113
O O5 0.500000 0.136259 0.500000
O O6 0.176406 0.158811 0.925351
O O7 0.289096 0.096385 0.975293
O O8 0.356978 0.053977 0.524462
O O9 0.220239 0.089331 0.477907
O O10 0.257625 0.000000 0.513401
O O11 0.500000 0.050182 0.000000
O O12 0.070204 0.842186 0.345466
O O13 0.000000 0.053477 0.500000
O O14 0.252207 0.000000 0.911224
O O15 0.259768 0.052343 0.109311
O O16 0.856110 0.000000 0.938484
O O17 0.919233 0.086279 0.031124
O O18 0.500000 0.359610 0.000000
#
# Coordination Sequence:
#
# PCOD9195871 Si02
#       7
#     8   8   8   8   8   8   8
#     4  10  20  37  62  82 111 144 197 250 299 355
#     4  11  21  36  59  86 116 152 197 248 298 356
#     4   9  18  35  59  89 125 161 207 256 292 345
#     4  11  21  39  61  90 112 148 197 254 304 360
#     4  10  20  35  55  83 123 162 198 242 292 360
#     4   9  17  33  58  84 117 163 203 238 288 351
#     4  10  20  36  60  87 118 157 202 243 299 361
#
# _framework density 21.215731000000002
#
# number of rings (size 3 to 8) (size 9 to 14) (size 15 to 20)
#    0.000    2.000    1.429    4.714    0.000    2.000 
#    2.571    2.143    0.000    0.000    0.000    0.000 
#    0.000    0.000    0.000    0.000    0.000    0.000 
#
# Total GULP energy -156044.405522 kJ/mol
# GULP energy per Si atom -5573.014483 kJ/mol
# Density = 2.116744 g / cm^3
# Si number density = 21.215731 Si / 1000 Ang^3
#
#
#
# Elastic Constant Matrix: (Units=GPa)
#
#
# Indices 1 2 3 4 5 6 
#
# 1 37.6064 22.2325 11.3113 0.0000 -8.8739 0.0000
# 2 22.2325 147.6148 37.4532 0.0000 3.0767 0.0000
# 3 11.3113 37.4532 98.1679 0.0000 -7.7333 0.0000
# 4 0.0000 0.0000 0.0000 36.6870 0.0000 -3.7818
# 5 -8.8739 3.0767 -7.7333 0.0000 15.7651 0.0000
# 6 0.0000 0.0000 0.0000 -3.7818 0.0000 27.2858
#
#
#
# Elastic Compliance Matrix: (Units=1/GPa)
#
#
# Indices 1 2 3 4 5 6 
#
# 1 0.034842 -0.005613 -0.000252 0.000000 0.020584 0.000000
# 2 -0.005613 0.008542 -0.003113 0.000000 -0.006353 0.000000
# 3 -0.000252 -0.003113 0.011900 0.000000 0.006303 0.000000
# 4 0.000000 0.000000 0.000000 0.027653 0.000000 0.003833
# 5 0.020584 -0.006353 0.006303 0.000000 0.079349 0.000000
# 6 0.000000 0.000000 0.000000 0.003833 0.000000 0.037180
#
#
# Mechanical properties :
#
#
# Convention : Reuss Voigt Hill
#
# Bulk Modulus (GPa) = 26.78849 47.26479 37.02664
# Shear Modulus (GPa) = 21.75200 30.10704 25.92952
#
# Velocity S-wave (km/s) = 3.20547 3.77117 3.49977
# Velocity P-wave (km/s) = 5.13363 6.42564 5.81562
#
# Compressibility (1/GPa) = 0.03732947
#
# Stress axis : x y z
#
# Youngs Moduli (GPa) = 28.70075 117.06957 84.03556
#
# Poissons Ratio (x) = 0.65709 0.02115
# Poissons Ratio (y) = 0.16109 0.26158
# Poissons Ratio (z) = 0.00722 0.36440
#
# Static dielectric constant tensor:
#      x y z
#    x 1.826930 0.000000 0.002880 
#    y 0.000000 1.856210 0.000000 
#    z 0.002880 0.000000 1.803500 
# 
# From -- ./inp_files/178719.got.cif
#   From: 2010.05.17/outbox.cif.g08.bks.cpg/sg12_90_cif.got.tgz:178719.got - 2010.06.03 13:09:07.
