data_PCOD9195380
_publ_section_title
;
Structure prediction by ZEFSAII (Michael W. Deem and Ramdas Pophale) SiO2 
 PCOD9195380
Probable space group: C 2/M
;
_chemical_formula_sum "Si O2"
_cell_formula_units_Z 56
_cell_length_a 20.093873
_cell_length_b 7.588713
_cell_length_c 20.163082
_cell_angle_alpha 90.000000
_cell_angle_beta 124.008478
_cell_angle_gamma 90.000000
_cell_volume 2548.704930
_symmetry_space_group_name_H-M "C 2/M"
_symmetry_group_IT_number 12
_symmetry_cell_setting 'monoclinic'
loop_
_space_group_symop_operation_xyz
x,y,z
-x,y,-z
-x,-y,-z
x,-y,z
1/2+x,1/2+y,z
1/2-x,1/2+y,-z
1/2-x,1/2-y,-z
1/2+x,1/2-y,z
loop_
_atom_site_type_symbol
_atom_site_label
_atom_site_fract_x
_atom_site_fract_y
_atom_site_fract_z
Si Si1 0.795120 0.710337 0.814282
Si Si2 0.812743 0.708886 0.475746
Si Si3 0.949375 0.793316 0.644535
Si Si4 0.338727 0.789592 0.078149
Si Si5 0.580890 0.784485 0.008469
Si Si6 0.326875 0.712179 0.687561
Si Si7 0.874142 0.796666 0.247977
O O1 0.788726 0.500000 0.819685
O O2 0.845170 0.776359 0.904737
O O3 0.840591 0.742406 0.771100
O O4 0.704988 0.784468 0.762779
O O5 0.822912 0.500000 0.475614
O O6 0.750000 0.750000 0.500000
O O7 0.897301 0.780778 0.548341
O O8 0.762153 0.775736 0.384550
O O9 0.893958 0.719723 0.673483
O O10 0.038391 0.715853 0.690594
O O11 0.959190 0.000000 0.665570
O O12 0.355604 0.707359 0.158975
O O13 0.345256 0.000000 0.089621
O O14 0.250000 0.750000 0.000000
O O15 0.402286 0.729995 0.057479
O O16 0.580337 0.000000 0.007750
O O17 0.500000 0.727356 0.000000
O O18 0.325570 0.500000 0.680352
O O19 0.878642 0.000000 0.273251
#
# Coordination Sequence:
#
# PCOD9195380 Si02
#       7
#     8   8   8   8   8   8   8
#     4  10  20  35  54  75 104 143 178 215 263 315
#     4   9  17  32  54  79 109 140 176 218 264 316
#     4   9  19  35  56  79 108 140 175 223 267 310
#     4  11  21  36  58  79 104 141 180 219 265 316
#     4   9  19  35  53  76 107 137 173 221 262 304
#     4   9  19  34  52  78 108 137 168 216 270 311
#     4  10  21  38  55  77 109 141 178 222 265 313
#
# _framework density 21.971941999999999
#
# number of rings (size 3 to 8) (size 9 to 14) (size 15 to 20)
#    0.000    2.429    1.429    1.714    2.000    4.000 
#    0.000    0.714    0.000    6.429    0.000    0.000 
#    0.000    0.000    0.000    0.000    0.000    0.000 
#
# Total GULP energy -156211.344740 kJ/mol
# GULP energy per Si atom -5578.976598 kJ/mol
# Density = 2.192193 g / cm^3
# Si number density = 21.971942 Si / 1000 Ang^3
#
#
#
# Elastic Constant Matrix: (Units=GPa)
#
#
# Indices 1 2 3 4 5 6 
#
# 1 83.7281 9.6318 -13.5852 0.0000 20.6529 0.0000
# 2 9.6318 48.4439 -6.6962 0.0000 4.0591 0.0000
# 3 -13.5852 -6.6962 17.7493 0.0000 10.5118 0.0000
# 4 0.0000 0.0000 0.0000 20.2624 0.0000 -3.8278
# 5 20.6529 4.0591 10.5118 0.0000 42.0909 0.0000
# 6 0.0000 0.0000 0.0000 -3.8278 0.0000 9.0124
#
#
#
# Elastic Compliance Matrix: (Units=1/GPa)
#
#
# Indices 1 2 3 4 5 6 
#
# 1 0.019887 0.000863 0.025086 0.000000 -0.016106 0.000000
# 2 0.000863 0.022702 0.012642 0.000000 -0.005770 0.000000
# 3 0.025086 0.012642 0.103653 0.000000 -0.039415 0.000000
# 4 0.000000 0.000000 0.000000 0.053658 0.000000 0.022790
# 5 -0.016106 -0.005770 -0.039415 0.000000 0.042061 0.000000
# 6 0.000000 0.000000 0.000000 0.022790 0.000000 0.120637
#
#
# Mechanical properties :
#
#
# Convention : Reuss Voigt Hill
#
# Bulk Modulus (GPa) = 4.47577 14.29135 9.38356
# Shear Modulus (GPa) = 13.89313 24.97788 19.43551
#
# Velocity S-wave (km/s) = 2.51731 3.37532 2.97738
# Velocity P-wave (km/s) = 3.23892 4.65927 4.01244
#
# Compressibility (1/GPa) = 0.22342533
#
# Stress axis : x y z
#
# Youngs Moduli (GPa) = 50.28325 44.04934 9.64755
#
# Poissons Ratio (x) = -0.03802 -0.24202
# Poissons Ratio (y) = -0.04340 -0.12197
# Poissons Ratio (z) = -1.26141 -0.55689
#
# Static dielectric constant tensor:
#      x y z
#    x 1.820190 0.000000 0.038730 
#    y 0.000000 1.858840 0.000000 
#    z 0.038730 0.000000 1.787540 
# 
# From -- ./inp_files/275292.got.cif
#   From: 2010.05.17/outbox.cif.g08.bks.cpg/sg12_138_cif.got.tgz:275292.got - 2010.06.03 13:09:07.
