data_PCOD9195554
_publ_section_title
;
Structure prediction by ZEFSAII (Michael W. Deem and Ramdas Pophale) SiO2 
 PCOD9195554
Probable space group: C 2/M
;
_chemical_formula_sum "Si O2"
_cell_formula_units_Z 64
_cell_length_a 19.421672
_cell_length_b 30.966153
_cell_length_c 5.300001
_cell_angle_alpha 90.000000
_cell_angle_beta 78.898296
_cell_angle_gamma 90.000000
_cell_volume 3127.849440
_symmetry_space_group_name_H-M "C 2/M"
_symmetry_group_IT_number 12
_symmetry_cell_setting 'monoclinic'
loop_
_space_group_symop_operation_xyz
x,y,z
-x,y,-z
-x,-y,-z
x,-y,z
1/2+x,1/2+y,z
1/2-x,1/2+y,-z
1/2-x,1/2-y,-z
1/2+x,1/2-y,z
loop_
_atom_site_type_symbol
_atom_site_label
_atom_site_fract_x
_atom_site_fract_y
_atom_site_fract_z
Si Si1 0.710997 0.341036 0.093534
Si Si2 0.951594 0.047252 0.286745
Si Si3 0.375837 0.866667 0.949473
Si Si4 0.105098 0.321213 0.558945
Si Si5 0.046895 0.549150 0.219831
Si Si6 0.582887 0.634780 0.868537
Si Si7 0.544874 0.727207 0.717288
Si Si8 0.263262 0.298750 0.418512
O O1 0.790459 0.360710 0.025222
O O2 0.643072 0.367290 0.041508
O O3 0.713315 0.302426 0.886446
O O4 0.698525 0.322610 0.378317
O O5 0.907053 0.091288 0.301758
O O6 0.000000 0.050381 0.500000
O O7 0.915245 0.000000 0.322878
O O8 0.000000 0.046044 0.000000
O O9 0.414610 0.837811 0.705030
O O10 0.393578 0.915354 0.861876
O O11 0.409451 0.851837 0.192257
O O12 0.084542 0.271810 0.629334
O O13 0.188566 0.321910 0.478145
O O14 0.073228 0.500000 0.231717
O O15 0.000000 0.559026 0.500000
O O16 0.000000 0.550441 0.000000
O O17 0.585188 0.682871 0.750298
O O18 0.500000 0.633069 0.000000
O O19 0.500000 0.717806 0.500000
O O20 0.500000 0.735901 0.000000
O O21 0.250000 0.250000 0.500000
#
# Coordination Sequence:
#
# PCOD9195554 Si02
#       8
#     8   8   8   8   8   8   8   8
#     4  10  22  36  54  80 110 146 191 231 278 338
#     4   9  18  34  56  79 102 133 177 226 276 330
#     4  10  21  38  57  82 114 149 184 231 278 328
#     4  10  21  35  53  77 108 147 188 225 276 336
#     4  10  21  37  61  90 116 147 186 227 278 340
#     4  10  22  38  57  81 113 150 187 237 288 331
#     4  11  23  35  50  78 113 146 183 227 279 334
#     4  10  20  35  55  75 102 143 190 237 276 324
#
# _framework density 20.461341000000001
#
# number of rings (size 3 to 8) (size 9 to 14) (size 15 to 20)
#    0.000    2.000    0.000    3.000    0.000   11.000 
#    0.000    0.625    0.000    0.000    0.000   10.500 
#    0.000    0.000    0.000    0.000    0.000    0.000 
#
# Total GULP energy -178222.053456 kJ/mol
# GULP energy per Si atom -5569.439170 kJ/mol
# Density = 2.041477 g / cm^3
# Si number density = 20.461341 Si / 1000 Ang^3
#
#
#
# Elastic Constant Matrix: (Units=GPa)
#
#
# Indices 1 2 3 4 5 6 
#
# 1 61.6641 30.9109 28.7766 0.0000 2.1220 0.0000
# 2 30.9109 106.9113 7.4367 0.0000 -7.2203 0.0000
# 3 28.7766 7.4367 109.8099 0.0000 -3.9123 0.0000
# 4 0.0000 0.0000 0.0000 22.4166 0.0000 10.5966
# 5 2.1220 -7.2203 -3.9123 0.0000 28.9586 0.0000
# 6 0.0000 0.0000 0.0000 10.5966 0.0000 1.7593
#
#
#
# Elastic Compliance Matrix: (Units=1/GPa)
#
#
# Indices 1 2 3 4 5 6 
#
# 1 0.022053 -0.006259 -0.005495 0.000000 -0.003919 0.000000
# 2 -0.006259 0.011325 0.000995 0.000000 0.003417 0.000000
# 3 -0.005495 0.000995 0.010553 0.000000 0.002076 0.000000
# 4 0.000000 0.000000 0.000000 -0.024149 0.000000 0.145455
# 5 -0.003919 0.003417 0.002076 0.000000 0.035952 0.000000
# 6 0.000000 0.000000 0.000000 0.145455 0.000000 -0.307701
#
#
# Mechanical properties :
#
#
# Convention : Reuss Voigt Hill
#
# Bulk Modulus (GPa) = 44.61549 45.84820 45.23185
# Shear Modulus (GPa) = -22.42374 24.71096 1.14361
#
# Velocity S-wave (km/s) = -3.31404 3.47895 0.74842
# Velocity P-wave (km/s) = 2.68483 6.21236 4.78548
#
# Compressibility (1/GPa) = 0.02241374
#
# Stress axis : x y z
#
# Youngs Moduli (GPa) = 45.34436 88.30307 94.75727
#
# Poissons Ratio (x) = 0.55266 0.52070
# Poissons Ratio (y) = 0.28380 -0.09428
# Poissons Ratio (z) = 0.24917 -0.08786
#
# Static dielectric constant tensor:
#      x y z
#    x 1.862260 0.000000 0.021640 
#    y 0.000000 1.740330 0.000000 
#    z 0.021640 0.000000 1.761770 
# 
# From -- ./inp_files/18320.got.cif
#   From: 2010.05.17/outbox.cif.g08.bks.cpg/sg12_10_cif.got.tgz:18320.got - 2010.06.03 13:09:07.
