data_PCOD9195049
_publ_section_title
;
Structure prediction by ZEFSAII (Michael W. Deem and Ramdas Pophale) SiO2 
 PCOD9195049
Probable space group: C 2/M
;
_chemical_formula_sum "Si O2"
_cell_formula_units_Z 56
_cell_length_a 27.937297
_cell_length_b 13.011628
_cell_length_c 9.471745
_cell_angle_alpha 90.000000
_cell_angle_beta 120.939770
_cell_angle_gamma 90.000000
_cell_volume 2953.150658
_symmetry_space_group_name_H-M "C 2/M"
_symmetry_group_IT_number 12
_symmetry_cell_setting 'monoclinic'
loop_
_space_group_symop_operation_xyz
x,y,z
-x,y,-z
-x,-y,-z
x,-y,z
1/2+x,1/2+y,z
1/2-x,1/2+y,-z
1/2-x,1/2-y,-z
1/2+x,1/2-y,z
loop_
_atom_site_type_symbol
_atom_site_label
_atom_site_fract_x
_atom_site_fract_y
_atom_site_fract_z
Si Si1 0.430778 0.617149 0.299093
Si Si2 0.242839 0.247639 0.228596
Si Si3 0.635623 0.120084 0.155408
Si Si4 0.298366 0.613763 0.074107
Si Si5 0.658556 0.116549 0.515351
Si Si6 0.971925 0.748782 0.106572
Si Si7 0.047022 0.311833 0.470976
O O1 0.448550 0.500000 0.350854
O O2 0.364340 0.615615 0.188879
O O3 0.453130 0.659736 0.183079
O O4 0.444458 0.699034 0.443920
O O5 0.192625 0.317391 0.210222
O O6 0.273446 0.314462 0.156139
O O7 0.291156 0.198631 0.398605
O O8 0.216282 0.153476 0.102773
O O9 0.632154 0.121001 0.319673
O O10 0.361350 0.000000 0.885364
O O11 0.582169 0.177490 0.006610
O O12 0.275928 0.500000 0.061225
O O13 0.608295 0.140203 0.548358
O O14 0.679175 0.000000 0.569645
O O15 0.018250 0.693458 0.274311
O O16 0.000000 0.778272 0.000000
O O17 0.000000 0.363144 0.500000
#
# Coordination Sequence:
#
# PCOD9195049 Si02
#       7
#     8   8   8   8   8   8   8
#     4  10  21  41  63  88 125 164 202 247 307 365
#     4  11  21  39  61  88 125 156 199 257 303 365
#     4  11  24  41  63  90 120 163 206 251 312 372
#     4  10  20  34  60  89 116 157 198 243 305 365
#     4  11  23  40  62  90 124 162 205 252 310 369
#     4  11  22  40  65  90 124 160 207 259 302 363
#     4  10  22  39  63  92 125 163 205 255 308 362
#
# _framework density 18.962799
#
# number of rings (size 3 to 8) (size 9 to 14) (size 15 to 20)
#    0.000    1.429    4.286    1.286    0.000    4.000 
#    0.000    6.429    0.000    1.714    0.000    0.000 
#    0.000    0.000    0.000    0.000    0.000    0.000 
#
# Total GULP energy -156067.319673 kJ/mol
# GULP energy per Si atom -5573.832845 kJ/mol
# Density = 1.891964 g / cm^3
# Si number density = 18.962799 Si / 1000 Ang^3
#
#
#
# Elastic Constant Matrix: (Units=GPa)
#
#
# Indices 1 2 3 4 5 6 
#
# 1 112.3250 36.1487 30.8441 0.0000 5.4350 0.0000
# 2 36.1487 87.2394 33.0393 0.0000 11.4079 0.0000
# 3 30.8441 33.0393 92.7609 0.0000 4.0629 0.0000
# 4 0.0000 0.0000 0.0000 19.6495 0.0000 -7.0032
# 5 5.4350 11.4079 4.0629 0.0000 32.3932 0.0000
# 6 0.0000 0.0000 0.0000 -7.0032 0.0000 8.3429
#
#
#
# Elastic Compliance Matrix: (Units=1/GPa)
#
#
# Indices 1 2 3 4 5 6 
#
# 1 0.010677 -0.003525 -0.002283 0.000000 -0.000264 0.000000
# 2 -0.003525 0.014977 -0.003979 0.000000 -0.004184 0.000000
# 3 -0.002283 -0.003979 0.012950 0.000000 0.000160 0.000000
# 4 0.000000 0.000000 0.000000 0.072617 0.000000 0.060956
# 5 -0.000264 -0.004184 0.000160 0.000000 0.032368 0.000000
# 6 0.000000 0.000000 0.000000 0.060956 0.000000 0.171030
#
#
# Mechanical properties :
#
#
# Convention : Reuss Voigt Hill
#
# Bulk Modulus (GPa) = 52.55002 54.70996 53.62999
# Shear Modulus (GPa) = 14.68270 24.89668 19.78969
#
# Velocity S-wave (km/s) = 2.78563 3.62736 3.23399
# Velocity P-wave (km/s) = 6.17403 6.81597 6.50293
#
# Compressibility (1/GPa) = 0.01902949
#
# Stress axis : x y z
#
# Youngs Moduli (GPa) = 93.66074 66.76694 77.22074
#
# Poissons Ratio (x) = 0.23535 0.17630
# Poissons Ratio (y) = 0.33015 0.30728
# Poissons Ratio (z) = 0.21384 0.26569
#
# Static dielectric constant tensor:
#      x y z
#    x 1.667320 0.000000 0.017970 
#    y 0.000000 1.670750 0.000000 
#    z 0.017970 0.000000 1.658220 
# 
# From -- ./inp_files/103248.got.cif
#   From: 2010.05.17/outbox.cif.g08.bks.cpg/sg12_52_cif.got.tgz:103248.got - 2010.06.03 13:09:07.
