data_PCOD9195423
_publ_section_title
;
Structure prediction by ZEFSAII (Michael W. Deem and Ramdas Pophale) SiO2 
 PCOD9195423
Probable space group: C 2/M
;
_chemical_formula_sum "Si O2"
_cell_formula_units_Z 64
_cell_length_a 32.370379
_cell_length_b 8.788817
_cell_length_c 26.110690
_cell_angle_alpha 90.000000
_cell_angle_beta 29.728299
_cell_angle_gamma 90.000000
_cell_volume 3683.662503
_symmetry_space_group_name_H-M "C 2/M"
_symmetry_group_IT_number 12
_symmetry_cell_setting 'monoclinic'
loop_
_space_group_symop_operation_xyz
x,y,z
-x,y,-z
-x,-y,-z
x,-y,z
1/2+x,1/2+y,z
1/2-x,1/2+y,-z
1/2-x,1/2-y,-z
1/2+x,1/2-y,z
loop_
_atom_site_type_symbol
_atom_site_label
_atom_site_fract_x
_atom_site_fract_y
_atom_site_fract_z
Si Si1 0.007483 0.183386 0.732822
Si Si2 0.196833 0.682807 0.708087
Si Si3 0.364612 0.182402 0.022503
Si Si4 0.615340 0.683225 0.519712
Si Si5 0.235916 0.817523 0.774966
Si Si6 0.424518 0.183084 0.545291
Si Si7 0.829251 0.318202 0.943302
Si Si8 0.043477 0.817518 0.810706
O O1 0.915776 0.254356 0.827757
O O2 0.067605 0.233276 0.622169
O O3 0.043226 0.222619 0.750480
O O4 0.999768 0.000000 0.739168
O O5 0.192068 0.500000 0.715127
O O6 0.287164 0.726937 0.587468
O O7 0.195718 0.749216 0.766693
O O8 0.122075 0.748618 0.755171
O O9 0.307478 0.249781 0.128440
O O10 0.368736 0.000000 0.022167
O O11 0.330258 0.221415 0.002770
O O12 0.457348 0.251209 0.925554
O O13 0.612204 0.500000 0.521120
O O14 0.573355 0.747921 0.513692
O O15 0.334210 0.778145 0.666193
O O16 0.228099 0.000000 0.782954
O O17 0.500000 0.234756 0.500000
O O18 0.428577 0.000000 0.536712
O O19 0.828454 0.500000 0.939828
O O20 0.750000 0.250000 0.000000
O O21 0.043436 0.000000 0.815346
#
# Coordination Sequence:
#
# PCOD9195423 Si02
#       8
#     8   8   8   8   8   8   8   8
#     4   9  19  36  55  77 107 139 173 215 259 306
#     4  10  20  35  54  77 107 139 173 214 258 306
#     4  10  21  37  55  77 105 136 173 216 261 308
#     4   9  19  35  54  77 105 138 174 212 256 305
#     4  10  20  35  55  78 105 137 174 215 260 310
#     4   9  19  35  53  76 106 137 171 213 258 305
#     4  10  21  36  55  79 107 139 175 215 259 309
#     4  10  20  35  55  78 105 137 173 213 259 309
#
# _framework density 17.374013000000001
#
# number of rings (size 3 to 8) (size 9 to 14) (size 15 to 20)
#    0.000    2.375    0.000    1.875    0.000    5.750 
#    0.000    5.000    0.000    0.000    0.000    0.000 
#    0.000    0.000    0.000    0.000    0.000    0.000 
#
# Total GULP energy -178595.477688 kJ/mol
# GULP energy per Si atom -5581.108678 kJ/mol
# Density = 1.733447 g / cm^3
# Si number density = 17.374013 Si / 1000 Ang^3
#
#
#
# Elastic Constant Matrix: (Units=GPa)
#
#
# Indices 1 2 3 4 5 6 
#
# 1 143.8093 47.3343 99.3177 0.0009 -19.8312 -0.0005
# 2 47.3343 41.8057 45.6165 -0.0027 -0.7297 -0.0011
# 3 99.3177 45.6165 137.9794 -0.0106 17.8069 -0.0004
# 4 0.0009 -0.0027 -0.0106 26.8496 0.0020 -0.4835
# 5 -19.8312 -0.7297 17.8069 0.0020 30.4254 0.0000
# 6 -0.0005 -0.0011 -0.0004 -0.4835 0.0000 31.1804
#
#
#
# Elastic Compliance Matrix: (Units=1/GPa)
#
#
# Indices 1 2 3 4 5 6 
#
# 1 0.030698 -0.008317 -0.023692 -0.000014 0.033675 0.000000
# 2 -0.008317 0.041986 -0.007923 0.000001 0.000223 0.000001
# 3 -0.023692 -0.007923 0.031302 0.000015 -0.033953 0.000000
# 4 -0.000014 0.000001 0.000015 0.037255 -0.000020 0.000578
# 5 0.033675 0.000223 -0.033953 -0.000020 0.074694 0.000000
# 6 0.000000 0.000001 0.000000 0.000578 0.000000 0.032080
#
#
# Mechanical properties :
#
#
# Convention : Reuss Voigt Hill
#
# Bulk Modulus (GPa) = 41.45717 78.68128 60.06923
# Shear Modulus (GPa) = 14.88449 26.44615 20.66532
#
# Velocity S-wave (km/s) = 2.93014 3.90573 3.45257
# Velocity P-wave (km/s) = 5.94651 8.10708 7.10935
#
# Compressibility (1/GPa) = 0.02412128
#
# Stress axis : x y z
#
# Youngs Moduli (GPa) = 32.57593 23.81728 31.94653
#
# Poissons Ratio (x) = 0.19810 0.75689
# Poissons Ratio (y) = 0.27094 0.25310
# Poissons Ratio (z) = 0.77180 0.18870
#
# Static dielectric constant tensor:
#      x y z
#    x 1.563410 0.000000 0.003770 
#    y 0.000000 1.581950 0.000010 
#    z 0.003770 0.000010 1.571530 
# 
# From -- ./inp_files/244152.got.cif
#   From: 2010.05.17/outbox.cif.g08.bks.cpg/sg12_123_cif.got.tgz:244152.got - 2010.06.03 13:09:07.
