data_PCOD9195331
_publ_section_title
;
Structure prediction by ZEFSAII (Michael W. Deem and Ramdas Pophale) SiO2 
 PCOD9195331
Probable space group: C 2/M
;
_chemical_formula_sum "Si O2"
_cell_formula_units_Z 48
_cell_length_a 21.049816
_cell_length_b 7.553108
_cell_length_c 23.337711
_cell_angle_alpha 90.000000
_cell_angle_beta 43.134385
_cell_angle_gamma 90.000000
_cell_volume 2536.911746
_symmetry_space_group_name_H-M "C 2/M"
_symmetry_group_IT_number 12
_symmetry_cell_setting 'monoclinic'
loop_
_space_group_symop_operation_xyz
x,y,z
-x,y,-z
-x,-y,-z
x,-y,z
1/2+x,1/2+y,z
1/2-x,1/2+y,-z
1/2-x,1/2-y,-z
1/2+x,1/2-y,z
loop_
_atom_site_type_symbol
_atom_site_label
_atom_site_fract_x
_atom_site_fract_y
_atom_site_fract_z
Si Si1 0.813780 0.201486 0.732892
Si Si2 0.753618 0.795728 0.345950
Si Si3 0.526650 0.703859 0.293320
Si Si4 0.347626 0.000000 0.110917
Si Si5 0.523952 0.000000 0.079828
Si Si6 0.967546 0.783680 0.206126
Si Si7 0.839572 0.711008 0.479948
O O1 0.789908 0.287260 0.688231
O O2 0.892514 0.285676 0.720745
O O3 0.719282 0.166583 0.830848
O O4 0.845018 0.000000 0.696921
O O5 0.858831 0.725614 0.275844
O O6 0.687279 0.720811 0.439059
O O7 0.765921 0.000000 0.354845
O O8 0.555768 0.500000 0.265457
O O9 0.507211 0.770333 0.242184
O O10 0.430614 0.708798 0.391304
O O11 0.432378 0.000000 0.099793
O O12 0.389175 0.000000 0.020351
O O13 0.518668 0.173969 0.123091
O O14 0.972541 0.000000 0.196296
O O15 0.856246 0.500000 0.470273
O O16 0.750000 0.750000 0.500000
#
# Coordination Sequence:
#
# PCOD9195331 Si02
#       7
#     8   8   8   4   4   8   8
#     4   9  19  38  59  76 111 155 181 233 294 346
#     4  10  20  35  53  80 115 149 193 241 283 338
#     4  10  21  37  56  80 115 154 191 235 289 342
#     4   9  20  38  62  88 113 143 192 247 292 354
#     4  11  20  38  66  91 114 145 197 251 293 353
#     4  10  20  36  59  86 115 153 193 237 294 350
#     4  11  22  34  53  82 116 151 197 244 280 333
#
# _framework density 18.920642000000001
#
# number of rings (size 3 to 8) (size 9 to 14) (size 15 to 20)
#    0.500    1.500    3.333    0.500    1.167    2.667 
#    0.000    6.667    0.000    0.000    0.000    0.000 
#    0.000    0.000    0.000    0.000    0.000    0.000 
#
# Total GULP energy -133729.630513 kJ/mol
# GULP energy per Si atom -5572.067938 kJ/mol
# Density = 1.887758 g / cm^3
# Si number density = 18.920642 Si / 1000 Ang^3
#
#
#
# Elastic Constant Matrix: (Units=GPa)
#
#
# Indices 1 2 3 4 5 6 
#
# 1 137.3708 1.5280 61.3167 0.0001 14.4482 -0.0001
# 2 1.5280 55.2259 11.2718 0.0003 9.9762 -0.0004
# 3 61.3167 11.2718 142.4888 0.0003 27.4992 -0.0003
# 4 0.0001 0.0003 0.0003 21.0111 -0.0002 5.1483
# 5 14.4482 9.9762 27.4992 -0.0002 28.7973 0.0002
# 6 -0.0001 -0.0004 -0.0003 5.1483 0.0002 18.5754
#
#
#
# Elastic Compliance Matrix: (Units=1/GPa)
#
#
# Indices 1 2 3 4 5 6 
#
# 1 0.009062 0.000734 -0.003716 0.000000 -0.001252 0.000000
# 2 0.000734 0.019385 -0.000591 0.000000 -0.006519 0.000001
# 3 -0.003716 -0.000591 0.010132 0.000000 -0.007606 0.000000
# 4 0.000000 0.000000 0.000000 0.051062 0.000001 -0.014152
# 5 -0.001252 -0.006519 -0.007606 0.000001 0.044876 -0.000001
# 6 0.000000 0.000001 0.000000 -0.014152 -0.000001 0.057757
#
#
# Mechanical properties :
#
#
# Convention : Reuss Voigt Hill
#
# Bulk Modulus (GPa) = 31.81389 53.70205 42.75797
# Shear Modulus (GPa) = 23.82120 31.07468 27.44794
#
# Velocity S-wave (km/s) = 3.55210 4.05701 3.81292
# Velocity P-wave (km/s) = 5.80294 7.09860 6.48322
#
# Compressibility (1/GPa) = 0.03143281
#
# Stress axis : x y z
#
# Youngs Moduli (GPa) = 110.35416 51.58501 98.69915
#
# Poissons Ratio (x) = -0.03786 0.36675
# Poissons Ratio (y) = -0.08099 0.05835
# Poissons Ratio (z) = 0.41006 0.03049
#
# Static dielectric constant tensor:
#      x y z
#    x 1.668780 0.000000 -0.002400 
#    y 0.000000 1.839480 0.000000 
#    z -0.002400 0.000000 1.646220 
# 
# From -- ./inp_files/319585.got.cif
#   From: 2010.05.17/outbox.cif.g08.bks.cpg/sg12_160_cif.got.tgz:319585.got - 2010.06.03 13:09:07.
