data_PCOD9195017
_publ_section_title
;
Structure prediction by ZEFSAII (Michael W. Deem and Ramdas Pophale) SiO2 
 PCOD9195017
Probable space group: C 2/M
;
_chemical_formula_sum "Si O2"
_cell_formula_units_Z 48
_cell_length_a 9.051860
_cell_length_b 16.990119
_cell_length_c 26.995609
_cell_angle_alpha 90.000000
_cell_angle_beta 148.593333
_cell_angle_gamma 90.000000
_cell_volume 2163.495067
_symmetry_space_group_name_H-M "C 2/M"
_symmetry_group_IT_number 12
_symmetry_cell_setting 'monoclinic'
loop_
_space_group_symop_operation_xyz
x,y,z
-x,y,-z
-x,-y,-z
x,-y,z
1/2+x,1/2+y,z
1/2-x,1/2+y,-z
1/2-x,1/2-y,-z
1/2+x,1/2-y,z
loop_
_atom_site_type_symbol
_atom_site_label
_atom_site_fract_x
_atom_site_fract_y
_atom_site_fract_z
Si Si1 0.860260 0.589907 0.407783
Si Si2 0.276852 0.414317 0.392546
Si Si3 0.325171 0.812375 0.302054
Si Si4 0.319037 0.354482 0.905834
Si Si5 0.177693 0.182194 0.908021
Si Si6 0.803318 0.875731 0.295247
O O1 0.945948 0.500000 0.421705
O O2 0.920340 0.648949 0.380523
O O3 0.520093 0.594193 0.316579
O O4 0.000000 0.614292 0.500000
O O5 0.500000 0.405423 0.500000
O O6 0.135721 0.500000 0.358290
O O7 0.414883 0.411040 0.378516
O O8 0.057176 0.343308 0.329970
O O9 0.323707 0.718843 0.303415
O O10 0.026239 0.844183 0.195301
O O11 0.217210 0.274920 0.905953
O O12 0.509805 0.332394 0.911866
O O13 0.026801 0.395815 0.806593
O O14 0.500000 0.397688 0.000000
O O15 0.500000 0.149886 0.000000
#
# Coordination Sequence:
#
# PCOD9195017 Si02
#       6
#     8   8   8   8   8   8
#     4  11  25  43  62  87 124 170 209 247 310 379
#     4  11  23  41  62  85 120 166 205 245 306 375
#     4  11  23  38  63  95 123 155 206 259 305 354
#     4  10  20  34  59  92 126 161 199 249 310 369
#     4  10  20  34  59  92 126 161 199 249 310 369
#     4  11  23  38  63  95 123 155 206 259 305 354
#
# _framework density 22.186323000000002
#
# number of rings (size 3 to 8) (size 9 to 14) (size 15 to 20)
#    0.000    1.333    1.667    5.000    9.333    6.667 
#    0.000    0.000    0.000    6.000    0.000    0.000 
#    0.000    0.000    0.000    0.000    0.000    0.000 
#
# Total GULP energy -133991.965215 kJ/mol
# GULP energy per Si atom -5582.998551 kJ/mol
# Density = 2.213583 g / cm^3
# Si number density = 22.186323 Si / 1000 Ang^3
#
#
#
# Elastic Constant Matrix: (Units=GPa)
#
#
# Indices 1 2 3 4 5 6 
#
# 1 83.2937 13.6291 17.8872 -0.0082 0.8394 0.0093
# 2 13.6291 68.7819 32.7696 -0.0041 -6.7179 0.0051
# 3 17.8872 32.7696 97.2767 0.0517 -6.3393 -0.0281
# 4 -0.0082 -0.0041 0.0517 -110.4445 -0.0059 320.8653
# 5 0.8394 -6.7179 -6.3393 -0.0059 44.1699 0.0107
# 6 0.0093 0.0051 -0.0281 320.8653 0.0107 -293.8306
#
#
#
# Elastic Compliance Matrix: (Units=1/GPa)
#
#
# Indices 1 2 3 4 5 6 
#
# 1 0.012683 -0.001731 -0.001799 0.000000 -0.000762 0.000001
# 2 -0.001731 0.017699 -0.005518 0.000000 0.001933 0.000001
# 3 -0.001799 -0.005518 0.012534 -0.000001 0.000994 -0.000002
# 4 0.000000 0.000000 -0.000001 0.004168 -0.000001 0.004551
# 5 -0.000762 0.001933 0.000994 -0.000001 0.023091 0.000000
# 6 0.000001 0.000001 -0.000002 0.004551 0.000000 0.001567
#
#
# Mechanical properties :
#
#
# Convention : Reuss Voigt Hill
#
# Bulk Modulus (GPa) = 40.28770 41.99157 41.13964
# Shear Modulus (GPa) = 50.96269 -59.68330 -4.36030
#
# Velocity S-wave (km/s) = 4.79794 -5.19224 -1.40342
# Velocity P-wave (km/s) = 6.99227 4.12043 3.99461
#
# Compressibility (1/GPa) = 0.02482147
#
# Stress axis : x y z
#
# Youngs Moduli (GPa) = 78.84654 56.49894 79.78029
#
# Poissons Ratio (x) = 0.09777 0.14351
# Poissons Ratio (y) = 0.13645 0.44025
# Poissons Ratio (z) = 0.14183 0.31177
#
# Static dielectric constant tensor:
#      x y z
#    x 1.838500 0.000000 0.031650 
#    y 0.000000 1.783810 0.000000 
#    z 0.031650 0.000000 1.904670 
# 
# From -- ./inp_files/170821.got.cif
#   From: 2010.05.17/outbox.cif.g08.bks.cpg/sg12_86_cif.got.tgz:170821.got - 2010.06.03 13:09:07.
