data_PCOD9195579
_publ_section_title
;
Structure prediction by ZEFSAII (Michael W. Deem and Ramdas Pophale) SiO2 
 PCOD9195579
Probable space group: C 2/M
;
_chemical_formula_sum "Si O2"
_cell_formula_units_Z 56
_cell_length_a 9.785226
_cell_length_b 17.221467
_cell_length_c 23.467940
_cell_angle_alpha 90.000000
_cell_angle_beta 130.430892
_cell_angle_gamma 90.000000
_cell_volume 3010.289999
_symmetry_space_group_name_H-M "C 2/M"
_symmetry_group_IT_number 12
_symmetry_cell_setting 'monoclinic'
loop_
_space_group_symop_operation_xyz
x,y,z
-x,y,-z
-x,-y,-z
x,-y,z
1/2+x,1/2+y,z
1/2-x,1/2+y,-z
1/2-x,1/2-y,-z
1/2+x,1/2-y,z
loop_
_atom_site_type_symbol
_atom_site_label
_atom_site_fract_x
_atom_site_fract_y
_atom_site_fract_z
Si Si1 0.145320 0.405177 0.992685
Si Si2 0.578147 0.094681 0.842870
Si Si3 0.358289 0.793569 0.413345
Si Si4 0.965617 0.090152 0.922298
Si Si5 0.623794 0.586662 0.419984
Si Si6 0.904617 0.413621 0.591231
Si Si7 0.778839 0.636724 0.676904
O O1 0.151912 0.500000 0.997110
O O2 0.087616 0.385783 0.912522
O O3 0.352015 0.376767 0.056073
O O4 0.000000 0.378815 0.000000
O O5 0.764039 0.121973 0.862762
O O6 0.407269 0.129922 0.765604
O O7 0.571813 0.000000 0.837464
O O8 0.500000 0.765490 0.500000
O O9 0.214591 0.847451 0.406432
O O10 0.468822 0.848061 0.400416
O O11 0.266671 0.723294 0.356092
O O12 0.955892 0.000000 0.901532
O O13 0.000000 0.089958 0.000000
O O14 0.670702 0.500000 0.411956
O O15 0.714435 0.594102 0.506847
O O16 0.412105 0.596677 0.364391
O O17 0.973832 0.500000 0.596696
O O18 0.876424 0.403899 0.650202
#
# Coordination Sequence:
#
# PCOD9195579 Si02
#       7
#     8   8   8   8   8   8   8
#     4   8  13  24  45  70  96 131 174 215 255 305
#     4   9  17  28  42  67 105 141 171 211 262 310
#     4  10  21  37  55  75 104 142 182 226 274 321
#     4   7  11  22  40  61  90 129 168 205 247 298
#     4  10  20  35  55  77 103 139 183 230 274 313
#     4  10  20  35  55  77 102 139 186 228 269 321
#     4  12  21  31  50  79 113 144 176 217 267 320
#
# _framework density 18.602858999999999
#
# number of rings (size 3 to 8) (size 9 to 14) (size 15 to 20)
#    0.000    2.571    0.000    5.571    0.000    5.143 
#    0.000    1.429    0.000    3.429    0.000    0.000 
#    0.000   59.429    0.000    7.429    0.000   11.429 
#
# Total GULP energy -156105.925695 kJ/mol
# GULP energy per Si atom -5575.211632 kJ/mol
# Density = 1.856052 g / cm^3
# Si number density = 18.602859 Si / 1000 Ang^3
#
#
#
# Elastic Constant Matrix: (Units=GPa)
#
#
# Indices 1 2 3 4 5 6 
#
# 1 78.5664 2.4814 2.5383 0.0000 -27.0401 0.0000
# 2 2.4814 62.0502 15.3672 0.0000 -9.3141 0.0000
# 3 2.5383 15.3672 32.2333 0.0000 -37.1681 0.0000
# 4 0.0000 0.0000 0.0000 47.5770 0.0000 7.6013
# 5 -27.0401 -9.3141 -37.1681 0.0000 -24.0316 0.0000
# 6 0.0000 0.0000 0.0000 7.6013 0.0000 17.7506
#
#
#
# Elastic Compliance Matrix: (Units=1/GPa)
#
#
# Indices 1 2 3 4 5 6 
#
# 1 0.011494 0.000362 -0.005803 0.000000 -0.004098 0.000000
# 2 0.000362 0.017939 -0.006132 0.000000 0.002124 0.000000
# 3 -0.005803 -0.006132 0.016050 0.000000 -0.015917 0.000000
# 4 0.000000 0.000000 0.000000 0.022562 0.000000 -0.009662
# 5 -0.004098 0.002124 -0.015917 0.000000 -0.013206 0.000000
# 6 0.000000 0.000000 0.000000 -0.009662 0.000000 0.060474
#
#
# Mechanical properties :
#
#
# Convention : Reuss Voigt Hill
#
# Bulk Modulus (GPa) = 44.76846 23.73599 34.25222
# Shear Modulus (GPa) = 34.26907 18.42339 26.34623
#
# Velocity S-wave (km/s) = 4.29667 3.15040 3.76739
# Velocity P-wave (km/s) = 6.98089 5.10102 6.11364
#
# Compressibility (1/GPa) = 0.02233715
#
# Stress axis : x y z
#
# Youngs Moduli (GPa) = 87.00364 55.74466 62.30489
#
# Poissons Ratio (x) = -0.02020 0.36156
# Poissons Ratio (y) = -0.03153 0.38206
# Poissons Ratio (z) = 0.50489 0.34183
#
# Static dielectric constant tensor:
#      x y z
#    x 1.652900 0.000000 0.016620 
#    y 0.000000 1.647040 0.000000 
#    z 0.016620 0.000000 1.627980 
# 
# From -- ./inp_files/333404.got.cif
#   From: 2010.05.17/outbox.cif.g08.bks.cpg/sg12_167_cif.got.tgz:333404.got - 2010.06.03 13:09:07.
