data_PCOD9195424
_publ_section_title
;
Structure prediction by ZEFSAII (Michael W. Deem and Ramdas Pophale) SiO2 
 PCOD9195424
Probable space group: C 2/M
;
_chemical_formula_sum "Si O2"
_cell_formula_units_Z 64
_cell_length_a 14.532643
_cell_length_b 8.721037
_cell_length_c 30.113790
_cell_angle_alpha 90.000000
_cell_angle_beta 104.967541
_cell_angle_gamma 90.000000
_cell_volume 3687.124310
_symmetry_space_group_name_H-M "C 2/M"
_symmetry_group_IT_number 12
_symmetry_cell_setting 'monoclinic'
loop_
_space_group_symop_operation_xyz
x,y,z
-x,y,-z
-x,-y,-z
x,-y,z
1/2+x,1/2+y,z
1/2-x,1/2+y,-z
1/2-x,1/2-y,-z
1/2+x,1/2-y,z
loop_
_atom_site_type_symbol
_atom_site_label
_atom_site_fract_x
_atom_site_fract_y
_atom_site_fract_z
Si Si1 0.648298 0.684990 0.000104
Si Si2 0.039886 0.184736 0.074654
Si Si3 0.709575 0.315275 0.427395
Si Si4 0.015185 0.684489 0.748131
Si Si5 0.780584 0.815554 0.252711
Si Si6 0.092279 0.683930 0.176327
Si Si7 0.330404 0.684679 0.678632
Si Si8 0.102869 0.314918 0.495820
O O1 0.651878 0.500000 0.000112
O O2 0.612999 0.732511 0.044814
O O3 0.750000 0.750000 0.000000
O O4 0.564966 0.732432 0.955461
O O5 0.066794 0.246763 0.125906
O O6 0.040642 0.000000 0.076028
O O7 0.704928 0.500000 0.428625
O O8 0.694158 0.268846 0.374692
O O9 0.812414 0.268353 0.459977
O O10 0.631577 0.248363 0.451315
O O11 0.014582 0.500000 0.744947
O O12 0.118105 0.749058 0.748783
O O13 0.981882 0.727474 0.793937
O O14 0.933294 0.751607 0.706040
O O15 0.696964 0.771741 0.207466
O O16 0.745015 0.751112 0.295512
O O17 0.784375 0.000000 0.255246
O O18 0.090760 0.500000 0.172656
O O19 0.330513 0.500000 0.681403
O O20 0.102147 0.500000 0.493698
O O21 0.000000 0.262982 0.500000
#
# Coordination Sequence:
#
# PCOD9195424 Si02
#       8
#     8   8   8   8   8   8   8   8
#     4   9  19  35  52  74 102 133 169 209 252 301
#     4   9  19  35  53  73 102 136 169 206 253 306
#     4   9  19  34  51  75 104 133 169 211 255 303
#     4  10  21  37  55  77 105 137 175 218 262 311
#     4  10  21  37  55  78 107 138 174 215 260 313
#     4   9  20  36  53  76 105 134 170 213 255 305
#     4  10  20  35  54  77 107 140 175 217 261 308
#     4   9  18  33  52  74 102 136 171 208 252 302
#
# _framework density 17.357700999999999
#
# number of rings (size 3 to 8) (size 9 to 14) (size 15 to 20)
#    0.000    2.625    0.000    2.625    0.000    7.250 
#    0.000    7.500    0.000    0.000    0.000    0.000 
#    0.000    0.000    0.000    0.000    0.000    0.000 
#
# Total GULP energy -178497.793823 kJ/mol
# GULP energy per Si atom -5578.056057 kJ/mol
# Density = 1.731819 g / cm^3
# Si number density = 17.357701 Si / 1000 Ang^3
#
#
#
# Elastic Constant Matrix: (Units=GPa)
#
#
# Indices 1 2 3 4 5 6 
#
# 1 182.4208 41.7550 94.1112 0.0000 -13.2912 0.0000
# 2 41.7550 32.2389 43.1367 0.0000 -2.0702 0.0000
# 3 94.1112 43.1367 182.2169 0.0000 -5.7023 0.0000
# 4 0.0000 0.0000 0.0000 32.2374 0.0000 -3.3471
# 5 -13.2912 -2.0702 -5.7023 0.0000 7.3194 0.0000
# 6 0.0000 0.0000 0.0000 -3.3471 0.0000 28.9242
#
#
#
# Elastic Compliance Matrix: (Units=1/GPa)
#
#
# Indices 1 2 3 4 5 6 
#
# 1 0.009676 -0.008124 -0.002661 0.000000 0.013199 0.000000
# 2 -0.008124 0.052369 -0.008405 0.000000 -0.006487 0.000000
# 3 -0.002661 -0.008405 0.008842 0.000000 -0.000321 0.000000
# 4 0.000000 0.000000 0.000000 0.031397 0.000000 0.003633
# 5 0.013199 -0.006487 -0.000321 0.000000 0.158506 0.000000
# 6 0.000000 0.000000 0.000000 0.003633 0.000000 0.034994
#
#
# Mechanical properties :
#
#
# Convention : Reuss Voigt Hill
#
# Bulk Modulus (GPa) = 30.76175 83.87582 57.31878
# Shear Modulus (GPa) = 14.49279 28.22111 21.35695
#
# Velocity S-wave (km/s) = 2.89268 4.03656 3.51151
# Velocity P-wave (km/s) = 5.37750 8.37568 7.03809
#
# Compressibility (1/GPa) = 0.03250791
#
# Stress axis : x y z
#
# Youngs Moduli (GPa) = 103.34944 19.09517 113.09536
#
# Poissons Ratio (x) = 0.15512 0.30097
# Poissons Ratio (y) = 0.83957 0.95055
# Poissons Ratio (z) = 0.27504 0.16049
#
# Static dielectric constant tensor:
#      x y z
#    x 1.569720 0.000000 0.005120 
#    y 0.000000 1.586000 0.000000 
#    z 0.005120 0.000000 1.571810 
# 
# From -- ./inp_files/359918.got.cif
#   From: 2010.05.17/outbox.cif.g08.bks.cpg/sg12_180_cif.got.tgz:359918.got - 2010.06.03 13:09:07.
