data_PCOD9195663
_publ_section_title
;
Structure prediction by ZEFSAII (Michael W. Deem and Ramdas Pophale) SiO2 
 PCOD9195663
Probable space group: C 2/M
;
_chemical_formula_sum "Si O2"
_cell_formula_units_Z 56
_cell_length_a 19.061394
_cell_length_b 9.612945
_cell_length_c 27.176101
_cell_angle_alpha 90.000000
_cell_angle_beta 139.653721
_cell_angle_gamma 90.000000
_cell_volume 3223.849133
_symmetry_space_group_name_H-M "C 2/M"
_symmetry_group_IT_number 12
_symmetry_cell_setting 'monoclinic'
loop_
_space_group_symop_operation_xyz
x,y,z
-x,y,-z
-x,-y,-z
x,-y,z
1/2+x,1/2+y,z
1/2-x,1/2+y,-z
1/2-x,1/2-y,-z
1/2+x,1/2-y,z
loop_
_atom_site_type_symbol
_atom_site_label
_atom_site_fract_x
_atom_site_fract_y
_atom_site_fract_z
Si Si1 0.187435 0.162223 0.926372
Si Si2 0.481424 0.336999 0.431450
Si Si3 0.744210 0.837532 0.256987
Si Si4 0.929503 0.834227 0.778246
Si Si5 0.468517 0.156035 0.709811
Si Si6 0.321303 0.338809 0.188131
Si Si7 0.146508 0.342883 0.456091
O O1 0.231047 0.183120 0.893701
O O2 0.057834 0.192285 0.856753
O O3 0.199678 0.000000 0.944545
O O4 0.250000 0.250000 0.000000
O O5 0.500000 0.322522 0.500000
O O6 0.502646 0.500000 0.430279
O O7 0.359236 0.307912 0.346128
O O8 0.565534 0.236830 0.449231
O O9 0.650670 0.736165 0.225832
O O10 0.757977 0.824243 0.205310
O O11 0.718402 0.000000 0.253864
O O12 0.906906 0.755463 0.714914
O O13 0.914568 0.000000 0.767114
O O14 0.581927 0.229748 0.759552
O O15 0.410375 0.146324 0.627023
O O16 0.481013 0.000000 0.737206
O O17 0.362523 0.500000 0.209048
O O18 0.172063 0.500000 0.487045
O O19 0.250000 0.250000 0.500000
#
# Coordination Sequence:
#
# PCOD9195663 Si02
#       7
#     8   8   8   8   8   8   8
#     4   9  19  36  58  84 112 144 182 223 272 328
#     4  10  22  39  58  81 112 149 188 234 285 331
#     4  10  20  36  58  82 113 150 187 230 278 328
#     4  10  22  37  56  83 115 147 183 226 275 330
#     4  10  20  35  55  79 105 139 187 233 273 326
#     4   9  18  35  58  82 109 144 182 221 272 330
#     4  11  24  38  55  79 108 143 188 235 282 334
#
# _framework density 17.370540999999999
#
# number of rings (size 3 to 8) (size 9 to 14) (size 15 to 20)
#    0.000    2.143    1.429    2.143    2.000    6.000 
#    0.000    0.714    0.000    4.286    0.000    0.000 
#    0.000    0.000    0.000    0.000    0.000    0.000 
#
# Total GULP energy -156049.028368 kJ/mol
# GULP energy per Si atom -5573.179585 kJ/mol
# Density = 1.733101 g / cm^3
# Si number density = 17.370541 Si / 1000 Ang^3
#
#
#
# Elastic Constant Matrix: (Units=GPa)
#
#
# Indices 1 2 3 4 5 6 
#
# 1 113.5008 79.6317 41.4272 0.0000 -8.4568 0.0000
# 2 79.6317 117.8244 47.1828 0.0000 -2.5330 0.0000
# 3 41.4272 47.1828 62.2512 0.0000 -18.4404 0.0000
# 4 0.0000 0.0000 0.0000 27.9396 0.0000 0.5039
# 5 -8.4568 -2.5330 -18.4404 0.0000 19.6757 0.0000
# 6 0.0000 0.0000 0.0000 0.5039 0.0000 36.6108
#
#
#
# Elastic Compliance Matrix: (Units=1/GPa)
#
#
# Indices 1 2 3 4 5 6 
#
# 1 0.017571 -0.010893 -0.002236 0.000000 0.004054 0.000000
# 2 -0.010893 0.020480 -0.012292 0.000000 -0.013566 0.000000
# 3 -0.002236 -0.012292 0.036152 0.000000 0.031339 0.000000
# 4 0.000000 0.000000 0.000000 0.035800 0.000000 -0.000493
# 5 0.004054 -0.013566 0.031339 0.000000 0.080192 0.000000
# 6 0.000000 0.000000 0.000000 -0.000493 0.000000 0.027321
#
#
# Mechanical properties :
#
#
# Convention : Reuss Voigt Hill
#
# Bulk Modulus (GPa) = 42.80648 70.00664 56.40656
# Shear Modulus (GPa) = 18.10638 25.20085 21.65362
#
# Velocity S-wave (km/s) = 3.23206 3.81304 3.53451
# Velocity P-wave (km/s) = 6.21490 7.73144 7.01428
#
# Compressibility (1/GPa) = 0.02336095
#
# Stress axis : x y z
#
# Youngs Moduli (GPa) = 56.91150 48.82862 27.66082
#
# Poissons Ratio (x) = 0.53188 0.06186
# Poissons Ratio (y) = 0.61992 0.34001
# Poissons Ratio (z) = 0.12727 0.60020
#
# Static dielectric constant tensor:
#      x y z
#    x 1.596010 0.000000 -0.014330 
#    y 0.000000 1.604050 0.000000 
#    z -0.014330 0.000000 1.595600 
# 
# From -- ./inp_files/362982.got.cif
#   From: 2010.05.17/outbox.cif.g08.bks.cpg/sg12_182_cif.got.tgz:362982.got - 2010.06.03 13:09:07.
