data_PCOD9195061
_publ_section_title
;
Structure prediction by ZEFSAII (Michael W. Deem and Ramdas Pophale) SiO2 
 PCOD9195061
Probable space group: C 2/M
;
_chemical_formula_sum "Si O2"
_cell_formula_units_Z 64
_cell_length_a 25.911786
_cell_length_b 19.152223
_cell_length_c 8.676294
_cell_angle_alpha 90.000000
_cell_angle_beta 41.143790
_cell_angle_gamma 90.000000
_cell_volume 2832.985428
_symmetry_space_group_name_H-M "C 2/M"
_symmetry_group_IT_number 12
_symmetry_cell_setting 'monoclinic'
loop_
_space_group_symop_operation_xyz
x,y,z
-x,y,-z
-x,-y,-z
x,-y,z
1/2+x,1/2+y,z
1/2-x,1/2+y,-z
1/2-x,1/2-y,-z
1/2+x,1/2-y,z
loop_
_atom_site_type_symbol
_atom_site_label
_atom_site_fract_x
_atom_site_fract_y
_atom_site_fract_z
Si Si1 0.567572 0.698869 0.948458
Si Si2 0.074326 0.331107 0.106801
Si Si3 0.948613 0.421058 0.271797
Si Si4 0.842891 0.713566 0.480921
Si Si5 0.251897 0.079328 0.012837
Si Si6 0.662723 0.783038 0.188169
Si Si7 0.304758 0.626384 0.188336
Si Si8 0.229114 0.580650 0.682026
O O1 0.638700 0.728259 0.684070
O O2 0.606254 0.648087 0.982900
O O3 0.500000 0.665262 0.000000
O O4 0.537409 0.773371 0.077356
O O5 0.103925 0.282677 0.179933
O O6 0.007949 0.390300 0.267998
O O7 0.154155 0.367741 0.864392
O O8 0.920253 0.500000 0.367588
O O9 0.883145 0.362953 0.382573
O O10 0.000000 0.424579 0.000000
O O11 0.873028 0.744195 0.574672
O O12 0.751127 0.695003 0.694703
O O13 0.321768 0.133955 0.835180
O O14 0.203034 0.091480 0.963906
O O15 0.277912 0.000000 0.950962
O O16 0.225698 0.091448 0.252763
O O17 0.750000 0.750000 0.000000
O O18 0.274634 0.590572 0.416689
O O19 0.201593 0.500000 0.744382
#
# Coordination Sequence:
#
# PCOD9195061 Si02
#       8
#     8   8   8   8   8   8   8   8
#     4  12  23  40  58  86 123 154 203 253 305 363
#     4  11  19  37  55  82 127 164 197 242 301 360
#     4  11  21  36  57  86 126 169 201 240 301 374
#     4  11  21  38  57  87 117 160 206 254 292 364
#     4   9  20  37  56  89 125 150 194 258 307 357
#     4  10  23  36  58  88 123 164 206 259 309 355
#     4  11  22  36  64  85 115 162 204 249 310 360
#     4  10  20  34  60  92 118 153 203 247 296 366
#
# _framework density 22.591011000000002
#
# number of rings (size 3 to 8) (size 9 to 14) (size 15 to 20)
#    0.000    1.375    3.750    2.625    3.500    4.500 
#    0.000    0.625    0.000    1.500    0.000    1.750 
#    0.000    0.000    0.000    0.000    0.000    0.000 
#
# Total GULP energy -178215.999486 kJ/mol
# GULP energy per Si atom -5569.249984 kJ/mol
# Density = 2.253959 g / cm^3
# Si number density = 22.591011 Si / 1000 Ang^3
#
#
#
# Elastic Constant Matrix: (Units=GPa)
#
#
# Indices 1 2 3 4 5 6 
#
# 1 150.7612 31.0701 36.6236 0.0000 16.6459 0.0000
# 2 31.0701 40.7379 12.0285 0.0000 0.3861 0.0000
# 3 36.6236 12.0285 41.6507 0.0000 20.4859 0.0000
# 4 0.0000 0.0000 0.0000 18.3328 0.0000 8.7412
# 5 16.6459 0.3861 20.4859 0.0000 42.1127 0.0000
# 6 0.0000 0.0000 0.0000 8.7412 0.0000 31.6070
#
#
#
# Elastic Compliance Matrix: (Units=1/GPa)
#
#
# Indices 1 2 3 4 5 6 
#
# 1 0.009329 -0.005204 -0.006454 0.000000 -0.000500 0.000000
# 2 -0.005204 0.030445 -0.006691 0.000000 0.005033 0.000000
# 3 -0.006454 -0.006691 0.039871 0.000000 -0.016783 0.000000
# 4 0.000000 0.000000 0.000000 0.062833 0.000000 -0.017377
# 5 -0.000500 0.005033 -0.016783 0.000000 0.032062 0.000000
# 6 0.000000 0.000000 0.000000 -0.017377 0.000000 0.036444
#
#
# Mechanical properties :
#
#
# Convention : Reuss Voigt Hill
#
# Bulk Modulus (GPa) = 23.28544 43.62157 33.45351
# Shear Modulus (GPa) = 19.08421 28.63901 23.86161
#
# Velocity S-wave (km/s) = 2.90965 3.56436 3.25352
# Velocity P-wave (km/s) = 4.64950 6.02418 5.38092
#
# Compressibility (1/GPa) = 0.04294529
#
# Stress axis : x y z
#
# Youngs Moduli (GPa) = 107.19786 32.84660 25.08079
#
# Poissons Ratio (x) = 0.17095 0.16186
# Poissons Ratio (y) = 0.55791 0.16783
# Poissons Ratio (z) = 0.69181 0.21979
#
# Static dielectric constant tensor:
#      x y z
#    x 1.927360 0.000000 0.102720 
#    y 0.000000 1.821300 0.000000 
#    z 0.102720 0.000000 1.985240 
# 
# From -- ./inp_files/99077.got.cif
#   From: 2010.05.17/outbox.cif.g08.bks.cpg/sg12_50_cif.got.tgz:99077.got - 2010.06.03 13:09:07.
