data_PCOD9195224
_publ_section_title
;
Structure prediction by ZEFSAII (Michael W. Deem and Ramdas Pophale) SiO2 
 PCOD9195224
Probable space group: C 2/M
;
_chemical_formula_sum "Si O2"
_cell_formula_units_Z 56
_cell_length_a 16.227694
_cell_length_b 30.042212
_cell_length_c 8.293613
_cell_angle_alpha 90.000000
_cell_angle_beta 134.537569
_cell_angle_gamma 90.000000
_cell_volume 2882.003553
_symmetry_space_group_name_H-M "C 2/M"
_symmetry_group_IT_number 12
_symmetry_cell_setting 'monoclinic'
loop_
_space_group_symop_operation_xyz
x,y,z
-x,y,-z
-x,-y,-z
x,-y,z
1/2+x,1/2+y,z
1/2-x,1/2+y,-z
1/2-x,1/2-y,-z
1/2+x,1/2-y,z
loop_
_atom_site_type_symbol
_atom_site_label
_atom_site_fract_x
_atom_site_fract_y
_atom_site_fract_z
Si Si1 0.498772 0.051163 0.804864
Si Si2 0.308996 0.884935 0.060503
Si Si3 0.309730 0.878244 0.438025
Si Si4 0.638790 0.677631 0.697185
Si Si5 0.640674 0.682185 0.347257
Si Si6 0.494778 0.193996 0.307553
Si Si7 0.103273 0.219120 0.969268
O O1 0.615890 0.073311 0.895512
O O2 0.390339 0.081153 0.601993
O O3 0.488252 0.000000 0.738268
O O4 0.500000 0.052875 0.000000
O O5 0.281329 0.886180 0.211948
O O6 0.396706 0.843422 0.161520
O O7 0.197248 0.870239 0.807044
O O8 0.196863 0.865378 0.383712
O O9 0.389367 0.833785 0.566554
O O10 0.500000 0.675846 0.500000
O O11 0.680122 0.696049 0.580864
O O12 0.670878 0.707035 0.898498
O O13 0.501616 0.683326 0.167839
O O14 0.666153 0.712976 0.225762
O O15 0.500000 0.210889 0.500000
O O16 0.460868 0.234191 0.145580
#
# Coordination Sequence:
#
# PCOD9195224 Si02
#       7
#     8   8   8   8   8   8   8
#     4  10  21  38  62  91 118 143 180 228 285 355
#     4  10  20  37  58  81 115 151 185 239 293 339
#     4  10  20  37  58  83 116 150 186 235 293 343
#     4  10  20  36  56  76 110 155 200 240 283 326
#     4  10  20  35  52  78 107 150 199 236 280 331
#     4   9  19  35  52  75 112 153 192 243 292 332
#     4  10  20  37  50  74 110 153 201 243 273 323
#
# _framework density 19.430927000000001
#
# number of rings (size 3 to 8) (size 9 to 14) (size 15 to 20)
#    0.000    2.143    1.429    3.429    0.000    2.286 
#   20.571    0.000    0.000    0.429    0.000    5.000 
#    0.000    0.000    0.000    0.000    0.000    0.000 
#
# Total GULP energy -156147.703366 kJ/mol
# GULP energy per Si atom -5576.703692 kJ/mol
# Density = 1.938670 g / cm^3
# Si number density = 19.430927 Si / 1000 Ang^3
#
#
#
# Elastic Constant Matrix: (Units=GPa)
#
#
# Indices 1 2 3 4 5 6 
#
# 1 85.4570 46.0824 37.4994 0.0000 -22.4798 0.0000
# 2 46.0824 105.5099 47.9245 0.0000 -5.5891 0.0000
# 3 37.4994 47.9245 80.4581 0.0000 -25.6094 0.0000
# 4 0.0000 0.0000 0.0000 14.2788 0.0000 -15.6087
# 5 -22.4798 -5.5891 -25.6094 0.0000 46.3409 0.0000
# 6 0.0000 0.0000 0.0000 -15.6087 0.0000 -6.4321
#
#
#
# Elastic Compliance Matrix: (Units=1/GPa)
#
#
# Indices 1 2 3 4 5 6 
#
# 1 0.017952 -0.006363 -0.002486 0.000000 0.006567 0.000000
# 2 -0.006363 0.015675 -0.008193 0.000000 -0.005724 0.000000
# 3 -0.002486 -0.008193 0.021562 0.000000 0.009722 0.000000
# 4 0.000000 0.000000 0.000000 0.019173 0.000000 -0.046527
# 5 0.006567 -0.005724 0.009722 0.000000 0.029447 0.000000
# 6 0.000000 0.000000 0.000000 -0.046527 0.000000 -0.042563
#
#
# Mechanical properties :
#
#
# Convention : Reuss Voigt Hill
#
# Bulk Modulus (GPa) = 47.38511 59.38196 53.38353
# Shear Modulus (GPa) = 48.84440 20.16543 34.50491
#
# Velocity S-wave (km/s) = 5.01917 3.22499 4.21856
# Velocity P-wave (km/s) = 7.61766 6.67040 7.15971
#
# Compressibility (1/GPa) = 0.02110367
#
# Stress axis : x y z
#
# Youngs Moduli (GPa) = 55.70512 63.79481 46.37757
#
# Poissons Ratio (x) = 0.40595 0.11531
# Poissons Ratio (y) = 0.35447 0.37997
# Poissons Ratio (z) = 0.13850 0.52267
#
# Static dielectric constant tensor:
#      x y z
#    x 1.754150 0.000000 -0.016550 
#    y 0.000000 1.660730 0.000000 
#    z -0.016550 0.000000 1.755200 
# 
# From -- ./inp_files/80485.got.cif
#   From: 2010.05.17/outbox.cif.g08.bks.cpg/sg12_41_cif.got.tgz:80485.got - 2010.06.03 13:09:07.
