data_PCOD9195949
_publ_section_title
;
Structure prediction by ZEFSAII (Michael W. Deem and Ramdas Pophale) SiO2 
 PCOD9195949
Probable space group: C 2/M
;
_chemical_formula_sum "Si O2"
_cell_formula_units_Z 56
_cell_length_a 8.198119
_cell_length_b 12.747783
_cell_length_c 29.605086
_cell_angle_alpha 90.000000
_cell_angle_beta 64.880728
_cell_angle_gamma 90.000000
_cell_volume 2801.355331
_symmetry_space_group_name_H-M "C 2/M"
_symmetry_group_IT_number 12
_symmetry_cell_setting 'monoclinic'
loop_
_space_group_symop_operation_xyz
x,y,z
-x,y,-z
-x,-y,-z
x,-y,z
1/2+x,1/2+y,z
1/2-x,1/2+y,-z
1/2-x,1/2-y,-z
1/2+x,1/2-y,z
loop_
_atom_site_type_symbol
_atom_site_label
_atom_site_fract_x
_atom_site_fract_y
_atom_site_fract_z
Si Si1 0.607025 0.714694 0.233621
Si Si2 0.894117 0.881662 0.176910
Si Si3 0.934367 0.118058 0.592363
Si Si4 0.318517 0.880436 0.290838
Si Si5 0.182004 0.696780 0.462183
Si Si6 0.810153 0.615215 0.958114
Si Si7 0.524613 0.333019 0.066333
O O1 0.739351 0.794067 0.191758
O O2 0.499721 0.645559 0.210282
O O3 0.472172 0.792301 0.276328
O O4 0.717752 0.645246 0.255829
O O5 0.018019 0.869861 0.118319
O O6 0.822797 0.000000 0.186716
O O7 0.821933 0.128237 0.651605
O O8 0.869603 0.209967 0.566374
O O9 0.148059 0.132129 0.575669
O O10 0.903103 0.000000 0.577616
O O11 0.388422 0.000000 0.282521
O O12 0.250000 0.750000 0.500000
O O13 0.000000 0.638936 0.500000
O O14 0.889251 0.500000 0.944763
O O15 0.658062 0.632277 0.937384
O O16 0.953376 0.707681 0.938765
O O17 0.694329 0.624926 0.017834
#
# Coordination Sequence:
#
# PCOD9195949 Si02
#       7
#     8   8   8   8   8   8   8
#     4  10  22  36  55  80 107 137 174 220 269 321
#     4  11  21  36  55  78 107 139 173 215 269 322
#     4  10  20  35  57  79 105 145 183 219 265 312
#     4  10  20  37  57  79 106 138 179 223 265 311
#     4   9  19  34  52  79 112 141 176 218 258 307
#     4  10  20  37  55  76 107 139 173 220 264 307
#     4  10  20  35  56  79 104 138 179 214 261 324
#
# _framework density 19.990324000000001
#
# number of rings (size 3 to 8) (size 9 to 14) (size 15 to 20)
#    0.000    2.000    0.000    4.286    0.000    2.857 
#    0.000   14.286    0.000   12.000    0.000    0.000 
#    0.000    0.000    0.000    0.000    0.000    0.000 
#
# Total GULP energy -156328.186722 kJ/mol
# GULP energy per Si atom -5583.149526 kJ/mol
# Density = 1.994483 g / cm^3
# Si number density = 19.990324 Si / 1000 Ang^3
#
#
#
# Elastic Constant Matrix: (Units=GPa)
#
#
# Indices 1 2 3 4 5 6 
#
# 1 20.2984 -1.2730 0.6084 0.0000 -5.5887 0.0000
# 2 -1.2730 105.3566 23.1274 0.0000 4.4658 0.0000
# 3 0.6084 23.1274 63.6901 0.0000 1.4286 0.0000
# 4 0.0000 0.0000 0.0000 6.4861 0.0000 17.7742
# 5 -5.5887 4.4658 1.4286 0.0000 13.2860 0.0000
# 6 0.0000 0.0000 0.0000 17.7742 0.0000 31.1495
#
#
#
# Elastic Compliance Matrix: (Units=1/GPa)
#
#
# Indices 1 2 3 4 5 6 
#
# 1 0.055790 -0.000102 -0.001026 0.000000 0.023612 0.000000
# 2 -0.000102 0.010440 -0.003720 0.000000 -0.003152 0.000000
# 3 -0.001026 -0.003720 0.017084 0.000000 -0.001018 0.000000
# 4 0.000000 0.000000 0.000000 -0.273523 0.000000 0.156075
# 5 0.023612 -0.003152 -0.001018 0.000000 0.086369 0.000000
# 6 0.000000 0.000000 0.000000 0.156075 0.000000 -0.056955
#
#
# Mechanical properties :
#
#
# Convention : Reuss Voigt Hill
#
# Bulk Modulus (GPa) = 13.58298 26.03008 19.80653
# Shear Modulus (GPa) = -39.50715 21.30981 -9.09867
#
# Velocity S-wave (km/s) = -4.45040 3.26852 -2.13575
# Velocity P-wave (km/s) = 4.42702 5.22435 1.96155
#
# Compressibility (1/GPa) = 0.07362153
#
# Stress axis : x y z
#
# Youngs Moduli (GPa) = 17.92425 95.78139 58.53324
#
# Poissons Ratio (x) = 0.00973 0.06004
# Poissons Ratio (y) = 0.00182 0.21771
# Poissons Ratio (z) = 0.01838 0.35626
#
# Static dielectric constant tensor:
#      x y z
#    x 1.706840 0.000000 -0.025960 
#    y 0.000000 1.688270 0.000000 
#    z -0.025960 0.000000 1.693080 
# 
# From -- ./inp_files/355752.got.cif
#   From: 2010.05.17/outbox.cif.g08.bks.cpg/sg12_178_cif.got.tgz:355752.got - 2010.06.03 13:09:07.
