data_PCOD9195755
_publ_section_title
;
Structure prediction by ZEFSAII (Michael W. Deem and Ramdas Pophale) SiO2 
 PCOD9195755
Probable space group: C 2/M
;
_chemical_formula_sum "Si O2"
_cell_formula_units_Z 64
_cell_length_a 28.881901
_cell_length_b 8.919473
_cell_length_c 16.129932
_cell_angle_alpha 90.000000
_cell_angle_beta 116.599433
_cell_angle_gamma 90.000000
_cell_volume 3715.455786
_symmetry_space_group_name_H-M "C 2/M"
_symmetry_group_IT_number 12
_symmetry_cell_setting 'monoclinic'
loop_
_space_group_symop_operation_xyz
x,y,z
-x,y,-z
-x,-y,-z
x,-y,z
1/2+x,1/2+y,z
1/2-x,1/2+y,-z
1/2-x,1/2-y,-z
1/2+x,1/2-y,z
loop_
_atom_site_type_symbol
_atom_site_label
_atom_site_fract_x
_atom_site_fract_y
_atom_site_fract_z
Si Si1 0.257591 0.680156 0.244559
Si Si2 0.864070 0.819980 0.242670
Si Si3 0.615089 0.320725 0.255624
Si Si4 0.898190 0.679069 0.100616
Si Si5 0.220897 0.679635 0.398742
Si Si6 0.347396 0.321293 0.898594
Si Si7 0.978396 0.180142 0.392993
Si Si8 0.013324 0.679226 0.252038
O O1 0.252429 0.500000 0.232349
O O2 0.313049 0.724632 0.252260
O O3 0.250506 0.715991 0.336189
O O4 0.210438 0.757237 0.158481
O O5 0.868250 0.742843 0.156670
O O6 0.917400 0.784971 0.333712
O O7 0.862592 0.000000 0.229922
O O8 0.663501 0.246904 0.342084
O O9 0.623729 0.286775 0.165104
O O10 0.561553 0.255347 0.245842
O O11 0.883357 0.000000 0.732635
O O12 0.893458 0.500000 0.094626
O O13 0.958769 0.716964 0.163658
O O14 0.876041 0.748781 0.999211
O O15 0.218337 0.500000 0.404495
O O16 0.250000 0.750000 0.500000
O O17 0.345559 0.500000 0.906720
O O18 0.000000 0.223249 0.500000
O O19 0.007533 0.260624 0.341026
O O20 0.984499 0.000000 0.388746
O O21 0.019165 0.500000 0.256629
#
# Coordination Sequence:
#
# PCOD9195755 Si02
#       8
#     8   8   8   8   8   8   8   8
#     4   9  19  35  54  76 105 140 176 216 260 308
#     4   9  18  34  54  76 103 136 175 215 255 304
#     4  10  21  37  56  78 105 138 177 220 264 311
#     4  10  21  36  54  77 106 138 171 211 261 315
#     4  10  20  35  55  80 110 142 177 217 262 312
#     4  10  21  36  55  78 103 134 174 218 262 311
#     4   9  18  33  54  79 107 140 176 215 259 308
#     4  10  21  36  54  78 107 139 175 216 263 314
#
# _framework density 17.225342999999999
#
# number of rings (size 3 to 8) (size 9 to 14) (size 15 to 20)
#    0.000    2.375    0.000    1.875    0.000    6.250 
#    0.000    5.000    0.000    0.000    0.000    0.000 
#    0.000    0.000    0.000    0.000    0.000    0.000 
#
# Total GULP energy -178601.148643 kJ/mol
# GULP energy per Si atom -5581.285895 kJ/mol
# Density = 1.718614 g / cm^3
# Si number density = 17.225343 Si / 1000 Ang^3
#
#
#
# Elastic Constant Matrix: (Units=GPa)
#
#
# Indices 1 2 3 4 5 6 
#
# 1 165.0390 59.3876 80.1383 0.0000 -4.3894 0.0000
# 2 59.3876 49.1583 63.1764 0.0000 0.1700 0.0000
# 3 80.1383 63.1764 170.1616 0.0000 4.9626 0.0000
# 4 0.0000 0.0000 0.0000 28.2137 0.0000 1.5291
# 5 -4.3894 0.1700 4.9626 0.0000 6.4017 0.0000
# 6 0.0000 0.0000 0.0000 1.5291 0.0000 26.4892
#
#
#
# Elastic Compliance Matrix: (Units=1/GPa)
#
#
# Indices 1 2 3 4 5 6 
#
# 1 0.011188 -0.012331 -0.000945 0.000000 0.008731 0.000000
# 2 -0.012331 0.053186 -0.013967 0.000000 0.000961 0.000000
# 3 -0.000945 -0.013967 0.011782 0.000000 -0.009411 0.000000
# 4 0.000000 0.000000 0.000000 0.035555 0.000000 -0.002052
# 5 0.008731 0.000961 -0.009411 0.000000 0.169466 0.000000
# 6 0.000000 0.000000 0.000000 -0.002052 0.000000 0.037870
#
#
# Mechanical properties :
#
#
# Convention : Reuss Voigt Hill
#
# Bulk Modulus (GPa) = 46.14929 87.75152 66.95040
# Shear Modulus (GPa) = 13.13175 24.33135 18.73155
#
# Velocity S-wave (km/s) = 2.76407 3.76244 3.30122
# Velocity P-wave (km/s) = 6.08575 8.36233 7.31317
#
# Compressibility (1/GPa) = 0.02166881
#
# Stress axis : x y z
#
# Youngs Moduli (GPa) = 89.38515 18.80188 84.87414
#
# Poissons Ratio (x) = 0.23184 0.08024
# Poissons Ratio (y) = 1.10219 1.18547
# Poissons Ratio (z) = 0.08450 0.26261
#
# Static dielectric constant tensor:
#      x y z
#    x 1.563860 0.000000 0.000050 
#    y 0.000000 1.571710 0.000000 
#    z 0.000050 0.000000 1.554670 
# 
# From -- ./inp_files/244175.got.cif
#   From: 2010.05.17/outbox.cif.g08.bks.cpg/sg12_123_cif.got.tgz:244175.got - 2010.06.03 13:09:07.
