data_PCOD9195835
_publ_section_title
;
Structure prediction by ZEFSAII (Michael W. Deem and Ramdas Pophale) SiO2 
 PCOD9195835
Probable space group: C 2/M
;
_chemical_formula_sum "Si O2"
_cell_formula_units_Z 64
_cell_length_a 28.318002
_cell_length_b 8.655305
_cell_length_c 16.560109
_cell_angle_alpha 90.000000
_cell_angle_beta 130.355356
_cell_angle_gamma 90.000000
_cell_volume 3093.055409
_symmetry_space_group_name_H-M "C 2/M"
_symmetry_group_IT_number 12
_symmetry_cell_setting 'monoclinic'
loop_
_space_group_symop_operation_xyz
x,y,z
-x,y,-z
-x,-y,-z
x,-y,z
1/2+x,1/2+y,z
1/2-x,1/2+y,-z
1/2-x,1/2-y,-z
1/2+x,1/2-y,z
loop_
_atom_site_type_symbol
_atom_site_label
_atom_site_fract_x
_atom_site_fract_y
_atom_site_fract_z
Si Si1 0.008602 0.321979 0.869269
Si Si2 0.210927 0.814365 0.323949
Si Si3 0.869286 0.186294 0.920528
Si Si4 0.302128 0.324232 0.003220
Si Si5 0.587753 0.826326 0.797227
Si Si6 0.117098 0.685809 0.339262
Si Si7 0.848716 0.185599 0.454248
Si Si8 0.069572 0.178246 0.609636
O O1 0.003918 0.500000 0.890588
O O2 0.034752 0.320002 0.806259
O O3 0.939612 0.256485 0.780646
O O4 0.061231 0.244388 0.983104
O O5 0.163382 0.771583 0.199067
O O6 0.181202 0.740954 0.370819
O O7 0.279354 0.752743 0.380899
O O8 0.212983 0.000000 0.333325
O O9 0.871339 0.000000 0.928039
O O10 0.823316 0.245874 0.940895
O O11 0.363958 0.303948 0.123538
O O12 0.215374 0.000000 0.031081
O O13 0.250000 0.250000 0.000000
O O14 0.570008 0.789056 0.686905
O O15 0.614919 0.000000 0.833130
O O16 0.114001 0.500000 0.338258
O O17 0.114790 0.750731 0.427261
O O18 0.883721 0.226933 0.409937
O O19 0.846718 0.000000 0.456970
O O20 0.000000 0.176747 0.500000
O O21 0.085168 0.000000 0.649574
#
# Coordination Sequence:
#
# PCOD9195835 Si02
#       8
#     8   8   8   8   8   8   8   8
#     4   9  20  38  61  89 121 156 197 245 297 351
#     4  11  24  42  62  87 120 158 199 248 299 354
#     4   9  21  39  59  85 119 157 198 242 295 352
#     4  10  20  35  55  82 114 152 194 236 286 344
#     4  10  20  35  56  84 116 153 194 235 285 346
#     4  11  23  41  64  89 117 154 199 249 303 358
#     4  11  24  41  62  89 119 157 200 245 300 355
#     4  10  22  39  59  87 121 155 194 241 294 351
#
# _framework density 20.691514000000002
#
# number of rings (size 3 to 8) (size 9 to 14) (size 15 to 20)
#    0.000    1.875    0.000    3.000    1.750    4.750 
#    0.000    2.500    0.000    0.000    0.000    0.000 
#    0.000    0.000    0.000    0.000    0.000    0.000 
#
# Total GULP energy -178633.513859 kJ/mol
# GULP energy per Si atom -5582.297308 kJ/mol
# Density = 2.064442 g / cm^3
# Si number density = 20.691514 Si / 1000 Ang^3
#
#
#
# Elastic Constant Matrix: (Units=GPa)
#
#
# Indices 1 2 3 4 5 6 
#
# 1 53.7548 2.7570 -2.5822 0.0000 18.2936 0.0000
# 2 2.7570 32.0564 8.2498 0.0000 -1.7406 0.0000
# 3 -2.5822 8.2498 62.9148 0.0000 0.5107 0.0000
# 4 0.0000 0.0000 0.0000 32.2938 0.0000 4.2836
# 5 18.2936 -1.7406 0.5107 0.0000 26.8359 0.0000
# 6 0.0000 0.0000 0.0000 4.2836 0.0000 19.8580
#
#
#
# Elastic Compliance Matrix: (Units=1/GPa)
#
#
# Indices 1 2 3 4 5 6 
#
# 1 0.024667 -0.003461 0.001605 0.000000 -0.017070 0.000000
# 2 -0.003461 0.032898 -0.004493 0.000000 0.004579 0.000000
# 3 0.001605 -0.004493 0.016563 0.000000 -0.001701 0.000000
# 4 0.000000 0.000000 0.000000 0.031878 0.000000 -0.006876
# 5 -0.017070 0.004579 -0.001701 0.000000 0.049229 0.000000
# 6 0.000000 0.000000 0.000000 -0.006876 0.000000 0.051841
#
#
# Mechanical properties :
#
#
# Convention : Reuss Voigt Hill
#
# Bulk Modulus (GPa) = 16.27901 18.39723 17.33812
# Shear Modulus (GPa) = 20.81161 25.15099 22.98130
#
# Velocity S-wave (km/s) = 3.17488 3.49022 3.33628
# Velocity P-wave (km/s) = 4.61783 5.01524 4.82063
#
# Compressibility (1/GPa) = 0.06142879
#
# Stress axis : x y z
#
# Youngs Moduli (GPa) = 40.54038 30.39735 60.37434
#
# Poissons Ratio (x) = 0.10522 -0.09689
# Poissons Ratio (y) = 0.14032 0.27126
# Poissons Ratio (z) = -0.06506 0.13657
#
# Static dielectric constant tensor:
#      x y z
#    x 1.808850 0.000000 -0.008650 
#    y 0.000000 1.732830 0.000000 
#    z -0.008650 0.000000 1.753490 
# 
# From -- ./inp_files/249979.got.cif
#   From: 2010.05.17/outbox.cif.g08.bks.cpg/sg12_125_cif.got.tgz:249979.got - 2010.06.03 13:09:07.
