data_PCOD9195101
_publ_section_title
;
Structure prediction by ZEFSAII (Michael W. Deem and Ramdas Pophale) SiO2 
 PCOD9195101
Probable space group: C 2/M
;
_chemical_formula_sum "Si O2"
_cell_formula_units_Z 46
_cell_length_a 20.711345
_cell_length_b 16.967162
_cell_length_c 7.500313
_cell_angle_alpha 90.000000
_cell_angle_beta 136.307657
_cell_angle_gamma 90.000000
_cell_volume 1820.707959
_symmetry_space_group_name_H-M "C 2/M"
_symmetry_group_IT_number 12
_symmetry_cell_setting 'monoclinic'
loop_
_space_group_symop_operation_xyz
x,y,z
-x,y,-z
-x,-y,-z
x,-y,z
1/2+x,1/2+y,z
1/2-x,1/2+y,-z
1/2-x,1/2-y,-z
1/2+x,1/2-y,z
loop_
_atom_site_type_symbol
_atom_site_label
_atom_site_fract_x
_atom_site_fract_y
_atom_site_fract_z
Si Si1 0.500000 0.286928 0.500000
Si Si2 0.267005 0.410786 0.143313
Si Si3 0.371278 0.500000 0.882680
Si Si4 0.646671 0.827792 0.191868
Si Si5 0.431785 0.500000 0.595238
Si Si6 0.939625 0.650187 0.608792
Si Si7 0.500000 0.000000 0.500000
Si Si8 0.671551 0.663713 0.066373
O O1 0.431151 0.227052 0.468350
O O2 0.434141 0.328899 0.224678
O O3 0.234705 0.500000 0.031263
O O4 0.213615 0.384216 0.212059
O O5 0.376445 0.425512 0.405401
O O6 0.262257 0.349061 0.973671
O O7 0.458137 0.500000 0.195355
O O8 0.320240 0.581356 0.815181
O O9 0.407195 0.500000 0.754222
O O10 0.632488 0.845703 0.371556
O O11 0.543526 0.840868 0.902172
O O12 0.679080 0.739443 0.206738
O O13 0.945974 0.570423 0.508248
#
# Coordination Sequence:
#
# PCOD9195101 Si02
#       8
#     4   8   4   8   4   8   2   8
#     4   9  20  38  62  91 126 154 212 267 327 383
#     4  10  22  40  59  90 125 168 210 256 325 388
#     4  11  21  41  62  95 115 167 217 277 313 381
#     4  10  22  39  63  90 130 167 212 268 318 385
#     4   9  23  37  61  88 126 156 216 265 320 375
#     4   9  21  39  60  96 118 169 214 262 320 377
#     4  10  20  34  62  86 126 150 214 260 310 374
#     4  11  21  38  64  89 128 165 214 265 327 378
#
# _framework density 25.264897000000001
#
# number of rings (size 3 to 8) (size 9 to 14) (size 15 to 20)
#    0.522    1.565    0.870    1.565    2.435    8.696 
#    0.000   10.435    0.000    0.000    0.000    0.000 
#    0.000    0.000    0.000    0.000    0.000    0.000 
#
# Total GULP energy -128461.711517 kJ/mol
# GULP energy per Si atom -5585.291805 kJ/mol
# Density = 2.520739 g / cm^3
# Si number density = 25.264897 Si / 1000 Ang^3
#
#
#
# Elastic Constant Matrix: (Units=GPa)
#
#
# Indices 1 2 3 4 5 6 
#
# 1 189.0450 72.9677 29.3623 0.0000 -20.7765 0.0000
# 2 72.9677 170.1982 33.1465 0.0000 -9.5235 0.0000
# 3 29.3623 33.1465 87.9924 0.0000 3.5073 0.0000
# 4 0.0000 0.0000 0.0000 6.5489 0.0000 8.7472
# 5 -20.7765 -9.5235 3.5073 0.0000 39.1462 0.0000
# 6 0.0000 0.0000 0.0000 8.7472 0.0000 21.3172
#
#
#
# Elastic Compliance Matrix: (Units=1/GPa)
#
#
# Indices 1 2 3 4 5 6 
#
# 1 0.006813 -0.002458 -0.001473 0.000000 0.003150 0.000000
# 2 -0.002458 0.007351 -0.001975 0.000000 0.000661 0.000000
# 3 -0.001473 -0.001975 0.012696 0.000000 -0.002400 0.000000
# 4 0.000000 0.000000 0.000000 0.337879 0.000000 -0.138644
# 5 0.003150 0.000661 -0.002400 0.000000 0.027593 0.000000
# 6 0.000000 0.000000 0.000000 -0.138644 0.000000 0.103801
#
#
# Mechanical properties :
#
#
# Convention : Reuss Voigt Hill
#
# Bulk Modulus (GPa) = 66.45601 79.79873 73.12737
# Shear Modulus (GPa) = 9.74731 34.18642 21.96686
#
# Velocity S-wave (km/s) = 1.96632 3.68247 2.95186
# Velocity P-wave (km/s) = 5.61391 7.05224 6.37378
#
# Compressibility (1/GPa) = 0.01504755
#
# Stress axis : x y z
#
# Youngs Moduli (GPa) = 146.76762 136.03760 78.76523
#
# Poissons Ratio (x) = 0.33437 0.11604
# Poissons Ratio (y) = 0.36074 0.15558
# Poissons Ratio (z) = 0.21623 0.26871
#
# Static dielectric constant tensor:
#      x y z
#    x 1.941340 0.000000 0.036330 
#    y 0.000000 1.940010 0.000000 
#    z 0.036330 0.000000 2.123110 
# 
# From -- ./inp_files/88196.got.cif
#   From: 2010.05.17/outbox.cif.g08.bks.cpg/sg12_45_cif.got.tgz:88196.got - 2010.06.03 13:09:07.
