data_PCOD9195187
_publ_section_title
;
Structure prediction by ZEFSAII (Michael W. Deem and Ramdas Pophale) SiO2 
 PCOD9195187
Probable space group: C 2/M
;
_chemical_formula_sum "Si O2"
_cell_formula_units_Z 64
_cell_length_a 19.414843
_cell_length_b 7.879828
_cell_length_c 21.138357
_cell_angle_alpha 90.000000
_cell_angle_beta 94.304684
_cell_angle_gamma 90.000000
_cell_volume 3224.741995
_symmetry_space_group_name_H-M "C 2/M"
_symmetry_group_IT_number 12
_symmetry_cell_setting 'monoclinic'
loop_
_space_group_symop_operation_xyz
x,y,z
-x,y,-z
-x,-y,-z
x,-y,z
1/2+x,1/2+y,z
1/2-x,1/2+y,-z
1/2-x,1/2-y,-z
1/2+x,1/2-y,z
loop_
_atom_site_type_symbol
_atom_site_label
_atom_site_fract_x
_atom_site_fract_y
_atom_site_fract_z
Si Si1 0.714527 0.696227 0.889207
Si Si2 0.602862 0.807444 0.970688
Si Si3 0.368682 0.694203 0.893058
Si Si4 0.796173 0.295863 0.564297
Si Si5 0.122418 0.206897 0.764676
Si Si6 0.170144 0.205586 0.631337
Si Si7 0.578311 0.795513 0.503401
Si Si8 0.994179 0.795173 0.152762
O O1 0.694586 0.500000 0.897448
O O2 0.678726 0.794561 0.944199
O O3 0.796136 0.711789 0.890530
O O4 0.679263 0.754035 0.821288
O O5 0.550863 0.753012 0.911835
O O6 0.588387 0.000000 0.988141
O O7 0.600569 0.699404 0.033918
O O8 0.354039 0.500000 0.874408
O O9 0.427942 0.766993 0.851601
O O10 0.800439 0.500000 0.569587
O O11 0.750000 0.250000 0.500000
O O12 0.748028 0.235246 0.618746
O O13 0.872698 0.232864 0.551088
O O14 0.142506 0.268431 0.696726
O O15 0.049171 0.262665 0.789183
O O16 0.121206 0.000000 0.762107
O O17 0.118848 0.254970 0.570953
O O18 0.171943 0.000000 0.633412
O O19 0.500000 0.729803 0.500000
O O20 0.574975 0.000000 0.497755
O O21 0.997487 0.000000 0.154573
#
# Coordination Sequence:
#
# PCOD9195187 Si02
#       8
#     8   8   8   8   8   8   8   8
#     4  10  20  35  52  70  96 127 159 197 243 290
#     4  11  21  33  51  74  98 124 159 200 242 291
#     4  11  21  33  50  72  97 124 157 198 246 295
#     4   8  14  25  43  66  90 118 152 187 221 262
#     4   8  16  33  53  69  88 121 161 196 233 279
#     4   9  16  29  51  72  89 118 162 200 227 268
#     4   9  17  29  44  67 101 131 151 182 235 285
#     4   9  19  35  52  69  95 130 161 194 242 296
#
# _framework density 19.846547000000001
#
# number of rings (size 3 to 8) (size 9 to 14) (size 15 to 20)
#    0.000    2.625    0.000    3.375    0.000    2.750 
#    0.000    4.375    0.000    1.500    0.000    0.000 
#    0.000    0.000    0.000    0.000    0.000    0.000 
#
# Total GULP energy -178403.830483 kJ/mol
# GULP energy per Si atom -5575.119703 kJ/mol
# Density = 1.980138 g / cm^3
# Si number density = 19.846547 Si / 1000 Ang^3
#
#
#
# Elastic Constant Matrix: (Units=GPa)
#
#
# Indices 1 2 3 4 5 6 
#
# 1 145.3536 3.8072 45.3131 0.0000 -40.0355 0.0000
# 2 3.8072 29.6746 -1.9000 0.0000 -2.3330 0.0000
# 3 45.3131 -1.9000 81.9347 0.0000 -32.9794 0.0000
# 4 0.0000 0.0000 0.0000 9.8741 0.0000 1.6290
# 5 -40.0355 -2.3330 -32.9794 0.0000 26.5053 0.0000
# 6 0.0000 0.0000 0.0000 1.6290 0.0000 5.9008
#
#
#
# Elastic Compliance Matrix: (Units=1/GPa)
#
#
# Indices 1 2 3 4 5 6 
#
# 1 0.011851 0.000101 0.001316 0.000000 0.019547 0.000000
# 2 0.000101 0.034597 0.004074 0.000000 0.008266 0.000000
# 3 0.001316 0.004074 0.025073 0.000000 0.033544 0.000000
# 4 0.000000 0.000000 0.000000 0.106107 0.000000 -0.029293
# 5 0.019547 0.008266 0.033544 0.000000 0.109718 0.000000
# 6 0.000000 0.000000 0.000000 -0.029293 0.000000 0.177555
#
#
# Mechanical properties :
#
#
# Convention : Reuss Voigt Hill
#
# Bulk Modulus (GPa) = 12.12099 39.04484 25.58291
# Shear Modulus (GPa) = 10.38592 22.43888 16.41240
#
# Velocity S-wave (km/s) = 2.29008 3.36612 2.87882
# Velocity P-wave (km/s) = 3.62122 5.90116 4.89576
#
# Compressibility (1/GPa) = 0.08250149
#
# Stress axis : x y z
#
# Youngs Moduli (GPa) = 84.38340 28.90454 39.88310
#
# Poissons Ratio (x) = -0.00291 -0.05249
# Poissons Ratio (y) = -0.00849 -0.16247
# Poissons Ratio (z) = -0.11106 -0.11775
#
# Static dielectric constant tensor:
#      x y z
#    x 1.740390 0.000000 -0.047960 
#    y 0.000000 1.698080 0.000000 
#    z -0.047960 0.000000 1.676490 
# 
# From -- ./inp_files/319147.got.cif
#   From: 2010.05.17/outbox.cif.g08.bks.cpg/sg12_160_cif.got.tgz:319147.got - 2010.06.03 13:09:07.
