data_PCOD9195118
_publ_section_title
;
Structure prediction by ZEFSAII (Michael W. Deem and Ramdas Pophale) SiO2 
 PCOD9195118
Probable space group: C 2/M
;
_chemical_formula_sum "Si O2"
_cell_formula_units_Z 36
_cell_length_a 18.592976
_cell_length_b 14.757308
_cell_length_c 14.461327
_cell_angle_alpha 90.000000
_cell_angle_beta 156.282132
_cell_angle_gamma 90.000000
_cell_volume 1596.034339
_symmetry_space_group_name_H-M "C 2/M"
_symmetry_group_IT_number 12
_symmetry_cell_setting 'monoclinic'
loop_
_space_group_symop_operation_xyz
x,y,z
-x,y,-z
-x,-y,-z
x,-y,z
1/2+x,1/2+y,z
1/2-x,1/2+y,-z
1/2-x,1/2-y,-z
1/2+x,1/2-y,z
loop_
_atom_site_type_symbol
_atom_site_label
_atom_site_fract_x
_atom_site_fract_y
_atom_site_fract_z
Si Si1 0.789400 0.692992 0.235266
Si Si2 0.963457 0.500000 0.686647
Si Si3 0.747988 0.695224 0.634798
Si Si4 0.700905 0.500000 0.198153
Si Si5 0.955698 0.301116 0.177287
Si Si6 0.817620 0.500000 0.724607
O O1 0.704850 0.741469 0.224699
O O2 0.734993 0.588586 0.176928
O O3 0.000000 0.699675 0.500000
O O4 0.716100 0.747432 0.061355
O O5 0.834328 0.500000 0.444618
O O6 0.067233 0.403530 0.811115
O O7 0.856153 0.500000 0.658821
O O8 0.910512 0.690490 0.753782
O O9 0.575983 0.739723 0.385459
O O10 0.716144 0.592374 0.628497
O O11 0.500000 0.500000 0.000000
O O12 0.000000 0.500000 0.000000
#
# Coordination Sequence:
#
# PCOD9195118 Si02
#       6
#     8   4   8   4   8   4
#     4  12  26  42  63  95 137 176 212 262 336 401
#     4  10  20  41  67 101 125 163 214 285 326 367
#     4  10  20  38  63  95 122 170 222 271 323 373
#     4  12  25  43  71  98 128 168 226 272 320 385
#     4  10  21  39  69  92 129 165 223 276 319 378
#     4  10  20  34  62  97 132 155 213 284 327 367
#
# _framework density 22.555906
#
# number of rings (size 3 to 8) (size 9 to 14) (size 15 to 20)
#    0.000    1.333    2.222    5.000    6.222    0.889 
#    0.000    2.222    0.000    0.000    0.000    0.000 
#    0.000    0.000    0.000    0.000    0.000    0.000 
#
# Total GULP energy -100679.097415 kJ/mol
# GULP energy per Si atom -5593.283190 kJ/mol
# Density = 2.250457 g / cm^3
# Si number density = 22.555906 Si / 1000 Ang^3
#
#
#
# Elastic Constant Matrix: (Units=GPa)
#
#
# Indices 1 2 3 4 5 6 
#
# 1 58.1657 24.5740 21.3791 0.0002 -4.8803 0.0002
# 2 24.5740 254.5102 89.0950 0.0004 -12.0681 0.0002
# 3 21.3791 89.0950 157.2132 0.0007 -7.2353 0.0007
# 4 0.0002 0.0004 0.0007 25.1229 0.0004 0.5786
# 5 -4.8803 -12.0681 -7.2353 0.0004 32.8902 0.0003
# 6 0.0002 0.0002 0.0007 0.5786 0.0003 9.7416
#
#
#
# Elastic Compliance Matrix: (Units=1/GPa)
#
#
# Indices 1 2 3 4 5 6 
#
# 1 0.018472 -0.001052 -0.001826 0.000000 0.001953 0.000000
# 2 -0.001052 0.005009 -0.002645 0.000000 0.001100 0.000000
# 3 -0.001826 -0.002645 0.008133 0.000000 0.000548 -0.000001
# 4 0.000000 0.000000 0.000000 0.039859 -0.000001 -0.002368
# 5 0.001953 0.001100 0.000548 -0.000001 0.031218 -0.000001
# 6 0.000000 0.000000 -0.000001 -0.002368 -0.000001 0.102793
#
#
# Mechanical properties :
#
#
# Convention : Reuss Voigt Hill
#
# Bulk Modulus (GPa) = 48.61826 82.22057 65.41941
# Shear Modulus (GPa) = 22.38288 35.87366 29.12827
#
# Velocity S-wave (km/s) = 3.15354 3.99235 3.59748
# Velocity P-wave (km/s) = 5.90433 7.60150 6.80603
#
# Compressibility (1/GPa) = 0.02056840
#
# Stress axis : x y z
#
# Youngs Moduli (GPa) = 54.13707 199.65326 122.95286
#
# Poissons Ratio (x) = 0.20997 0.22452
# Poissons Ratio (y) = 0.05693 0.32519
# Poissons Ratio (z) = 0.09886 0.52805
#
# Static dielectric constant tensor:
#      x y z
#    x 2.019270 0.000000 -0.026650 
#    y 0.000000 1.839610 0.000000 
#    z -0.026650 0.000000 1.804530 
# 
# From -- ./inp_files/225530.got.cif
#   From: 2010.05.17/outbox.cif.g08.bks.cpg/sg12_113_cif.got.tgz:225530.got - 2010.06.03 13:09:07.
