data_PCOD9195488
_publ_section_title
;
Structure prediction by ZEFSAII (Michael W. Deem and Ramdas Pophale) SiO2 
 PCOD9195488
Probable space group: C 2/M
;
_chemical_formula_sum "Si O2"
_cell_formula_units_Z 56
_cell_length_a 14.959622
_cell_length_b 15.092097
_cell_length_c 12.521807
_cell_angle_alpha 90.000000
_cell_angle_beta 123.709354
_cell_angle_gamma 90.000000
_cell_volume 2351.739952
_symmetry_space_group_name_H-M "C 2/M"
_symmetry_group_IT_number 12
_symmetry_cell_setting 'monoclinic'
loop_
_space_group_symop_operation_xyz
x,y,z
-x,y,-z
-x,-y,-z
x,-y,z
1/2+x,1/2+y,z
1/2-x,1/2+y,-z
1/2-x,1/2-y,-z
1/2+x,1/2-y,z
loop_
_atom_site_type_symbol
_atom_site_label
_atom_site_fract_x
_atom_site_fract_y
_atom_site_fract_z
Si Si1 0.585501 0.096052 0.950702
Si Si2 0.506707 0.711912 0.828462
Si Si3 0.276609 0.343472 0.960640
Si Si4 0.717079 0.099269 0.494754
Si Si5 0.470205 0.601882 0.603249
Si Si6 0.254201 0.290062 0.716803
Si Si7 0.306406 0.900506 0.755374
O O1 0.539449 0.186295 0.870680
O O2 0.707476 0.091831 0.985890
O O3 0.536677 0.000000 0.891599
O O4 0.606484 0.105062 0.092129
O O5 0.515468 0.675132 0.714157
O O6 0.383183 0.701823 0.782075
O O7 0.594403 0.653548 0.951136
O O8 0.233555 0.342305 0.811618
O O9 0.250000 0.250000 0.000000
O O10 0.698774 0.171024 0.574533
O O11 0.655389 0.110127 0.342225
O O12 0.841469 0.104467 0.538985
O O13 0.698525 0.000000 0.524608
O O14 0.500000 0.616954 0.500000
O O15 0.503501 0.500000 0.652300
O O16 0.233873 0.186160 0.723330
O O17 0.258910 0.000000 0.729916
#
# Coordination Sequence:
#
# PCOD9195488 Si02
#       7
#     8   8   8   8   8   8   8
#     4  10  22  38  59  87 117 155 197 238 286 344
#     4  10  21  36  57  87 119 151 189 242 298 349
#     4  10  20  35  54  79 113 149 194 231 280 346
#     4   9  20  35  52  81 115 148 192 237 289 349
#     4   9  19  34  56  84 113 149 192 243 295 342
#     4  11  20  36  59  84 118 152 189 242 296 345
#     4  10  20  35  57  84 113 148 194 239 282 338
#
# _framework density 23.812156999999999
#
# number of rings (size 3 to 8) (size 9 to 14) (size 15 to 20)
#    0.000    2.143    2.857    0.857    2.000    1.714 
#    0.000    1.429    0.000    4.714    0.000    0.000 
#    0.000    0.000    0.000    0.000    0.000    0.000 
#
# Total GULP energy -156390.071547 kJ/mol
# GULP energy per Si atom -5585.359698 kJ/mol
# Density = 2.375796 g / cm^3
# Si number density = 23.812157 Si / 1000 Ang^3
#
#
#
# Elastic Constant Matrix: (Units=GPa)
#
#
# Indices 1 2 3 4 5 6 
#
# 1 64.2249 24.3170 22.1418 0.0000 -10.4200 0.0000
# 2 24.3170 131.3989 82.1330 0.0000 -15.4008 0.0000
# 3 22.1418 82.1330 160.3876 0.0000 -21.9371 0.0000
# 4 0.0000 0.0000 0.0000 40.0239 0.0000 4.8903
# 5 -10.4200 -15.4008 -21.9371 0.0000 35.7838 0.0000
# 6 0.0000 0.0000 0.0000 4.8903 0.0000 15.4721
#
#
#
# Elastic Compliance Matrix: (Units=1/GPa)
#
#
# Indices 1 2 3 4 5 6 
#
# 1 0.017280 -0.002342 -0.000694 0.000000 0.003598 0.000000
# 2 -0.002342 0.011578 -0.005476 0.000000 0.000943 0.000000
# 3 -0.000694 -0.005476 0.009589 0.000000 0.003320 0.000000
# 4 0.000000 0.000000 0.000000 0.025989 0.000000 -0.008214
# 5 0.003598 0.000943 0.003320 0.000000 0.031435 0.000000
# 6 0.000000 0.000000 0.000000 -0.008214 0.000000 0.067229
#
#
# Mechanical properties :
#
#
# Convention : Reuss Voigt Hill
#
# Bulk Modulus (GPa) = 46.68190 68.13279 57.40734
# Shear Modulus (GPa) = 26.70018 33.41727 30.05872
#
# Velocity S-wave (km/s) = 3.35219 3.75022 3.55678
# Velocity P-wave (km/s) = 5.88470 6.88672 6.40534
#
# Compressibility (1/GPa) = 0.02142158
#
# Stress axis : x y z
#
# Youngs Moduli (GPa) = 57.86968 86.37390 104.28509
#
# Poissons Ratio (x) = 0.20233 0.07236
# Poissons Ratio (y) = 0.13556 0.57110
# Poissons Ratio (z) = 0.04015 0.47301
#
# Static dielectric constant tensor:
#      x y z
#    x 1.982140 0.000000 0.072450 
#    y 0.000000 1.933850 0.000000 
#    z 0.072450 0.000000 1.937050 
# 
# From -- ./inp_files/156741.got.cif
#   From: 2010.05.17/outbox.cif.g08.bks.cpg/sg12_79_cif.got.tgz:156741.got - 2010.06.03 13:09:07.
