data_PCOD9195236
_publ_section_title
;
Structure prediction by ZEFSAII (Michael W. Deem and Ramdas Pophale) SiO2 
 PCOD9195236
Probable space group: C 2/M
;
_chemical_formula_sum "Si O2"
_cell_formula_units_Z 52
_cell_length_a 12.771836
_cell_length_b 18.522327
_cell_length_c 12.674964
_cell_angle_alpha 90.000000
_cell_angle_beta 122.483709
_cell_angle_gamma 90.000000
_cell_volume 2529.318088
_symmetry_space_group_name_H-M "C 2/M"
_symmetry_group_IT_number 12
_symmetry_cell_setting 'monoclinic'
loop_
_space_group_symop_operation_xyz
x,y,z
-x,y,-z
-x,-y,-z
x,-y,z
1/2+x,1/2+y,z
1/2-x,1/2+y,-z
1/2-x,1/2-y,-z
1/2+x,1/2-y,z
loop_
_atom_site_type_symbol
_atom_site_label
_atom_site_fract_x
_atom_site_fract_y
_atom_site_fract_z
Si Si1 0.004145 0.797209 0.627880
Si Si2 0.772756 0.287457 0.743207
Si Si3 0.120300 0.416096 0.886794
Si Si4 0.500000 0.183821 0.000000
Si Si5 0.785711 0.136432 0.640138
Si Si6 0.408474 0.136641 0.633646
Si Si7 0.636625 0.415227 0.093958
O O1 0.147842 0.808132 0.736420
O O2 0.963450 0.715407 0.633156
O O3 0.000000 0.808305 0.500000
O O4 0.906584 0.848263 0.634022
O O5 0.745212 0.215129 0.662461
O O6 0.816014 0.347439 0.682077
O O7 0.891280 0.273758 0.881285
O O8 0.129985 0.500000 0.923750
O O9 0.022265 0.409978 0.737404
O O10 0.251913 0.386065 0.917561
O O11 0.066808 0.367124 0.950653
O O12 0.673480 0.108320 0.507445
O O13 0.823283 0.092493 0.763097
O O14 0.631089 0.500000 0.064856
O O15 0.500000 0.384363 0.000000
#
# Coordination Sequence:
#
# PCOD9195236 Si02
#       7
#     8   8   8   4   8   8   8
#     4  11  18  33  59  84 117 153 180 225 296 339
#     4  10  20  35  52  88 118 145 182 229 284 347
#     4  10  22  41  62  82 110 151 194 241 284 328
#     4  10  23  38  60  88 117 144 190 238 284 338
#     4  11  21  35  59  84 116 151 188 232 287 334
#     4  10  20  35  55  87 116 141 187 238 278 341
#     4  10  24  42  56  78 113 152 196 233 275 339
#
# _framework density 20.558900999999999
#
# number of rings (size 3 to 8) (size 9 to 14) (size 15 to 20)
#    0.000    1.692    3.077    2.077    3.231    0.615 
#    0.000    4.615    0.000    0.462    0.000    0.000 
#    0.000    0.000    0.000    0.000    0.000    0.000 
#
# Total GULP energy -145219.572914 kJ/mol
# GULP energy per Si atom -5585.368189 kJ/mol
# Density = 2.051211 g / cm^3
# Si number density = 20.558901 Si / 1000 Ang^3
#
#
#
# Elastic Constant Matrix: (Units=GPa)
#
#
# Indices 1 2 3 4 5 6 
#
# 1 161.4244 10.5762 41.1575 0.0000 8.0049 0.0000
# 2 10.5762 16.2945 -4.4807 0.0000 0.0717 0.0000
# 3 41.1575 -4.4807 97.5687 0.0000 14.2957 0.0000
# 4 0.0000 0.0000 0.0000 -3.0295 0.0000 -12.0607
# 5 8.0049 0.0717 14.2957 0.0000 35.0364 0.0000
# 6 0.0000 0.0000 0.0000 -12.0607 0.0000 10.2422
#
#
#
# Elastic Compliance Matrix: (Units=1/GPa)
#
#
# Indices 1 2 3 4 5 6 
#
# 1 0.007444 -0.005753 -0.003357 0.000000 -0.000319 0.000000
# 2 -0.005753 0.066664 0.005654 0.000000 -0.001129 0.000000
# 3 -0.003357 0.005654 0.012566 0.000000 -0.004372 0.000000
# 4 0.000000 0.000000 0.000000 -0.058033 0.000000 -0.068337
# 5 -0.000319 -0.001129 -0.004372 0.000000 0.030401 0.000000
# 6 0.000000 0.000000 0.000000 -0.068337 0.000000 0.017165
#
#
# Mechanical properties :
#
#
# Convention : Reuss Voigt Hill
#
# Bulk Modulus (GPa) = 12.53770 41.08820 26.81295
# Shear Modulus (GPa) = 45.57604 23.65212 34.61408
#
# Velocity S-wave (km/s) = 4.71345 3.39552 4.10769
# Velocity P-wave (km/s) = 5.97778 5.94993 5.96387
#
# Compressibility (1/GPa) = 0.07975941
#
# Stress axis : x y z
#
# Youngs Moduli (GPa) = 134.34302 15.00059 79.58231
#
# Poissons Ratio (x) = 0.08630 0.26719
# Poissons Ratio (y) = 0.77291 -0.44993
# Poissons Ratio (z) = 0.45105 -0.08481
#
# Static dielectric constant tensor:
#      x y z
#    x 1.760000 0.000000 0.025890 
#    y 0.000000 1.719570 0.000000 
#    z 0.025890 0.000000 1.752870 
# 
# From -- ./inp_files/133354.got.cif
#   From: 2010.05.17/outbox.cif.g08.bks.cpg/sg12_67_cif.got.tgz:133354.got - 2010.06.03 13:09:07.
