data_PCOD9195945
_publ_section_title
;
Structure prediction by ZEFSAII (Michael W. Deem and Ramdas Pophale) SiO2 
 PCOD9195945
Probable space group: C 2/M
;
_chemical_formula_sum "Si O2"
_cell_formula_units_Z 48
_cell_length_a 8.441754
_cell_length_b 12.337596
_cell_length_c 23.521729
_cell_angle_alpha 90.000000
_cell_angle_beta 70.227232
_cell_angle_gamma 90.000000
_cell_volume 2305.373676
_symmetry_space_group_name_H-M "C 2/M"
_symmetry_group_IT_number 12
_symmetry_cell_setting 'monoclinic'
loop_
_space_group_symop_operation_xyz
x,y,z
-x,y,-z
-x,-y,-z
x,-y,z
1/2+x,1/2+y,z
1/2-x,1/2+y,-z
1/2-x,1/2-y,-z
1/2+x,1/2-y,z
loop_
_atom_site_type_symbol
_atom_site_label
_atom_site_fract_x
_atom_site_fract_y
_atom_site_fract_z
Si Si1 0.279317 0.616085 0.941647
Si Si2 0.558416 0.837080 0.079172
Si Si3 0.649414 0.878881 0.195913
Si Si4 0.837051 0.871332 0.479105
Si Si5 0.171929 0.249439 0.734692
Si Si6 0.009189 0.877482 0.336719
O O1 0.359659 0.500000 0.924442
O O2 0.417069 0.708367 0.924729
O O3 0.132474 0.632125 0.912582
O O4 0.176865 0.621997 0.013414
O O5 0.629091 0.874544 0.130693
O O6 0.776486 0.795015 0.209755
O O7 0.467809 0.841587 0.241455
O O8 0.691798 0.000000 0.208619
O O9 0.750000 0.750000 0.500000
O O10 0.897857 0.866882 0.406528
O O11 0.000000 0.871256 0.500000
O O12 0.764130 0.000000 0.495356
O O13 0.096642 0.153717 0.705974
O O14 0.333455 0.296874 0.683243
O O15 0.071806 0.000000 0.325655
#
# Coordination Sequence:
#
# PCOD9195945 Si02
#       6
#     8   8   8   8   8   8
#     4  10  20  37  55  76 106 137 170 214 270 323
#     4  10  20  35  56  79 104 136 175 216 265 326
#     4  11  21  36  55  78 107 138 177 225 269 312
#     4  10  21  37  59  88 118 149 187 230 276 327
#     4  10  22  36  55  81 106 142 187 219 263 324
#     4  10  20  38  58  79 113 148 180 224 270 316
#
# _framework density 20.820920999999998
#
# number of rings (size 3 to 8) (size 9 to 14) (size 15 to 20)
#    0.000    1.833    0.000    5.000    0.000    0.333 
#    0.000   18.333    0.000    0.000    0.000    0.000 
#    0.000    0.000    0.000    0.000    0.000    0.000 
#
# Total GULP energy -133865.893393 kJ/mol
# GULP energy per Si atom -5577.745558 kJ/mol
# Density = 2.077353 g / cm^3
# Si number density = 20.820921 Si / 1000 Ang^3
#
#
#
# Elastic Constant Matrix: (Units=GPa)
#
#
# Indices 1 2 3 4 5 6 
#
# 1 26.8389 2.5860 4.4634 0.0000 6.2676 0.0000
# 2 2.5860 145.1053 -2.2634 0.0000 -10.0155 0.0000
# 3 4.4634 -2.2634 59.4674 0.0000 15.3557 0.0000
# 4 0.0000 0.0000 0.0000 -14.4122 0.0000 19.0713
# 5 6.2676 -10.0155 15.3557 0.0000 23.1203 0.0000
# 6 0.0000 0.0000 0.0000 19.0713 0.0000 32.2389
#
#
#
# Elastic Compliance Matrix: (Units=1/GPa)
#
#
# Indices 1 2 3 4 5 6 
#
# 1 0.040096 -0.001507 -0.000111 0.000000 -0.011449 0.000000
# 2 -0.001507 0.007180 -0.000630 0.000000 0.003938 0.000000
# 3 -0.000111 -0.000630 0.020354 0.000000 -0.013761 0.000000
# 4 0.000000 0.000000 0.000000 -0.038920 0.000000 0.023023
# 5 -0.011449 0.003938 -0.013761 0.000000 0.057201 0.000000
# 6 0.000000 0.000000 0.000000 0.023023 0.000000 0.017399
#
#
# Mechanical properties :
#
#
# Convention : Reuss Voigt Hill
#
# Bulk Modulus (GPa) = 15.83892 26.77596 21.30744
# Shear Modulus (GPa) = 38.80460 23.29777 31.05118
#
# Velocity S-wave (km/s) = 4.32178 3.34871 3.86598
# Velocity P-wave (km/s) = 5.70328 5.27635 5.49397
#
# Compressibility (1/GPa) = 0.06313562
#
# Stress axis : x y z
#
# Youngs Moduli (GPa) = 24.93987 139.26922 49.13117
#
# Poissons Ratio (x) = 0.20981 0.00543
# Poissons Ratio (y) = 0.03757 0.03097
# Poissons Ratio (z) = 0.00276 0.08779
#
# Static dielectric constant tensor:
#      x y z
#    x 1.952350 0.000000 0.252040 
#    y 0.000000 1.781300 0.000000 
#    z 0.252040 0.000000 1.996750 
# 
# From -- ./inp_files/332213.got.cif
#   From: 2010.05.17/outbox.cif.g08.bks.cpg/sg12_167_cif.got.tgz:332213.got - 2010.06.03 13:09:07.
