data_PCOD9195091
_publ_section_title
;
Structure prediction by ZEFSAII (Michael W. Deem and Ramdas Pophale) SiO2 
 PCOD9195091
Probable space group: C 2/M
;
_chemical_formula_sum "Si O2"
_cell_formula_units_Z 56
_cell_length_a 9.455542
_cell_length_b 23.021842
_cell_length_c 15.530701
_cell_angle_alpha 90.000000
_cell_angle_beta 61.944769
_cell_angle_gamma 90.000000
_cell_volume 2983.524626
_symmetry_space_group_name_H-M "C 2/M"
_symmetry_group_IT_number 12
_symmetry_cell_setting 'monoclinic'
loop_
_space_group_symop_operation_xyz
x,y,z
-x,y,-z
-x,-y,-z
x,-y,z
1/2+x,1/2+y,z
1/2-x,1/2+y,-z
1/2-x,1/2-y,-z
1/2+x,1/2-y,z
loop_
_atom_site_type_symbol
_atom_site_label
_atom_site_fract_x
_atom_site_fract_y
_atom_site_fract_z
Si Si1 0.362844 0.112660 0.246615
Si Si2 0.945853 0.881311 0.112359
Si Si3 0.898138 0.822672 0.789519
Si Si4 0.661188 0.500000 0.895210
Si Si5 0.751071 0.799340 0.381512
Si Si6 0.994948 0.500000 0.108231
Si Si7 0.646809 0.808014 0.224535
Si Si8 0.696352 0.334989 0.446489
O O1 0.243224 0.153401 0.227748
O O2 0.526416 0.146572 0.218045
O O3 0.272561 0.114027 0.365870
O O4 0.406156 0.055553 0.178459
O O5 0.825050 0.828681 0.156424
O O6 0.090045 0.865914 0.133599
O O7 0.854637 0.941663 0.156480
O O8 0.000000 0.883511 0.000000
O O9 0.873193 0.754743 0.811639
O O10 0.071994 0.821901 0.694557
O O11 0.821111 0.500000 0.907679
O O12 0.500000 0.500000 0.000000
O O13 0.635464 0.808057 0.332335
O O14 0.744348 0.729493 0.397028
O O15 0.728787 0.831515 0.478880
O O16 0.000000 0.500000 0.000000
O O17 0.500000 0.337853 0.500000
#
# Coordination Sequence:
#
# PCOD9195091 Si02
#       8
#     8   8   8   4   8   4   8   8
#     4  12  24  40  66  97 137 169 222 288 317 391
#     4  10  23  39  63  86 119 168 218 276 329 391
#     4  11  21  38  61  96 135 172 211 263 337 394
#     4  10  22  46  70  88 108 155 226 276 314 392
#     4  10  20  34  61  96 135 180 214 248 318 413
#     4  12  30  50  71  97 121 177 234 282 343 383
#     4  11  20  39  60  95 138 167 213 265 330 403
#     4  11  20  35  63 100 138 180 220 261 321 392
#
# _framework density 18.769746000000001
#
# number of rings (size 3 to 8) (size 9 to 14) (size 15 to 20)
#    0.000    1.143    5.714    0.857    6.000    0.571 
#    0.000    1.786    0.000    2.571    0.000    0.000 
#    0.000    0.000    0.000    0.000    0.000    0.000 
#
# Total GULP energy -155922.339473 kJ/mol
# GULP energy per Si atom -5568.654981 kJ/mol
# Density = 1.872702 g / cm^3
# Si number density = 18.769746 Si / 1000 Ang^3
#
#
#
# Elastic Constant Matrix: (Units=GPa)
#
#
# Indices 1 2 3 4 5 6 
#
# 1 71.5210 15.8112 12.7268 0.0000 17.0976 0.0000
# 2 15.8112 83.6154 42.9657 0.0000 22.4037 0.0000
# 3 12.7268 42.9657 75.7006 0.0000 13.0941 0.0000
# 4 0.0000 0.0000 0.0000 26.8004 0.0000 -6.3445
# 5 17.0976 22.4037 13.0941 0.0000 31.7250 0.0000
# 6 0.0000 0.0000 0.0000 -6.3445 0.0000 -7.2670
#
#
#
# Elastic Compliance Matrix: (Units=1/GPa)
#
#
# Indices 1 2 3 4 5 6 
#
# 1 0.016174 -0.000319 -0.001152 0.000000 -0.008016 0.000000
# 2 -0.000319 0.019378 -0.009270 0.000000 -0.009687 0.000000
# 3 -0.001152 -0.009270 0.018765 0.000000 -0.000578 0.000000
# 4 0.000000 0.000000 0.000000 0.030922 0.000000 -0.026996
# 5 -0.008016 -0.009687 -0.000578 0.000000 0.042921 0.000000
# 6 0.000000 0.000000 0.000000 -0.026996 0.000000 -0.114039
#
#
# Mechanical properties :
#
#
# Convention : Reuss Voigt Hill
#
# Bulk Modulus (GPa) = 30.45352 41.53827 35.99589
# Shear Modulus (GPa) = 107.42090 20.87389 64.14740
#
# Velocity S-wave (km/s) = 7.57332 3.33844 5.85236
# Velocity P-wave (km/s) = 9.62982 6.08594 8.05519
#
# Compressibility (1/GPa) = 0.03283693
#
# Stress axis : x y z
#
# Youngs Moduli (GPa) = 61.82919 51.60365 53.29151
#
# Poissons Ratio (x) = 0.01645 0.06137
# Poissons Ratio (y) = 0.01971 0.49399
# Poissons Ratio (z) = 0.07120 0.47834
#
# Static dielectric constant tensor:
#      x y z
#    x 1.680410 0.000000 0.022290 
#    y 0.000000 1.681740 0.000000 
#    z 0.022290 0.000000 1.716240 
# 
# From -- ./inp_files/198817.got.cif
#   From: 2010.05.17/outbox.cif.g08.bks.cpg/sg12_100_cif.got.tgz:198817.got - 2010.06.03 13:09:07.
