data_PCOD9195634
_publ_section_title
;
Structure prediction by ZEFSAII (Michael W. Deem and Ramdas Pophale) SiO2 
 PCOD9195634
Probable space group: C 2/M
;
_chemical_formula_sum "Si O2"
_cell_formula_units_Z 48
_cell_length_a 20.051000
_cell_length_b 8.939649
_cell_length_c 21.511501
_cell_angle_alpha 90.000000
_cell_angle_beta 134.180639
_cell_angle_gamma 90.000000
_cell_volume 2765.253110
_symmetry_space_group_name_H-M "C 2/M"
_symmetry_group_IT_number 12
_symmetry_cell_setting 'monoclinic'
loop_
_space_group_symop_operation_xyz
x,y,z
-x,y,-z
-x,-y,-z
x,-y,z
1/2+x,1/2+y,z
1/2-x,1/2+y,-z
1/2-x,1/2-y,-z
1/2+x,1/2-y,z
loop_
_atom_site_type_symbol
_atom_site_label
_atom_site_fract_x
_atom_site_fract_y
_atom_site_fract_z
Si Si1 0.245019 0.677897 0.763840
Si Si2 0.601199 0.178551 0.898336
Si Si3 0.753554 0.821554 0.100430
Si Si4 0.607082 0.320783 0.578703
Si Si5 0.740269 0.178760 0.426079
Si Si6 0.100738 0.821516 0.239752
O O1 0.237666 0.500000 0.767478
O O2 0.254050 0.757799 0.835584
O O3 0.156629 0.738874 0.668130
O O4 0.333956 0.708986 0.777590
O O5 0.661306 0.245088 0.880743
O O6 0.500651 0.253018 0.834937
O O7 0.593058 0.000000 0.886500
O O8 0.661584 0.210242 0.999572
O O9 0.767016 0.000000 0.110280
O O10 0.500000 0.277513 0.500000
O O11 0.610818 0.500000 0.591769
O O12 0.669180 0.289003 0.557926
O O13 0.750000 0.250000 0.500000
O O14 0.653435 0.247929 0.332394
O O15 0.730412 0.000000 0.424150
O O16 0.095548 0.000000 0.244830
#
# Coordination Sequence:
#
# PCOD9195634 Si02
#       6
#     8   8   8   8   8   8
#     4  10  21  36  55  80 110 143 180 222 266 316
#     4  10  21  37  57  81 108 140 180 224 269 319
#     4  10  21  37  57  80 109 143 178 220 269 322
#     4   9  19  36  56  77 103 138 179 221 266 315
#     4  10  20  35  55  78 107 141 178 223 271 321
#     4  10  21  37  56  79 109 144 181 223 271 320
#
# _framework density 17.358267000000001
#
# number of rings (size 3 to 8) (size 9 to 14) (size 15 to 20)
#    0.000    2.167    0.000    2.500    0.000    7.000 
#    0.000    8.333    0.000    0.000    0.000    0.000 
#    0.000    0.000    0.000    0.000    0.000    0.000 
#
# Total GULP energy -134016.333177 kJ/mol
# GULP energy per Si atom -5584.013882 kJ/mol
# Density = 1.731876 g / cm^3
# Si number density = 17.358267 Si / 1000 Ang^3
#
#
#
# Elastic Constant Matrix: (Units=GPa)
#
#
# Indices 1 2 3 4 5 6 
#
# 1 101.1494 72.2412 113.4436 0.0000 0.6650 0.0000
# 2 72.2412 82.2287 85.8195 0.0000 -2.7218 0.0000
# 3 113.4436 85.8195 152.0992 0.0000 1.4078 0.0000
# 4 0.0000 0.0000 0.0000 34.5002 0.0000 -2.3426
# 5 0.6650 -2.7218 1.4078 0.0000 44.1645 0.0000
# 6 0.0000 0.0000 0.0000 -2.3426 0.0000 32.6880
#
#
#
# Elastic Compliance Matrix: (Units=1/GPa)
#
#
# Indices 1 2 3 4 5 6 
#
# 1 0.068836 -0.016840 -0.041833 0.000000 -0.000741 0.000000
# 2 -0.016840 0.033947 -0.006618 0.000000 0.002557 0.000000
# 3 -0.041833 -0.006618 0.041520 0.000000 -0.001101 0.000000
# 4 0.000000 0.000000 0.000000 0.029127 0.000000 0.002087
# 5 -0.000741 0.002557 -0.001101 0.000000 0.022846 0.000000
# 6 0.000000 0.000000 0.000000 0.002087 0.000000 0.030742
#
#
# Mechanical properties :
#
#
# Convention : Reuss Voigt Hill
#
# Bulk Modulus (GPa) = 72.87620 97.60955 85.24288
# Shear Modulus (GPa) = 13.80557 26.53542 20.17050
#
# Velocity S-wave (km/s) = 2.82322 3.91409 3.41253
# Velocity P-wave (km/s) = 7.25962 8.76249 8.04622
#
# Compressibility (1/GPa) = 0.01372190
#
# Stress axis : x y z
#
# Youngs Moduli (GPa) = 14.52732 29.45782 24.08479
#
# Poissons Ratio (x) = 0.49606 1.00754
# Poissons Ratio (y) = 0.24464 0.15938
# Poissons Ratio (z) = 0.60772 0.19494
#
# Static dielectric constant tensor:
#      x y z
#    x 1.566240 0.000000 0.003520 
#    y 0.000000 1.574540 0.000000 
#    z 0.003520 0.000000 1.556930 
# 
# From -- ./inp_files/248782.got.cif
#   From: 2010.05.17/outbox.cif.g08.bks.cpg/sg12_125_cif.got.tgz:248782.got - 2010.06.03 13:09:07.
