data_PCOD9195303
_publ_section_title
;
Structure prediction by ZEFSAII (Michael W. Deem and Ramdas Pophale) SiO2 
 PCOD9195303
Probable space group: C 2/M
;
_chemical_formula_sum "Si O2"
_cell_formula_units_Z 56
_cell_length_a 16.636916
_cell_length_b 12.732949
_cell_length_c 16.585952
_cell_angle_alpha 90.000000
_cell_angle_beta 62.736695
_cell_angle_gamma 90.000000
_cell_volume 3123.204390
_symmetry_space_group_name_H-M "C 2/M"
_symmetry_group_IT_number 12
_symmetry_cell_setting 'monoclinic'
loop_
_space_group_symop_operation_xyz
x,y,z
-x,y,-z
-x,-y,-z
x,-y,z
1/2+x,1/2+y,z
1/2-x,1/2+y,-z
1/2-x,1/2-y,-z
1/2+x,1/2-y,z
loop_
_atom_site_type_symbol
_atom_site_label
_atom_site_fract_x
_atom_site_fract_y
_atom_site_fract_z
Si Si1 0.784244 0.261421 0.149300
Si Si2 0.928956 0.810223 0.966121
Si Si3 0.901123 0.879408 0.800984
Si Si4 0.569427 0.246652 0.678896
Si Si5 0.093383 0.376734 0.504742
Si Si6 0.731194 0.624666 0.685444
Si Si7 0.046594 0.377374 0.850295
O O1 0.694845 0.323163 0.166258
O O2 0.763545 0.179048 0.229848
O O3 0.860921 0.339962 0.149187
O O4 0.832507 0.202950 0.052688
O O5 0.926432 0.872973 0.884259
O O6 0.967985 0.695420 0.923610
O O7 0.000000 0.852524 0.000000
O O8 0.977718 0.814327 0.718746
O O9 0.897813 0.000000 0.776593
O O10 0.594772 0.195535 0.582671
O O11 0.648031 0.321787 0.676811
O O12 0.554900 0.156419 0.753048
O O13 0.097284 0.500000 0.526541
O O14 0.177539 0.356389 0.407031
O O15 0.000000 0.360175 0.500000
O O16 0.717350 0.500000 0.699396
O O17 0.030663 0.500000 0.867815
#
# Coordination Sequence:
#
# PCOD9195303 Si02
#       7
#     8   8   8   8   8   8   8
#     4  10  20  35  53  78 108 135 173 219 261 307
#     4   9  20  35  52  76 104 138 180 219 255 304
#     4  11  22  35  53  77 107 141 173 211 262 313
#     4  10  20  35  54  78 109 139 173 214 255 311
#     4  10  20  35  57  82 106 136 174 217 264 306
#     4  10  21  37  58  80 104 138 174 211 260 315
#     4   9  18  33  54  77 102 137 178 219 261 303
#
# _framework density 17.930302999999999
#
# number of rings (size 3 to 8) (size 9 to 14) (size 15 to 20)
#    0.000    2.143    0.000    3.857    0.000    4.000 
#    0.000    2.857    0.000   10.286    0.000    0.000 
#    0.000    0.000    0.000    0.000    0.000    0.000 
#
# Total GULP energy -156345.128043 kJ/mol
# GULP energy per Si atom -5583.754573 kJ/mol
# Density = 1.788949 g / cm^3
# Si number density = 17.930303 Si / 1000 Ang^3
#
#
#
# Elastic Constant Matrix: (Units=GPa)
#
#
# Indices 1 2 3 4 5 6 
#
# 1 60.6331 23.8872 25.9143 0.0000 -15.0485 0.0000
# 2 23.8872 68.5080 43.6439 0.0000 2.2107 0.0000
# 3 25.9143 43.6439 106.2522 0.0000 -5.2398 0.0000
# 4 0.0000 0.0000 0.0000 7.7905 0.0000 -2.3299
# 5 -15.0485 2.2107 -5.2398 0.0000 26.3606 0.0000
# 6 0.0000 0.0000 0.0000 -2.3299 0.0000 5.8846
#
#
#
# Elastic Compliance Matrix: (Units=1/GPa)
#
#
# Indices 1 2 3 4 5 6 
#
# 1 0.023696 -0.007389 -0.002067 0.000000 0.013736 0.000000
# 2 -0.007389 0.022363 -0.007760 0.000000 -0.007636 0.000000
# 3 -0.002067 -0.007760 0.013207 0.000000 0.002096 0.000000
# 4 0.000000 0.000000 0.000000 0.145602 0.000000 0.057648
# 5 0.013736 -0.007636 0.002096 0.000000 0.046834 0.000000
# 6 0.000000 0.000000 0.000000 0.057648 0.000000 0.192760
#
#
# Mechanical properties :
#
#
# Convention : Reuss Voigt Hill
#
# Bulk Modulus (GPa) = 40.26750 46.92046 43.59398
# Shear Modulus (GPa) = 10.26331 17.47032 13.86681
#
# Velocity S-wave (km/s) = 2.39508 3.12484 2.78398
# Velocity P-wave (km/s) = 5.49137 6.26455 5.89066
#
# Compressibility (1/GPa) = 0.02483393
#
# Stress axis : x y z
#
# Youngs Moduli (GPa) = 42.20092 44.71580 75.71902
#
# Poissons Ratio (x) = 0.33040 0.15651
# Poissons Ratio (y) = 0.31181 0.58761
# Poissons Ratio (z) = 0.08723 0.34701
#
# Static dielectric constant tensor:
#      x y z
#    x 1.603700 0.000000 0.003410 
#    y 0.000000 1.580830 0.000000 
#    z 0.003410 0.000000 1.602330 
# 
# From -- ./inp_files/223741.got.cif
#   From: 2010.05.17/outbox.cif.g08.bks.cpg/sg12_112_cif.got.tgz:223741.got - 2010.06.03 13:09:07.
