data_PCOD9195469
_publ_section_title
;
Structure prediction by ZEFSAII (Michael W. Deem and Ramdas Pophale) SiO2 
 PCOD9195469
Probable space group: C 2/M
;
_chemical_formula_sum "Si O2"
_cell_formula_units_Z 56
_cell_length_a 20.418805
_cell_length_b 9.880717
_cell_length_c 14.731167
_cell_angle_alpha 90.000000
_cell_angle_beta 91.210164
_cell_angle_gamma 90.000000
_cell_volume 2971.385886
_symmetry_space_group_name_H-M "C 2/M"
_symmetry_group_IT_number 12
_symmetry_cell_setting 'monoclinic'
loop_
_space_group_symop_operation_xyz
x,y,z
-x,y,-z
-x,-y,-z
x,-y,z
1/2+x,1/2+y,z
1/2-x,1/2+y,-z
1/2-x,1/2-y,-z
1/2+x,1/2-y,z
loop_
_atom_site_type_symbol
_atom_site_label
_atom_site_fract_x
_atom_site_fract_y
_atom_site_fract_z
Si Si1 0.862676 0.352227 0.329864
Si Si2 0.683032 0.661982 0.156061
Si Si3 0.326019 0.841682 0.117971
Si Si4 0.692126 0.653522 0.527175
Si Si5 0.510082 0.152593 0.396047
Si Si6 0.422009 0.337687 0.998983
Si Si7 0.382175 0.345395 0.665039
O O1 0.836810 0.500000 0.363042
O O2 0.843067 0.341715 0.225142
O O3 0.838886 0.226556 0.387582
O O4 0.940251 0.354709 0.346222
O O5 0.692778 0.500000 0.157735
O O6 0.750656 0.712649 0.112829
O O7 0.669650 0.701986 0.260110
O O8 0.617394 0.688928 0.096330
O O9 0.379208 0.749662 0.068507
O O10 0.328964 0.000000 0.086654
O O11 0.711642 0.500000 0.547602
O O12 0.750000 0.750000 0.500000
O O13 0.646026 0.652448 0.437333
O O14 0.500000 0.200988 0.500000
O O15 0.556558 0.247482 0.339546
O O16 0.537901 0.000000 0.404363
O O17 0.417103 0.500000 0.016912
O O18 0.500000 0.304572 0.000000
O O19 0.400645 0.500000 0.689717
#
# Coordination Sequence:
#
# PCOD9195469 Si02
#       7
#     8   8   8   8   8   8   8
#     4  10  21  37  56  80 113 151 189 232 285 340
#     4   9  19  38  60  83 113 150 187 233 290 339
#     4  10  21  39  63  85 112 150 192 236 283 340
#     4  11  22  35  54  81 112 149 192 236 280 333
#     4  10  20  35  54  78 113 152 187 233 291 335
#     4  10  22  39  60  87 117 147 183 232 291 347
#     4  10  21  36  57  82 110 148 194 232 276 341
#
# _framework density 18.846425
#
# number of rings (size 3 to 8) (size 9 to 14) (size 15 to 20)
#    0.000    2.000    1.429    1.714    2.000    4.571 
#    0.000    1.429    0.000    0.000    0.000    0.000 
#    0.000    0.000    0.000    0.000    0.000    0.000 
#
# Total GULP energy -156076.893379 kJ/mol
# GULP energy per Si atom -5574.174764 kJ/mol
# Density = 1.880353 g / cm^3
# Si number density = 18.846425 Si / 1000 Ang^3
#
#
#
# Elastic Constant Matrix: (Units=GPa)
#
#
# Indices 1 2 3 4 5 6 
#
# 1 86.5842 38.7269 13.9495 0.0000 -16.0721 0.0000
# 2 38.7269 94.4676 26.4458 0.0000 -24.2524 0.0000
# 3 13.9495 26.4458 59.7651 0.0000 -12.1657 0.0000
# 4 0.0000 0.0000 0.0000 37.4709 0.0000 5.7496
# 5 -16.0721 -24.2524 -12.1657 0.0000 34.0058 0.0000
# 6 0.0000 0.0000 0.0000 5.7496 0.0000 54.8264
#
#
#
# Elastic Compliance Matrix: (Units=1/GPa)
#
#
# Indices 1 2 3 4 5 6 
#
# 1 0.014433 -0.004975 -0.000540 0.000000 0.003080 0.000000
# 2 -0.004975 0.015706 -0.004300 0.000000 0.007312 0.000000
# 3 -0.000540 -0.004300 0.019505 0.000000 0.003656 0.000000
# 4 0.000000 0.000000 0.000000 0.027124 0.000000 -0.002844
# 5 0.003080 0.007312 0.003656 0.000000 0.037385 0.000000
# 6 0.000000 0.000000 0.000000 -0.002844 0.000000 0.018538
#
#
# Mechanical properties :
#
#
# Convention : Reuss Voigt Hill
#
# Bulk Modulus (GPa) = 33.31839 44.34015 38.82927
# Shear Modulus (GPa) = 30.80198 36.04025 33.42111
#
# Velocity S-wave (km/s) = 4.04712 4.37774 4.21567
# Velocity P-wave (km/s) = 6.28937 7.00935 6.65910
#
# Compressibility (1/GPa) = 0.03001345
#
# Stress axis : x y z
#
# Youngs Moduli (GPa) = 69.28359 63.66977 51.26794
#
# Poissons Ratio (x) = 0.31675 0.02771
# Poissons Ratio (y) = 0.34468 0.22047
# Poissons Ratio (z) = 0.03744 0.27380
#
# Static dielectric constant tensor:
#      x y z
#    x 1.682630 0.000000 0.020990 
#    y 0.000000 1.656270 0.000000 
#    z 0.020990 0.000000 1.774970 
# 
# From -- ./inp_files/230917.got.cif
#   From: 2010.05.17/outbox.cif.g08.bks.cpg/sg12_116_cif.got.tgz:230917.got - 2010.06.03 13:09:07.
