data_PCOD9195477
_publ_section_title
;
Structure prediction by ZEFSAII (Michael W. Deem and Ramdas Pophale) SiO2 
 PCOD9195477
Probable space group: C 2/M
;
_chemical_formula_sum "Si O2"
_cell_formula_units_Z 56
_cell_length_a 23.612693
_cell_length_b 7.567071
_cell_length_c 32.420807
_cell_angle_alpha 90.000000
_cell_angle_beta 154.126862
_cell_angle_gamma 90.000000
_cell_volume 2527.912217
_symmetry_space_group_name_H-M "C 2/M"
_symmetry_group_IT_number 12
_symmetry_cell_setting 'monoclinic'
loop_
_space_group_symop_operation_xyz
x,y,z
-x,y,-z
-x,-y,-z
x,-y,z
1/2+x,1/2+y,z
1/2-x,1/2+y,-z
1/2-x,1/2-y,-z
1/2+x,1/2-y,z
loop_
_atom_site_type_symbol
_atom_site_label
_atom_site_fract_x
_atom_site_fract_y
_atom_site_fract_z
Si Si1 0.780946 0.295115 0.452262
Si Si2 0.625324 0.204317 0.203920
Si Si3 0.947209 0.214308 0.636481
Si Si4 0.855798 0.207479 0.409526
Si Si5 0.893285 0.789448 0.111339
Si Si6 0.465397 0.783407 0.023493
Si Si7 0.829404 0.784469 0.159628
O O1 0.751766 0.500000 0.425973
O O2 0.904783 0.277415 0.563646
O O3 0.661948 0.223602 0.402007
O O4 0.805778 0.217304 0.423724
O O5 0.749081 0.284162 0.308235
O O6 0.504867 0.207146 0.156708
O O7 0.568560 0.282407 0.124604
O O8 0.656590 0.000000 0.215043
O O9 0.085631 0.269309 0.745382
O O10 0.942793 0.000000 0.632352
O O11 0.000000 0.285003 0.500000
O O12 0.866308 0.000000 0.406167
O O13 0.896476 0.729591 0.160885
O O14 0.912611 0.000000 0.123008
O O15 0.750000 0.750000 0.000000
O O16 0.465035 0.000000 0.025095
O O17 0.500000 0.732268 0.000000
O O18 0.319198 0.725628 0.937787
O O19 0.827862 0.000000 0.158466
#
# Coordination Sequence:
#
# PCOD9195477 Si02
#       7
#     8   8   8   8   8   8   8
#     4  10  20  35  54  79 109 142 180 229 284 334
#     4  10  20  36  56  82 112 142 183 234 280 327
#     4   9  18  33  55  79 106 141 180 226 277 333
#     4  10  22  38  57  81 110 148 192 236 280 332
#     4  11  20  33  55  83 114 147 183 225 276 331
#     4   9  17  30  50  76 105 138 177 221 265 315
#     4   9  17  30  50  77 106 137 179 221 264 322
#
# _framework density 22.152668999999999
#
# number of rings (size 3 to 8) (size 9 to 14) (size 15 to 20)
#    0.000    2.286    1.429    1.714    0.000    3.714 
#    0.000    5.714    0.000    0.429    0.000    0.000 
#    0.000    0.000    0.000    0.000    0.000    0.000 
#
# Total GULP energy -156398.305865 kJ/mol
# GULP energy per Si atom -5585.653781 kJ/mol
# Density = 2.210225 g / cm^3
# Si number density = 22.152669 Si / 1000 Ang^3
#
#
#
# Elastic Constant Matrix: (Units=GPa)
#
#
# Indices 1 2 3 4 5 6 
#
# 1 96.6980 -4.7459 62.8416 -0.0004 -22.5139 -0.0001
# 2 -4.7459 53.1920 -0.7166 -0.0022 1.8016 0.0002
# 3 62.8416 -0.7166 191.4552 0.0007 -28.4912 0.0001
# 4 -0.0004 -0.0022 0.0007 4.2491 0.0005 0.1158
# 5 -22.5139 1.8016 -28.4912 0.0005 26.5839 -0.0003
# 6 -0.0001 0.0002 0.0001 0.1158 -0.0003 17.0300
#
#
#
# Elastic Compliance Matrix: (Units=1/GPa)
#
#
# Indices 1 2 3 4 5 6 
#
# 1 0.014687 0.000972 -0.003541 0.000001 0.008578 0.000000
# 2 0.000972 0.018911 -0.000377 0.000010 -0.000862 0.000000
# 3 -0.003541 -0.000377 0.007069 -0.000002 0.004603 0.000000
# 4 0.000001 0.000010 -0.000002 0.235386 -0.000006 -0.001601
# 5 0.008578 -0.000862 0.004603 -0.000006 0.049873 0.000001
# 6 0.000000 0.000000 0.000000 -0.001601 0.000001 0.058731
#
#
# Mechanical properties :
#
#
# Convention : Reuss Voigt Hill
#
# Bulk Modulus (GPa) = 28.75476 50.67816 39.71646
# Shear Modulus (GPa) = 12.43349 28.50368 20.46859
#
# Velocity S-wave (km/s) = 2.37167 3.59094 3.04300
# Velocity P-wave (km/s) = 4.52860 6.33400 5.50581
#
# Compressibility (1/GPa) = 0.03477685
#
# Stress axis : x y z
#
# Youngs Moduli (GPa) = 68.08546 52.88020 141.46485
#
# Poissons Ratio (x) = -0.05141 0.50088
# Poissons Ratio (y) = -0.06619 0.05327
# Poissons Ratio (z) = 0.24107 0.01991
#
# Static dielectric constant tensor:
#      x y z
#    x 1.766840 0.000000 -0.004360 
#    y 0.000000 1.828750 0.000000 
#    z -0.004360 0.000000 1.831830 
# 
# From -- ./inp_files/237476.got.cif
#   From: 2010.05.17/outbox.cif.g08.bks.cpg/sg12_119_cif.got.tgz:237476.got - 2010.06.03 13:09:07.
