data_PCOD9195613
_publ_section_title
;
Structure prediction by ZEFSAII (Michael W. Deem and Ramdas Pophale) SiO2 
 PCOD9195613
Probable space group: C 2/M
;
_chemical_formula_sum "Si O2"
_cell_formula_units_Z 56
_cell_length_a 20.064016
_cell_length_b 8.459405
_cell_length_c 28.819820
_cell_angle_alpha 90.000000
_cell_angle_beta 143.791093
_cell_angle_gamma 90.000000
_cell_volume 2889.607051
_symmetry_space_group_name_H-M "C 2/M"
_symmetry_group_IT_number 12
_symmetry_cell_setting 'monoclinic'
loop_
_space_group_symop_operation_xyz
x,y,z
-x,y,-z
-x,-y,-z
x,-y,z
1/2+x,1/2+y,z
1/2-x,1/2+y,-z
1/2-x,1/2-y,-z
1/2+x,1/2-y,z
loop_
_atom_site_type_symbol
_atom_site_label
_atom_site_fract_x
_atom_site_fract_y
_atom_site_fract_z
Si Si1 0.817058 0.809166 0.421612
Si Si2 0.098342 0.310151 0.360503
Si Si3 0.971500 0.191571 0.851765
Si Si4 0.279852 0.812225 0.297100
Si Si5 0.577682 0.191463 0.814520
Si Si6 0.014753 0.187520 0.407685
Si Si7 0.197028 0.809207 0.018650
O O1 0.710394 0.772270 0.394521
O O2 0.798641 0.734711 0.361259
O O3 0.927224 0.755455 0.511934
O O4 0.822191 0.000000 0.418435
O O5 0.094087 0.500000 0.363010
O O6 0.090169 0.236356 0.406440
O O7 0.991955 0.257125 0.269455
O O8 0.843777 0.248025 0.787491
O O9 0.014810 0.247804 0.825563
O O10 0.970149 0.000000 0.850375
O O11 0.066624 0.242706 0.942607
O O12 0.388363 0.749414 0.331094
O O13 0.278882 0.000000 0.292277
O O14 0.709251 0.241242 0.891157
O O15 0.573349 0.000000 0.813428
O O16 0.011455 0.000000 0.408871
O O17 0.196260 0.000000 0.018577
O O18 0.250000 0.750000 0.000000
#
# Coordination Sequence:
#
# PCOD9195613 Si02
#       7
#     8   8   8   8   8   8   8
#     4  10  21  38  57  77 102 132 170 216 262 306
#     4  10  20  35  55  78 105 134 168 211 256 308
#     4   9  17  29  47  74 105 133 165 206 248 295
#     4  11  22  35  54  78 105 138 173 212 255 302
#     4   9  16  28  50  76 102 133 165 202 251 301
#     4  11  24  38  53  74 102 138 175 214 260 307
#     4   8  14  25  43  71 103 130 160 200 246 295
#
# _framework density 19.379798000000001
#
# number of rings (size 3 to 8) (size 9 to 14) (size 15 to 20)
#    0.000    2.286    1.429    1.714    0.000    4.571 
#    0.000    0.000    0.000    0.857    0.000    6.000 
#    0.000    0.000    0.000    0.000    0.000    0.000 
#
# Total GULP energy -156137.162659 kJ/mol
# GULP energy per Si atom -5576.327238 kJ/mol
# Density = 1.933569 g / cm^3
# Si number density = 19.379798 Si / 1000 Ang^3
#
#
#
# Elastic Constant Matrix: (Units=GPa)
#
#
# Indices 1 2 3 4 5 6 
#
# 1 31.3818 8.0461 -6.4092 0.0000 11.3417 -0.0002
# 2 8.0461 7.1705 10.6326 0.0001 6.4297 -0.0004
# 3 -6.4092 10.6326 95.6466 0.0000 22.9260 0.0000
# 4 0.0000 0.0001 0.0000 17.2232 0.0000 1.7075
# 5 11.3417 6.4297 22.9260 0.0000 21.6722 0.0000
# 6 -0.0002 -0.0004 0.0000 1.7075 0.0000 24.1707
#
#
#
# Elastic Compliance Matrix: (Units=1/GPa)
#
#
# Indices 1 2 3 4 5 6 
#
# 1 0.069705 -0.078135 0.022164 0.000000 -0.036744 -0.000001
# 2 -0.078135 0.285318 -0.035454 -0.000001 -0.006253 0.000004
# 3 0.022164 -0.035454 0.021624 0.000000 -0.023955 0.000000
# 4 0.000000 -0.000001 0.000000 0.058471 0.000000 -0.004131
# 5 -0.036744 -0.006253 -0.023955 0.000000 0.092567 0.000000
# 6 -0.000001 0.000004 0.000000 -0.004131 0.000000 0.041664
#
#
# Mechanical properties :
#
#
# Convention : Reuss Voigt Hill
#
# Bulk Modulus (GPa) = 5.16009 17.63754 11.39881
# Shear Modulus (GPa) = 6.12147 20.74182 13.43165
#
# Velocity S-wave (km/s) = 1.77920 3.27506 2.63549
# Velocity P-wave (km/s) = 2.62471 4.83964 3.89302
#
# Compressibility (1/GPa) = 0.19379524
#
# Stress axis : x y z
#
# Youngs Moduli (GPa) = 14.34613 3.50487 46.24596
#
# Poissons Ratio (x) = 0.27385 -1.02500
# Poissons Ratio (y) = 1.12094 1.63962
# Poissons Ratio (z) = -0.31797 0.12426
#
# Static dielectric constant tensor:
#      x y z
#    x 1.636600 0.000000 0.037900 
#    y 0.000000 1.703510 0.000000 
#    z 0.037900 0.000000 1.748220 
# 
# From -- ./inp_files/280160.got.cif
#   From: 2010.05.17/outbox.cif.g08.bks.cpg/sg12_141_cif.got.tgz:280160.got - 2010.06.03 13:09:07.
