data_PCOD9195997
_publ_section_title
;
Structure prediction by ZEFSAII (Michael W. Deem and Ramdas Pophale) SiO2 
 PCOD9195997
Probable space group: C 2/M
;
_chemical_formula_sum "Si O2"
_cell_formula_units_Z 48
_cell_length_a 29.600581
_cell_length_b 7.802818
_cell_length_c 15.321799
_cell_angle_alpha 90.000000
_cell_angle_beta 148.605819
_cell_angle_gamma 90.000000
_cell_volume 1843.465261
_symmetry_space_group_name_H-M "C 2/M"
_symmetry_group_IT_number 12
_symmetry_cell_setting 'monoclinic'
loop_
_space_group_symop_operation_xyz
x,y,z
-x,y,-z
-x,-y,-z
x,-y,z
1/2+x,1/2+y,z
1/2-x,1/2+y,-z
1/2-x,1/2-y,-z
1/2+x,1/2-y,z
loop_
_atom_site_type_symbol
_atom_site_label
_atom_site_fract_x
_atom_site_fract_y
_atom_site_fract_z
Si Si1 0.226256 0.706679 0.646318
Si Si2 0.034759 0.704788 0.368866
Si Si3 0.735299 0.206031 0.103060
Si Si4 0.863189 0.196377 0.745382
Si Si5 0.022244 0.301856 0.906582
Si Si6 0.605797 0.303501 0.736785
O O1 0.223939 0.500000 0.635926
O O2 0.130666 0.775285 0.510466
O O3 0.279815 0.753535 0.821341
O O4 0.272922 0.768109 0.634944
O O5 0.039577 0.500000 0.367953
O O6 0.978352 0.764847 0.192816
O O7 0.985954 0.738241 0.378926
O O8 0.831665 0.273457 0.234579
O O9 0.731311 0.000000 0.084347
O O10 0.668540 0.285975 0.924930
O O11 0.921248 0.296378 0.771593
O O12 0.854415 0.000000 0.702728
O O13 0.923122 0.200602 0.932042
O O14 0.050863 0.500000 0.956926
O O15 0.593551 0.500000 0.693452
#
# Coordination Sequence:
#
# PCOD9195997 Si02
#       6
#     8   8   8   8   8   8
#     4  10  22  38  55  79 112 147 181 220 269 323
#     4  10  22  38  55  79 112 147 181 220 269 323
#     4  10  21  37  58  83 109 140 181 226 270 319
#     4  10  20  35  56  80 106 138 179 224 268 317
#     4  10  20  35  56  80 106 138 179 224 268 317
#     4  10  21  37  58  83 109 140 181 226 270 319
#
# _framework density 26.037918999999999
#
# number of rings (size 3 to 8) (size 9 to 14) (size 15 to 20)
#    0.000    2.000    0.000    4.000    0.000    9.333 
#    0.000    3.333    0.000    0.000    0.000    0.000 
#    0.000    0.000    0.000    0.000    0.000    0.000 
#
# Total GULP energy -134288.582764 kJ/mol
# GULP energy per Si atom -5595.357615 kJ/mol
# Density = 2.597866 g / cm^3
# Si number density = 26.037919 Si / 1000 Ang^3
#
#
#
# Elastic Constant Matrix: (Units=GPa)
#
#
# Indices 1 2 3 4 5 6 
#
# 1 161.8574 -5.4705 13.6350 0.0000 19.8178 0.0000
# 2 -5.4705 59.2623 -0.4499 0.0000 1.9745 0.0000
# 3 13.6350 -0.4499 77.2527 0.0000 22.5508 0.0000
# 4 0.0000 0.0000 0.0000 20.7776 0.0000 5.3619
# 5 19.8178 1.9745 22.5508 0.0000 54.6143 0.0000
# 6 0.0000 0.0000 0.0000 5.3619 0.0000 27.1289
#
#
#
# Elastic Compliance Matrix: (Units=1/GPa)
#
#
# Indices 1 2 3 4 5 6 
#
# 1 0.006510 0.000670 -0.000510 0.000000 -0.002176 0.000000
# 2 0.000670 0.016970 0.000262 0.000000 -0.000965 0.000000
# 3 -0.000510 0.000262 0.014764 0.000000 -0.005921 0.000000
# 4 0.000000 0.000000 0.000000 0.050716 0.000000 -0.010024
# 5 -0.002176 -0.000965 -0.005921 0.000000 0.021579 0.000000
# 6 0.000000 0.000000 0.000000 -0.010024 0.000000 0.038842
#
#
# Mechanical properties :
#
#
# Convention : Reuss Voigt Hill
#
# Bulk Modulus (GPa) = 25.58292 34.86685 30.22488
# Shear Modulus (GPa) = 30.94678 39.88134 35.41406
#
# Velocity S-wave (km/s) = 3.45124 3.91789 3.69195
# Velocity P-wave (km/s) = 5.07228 5.82120 5.45960
#
# Compressibility (1/GPa) = 0.03908859
#
# Stress axis : x y z
#
# Youngs Moduli (GPa) = 153.60277 58.92728 67.73045
#
# Poissons Ratio (x) = -0.03946 0.03454
# Poissons Ratio (y) = -0.10285 -0.01776
# Poissons Ratio (z) = 0.07833 -0.01545
#
# Static dielectric constant tensor:
#      x y z
#    x 2.036890 0.000000 0.067260 
#    y 0.000000 1.904340 0.000000 
#    z 0.067260 0.000000 2.181510 
# 
# From -- ./inp_files/170705.got.cif
#   From: 2010.05.17/outbox.cif.g08.bks.cpg/sg12_86_cif.got.tgz:170705.got - 2010.06.03 13:09:07.
