data_PCOD9195082
_publ_section_title
;
Structure prediction by ZEFSAII (Michael W. Deem and Ramdas Pophale) SiO2 
 PCOD9195082
Probable space group: C 2/M
;
_chemical_formula_sum "Si O2"
_cell_formula_units_Z 48
_cell_length_a 17.938626
_cell_length_b 18.772716
_cell_length_c 15.481756
_cell_angle_alpha 90.000000
_cell_angle_beta 150.447010
_cell_angle_gamma 90.000000
_cell_volume 2571.487924
_symmetry_space_group_name_H-M "C 2/M"
_symmetry_group_IT_number 12
_symmetry_cell_setting 'monoclinic'
loop_
_space_group_symop_operation_xyz
x,y,z
-x,y,-z
-x,-y,-z
x,-y,z
1/2+x,1/2+y,z
1/2-x,1/2+y,-z
1/2-x,1/2-y,-z
1/2+x,1/2-y,z
loop_
_atom_site_type_symbol
_atom_site_label
_atom_site_fract_x
_atom_site_fract_y
_atom_site_fract_z
Si Si1 0.674053 0.198071 0.156013
Si Si2 0.823988 0.869819 0.819596
Si Si3 0.651632 0.082578 0.813724
Si Si4 0.694168 0.322571 0.896082
Si Si5 0.175739 0.649449 0.494486
Si Si6 0.658882 0.318174 0.504831
O O1 0.687820 0.284558 0.173177
O O2 0.716415 0.173074 0.103469
O O3 0.783977 0.166782 0.340726
O O4 0.500000 0.181048 0.000000
O O5 0.722130 0.905959 0.790002
O O6 0.763935 0.885261 0.663229
O O7 0.000000 0.889398 0.000000
O O8 0.497382 0.126507 0.671597
O O9 0.621002 0.000000 0.797143
O O10 0.768286 0.114353 0.000437
O O11 0.518094 0.323784 0.693860
O O12 0.750000 0.250000 0.000000
O O13 0.247165 0.638192 0.472208
O O14 0.192088 0.734077 0.526238
#
# Coordination Sequence:
#
# PCOD9195082 Si02
#       6
#     8   8   8   8   8   8
#     4  10  20  34  61  93 123 150 197 257 313 349
#     4  10  20  35  57  88 122 162 201 244 296 366
#     4  12  25  39  56  85 126 168 203 244 305 368
#     4  12  21  37  62  88 119 159 200 255 298 355
#     4  10  20  35  58  86 120 154 200 246 301 356
#     4  10  20  35  62  91 115 148 200 260 300 348
#
# _framework density 18.666236000000001
#
# number of rings (size 3 to 8) (size 9 to 14) (size 15 to 20)
#    0.000    1.333    3.333    3.000    4.667    4.333 
#    0.000    2.500    0.000    6.500    0.000    0.000 
#    0.000    0.000    0.000    0.000    0.000    0.000 
#
# Total GULP energy -134005.808375 kJ/mol
# GULP energy per Si atom -5583.575349 kJ/mol
# Density = 1.862375 g / cm^3
# Si number density = 18.666236 Si / 1000 Ang^3
#
#
#
# Elastic Constant Matrix: (Units=GPa)
#
#
# Indices 1 2 3 4 5 6 
#
# 1 135.9443 18.7047 39.3575 0.0000 -14.5848 0.0000
# 2 18.7047 21.7118 -0.0635 0.0000 -12.2532 0.0000
# 3 39.3575 -0.0635 114.2680 0.0000 -14.8695 0.0000
# 4 0.0000 0.0000 0.0000 3.4281 0.0000 -5.7382
# 5 -14.5848 -12.2532 -14.8695 0.0000 35.4566 0.0000
# 6 0.0000 0.0000 0.0000 -5.7382 0.0000 6.5321
#
#
#
# Elastic Compliance Matrix: (Units=1/GPa)
#
#
# Indices 1 2 3 4 5 6 
#
# 1 0.009417 -0.008345 -0.003299 0.000000 -0.000394 0.000000
# 2 -0.008345 0.065443 0.005719 0.000000 0.021582 0.000000
# 3 -0.003299 0.005719 0.010547 0.000000 0.005042 0.000000
# 4 0.000000 0.000000 0.000000 -0.620090 0.000000 -0.544727
# 5 -0.000394 0.021582 0.005042 0.000000 0.037614 0.000000
# 6 0.000000 0.000000 0.000000 -0.544727 0.000000 -0.325433
#
#
# Mechanical properties :
#
#
# Convention : Reuss Voigt Hill
#
# Bulk Modulus (GPa) = 13.59488 43.10241 28.34864
# Shear Modulus (GPa) = -6.36026 23.34505 8.49240
#
# Velocity S-wave (km/s) = -1.84791 3.54030 2.13529
# Velocity P-wave (km/s) = 1.65709 6.31291 4.61513
#
# Compressibility (1/GPa) = 0.07355711
#
# Stress axis : x y z
#
# Youngs Moduli (GPa) = 106.19011 15.28041 94.81269
#
# Poissons Ratio (x) = 0.12751 0.31283
# Poissons Ratio (y) = 0.88612 -0.54223
# Poissons Ratio (z) = 0.35037 -0.08739
#
# Static dielectric constant tensor:
#      x y z
#    x 1.638930 0.000000 0.000190 
#    y 0.000000 1.646040 0.000000 
#    z 0.000190 0.000000 1.673910 
# 
# From -- ./inp_files/75084.got.cif
#   From: 2010.05.17/outbox.cif.g08.bks.cpg/sg12_38_cif.got.tgz:75084.got - 2010.06.03 13:09:07.
