data_PCOD9195873
_publ_section_title
;
Structure prediction by ZEFSAII (Michael W. Deem and Ramdas Pophale) SiO2 
 PCOD9195873
Probable space group: C 2/M
;
_chemical_formula_sum "Si O2"
_cell_formula_units_Z 56
_cell_length_a 7.551724
_cell_length_b 24.492325
_cell_length_c 14.664386
_cell_angle_alpha 90.000000
_cell_angle_beta 113.993741
_cell_angle_gamma 90.000000
_cell_volume 2477.942866
_symmetry_space_group_name_H-M "C 2/M"
_symmetry_group_IT_number 12
_symmetry_cell_setting 'monoclinic'
loop_
_space_group_symop_operation_xyz
x,y,z
-x,y,-z
-x,-y,-z
x,-y,z
1/2+x,1/2+y,z
1/2-x,1/2+y,-z
1/2-x,1/2-y,-z
1/2+x,1/2-y,z
loop_
_atom_site_type_symbol
_atom_site_label
_atom_site_fract_x
_atom_site_fract_y
_atom_site_fract_z
Si Si1 0.508519 0.840361 0.104374
Si Si2 0.277506 0.189214 0.476575
Si Si3 0.283229 0.420901 0.470925
Si Si4 0.140253 0.061735 0.307967
Si Si5 0.151622 0.752470 0.835611
Si Si6 0.201048 0.175136 0.259290
Si Si7 0.176082 0.561074 0.253004
O O1 0.681051 0.796246 0.144791
O O2 0.330709 0.798701 0.090305
O O3 0.556752 0.890092 0.181643
O O4 0.500000 0.861555 0.000000
O O5 0.500000 0.177795 0.500000
O O6 0.250000 0.250000 0.500000
O O7 0.215637 0.144554 0.535929
O O8 0.164965 0.181221 0.359099
O O9 0.500000 0.441730 0.500000
O O10 0.247570 0.433496 0.570306
O O11 0.156705 0.439369 0.359262
O O12 0.206907 0.109864 0.253695
O O13 0.908149 0.069630 0.279951
O O14 0.166321 0.000000 0.279718
O O15 0.123715 0.713924 0.738709
O O16 0.977798 0.793691 0.823575
O O17 0.126034 0.500000 0.209366
#
# Coordination Sequence:
#
# PCOD9195873 Si02
#       7
#     8   8   8   8   8   8   8
#     4  11  23  40  63  87 111 144 185 241 299 350
#     4  11  22  30  48  78 120 154 188 228 277 331
#     4   9  19  33  53  80 111 150 196 230 271 323
#     4   9  17  34  57  83 114 153 196 227 265 327
#     4  10  22  38  61  82 116 141 188 232 292 351
#     4  10  20  35  55  84 111 154 183 230 277 332
#     4  10  20  35  59  85 114 151 193 236 281 338
#
# _framework density 22.599391000000001
#
# number of rings (size 3 to 8) (size 9 to 14) (size 15 to 20)
#    0.000    2.000    1.429    2.143    6.000    2.000 
#    0.000    0.714    0.000    2.143    0.000    2.000 
#    0.000    0.000    0.000    0.000    0.000    0.000 
#
# Total GULP energy -156023.927855 kJ/mol
# GULP energy per Si atom -5572.283138 kJ/mol
# Density = 2.254795 g / cm^3
# Si number density = 22.599391 Si / 1000 Ang^3
#
#
#
# Elastic Constant Matrix: (Units=GPa)
#
#
# Indices 1 2 3 4 5 6 
#
# 1 54.6606 37.0008 0.1006 0.0000 -1.9361 0.0000
# 2 37.0008 203.4573 45.0657 0.0000 -4.3243 0.0000
# 3 0.1006 45.0657 55.0421 0.0000 -14.9986 0.0000
# 4 0.0000 0.0000 0.0000 16.3347 0.0000 -3.1846
# 5 -1.9361 -4.3243 -14.9986 0.0000 16.7924 0.0000
# 6 0.0000 0.0000 0.0000 -3.1846 0.0000 18.4593
#
#
#
# Elastic Compliance Matrix: (Units=1/GPa)
#
#
# Indices 1 2 3 4 5 6 
#
# 1 0.022035 -0.005198 0.006004 0.000000 0.006565 0.000000
# 2 -0.005198 0.007415 -0.007539 0.000000 -0.005424 0.000000
# 3 0.006004 -0.007539 0.031706 0.000000 0.027070 0.000000
# 4 0.000000 0.000000 0.000000 0.063350 0.000000 0.010929
# 5 0.006565 -0.005424 0.027070 0.000000 0.083089 0.000000
# 6 0.000000 0.000000 0.000000 0.010929 0.000000 0.056059
#
#
# Mechanical properties :
#
#
# Convention : Reuss Voigt Hill
#
# Bulk Modulus (GPa) = 20.96886 53.05492 37.01189
# Shear Modulus (GPa) = 17.06391 25.71681 21.39036
#
# Velocity S-wave (km/s) = 2.75082 3.37700 3.07986
# Velocity P-wave (km/s) = 4.40318 6.22356 5.39077
#
# Compressibility (1/GPa) = 0.04768976
#
# Stress axis : x y z
#
# Youngs Moduli (GPa) = 45.38335 134.86221 31.53958
#
# Poissons Ratio (x) = 0.70096 -0.18937
# Poissons Ratio (y) = 0.23588 0.23779
# Poissons Ratio (z) = -0.27249 1.01679
#
# Static dielectric constant tensor:
#      x y z
#    x 2.027610 0.000000 -0.053270 
#    y 0.000000 1.850730 0.000000 
#    z -0.053270 0.000000 1.873910 
# 
# From -- ./inp_files/198943.got.cif
#   From: 2010.05.17/outbox.cif.g08.bks.cpg/sg12_100_cif.got.tgz:198943.got - 2010.06.03 13:09:07.
