data_PCOD9195709
_publ_section_title
;
Structure prediction by ZEFSAII (Michael W. Deem and Ramdas Pophale) SiO2 
 PCOD9195709
Probable space group: C 2/M
;
_chemical_formula_sum "Si O2"
_cell_formula_units_Z 64
_cell_length_a 19.715805
_cell_length_b 7.440913
_cell_length_c 29.729555
_cell_angle_alpha 90.000000
_cell_angle_beta 34.113602
_cell_angle_gamma 90.000000
_cell_volume 2446.046405
_symmetry_space_group_name_H-M "C 2/M"
_symmetry_group_IT_number 12
_symmetry_cell_setting 'monoclinic'
loop_
_space_group_symop_operation_xyz
x,y,z
-x,y,-z
-x,-y,-z
x,-y,z
1/2+x,1/2+y,z
1/2-x,1/2+y,-z
1/2-x,1/2-y,-z
1/2+x,1/2-y,z
loop_
_atom_site_type_symbol
_atom_site_label
_atom_site_fract_x
_atom_site_fract_y
_atom_site_fract_z
Si Si1 0.927185 0.294387 0.373899
Si Si2 0.792316 0.211501 0.788157
Si Si3 0.675764 0.784614 0.379317
Si Si4 0.115695 0.719923 0.111650
Si Si5 0.584438 0.210719 0.714718
Si Si6 0.943621 0.291015 0.127359
Si Si7 0.165974 0.784450 0.952968
Si Si8 0.941486 0.280200 0.462305
O O1 0.884445 0.500000 0.399253
O O2 0.074317 0.294598 0.288991
O O3 0.896080 0.213195 0.439346
O O4 0.882031 0.208875 0.352128
O O5 0.688670 0.284839 0.811099
O O6 0.731267 0.232266 0.870874
O O7 0.808798 0.000000 0.770906
O O8 0.813623 0.729105 0.303489
O O9 0.580972 0.724147 0.394110
O O10 0.627226 0.722713 0.454966
O O11 0.672307 0.000000 0.381342
O O12 0.117825 0.500000 0.108160
O O13 0.031105 0.787852 0.117728
O O14 0.250924 0.778779 0.049990
O O15 0.039920 0.778139 0.197252
O O16 0.567247 0.000000 0.716208
O O17 0.924761 0.500000 0.148829
O O18 0.030376 0.281121 0.035984
O O19 0.162846 0.000000 0.955248
O O20 0.939138 0.500000 0.462975
#
# Coordination Sequence:
#
# PCOD9195709 Si02
#       8
#     8   8   8   8   8   8   8   8
#     4  10  20  37  58  78 106 147 187 222 266 320
#     4  11  23  37  55  81 111 143 178 223 277 323
#     4   9  18  35  57  83 112 144 181 221 267 319
#     4   9  19  37  56  77 109 146 179 218 273 325
#     4  10  20  35  55  79 110 146 181 222 272 319
#     4  10  22  38  56  79 109 143 179 224 277 324
#     4  11  21  38  61  81 106 143 183 223 268 324
#     4   8  17  35  58  81 111 147 180 220 269 317
#
# _framework density 26.164670000000001
#
# number of rings (size 3 to 8) (size 9 to 14) (size 15 to 20)
#    0.000    2.250    1.250    2.250    1.750    3.500 
#    0.000    3.125    0.000    0.000    0.000    0.000 
#    0.000    0.000    0.000    0.000    0.000    0.000 
#
# Total GULP energy -178899.587827 kJ/mol
# GULP energy per Si atom -5590.612120 kJ/mol
# Density = 2.610512 g / cm^3
# Si number density = 26.164670 Si / 1000 Ang^3
#
#
#
# Elastic Constant Matrix: (Units=GPa)
#
#
# Indices 1 2 3 4 5 6 
#
# 1 115.9486 2.7260 1.3609 0.0009 -6.2098 0.0160
# 2 2.7260 98.6407 -4.9091 0.0056 1.1142 0.0105
# 3 1.3609 -4.9091 47.7174 -0.0003 -11.0739 0.0012
# 4 0.0009 0.0056 -0.0003 8.8634 -0.0011 -6.3423
# 5 -6.2098 1.1142 -11.0739 -0.0011 51.4937 0.0003
# 6 0.0160 0.0105 0.0012 -6.3423 0.0003 9.6708
#
#
#
# Elastic Compliance Matrix: (Units=1/GPa)
#
#
# Indices 1 2 3 4 5 6 
#
# 1 0.008687 -0.000253 -0.000031 -0.000020 0.001046 -0.000027
# 2 -0.000253 0.010197 0.001050 -0.000027 -0.000025 -0.000028
# 3 -0.000031 0.001050 0.022166 -0.000004 0.004740 -0.000007
# 4 -0.000020 -0.000027 -0.000004 0.212587 0.000001 0.139419
# 5 0.001046 -0.000025 0.004740 0.000001 0.020566 -0.000002
# 6 -0.000027 -0.000028 -0.000007 0.139419 -0.000002 0.194838
#
#
# Mechanical properties :
#
#
# Convention : Reuss Voigt Hill
#
# Bulk Modulus (GPa) = 23.48404 28.96248 26.22326
# Shear Modulus (GPa) = 10.37984 31.54751 20.96367
#
# Velocity S-wave (km/s) = 1.99392 3.47613 2.83365
# Velocity P-wave (km/s) = 3.78100 5.21581 4.55525
#
# Compressibility (1/GPa) = 0.04258211
#
# Stress axis : x y z
#
# Youngs Moduli (GPa) = 115.11616 98.06445 45.11459
#
# Poissons Ratio (x) = 0.02485 0.00140
# Poissons Ratio (y) = 0.02917 -0.04739
# Poissons Ratio (z) = 0.00357 -0.10301
#
# Static dielectric constant tensor:
#      x y z
#    x 2.088320 0.000000 0.050540 
#    y 0.000000 1.977400 0.000000 
#    z 0.050540 0.000000 2.056220 
# 
# From -- ./inp_files/346077.got.cif
#   From: 2010.05.17/outbox.cif.g08.bks.cpg/sg12_174_cif.got.tgz:346077.got - 2010.06.03 13:09:07.
