data_PCOD9195673
_publ_section_title
;
Structure prediction by ZEFSAII (Michael W. Deem and Ramdas Pophale) SiO2 
 PCOD9195673
Probable space group: C 2/M
;
_chemical_formula_sum "Si O2"
_cell_formula_units_Z 56
_cell_length_a 21.110328
_cell_length_b 9.041112
_cell_length_c 18.639804
_cell_angle_alpha 90.000000
_cell_angle_beta 120.442691
_cell_angle_gamma 90.000000
_cell_volume 3067.143856
_symmetry_space_group_name_H-M "C 2/M"
_symmetry_group_IT_number 12
_symmetry_cell_setting 'monoclinic'
loop_
_space_group_symop_operation_xyz
x,y,z
-x,y,-z
-x,-y,-z
x,-y,z
1/2+x,1/2+y,z
1/2-x,1/2+y,-z
1/2-x,1/2-y,-z
1/2+x,1/2-y,z
loop_
_atom_site_type_symbol
_atom_site_label
_atom_site_fract_x
_atom_site_fract_y
_atom_site_fract_z
Si Si1 0.662930 0.168146 0.524937
Si Si2 0.670537 0.821166 0.939625
Si Si3 0.419479 0.170457 0.253793
Si Si4 0.072903 0.823798 0.589080
Si Si5 0.338978 0.332891 0.619445
Si Si6 0.556239 0.168629 0.225970
Si Si7 0.035726 0.824271 0.944093
O O1 0.637339 0.241734 0.583356
O O2 0.637095 0.267072 0.443333
O O3 0.751023 0.163696 0.571110
O O4 0.635143 0.000000 0.502289
O O5 0.639736 0.784075 0.841643
O O6 0.609711 0.759810 0.961033
O O7 0.673177 0.000000 0.945791
O O8 0.750000 0.750000 0.000000
O O9 0.426877 0.266857 0.329300
O O10 0.496469 0.172313 0.255522
O O11 0.403519 0.000000 0.265075
O O12 0.000000 0.788395 0.500000
O O13 0.082067 0.000000 0.593128
O O14 0.367114 0.500000 0.644284
O O15 0.368779 0.226999 0.698073
O O16 0.525308 0.277340 0.148544
O O17 0.560324 0.000000 0.202001
O O18 0.049818 0.000000 0.951054
O O19 0.000000 0.784457 0.000000
#
# Coordination Sequence:
#
# PCOD9195673 Si02
#       7
#     8   8   8   8   8   8   8
#     4  10  21  36  54  76 107 146 183 226 275 327
#     4  10  21  39  63  89 118 155 197 243 297 356
#     4   9  20  37  56  81 111 145 185 228 275 336
#     4  11  23  36  53  80 111 144 185 232 278 327
#     4  10  20  35  55  79 107 142 183 227 275 329
#     4  10  20  35  58  84 110 144 184 227 277 335
#     4  10  21  38  60  87 118 152 191 239 291 346
#
# _framework density 18.258029000000001
#
# number of rings (size 3 to 8) (size 9 to 14) (size 15 to 20)
#    0.000    2.000    0.000    4.286    0.000    9.714 
#    2.571    0.000    0.000    0.000    0.000    0.000 
#    0.000    0.000    0.000    0.000    0.000    0.000 
#
# Total GULP energy -156232.387009 kJ/mol
# GULP energy per Si atom -5579.728107 kJ/mol
# Density = 1.821647 g / cm^3
# Si number density = 18.258029 Si / 1000 Ang^3
#
#
#
# Elastic Constant Matrix: (Units=GPa)
#
#
# Indices 1 2 3 4 5 6 
#
# 1 45.3744 37.7806 44.0197 0.0000 -15.3919 0.0000
# 2 37.7806 76.4165 39.3396 0.0000 -10.2005 0.0000
# 3 44.0197 39.3396 81.9019 0.0000 -9.7441 0.0000
# 4 0.0000 0.0000 0.0000 30.0635 0.0000 -6.3353
# 5 -15.3919 -10.2005 -9.7441 0.0000 31.2866 0.0000
# 6 0.0000 0.0000 0.0000 -6.3353 0.0000 23.5820
#
#
#
# Elastic Compliance Matrix: (Units=1/GPa)
#
#
# Indices 1 2 3 4 5 6 
#
# 1 0.069307 -0.018122 -0.026161 0.000000 0.020040 0.000000
# 2 -0.018122 0.022435 -0.001274 0.000000 -0.001998 0.000000
# 3 -0.026161 -0.001274 0.026275 0.000000 -0.005102 0.000000
# 4 0.000000 0.000000 0.000000 0.035259 0.000000 0.009472
# 5 0.020040 -0.001998 -0.005102 0.000000 0.039581 0.000000
# 6 0.000000 0.000000 0.000000 0.009472 0.000000 0.044950
#
#
# Mechanical properties :
#
#
# Convention : Reuss Voigt Hill
#
# Bulk Modulus (GPa) = 37.17137 49.55252 43.36195
# Shear Modulus (GPa) = 14.79776 22.48994 18.64385
#
# Velocity S-wave (km/s) = 2.84998 3.51348 3.19898
# Velocity P-wave (km/s) = 5.58865 6.60746 6.11929
#
# Compressibility (1/GPa) = 0.02690242
#
# Stress axis : x y z
#
# Youngs Moduli (GPa) = 14.42863 44.57335 38.05860
#
# Poissons Ratio (x) = 0.80778 0.99566
# Poissons Ratio (y) = 0.26148 0.04847
# Poissons Ratio (z) = 0.37747 0.05676
#
# Static dielectric constant tensor:
#      x y z
#    x 1.628870 0.000000 0.006020 
#    y 0.000000 1.621610 0.000000 
#    z 0.006020 0.000000 1.632660 
# 
# From -- ./inp_files/287915.got.cif
#   From: 2010.05.17/outbox.cif.g08.bks.cpg/sg12_144_cif.got.tgz:287915.got - 2010.06.03 13:09:07.
