data_PCOD9195693
_publ_section_title
;
Structure prediction by ZEFSAII (Michael W. Deem and Ramdas Pophale) SiO2 
 PCOD9195693
Probable space group: C 2/M
;
_chemical_formula_sum "Si O2"
_cell_formula_units_Z 64
_cell_length_a 16.111267
_cell_length_b 8.998928
_cell_length_c 26.224230
_cell_angle_alpha 90.000000
_cell_angle_beta 46.444657
_cell_angle_gamma 90.000000
_cell_volume 2755.414600
_symmetry_space_group_name_H-M "C 2/M"
_symmetry_group_IT_number 12
_symmetry_cell_setting 'monoclinic'
loop_
_space_group_symop_operation_xyz
x,y,z
-x,y,-z
-x,-y,-z
x,-y,z
1/2+x,1/2+y,z
1/2-x,1/2+y,-z
1/2-x,1/2-y,-z
1/2+x,1/2-y,z
loop_
_atom_site_type_symbol
_atom_site_label
_atom_site_fract_x
_atom_site_fract_y
_atom_site_fract_z
Si Si1 0.583879 0.826896 0.889941
Si Si2 0.433559 0.670988 0.731798
Si Si3 0.870688 0.174370 0.228105
Si Si4 0.887573 0.325608 0.849386
Si Si5 0.398331 0.678724 0.474720
Si Si6 0.343373 0.825839 0.390680
Si Si7 0.648033 0.328450 0.351674
Si Si8 0.832602 0.327977 0.028326
O O1 0.646699 0.723149 0.823351
O O2 0.629168 0.819044 0.928321
O O3 0.595812 0.000000 0.868613
O O4 0.448589 0.788304 0.949423
O O5 0.420652 0.500000 0.753525
O O6 0.368579 0.775096 0.798897
O O7 0.566252 0.722256 0.676134
O O8 0.392097 0.681015 0.691007
O O9 0.762965 0.234359 0.305574
O O10 0.991564 0.250500 0.189157
O O11 0.880001 0.000000 0.229593
O O12 0.898125 0.500000 0.849474
O O13 0.780800 0.269004 0.927798
O O14 0.395228 0.500000 0.462306
O O15 0.367632 0.782655 0.439567
O O16 0.292731 0.698609 0.558258
O O17 0.530788 0.710344 0.430982
O O18 0.368808 0.000000 0.370809
O O19 0.676331 0.500000 0.350648
O O20 0.805724 0.500000 0.028695
#
# Coordination Sequence:
#
# PCOD9195693 Si02
#       8
#     8   8   8   8   8   8   8   8
#     4   9  19  38  63  87 112 143 175 211 261 318
#     4  10  20  35  55  79 109 143 178 220 271 322
#     4  12  25  38  54  78 109 144 182 225 269 313
#     4  12  25  39  56  78 107 144 183 223 268 317
#     4   8  15  27  45  72 106 141 174 216 269 318
#     4   9  15  25  45  75 107 137 175 219 264 316
#     4   9  18  34  55  78 107 143 179 217 266 321
#     4   9  19  38  63  88 113 141 174 214 262 315
#
# _framework density 23.226994999999999
#
# number of rings (size 3 to 8) (size 9 to 14) (size 15 to 20)
#    0.000    2.250    0.000    5.250    0.000    7.500 
#    0.000    1.250    0.000    0.750    0.000    5.250 
#    0.000    0.000    0.000    0.000    0.000    0.000 
#
# Total GULP energy -178958.208012 kJ/mol
# GULP energy per Si atom -5592.444000 kJ/mol
# Density = 2.317413 g / cm^3
# Si number density = 23.226995 Si / 1000 Ang^3
#
#
#
# Elastic Constant Matrix: (Units=GPa)
#
#
# Indices 1 2 3 4 5 6 
#
# 1 91.9330 39.1908 30.0745 0.0000 -26.3338 -0.0001
# 2 39.1908 105.1506 69.4272 0.0000 -34.3654 -0.0002
# 3 30.0745 69.4272 141.1024 0.0000 -32.2642 0.0000
# 4 0.0000 0.0000 0.0000 38.1986 0.0000 -8.4214
# 5 -26.3338 -34.3654 -32.2642 0.0000 51.3760 0.0000
# 6 -0.0001 -0.0002 0.0000 -8.4214 0.0000 22.6681
#
#
#
# Elastic Compliance Matrix: (Units=1/GPa)
#
#
# Indices 1 2 3 4 5 6 
#
# 1 0.013744 -0.003525 -0.000144 0.000000 0.004596 0.000000
# 2 -0.003525 0.016722 -0.006226 0.000000 0.005468 0.000000
# 3 -0.000144 -0.006226 0.010757 0.000000 0.002517 0.000000
# 4 0.000000 0.000000 0.000000 0.028514 0.000000 0.010593
# 5 0.004596 0.005468 0.002517 0.000000 0.027059 0.000000
# 6 0.000000 0.000000 0.000000 0.010593 0.000000 0.048050
#
#
# Mechanical properties :
#
#
# Convention : Reuss Voigt Hill
#
# Bulk Modulus (GPa) = 46.65863 68.39677 57.52770
# Shear Modulus (GPa) = 29.10683 35.74810 32.42746
#
# Velocity S-wave (km/s) = 3.54382 3.92736 3.74051
# Velocity P-wave (km/s) = 6.07261 7.07648 6.59368
#
# Compressibility (1/GPa) = 0.02143226
#
# Stress axis : x y z
#
# Youngs Moduli (GPa) = 72.75896 59.80076 92.96585
#
# Poissons Ratio (x) = 0.21082 0.01337
# Poissons Ratio (y) = 0.25651 0.57881
# Poissons Ratio (z) = 0.01046 0.37232
#
# Static dielectric constant tensor:
#      x y z
#    x 1.984810 0.000000 0.039900 
#    y 0.000000 1.771510 0.000000 
#    z 0.039900 0.000000 1.929200 
# 
# From -- ./inp_files/378065.got.cif
#   From: 2010.05.17/outbox.cif.g08.bks.cpg/sg12_190_cif.got.tgz:378065.got - 2010.06.03 13:09:07.
