data_PCOD9195168
_publ_section_title
;
Structure prediction by ZEFSAII (Michael W. Deem and Ramdas Pophale) SiO2 
 PCOD9195168
Probable space group: C 2/M
;
_chemical_formula_sum "Si O2"
_cell_formula_units_Z 60
_cell_length_a 17.473772
_cell_length_b 12.419747
_cell_length_c 16.624985
_cell_angle_alpha 90.000000
_cell_angle_beta 73.451738
_cell_angle_gamma 90.000000
_cell_volume 3458.510606
_symmetry_space_group_name_H-M "C 2/M"
_symmetry_group_IT_number 12
_symmetry_cell_setting 'monoclinic'
loop_
_space_group_symop_operation_xyz
x,y,z
-x,y,-z
-x,-y,-z
x,-y,z
1/2+x,1/2+y,z
1/2-x,1/2+y,-z
1/2-x,1/2-y,-z
1/2+x,1/2-y,z
loop_
_atom_site_type_symbol
_atom_site_label
_atom_site_fract_x
_atom_site_fract_y
_atom_site_fract_z
Si Si1 0.225458 0.278320 0.598371
Si Si2 0.548388 0.874803 0.656016
Si Si3 0.000000 0.292853 0.500000
Si Si4 0.401829 0.257165 0.757532
Si Si5 0.576836 0.369942 0.085156
Si Si6 0.106890 0.129936 0.897215
Si Si7 0.250104 0.128936 0.738563
Si Si8 0.382212 0.379545 0.603262
O O1 0.250000 0.250000 0.500000
O O2 0.136084 0.322943 0.631254
O O3 0.236409 0.175961 0.653732
O O4 0.288801 0.364472 0.613758
O O5 0.516577 0.861862 0.573963
O O6 0.485205 0.806950 0.727173
O O7 0.550463 0.000000 0.677892
O O8 0.926564 0.212350 0.538865
O O9 0.389320 0.308598 0.848255
O O10 0.331142 0.177872 0.750736
O O11 0.402277 0.350436 0.689456
O O12 0.584218 0.500000 0.091621
O O13 0.482194 0.344076 0.106149
O O14 0.614574 0.336789 0.988127
O O15 0.176543 0.166130 0.817025
O O16 0.110150 0.000000 0.897296
O O17 0.253727 0.000000 0.736040
O O18 0.407956 0.500000 0.575546
#
# Coordination Sequence:
#
# PCOD9195168 Si02
#       8
#     8   8   4   8   8   8   8   8
#     4  11  22  38  53  78 100 134 188 217 265 327
#     4  11  22  37  54  74 104 139 173 218 261 314
#     4  10  20  36  52  76 100 130 178 208 262 326
#     4  10  21  33  52  80 108 143 183 207 265 329
#     4   9  16  31  55  83 111 140 178 222 264 312
#     4   8  16  31  54  81 108 140 178 220 269 313
#     4  10  21  37  54  78 111 140 177 228 267 314
#     4  10  20  35  51  72 105 135 170 224 265 304
#
# _framework density 17.348507999999999
#
# number of rings (size 3 to 8) (size 9 to 14) (size 15 to 20)
#    0.000    2.133    1.333    3.200    0.000    1.600 
#    0.000    0.667    0.000    0.000    0.000   18.667 
#    0.000    0.000    0.000    0.000    0.000    0.000 
#
# Total GULP energy -167324.680925 kJ/mol
# GULP energy per Si atom -5577.489364 kJ/mol
# Density = 1.730902 g / cm^3
# Si number density = 17.348508 Si / 1000 Ang^3
#
#
#
# Elastic Constant Matrix: (Units=GPa)
#
#
# Indices 1 2 3 4 5 6 
#
# 1 88.3957 30.7636 29.7872 0.0000 -9.0816 0.0000
# 2 30.7636 71.9509 32.8641 0.0000 6.2518 0.0000
# 3 29.7872 32.8641 112.1846 0.0000 1.1250 0.0000
# 4 0.0000 0.0000 0.0000 14.2036 0.0000 -1.2007
# 5 -9.0816 6.2518 1.1250 0.0000 27.0305 0.0000
# 6 0.0000 0.0000 0.0000 -1.2007 0.0000 10.1500
#
#
#
# Elastic Compliance Matrix: (Units=1/GPa)
#
#
# Indices 1 2 3 4 5 6 
#
# 1 0.014767 -0.005830 -0.002277 0.000000 0.006405 0.000000
# 2 -0.005830 0.018688 -0.003865 0.000000 -0.006120 0.000000
# 3 -0.002277 -0.003865 0.010654 0.000000 -0.000315 0.000000
# 4 0.000000 0.000000 0.000000 0.071116 0.000000 0.008412
# 5 0.006405 -0.006120 -0.000315 0.000000 0.040576 0.000000
# 6 0.000000 0.000000 0.000000 0.008412 0.000000 0.099517
#
#
# Mechanical properties :
#
#
# Convention : Reuss Voigt Hill
#
# Bulk Modulus (GPa) = 49.59320 51.04012 50.31666
# Shear Modulus (GPa) = 17.48341 22.21791 19.85066
#
# Velocity S-wave (km/s) = 3.17799 3.58254 3.38631
# Velocity P-wave (km/s) = 6.48958 6.82621 6.66002
#
# Compressibility (1/GPa) = 0.02016406
#
# Stress axis : x y z
#
# Youngs Moduli (GPa) = 67.71757 53.50896 93.86135
#
# Poissons Ratio (x) = 0.31197 0.21375
# Poissons Ratio (y) = 0.39481 0.36280
# Poissons Ratio (z) = 0.15421 0.20683
#
# Static dielectric constant tensor:
#      x y z
#    x 1.598790 0.000000 -0.013180 
#    y 0.000000 1.557000 0.000000 
#    z -0.013180 0.000000 1.591280 
# 
# From -- ./inp_files/223239.got.cif
#   From: 2010.05.17/outbox.cif.g08.bks.cpg/sg12_112_cif.got.tgz:223239.got - 2010.06.03 13:09:07.
