data_PCOD9195640
_publ_section_title
;
Structure prediction by ZEFSAII (Michael W. Deem and Ramdas Pophale) SiO2 
 PCOD9195640
Probable space group: C 2/M
;
_chemical_formula_sum "Si O2"
_cell_formula_units_Z 64
_cell_length_a 21.006992
_cell_length_b 7.572511
_cell_length_c 24.490777
_cell_angle_alpha 90.000000
_cell_angle_beta 50.398712
_cell_angle_gamma 90.000000
_cell_volume 3001.776666
_symmetry_space_group_name_H-M "C 2/M"
_symmetry_group_IT_number 12
_symmetry_cell_setting 'monoclinic'
loop_
_space_group_symop_operation_xyz
x,y,z
-x,y,-z
-x,-y,-z
x,-y,z
1/2+x,1/2+y,z
1/2-x,1/2+y,-z
1/2-x,1/2-y,-z
1/2+x,1/2-y,z
loop_
_atom_site_type_symbol
_atom_site_label
_atom_site_fract_x
_atom_site_fract_y
_atom_site_fract_z
Si Si1 0.789134 0.216165 0.688955
Si Si2 0.534894 0.797302 0.112816
Si Si3 0.633540 0.785461 0.847997
Si Si4 0.265337 0.289024 0.578997
Si Si5 0.670807 0.706597 0.952627
Si Si6 0.567837 0.287975 0.311287
Si Si7 0.642229 0.212248 0.152354
Si Si8 0.880852 0.212727 0.417665
O O1 0.711846 0.268390 0.768822
O O2 0.779090 0.278345 0.632437
O O3 0.873147 0.275375 0.672303
O O4 0.789241 0.000000 0.688228
O O5 0.451027 0.720474 0.133667
O O6 0.577342 0.717332 0.143323
O O7 0.513843 0.000000 0.138565
O O8 0.604719 0.795828 0.028063
O O9 0.644509 0.724130 0.903992
O O10 0.631595 0.000000 0.851249
O O11 0.276355 0.500000 0.575129
O O12 0.174274 0.255504 0.604970
O O13 0.329900 0.220581 0.498288
O O14 0.670854 0.500000 0.967259
O O15 0.764201 0.777701 0.907498
O O16 0.563469 0.500000 0.318613
O O17 0.611409 0.249043 0.230025
O O18 0.474206 0.220067 0.363918
O O19 0.646324 0.000000 0.143547
O O20 0.883736 0.000000 0.419843
#
# Coordination Sequence:
#
# PCOD9195640 Si02
#       8
#     8   8   8   8   8   8   8   8
#     4   9  18  33  55  80 103 139 184 219 256 306
#     4  10  22  37  56  79 103 137 180 223 262 312
#     4  10  20  36  56  78 105 138 180 221 259 311
#     4   9  18  34  57  81 109 144 179 216 258 309
#     4  11  22  37  56  79 108 138 172 218 271 323
#     4  10  20  35  55  78 108 142 177 220 266 312
#     4  10  22  38  55  79 107 138 179 221 263 315
#     4   9  19  34  53  83 114 140 174 217 266 312
#
# _framework density 21.320706999999999
#
# number of rings (size 3 to 8) (size 9 to 14) (size 15 to 20)
#    0.000    2.250    1.250    1.125    1.750    4.000 
#    0.000    3.750    0.000    0.000    0.000    4.375 
#    0.000    0.000    0.000    0.000    0.000    0.000 
#
# Total GULP energy -178772.977337 kJ/mol
# GULP energy per Si atom -5586.655542 kJ/mol
# Density = 2.127218 g / cm^3
# Si number density = 21.320707 Si / 1000 Ang^3
#
#
#
# Elastic Constant Matrix: (Units=GPa)
#
#
# Indices 1 2 3 4 5 6 
#
# 1 146.6472 -7.8899 51.2895 0.0014 -0.6464 0.0029
# 2 -7.8899 50.1893 -10.3817 -0.0074 -1.7040 -0.0003
# 3 51.2895 -10.3817 73.7974 0.0011 2.0655 -0.0007
# 4 0.0014 -0.0074 0.0011 1.2089 -0.0002 -2.3211
# 5 -0.6464 -1.7040 2.0655 -0.0002 47.1557 -0.0003
# 6 0.0029 -0.0003 -0.0007 -2.3211 -0.0003 18.1149
#
#
#
# Elastic Compliance Matrix: (Units=1/GPa)
#
#
# Indices 1 2 3 4 5 6 
#
# 1 0.009017 0.000137 -0.006259 -0.000009 0.000403 -0.000003
# 2 0.000137 0.020542 0.002777 0.000164 0.000623 0.000021
# 3 -0.006259 0.002777 0.018314 0.000015 -0.000788 0.000004
# 4 -0.000009 0.000164 0.000015 1.097150 0.000011 0.140579
# 5 0.000403 0.000623 -0.000788 0.000011 0.021269 0.000002
# 6 -0.000003 0.000021 0.000004 0.140579 0.000002 0.073216
#
#
# Mechanical properties :
#
#
# Convention : Reuss Voigt Hill
#
# Bulk Modulus (GPa) = 24.28235 37.40777 30.84506
# Shear Modulus (GPa) = 3.96849 29.13696 16.55273
#
# Velocity S-wave (km/s) = 1.36579 3.70077 2.78936
# Velocity P-wave (km/s) = 3.72840 5.98701 4.98725
#
# Compressibility (1/GPa) = 0.04118217
#
# Stress axis : x y z
#
# Youngs Moduli (GPa) = 110.89763 48.68150 54.60450
#
# Poissons Ratio (x) = -0.00665 0.34178
# Poissons Ratio (y) = -0.01514 -0.15166
# Poissons Ratio (z) = 0.69412 -0.13521
#
# Static dielectric constant tensor:
#      x y z
#    x 1.763950 0.000000 -0.010030 
#    y 0.000000 1.825750 0.000000 
#    z -0.010030 0.000000 1.718640 
# 
# From -- ./inp_files/346030.got.cif
#   From: 2010.05.17/outbox.cif.g08.bks.cpg/sg12_174_cif.got.tgz:346030.got - 2010.06.03 13:09:07.
