data_PCOD9195682
_publ_section_title
;
Structure prediction by ZEFSAII (Michael W. Deem and Ramdas Pophale) SiO2 
 PCOD9195682
Probable space group: C 2/M
;
_chemical_formula_sum "Si O2"
_cell_formula_units_Z 64
_cell_length_a 18.777067
_cell_length_b 7.531882
_cell_length_c 31.020537
_cell_angle_alpha 90.000000
_cell_angle_beta 137.712515
_cell_angle_gamma 90.000000
_cell_volume 2951.885035
_symmetry_space_group_name_H-M "C 2/M"
_symmetry_group_IT_number 12
_symmetry_cell_setting 'monoclinic'
loop_
_space_group_symop_operation_xyz
x,y,z
-x,y,-z
-x,-y,-z
x,-y,z
1/2+x,1/2+y,z
1/2-x,1/2+y,-z
1/2-x,1/2-y,-z
1/2+x,1/2-y,z
loop_
_atom_site_type_symbol
_atom_site_label
_atom_site_fract_x
_atom_site_fract_y
_atom_site_fract_z
Si Si1 0.913987 0.705646 0.796448
Si Si2 0.469205 0.782645 0.312144
Si Si3 0.668721 0.716265 0.066822
Si Si4 0.405583 0.782695 0.187684
Si Si5 0.982332 0.785105 0.922664
Si Si6 0.790997 0.712851 0.566188
Si Si7 0.882867 0.204141 0.445995
Si Si8 0.676374 0.796516 0.674930
O O1 0.895897 0.500000 0.777226
O O2 0.799377 0.793038 0.742481
O O3 0.000187 0.777216 0.801357
O O4 0.959919 0.718334 0.865057
O O5 0.427107 0.728591 0.246459
O O6 0.589606 0.722106 0.373108
O O7 0.393990 0.723231 0.317450
O O8 0.467165 0.000000 0.311423
O O9 0.668955 0.500000 0.066633
O O10 0.789528 0.776075 0.120449
O O11 0.608875 0.768427 0.084158
O O12 0.593602 0.771859 0.993698
O O13 0.405225 0.000000 0.186428
O O14 0.981661 0.000000 0.920715
O O15 0.797486 0.500000 0.574871
O O16 0.750000 0.750000 0.500000
O O17 0.706022 0.783910 0.562575
O O18 0.842415 0.204771 0.379058
O O19 0.000000 0.285834 0.500000
O O20 0.895685 0.000000 0.466765
O O21 0.643079 0.000000 0.653299
#
# Coordination Sequence:
#
# PCOD9195682 Si02
#       8
#     8   8   8   8   8   8   8   8
#     4  11  22  34  51  76 107 141 172 209 264 320
#     4   9  18  33  54  77  99 130 175 219 255 296
#     4   8  15  30  54  79 100 131 175 216 255 304
#     4   9  17  31  51  74 102 136 172 209 255 315
#     4   9  17  32  55  79 102 131 172 218 257 302
#     4  10  20  35  55  79 108 141 175 211 252 302
#     4  10  21  37  57  82 113 144 170 205 261 319
#     4  11  22  36  57  80 102 134 179 226 261 297
#
# _framework density 21.681059999999999
#
# number of rings (size 3 to 8) (size 9 to 14) (size 15 to 20)
#    0.000    2.375    0.000    3.750    0.000    5.250 
#    0.000    1.875    0.000    9.750    0.000    0.000 
#    0.000    0.000    0.000    0.000    0.000    0.000 
#
# Total GULP energy -178800.610358 kJ/mol
# GULP energy per Si atom -5587.519074 kJ/mol
# Density = 2.163171 g / cm^3
# Si number density = 21.681060 Si / 1000 Ang^3
#
#
#
# Elastic Constant Matrix: (Units=GPa)
#
#
# Indices 1 2 3 4 5 6 
#
# 1 195.9432 -0.3078 103.6046 0.0000 15.7123 -0.0001
# 2 -0.3078 53.9787 -9.8096 0.0000 6.4387 -0.0005
# 3 103.6046 -9.8096 152.6373 0.0000 14.9864 0.0000
# 4 0.0000 0.0000 0.0000 21.4715 0.0000 -3.4160
# 5 15.7123 6.4387 14.9864 0.0000 42.8978 0.0001
# 6 -0.0001 -0.0005 0.0000 -3.4160 0.0001 34.0528
#
#
#
# Elastic Compliance Matrix: (Units=1/GPa)
#
#
# Indices 1 2 3 4 5 6 
#
# 1 0.008043 -0.000829 -0.005422 0.000000 -0.000928 0.000000
# 2 -0.000829 0.019307 0.002131 0.000000 -0.003339 0.000000
# 3 -0.005422 0.002131 0.010567 0.000000 -0.002026 0.000000
# 4 0.000000 0.000000 0.000000 0.047329 0.000000 0.004748
# 5 -0.000928 -0.003339 -0.002026 0.000000 0.024860 0.000000
# 6 0.000000 0.000000 0.000000 0.004748 0.000000 0.029842
#
#
# Mechanical properties :
#
#
# Convention : Reuss Voigt Hill
#
# Bulk Modulus (GPa) = 33.69424 65.50375 49.59899
# Shear Modulus (GPa) = 31.62958 40.28922 35.95940
#
# Velocity S-wave (km/s) = 3.82364 4.31544 4.07696
# Velocity P-wave (km/s) = 5.92185 7.42352 6.71480
#
# Compressibility (1/GPa) = 0.02967866
#
# Stress axis : x y z
#
# Youngs Moduli (GPa) = 124.32692 51.79564 94.63080
#
# Poissons Ratio (x) = 0.04293 0.51306
# Poissons Ratio (y) = 0.10304 -0.20167
# Poissons Ratio (z) = 0.67406 -0.11038
#
# Static dielectric constant tensor:
#      x y z
#    x 1.760850 0.000000 0.021380 
#    y 0.000000 1.873690 0.000000 
#    z 0.021380 0.000000 1.735960 
# 
# From -- ./inp_files/378453.got.cif
#   From: 2010.05.17/outbox.cif.g08.bks.cpg/sg12_190_cif.got.tgz:378453.got - 2010.06.03 13:09:07.
