data_PCOD9195080
_publ_section_title
;
Structure prediction by ZEFSAII (Michael W. Deem and Ramdas Pophale) SiO2 
 PCOD9195080
Probable space group: C 2/M
;
_chemical_formula_sum "Si O2"
_cell_formula_units_Z 64
_cell_length_a 19.020441
_cell_length_b 14.900571
_cell_length_c 16.436884
_cell_angle_alpha 90.000000
_cell_angle_beta 45.861251
_cell_angle_gamma 90.000000
_cell_volume 3343.174108
_symmetry_space_group_name_H-M "C 2/M"
_symmetry_group_IT_number 12
_symmetry_cell_setting 'monoclinic'
loop_
_space_group_symop_operation_xyz
x,y,z
-x,y,-z
-x,-y,-z
x,-y,z
1/2+x,1/2+y,z
1/2-x,1/2+y,-z
1/2-x,1/2-y,-z
1/2+x,1/2-y,z
loop_
_atom_site_type_symbol
_atom_site_label
_atom_site_fract_x
_atom_site_fract_y
_atom_site_fract_z
Si Si1 0.667978 0.895517 0.041469
Si Si2 0.735790 0.746570 0.250296
Si Si3 0.864910 0.896419 0.776299
Si Si4 0.134410 0.604542 0.246942
Si Si5 0.265374 0.296913 0.400656
Si Si6 0.563185 0.105697 0.526874
Si Si7 0.927758 0.751441 0.985308
Si Si8 0.523478 0.608375 0.784490
O O1 0.679997 0.866545 0.124847
O O2 0.591042 0.830290 0.061036
O O3 0.636717 0.000000 0.065967
O O4 0.771808 0.890701 0.912299
O O5 0.663738 0.670054 0.273460
O O6 0.680327 0.840238 0.282747
O O7 0.767944 0.733927 0.317502
O O8 0.826399 0.759821 0.116150
O O9 0.960137 0.873856 0.753401
O O10 0.872939 0.000000 0.742643
O O11 0.153516 0.500000 0.244232
O O12 0.017723 0.617687 0.336900
O O13 0.250000 0.250000 0.500000
O O14 0.165366 0.351955 0.467936
O O15 0.365788 0.354788 0.315427
O O16 0.500000 0.139405 0.500000
O O17 0.578155 0.000000 0.501288
O O18 0.969503 0.836532 0.900984
O O19 0.000000 0.727929 0.000000
O O20 0.522147 0.500000 0.799582
#
# Coordination Sequence:
#
# PCOD9195080 Si02
#       8
#     8   8   8   8   8   8   8   8
#     4   9  19  36  61  94 127 159 202 256 308 369
#     4  11  22  40  63  92 122 163 207 262 306 371
#     4   9  20  40  66  91 120 162 208 253 309 367
#     4  10  20  34  61  92 118 150 200 258 311 361
#     4  12  27  41  60  88 123 167 209 259 314 374
#     4  10  21  39  60  84 112 153 205 255 301 355
#     4  11  22  37  59  93 131 166 206 247 314 385
#     4  11  24  43  64  93 134 171 205 260 320 379
#
# _framework density 19.143484999999998
#
# number of rings (size 3 to 8) (size 9 to 14) (size 15 to 20)
#    0.000    1.625    2.500    1.875    3.500    4.500 
#    0.000    1.250    0.000    1.500    0.000    0.000 
#    0.000    0.000    0.000    0.000    0.000    0.000 
#
# Total GULP energy -178393.803726 kJ/mol
# GULP energy per Si atom -5574.806366 kJ/mol
# Density = 1.909991 g / cm^3
# Si number density = 19.143485 Si / 1000 Ang^3
#
#
#
# Elastic Constant Matrix: (Units=GPa)
#
#
# Indices 1 2 3 4 5 6 
#
# 1 140.2044 66.8513 38.9118 0.0000 6.8276 0.0000
# 2 66.8513 57.7600 33.2276 0.0000 10.1666 0.0000
# 3 38.9118 33.2276 60.6090 0.0000 20.5753 0.0000
# 4 0.0000 0.0000 0.0000 6.8506 0.0000 -12.9135
# 5 6.8276 10.1666 20.5753 0.0000 32.5840 0.0000
# 6 0.0000 0.0000 0.0000 -12.9135 0.0000 24.2095
#
#
#
# Elastic Compliance Matrix: (Units=1/GPa)
#
#
# Indices 1 2 3 4 5 6 
#
# 1 0.016179 -0.018533 -0.001323 0.000000 0.003228 0.000000
# 2 -0.018533 0.046549 -0.012740 0.000000 -0.002596 0.000000
# 3 -0.001323 -0.012740 0.029134 0.000000 -0.014145 0.000000
# 4 0.000000 0.000000 0.000000-26.612607 0.000000-14.195328
# 5 0.003228 -0.002596 -0.014145 0.000000 0.039755 0.000000
# 6 0.000000 0.000000 0.000000-14.195328 0.000000 -7.530568
#
#
# Mechanical properties :
#
#
# Convention : Reuss Voigt Hill
#
# Bulk Modulus (GPa) = 37.49271 59.61719 48.55495
# Shear Modulus (GPa) = -0.14733 20.70099 10.27683
#
# Velocity S-wave (km/s) = -0.27772 3.29197 2.31948
# Velocity P-wave (km/s) = 4.41869 6.75717 5.70894
#
# Compressibility (1/GPa) = 0.02667185
#
# Stress axis : x y z
#
# Youngs Moduli (GPa) = 61.80835 21.48294 34.32358
#
# Poissons Ratio (x) = 0.39814 0.04540
# Poissons Ratio (y) = 1.14548 0.43727
# Poissons Ratio (z) = 0.08175 0.27369
#
# Static dielectric constant tensor:
#      x y z
#    x 1.653460 0.000000 -0.008320 
#    y 0.000000 1.670940 0.000000 
#    z -0.008320 0.000000 1.763040 
# 
# From -- ./inp_files/225693.got.cif
#   From: 2010.05.17/outbox.cif.g08.bks.cpg/sg12_113_cif.got.tgz:225693.got - 2010.06.03 13:09:07.
