data_PCOD9195456
_publ_section_title
;
Structure prediction by ZEFSAII (Michael W. Deem and Ramdas Pophale) SiO2 
 PCOD9195456
Probable space group: C 2/M
;
_chemical_formula_sum "Si O2"
_cell_formula_units_Z 48
_cell_length_a 31.613069
_cell_length_b 8.755411
_cell_length_c 15.760326
_cell_angle_alpha 90.000000
_cell_angle_beta 38.702612
_cell_angle_gamma 90.000000
_cell_volume 2727.606424
_symmetry_space_group_name_H-M "C 2/M"
_symmetry_group_IT_number 12
_symmetry_cell_setting 'monoclinic'
loop_
_space_group_symop_operation_xyz
x,y,z
-x,y,-z
-x,-y,-z
x,-y,z
1/2+x,1/2+y,z
1/2-x,1/2+y,-z
1/2-x,1/2-y,-z
1/2+x,1/2-y,z
loop_
_atom_site_type_symbol
_atom_site_label
_atom_site_fract_x
_atom_site_fract_y
_atom_site_fract_z
Si Si1 0.741635 0.316210 0.245323
Si Si2 0.092727 0.183733 0.412638
Si Si3 0.211134 0.682285 0.640722
Si Si4 0.073765 0.816290 0.915905
Si Si5 0.378801 0.317607 0.968940
Si Si6 0.543448 0.182402 0.312469
O O1 0.749475 0.500000 0.226151
O O2 0.666946 0.276090 0.330494
O O3 0.753179 0.274126 0.325879
O O4 0.801383 0.237383 0.098863
O O5 0.080017 0.250315 0.338833
O O6 0.032609 0.251108 0.564318
O O7 0.086590 0.000000 0.419740
O O8 0.211034 0.500000 0.635383
O O9 0.250000 0.750000 0.500000
O O10 0.134653 0.742732 0.767850
O O11 0.078347 0.000000 0.900371
O O12 0.086608 0.779004 0.994671
O O13 0.000000 0.767536 0.000000
O O14 0.381349 0.500000 0.953625
O O15 0.417323 0.236858 0.832111
O O16 0.541424 0.000000 0.321059
#
# Coordination Sequence:
#
# PCOD9195456 Si02
#       6
#     8   8   8   8   8   8
#     4   9  20  37  56  78 105 137 173 218 263 305
#     4  10  20  37  58  78 103 136 176 217 260 309
#     4  10  20  35  54  78 108 139 174 214 259 309
#     4   9  19  36  56  78 105 137 175 218 261 305
#     4  10  20  35  56  79 105 139 176 214 258 310
#     4  11  22  36  54  78 109 139 171 214 261 309
#
# _framework density 17.597846000000001
#
# number of rings (size 3 to 8) (size 9 to 14) (size 15 to 20)
#    0.000    2.167    0.000    4.000    0.000    5.000 
#    0.000    6.667    0.000    0.000    0.000    0.000 
#    0.000    0.000    0.000    0.000    0.000    0.000 
#
# Total GULP energy -133998.640313 kJ/mol
# GULP energy per Si atom -5583.276680 kJ/mol
# Density = 1.755779 g / cm^3
# Si number density = 17.597846 Si / 1000 Ang^3
#
#
#
# Elastic Constant Matrix: (Units=GPa)
#
#
# Indices 1 2 3 4 5 6 
#
# 1 108.2998 51.5090 101.2387 0.0001 -34.0792 0.0000
# 2 51.5090 70.5372 75.0090 -0.0007 -6.6894 0.0001
# 3 101.2387 75.0090 195.7112 -0.0003 -4.4088 0.0001
# 4 0.0001 -0.0007 -0.0003 38.7673 0.0001 -1.6517
# 5 -34.0792 -6.6894 -4.4088 0.0001 30.4863 0.0000
# 6 0.0000 0.0001 0.0001 -1.6517 0.0000 21.8271
#
#
#
# Elastic Compliance Matrix: (Units=1/GPa)
#
#
# Indices 1 2 3 4 5 6 
#
# 1 0.046970 -0.008571 -0.019936 0.000000 0.047742 0.000000
# 2 -0.008571 0.025974 -0.005627 0.000000 -0.004696 0.000000
# 3 -0.019936 -0.005627 0.017105 0.000000 -0.021047 0.000000
# 4 0.000000 0.000000 0.000000 0.025878 -0.000001 0.001958
# 5 0.047742 -0.004696 -0.021047 -0.000001 0.082095 0.000000
# 6 0.000000 0.000000 0.000000 0.001958 0.000000 0.045963
#
#
# Mechanical properties :
#
#
# Convention : Reuss Voigt Hill
#
# Bulk Modulus (GPa) = 45.91417 92.22905 69.07161
# Shear Modulus (GPa) = 15.64872 28.00225 21.82549
#
# Velocity S-wave (km/s) = 2.98525 3.99335 3.52552
# Velocity P-wave (km/s) = 6.16682 8.58985 7.47714
#
# Compressibility (1/GPa) = 0.02177977
#
# Stress axis : x y z
#
# Youngs Moduli (GPa) = 21.29026 38.49938 58.46312
#
# Poissons Ratio (x) = 0.33000 1.16554
# Poissons Ratio (y) = 0.18249 0.32897
# Poissons Ratio (z) = 0.42445 0.21663
#
# Static dielectric constant tensor:
#      x y z
#    x 1.590460 0.000000 -0.001950 
#    y 0.000000 1.589320 0.000000 
#    z -0.001950 0.000000 1.564720 
# 
# From -- ./inp_files/229885.got.cif
#   From: 2010.05.17/outbox.cif.g08.bks.cpg/sg12_115_cif.got.tgz:229885.got - 2010.06.03 13:09:07.
