data_PCOD9195036
_publ_section_title
;
Structure prediction by ZEFSAII (Michael W. Deem and Ramdas Pophale) SiO2 
 PCOD9195036
Probable space group: C 2/M
;
_chemical_formula_sum "Si O2"
_cell_formula_units_Z 60
_cell_length_a 8.424792
_cell_length_b 20.101534
_cell_length_c 20.574175
_cell_angle_alpha 90.000000
_cell_angle_beta 126.794001
_cell_angle_gamma 90.000000
_cell_volume 2790.176488
_symmetry_space_group_name_H-M "C 2/M"
_symmetry_group_IT_number 12
_symmetry_cell_setting 'monoclinic'
loop_
_space_group_symop_operation_xyz
x,y,z
-x,y,-z
-x,-y,-z
x,-y,z
1/2+x,1/2+y,z
1/2-x,1/2+y,-z
1/2-x,1/2-y,-z
1/2+x,1/2-y,z
loop_
_atom_site_type_symbol
_atom_site_label
_atom_site_fract_x
_atom_site_fract_y
_atom_site_fract_z
Si Si1 0.703722 0.924876 0.272480
Si Si2 0.971665 0.115080 0.753388
Si Si3 0.898638 0.688056 0.043334
Si Si4 0.881164 0.200261 0.367608
Si Si5 0.929408 0.000000 0.851743
Si Si6 0.231587 0.610361 0.876252
Si Si7 0.177647 0.770810 0.199432
Si Si8 0.292898 0.168820 0.422068
O O1 0.746585 0.865719 0.333959
O O2 0.475100 0.922778 0.196614
O O3 0.840902 0.905287 0.244488
O O4 0.754022 0.000000 0.306045
O O5 0.972730 0.184991 0.793078
O O6 0.790811 0.125657 0.658448
O O7 0.937793 0.057975 0.796980
O O8 0.784470 0.630086 0.052571
O O9 0.065225 0.712912 0.134272
O O10 0.750000 0.750000 0.000000
O O11 0.000000 0.670743 0.000000
O O12 0.836412 0.238526 0.287716
O O13 0.831786 0.256040 0.407219
O O14 0.107274 0.175586 0.425013
O O15 0.898544 0.941152 0.898453
O O16 0.248352 0.677608 0.836989
O O17 0.500000 0.142897 0.500000
#
# Coordination Sequence:
#
# PCOD9195036 Si02
#       8
#     8   8   8   8   4   8   8   8
#     4  11  20  34  59  89 116 152 209 257 295 342
#     4   9  21  36  62  87 116 157 211 259 295 350
#     4  12  25  39  59  91 127 155 191 251 320 369
#     4  10  20  34  60  85 120 157 204 257 294 356
#     4  10  20  42  60  85 117 161 211 259 290 356
#     4  11  22  37  61  87 120 153 199 254 303 358
#     4  10  21  38  60  89 118 153 207 253 309 353
#     4  10  20  35  57  94 126 160 195 251 318 363
#
# _framework density 21.504014999999999
#
# number of rings (size 3 to 8) (size 9 to 14) (size 15 to 20)
#    0.000    1.600    4.000    1.200    5.600    0.000 
#    0.000    0.667    0.000    6.800    0.000    0.000 
#    0.000    0.000    0.000    0.000    0.000    0.000 
#
# Total GULP energy -167137.915417 kJ/mol
# GULP energy per Si atom -5571.263847 kJ/mol
# Density = 2.145507 g / cm^3
# Si number density = 21.504015 Si / 1000 Ang^3
#
#
#
# Elastic Constant Matrix: (Units=GPa)
#
#
# Indices 1 2 3 4 5 6 
#
# 1 30.0560 9.3263 11.9005 0.0000 0.5982 0.0000
# 2 9.3263 91.0809 3.9648 0.0000 -7.9271 0.0000
# 3 11.9005 3.9648 55.8368 0.0000 11.8245 0.0000
# 4 0.0000 0.0000 0.0000 18.4211 0.0000 -13.2057
# 5 0.5982 -7.9271 11.8245 0.0000 30.8623 0.0000
# 6 0.0000 0.0000 0.0000 -13.2057 0.0000 22.0788
#
#
#
# Elastic Compliance Matrix: (Units=1/GPa)
#
#
# Indices 1 2 3 4 5 6 
#
# 1 0.037477 -0.003355 -0.008067 0.000000 0.001503 0.000000
# 2 -0.003355 0.011653 -0.000827 0.000000 0.003375 0.000000
# 3 -0.008067 -0.000827 0.021439 0.000000 -0.008270 0.000000
# 4 0.000000 0.000000 0.000000 0.095034 0.000000 0.056841
# 5 0.001503 0.003375 -0.008270 0.000000 0.036408 0.000000
# 6 0.000000 0.000000 0.000000 0.056841 0.000000 0.079290
#
#
# Mechanical properties :
#
#
# Convention : Reuss Voigt Hill
#
# Bulk Modulus (GPa) = 21.70681 25.26188 23.48434
# Shear Modulus (GPa) = 15.56878 24.39124 19.98001
#
# Velocity S-wave (km/s) = 2.69363 3.37154 3.05147
# Velocity P-wave (km/s) = 4.44864 5.18935 4.83321
#
# Compressibility (1/GPa) = 0.04606850
#
# Stress axis : x y z
#
# Youngs Moduli (GPa) = 26.68319 85.81801 46.64445
#
# Poissons Ratio (x) = 0.28796 0.37630
# Poissons Ratio (y) = 0.08954 0.03857
# Poissons Ratio (z) = 0.21526 0.07097
#
# Static dielectric constant tensor:
#      x y z
#    x 1.846760 0.000000 0.013510 
#    y 0.000000 1.772660 0.000000 
#    z 0.013510 0.000000 1.810680 
# 
# From -- ./inp_files/258073.got.cif
#   From: 2010.05.17/outbox.cif.g08.bks.cpg/sg12_130_cif.got.tgz:258073.got - 2010.06.03 13:09:07.
