data_PCOD9195030
_publ_section_title
;
Structure prediction by ZEFSAII (Michael W. Deem and Ramdas Pophale) SiO2 
 PCOD9195030
Probable space group: C 2/M
;
_chemical_formula_sum "Si O2"
_cell_formula_units_Z 48
_cell_length_a 5.640623
_cell_length_b 24.898703
_cell_length_c 16.380513
_cell_angle_alpha 90.000000
_cell_angle_beta 112.758706
_cell_angle_gamma 90.000000
_cell_volume 2121.432388
_symmetry_space_group_name_H-M "C 2/M"
_symmetry_group_IT_number 12
_symmetry_cell_setting 'monoclinic'
loop_
_space_group_symop_operation_xyz
x,y,z
-x,y,-z
-x,-y,-z
x,-y,z
1/2+x,1/2+y,z
1/2-x,1/2+y,-z
1/2-x,1/2-y,-z
1/2+x,1/2-y,z
loop_
_atom_site_type_symbol
_atom_site_label
_atom_site_fract_x
_atom_site_fract_y
_atom_site_fract_z
Si Si1 0.254415 0.389541 0.306210
Si Si2 0.303282 0.826262 0.046842
Si Si3 0.009597 0.720068 0.244972
Si Si4 0.628941 0.440619 0.264452
Si Si5 0.361867 0.939484 0.560169
Si Si6 0.855288 0.439436 0.127653
O O1 0.104165 0.334992 0.299130
O O2 0.512274 0.387187 0.287567
O O3 0.340629 0.412949 0.405374
O O4 0.098813 0.425037 0.217633
O O5 0.404533 0.798251 0.142374
O O6 0.321754 0.890929 0.061500
O O7 0.500000 0.812122 0.000000
O O8 0.000000 0.813436 0.000000
O O9 0.271069 0.753664 0.261632
O O10 0.522408 0.500000 0.273966
O O11 0.912059 0.442410 0.341387
O O12 0.633185 0.437517 0.167483
O O13 0.500000 0.914239 0.500000
O O14 0.286916 0.000000 0.526672
O O15 0.870751 0.500000 0.097224
#
# Coordination Sequence:
#
# PCOD9195030 Si02
#       6
#     8   8   8   8   8   8
#     4  10  20  34  60  82 117 152 203 247 297 346
#     4  11  25  41  62  88 121 156 192 245 306 369
#     4  11  26  43  67  89 111 150 204 261 308 355
#     4   9  17  31  56  84 115 157 198 235 281 346
#     4   9  18  32  53  90 131 160 190 230 285 353
#     4   9  20  35  55  84 120 158 196 235 283 354
#
# _framework density 22.62622
#
# number of rings (size 3 to 8) (size 9 to 14) (size 15 to 20)
#    0.000    2.167    0.000    3.500   11.667    3.333 
#    0.000    2.500    0.000    1.000    0.000    0.000 
#    0.000    0.000    0.000    0.000    0.000    0.000 
#
# Total GULP energy -133665.713977 kJ/mol
# GULP energy per Si atom -5569.404749 kJ/mol
# Density = 2.257472 g / cm^3
# Si number density = 22.626220 Si / 1000 Ang^3
#
#
#
# Elastic Constant Matrix: (Units=GPa)
#
#
# Indices 1 2 3 4 5 6 
#
# 1 77.2403 5.2256 -1.2595 0.0000 -6.1011 0.0000
# 2 5.2256 65.0434 -8.7754 0.0000 -5.1545 0.0000
# 3 -1.2595 -8.7754 36.8322 0.0000 -11.0599 0.0000
# 4 0.0000 0.0000 0.0000 20.3226 0.0000 7.1077
# 5 -6.1011 -5.1545 -11.0599 0.0000 24.4562 0.0000
# 6 0.0000 0.0000 0.0000 7.1077 0.0000 17.2339
#
#
#
# Elastic Compliance Matrix: (Units=1/GPa)
#
#
# Indices 1 2 3 4 5 6 
#
# 1 0.013315 -0.000562 0.001485 0.000000 0.003875 0.000000
# 2 -0.000562 0.016668 0.005745 0.000000 0.005971 0.000000
# 3 0.001485 0.005745 0.033608 0.000000 0.016780 0.000000
# 4 0.000000 0.000000 0.000000 0.057500 0.000000 -0.023715
# 5 0.003875 0.005971 0.016780 0.000000 0.050703 0.000000
# 6 0.000000 0.000000 0.000000 -0.023715 0.000000 0.067806
#
#
# Mechanical properties :
#
#
# Convention : Reuss Voigt Hill
#
# Bulk Modulus (GPa) = 12.99966 18.83305 15.91635
# Shear Modulus (GPa) = 19.84859 24.66422 22.25641
#
# Velocity S-wave (km/s) = 2.96503 3.30521 3.13973
# Velocity P-wave (km/s) = 4.18088 4.78618 4.49373
#
# Compressibility (1/GPa) = 0.07692512
#
# Stress axis : x y z
#
# Youngs Moduli (GPa) = 75.10372 59.99619 29.75465
#
# Poissons Ratio (x) = 0.03374 -0.04418
# Poissons Ratio (y) = 0.04224 -0.17093
# Poissons Ratio (z) = -0.11151 -0.34466
#
# Static dielectric constant tensor:
#      x y z
#    x 2.174660 0.000000 -0.028770 
#    y 0.000000 1.958870 0.000000 
#    z -0.028770 0.000000 1.808480 
# 
# From -- ./inp_files/253166.got.cif
#   From: 2010.05.17/outbox.cif.g08.bks.cpg/sg12_127_cif.got.tgz:253166.got - 2010.06.03 13:09:07.
