data_PCOD9195761
_publ_section_title
;
Structure prediction by ZEFSAII (Michael W. Deem and Ramdas Pophale) SiO2 
 PCOD9195761
Probable space group: C 2/M
;
_chemical_formula_sum "Si O2"
_cell_formula_units_Z 40
_cell_length_a 28.130955
_cell_length_b 8.449497
_cell_length_c 26.361330
_cell_angle_alpha 90.000000
_cell_angle_beta 20.492499
_cell_angle_gamma 90.000000
_cell_volume 2193.591957
_symmetry_space_group_name_H-M "C 2/M"
_symmetry_group_IT_number 12
_symmetry_cell_setting 'monoclinic'
loop_
_space_group_symop_operation_xyz
x,y,z
-x,y,-z
-x,-y,-z
x,-y,z
1/2+x,1/2+y,z
1/2-x,1/2+y,-z
1/2-x,1/2-y,-z
1/2+x,1/2-y,z
loop_
_atom_site_type_symbol
_atom_site_label
_atom_site_fract_x
_atom_site_fract_y
_atom_site_fract_z
Si Si1 0.847102 0.811899 0.446950
Si Si2 0.843454 0.806328 0.156963
Si Si3 0.841877 0.308618 0.563851
Si Si4 0.848194 0.310477 0.858227
Si Si5 0.845265 0.307354 0.746749
O O1 0.750000 0.750000 0.500000
O O2 0.805118 0.751937 0.544772
O O3 0.999181 0.749092 0.285966
O O4 0.847936 0.000000 0.445924
O O5 0.761547 0.757183 0.289114
O O6 0.758402 0.753446 0.192732
O O7 0.843767 0.000000 0.156272
O O8 0.000000 0.754964 0.000000
O O9 0.841534 0.500000 0.562787
O O10 0.997908 0.259413 0.419402
O O11 0.848777 0.500000 0.857947
O O12 0.807740 0.258385 0.841528
O O13 0.750000 0.250000 0.000000
O O14 0.844340 0.500000 0.746510
#
# Coordination Sequence:
#
# PCOD9195761 Si02
#       5
#     8   8   8   8   8
#     4  11  22  37  56  78 106 139 179 224 272 325
#     4   9  16  26  45  75 104 130 168 216 260 305
#     4   9  17  31  51  73 100 134 172 213 260 314
#     4  10  20  35  55  80 110 144 183 223 267 316
#     4   8  15  28  46  69  99 137 176 212 252 305
#
# _framework density 18.234932000000001
#
# number of rings (size 3 to 8) (size 9 to 14) (size 15 to 20)
#    0.000    2.600    0.000    4.200    0.000    4.000 
#    0.000    4.000    0.000   11.400    0.000    0.000 
#    0.000    0.000    0.000    0.000    0.000    0.000 
#
# Total GULP energy -111574.025709 kJ/mol
# GULP energy per Si atom -5578.701285 kJ/mol
# Density = 1.819343 g / cm^3
# Si number density = 18.234932 Si / 1000 Ang^3
#
#
#
# Elastic Constant Matrix: (Units=GPa)
#
#
# Indices 1 2 3 4 5 6 
#
# 1 210.4976 33.9817 142.1043 0.0000 -2.2432 -0.0001
# 2 33.9817 35.8122 30.2508 0.0026 3.9396 -0.0003
# 3 142.1043 30.2508 154.2119 -0.0012 21.7339 0.0007
# 4 0.0000 0.0026 -0.0012 20.6004 0.0012 4.1148
# 5 -2.2432 3.9396 21.7339 0.0012 32.2427 -0.0004
# 6 -0.0001 -0.0003 0.0007 4.1148 -0.0004 23.0292
#
#
#
# Elastic Compliance Matrix: (Units=1/GPa)
#
#
# Indices 1 2 3 4 5 6 
#
# 1 0.016286 -0.003194 -0.016127 -0.000001 0.012394 0.000001
# 2 -0.003194 0.034100 -0.003456 -0.000005 -0.002059 0.000001
# 3 -0.016127 -0.003456 0.024445 0.000003 -0.017177 -0.000002
# 4 -0.000001 -0.000005 0.000003 0.050339 -0.000004 -0.008995
# 5 0.012394 -0.002059 -0.017177 -0.000004 0.043707 0.000002
# 6 0.000001 0.000001 -0.000002 -0.008995 0.000002 0.045030
#
#
# Mechanical properties :
#
#
# Convention : Reuss Voigt Hill
#
# Bulk Modulus (GPa) = 34.15775 90.35502 62.25639
# Shear Modulus (GPa) = 18.57219 28.12011 23.34615
#
# Velocity S-wave (km/s) = 3.19485 3.93122 3.58201
# Velocity P-wave (km/s) = 5.69053 8.38237 7.16401
#
# Compressibility (1/GPa) = 0.02927593
#
# Stress axis : x y z
#
# Youngs Moduli (GPa) = 61.40352 29.32574 40.90898
#
# Poissons Ratio (x) = 0.09366 0.65975
# Poissons Ratio (y) = 0.19612 0.14137
# Poissons Ratio (z) = 0.99028 0.10134
#
# Static dielectric constant tensor:
#      x y z
#    x 1.618780 0.000000 0.004530 
#    y 0.000000 1.629420 0.000000 
#    z 0.004530 0.000000 1.602890 
# 
# From -- ./inp_files/101190.got.cif
#   From: 2010.05.17/outbox.cif.g08.bks.cpg/sg12_51_cif.got.tgz:101190.got - 2010.06.03 13:09:07.
