data_PCOD9195042
_publ_section_title
;
Structure prediction by ZEFSAII (Michael W. Deem and Ramdas Pophale) SiO2 
 PCOD9195042
Probable space group: C 2/M
;
_chemical_formula_sum "Si O2"
_cell_formula_units_Z 58
_cell_length_a 14.162060
_cell_length_b 12.845401
_cell_length_c 19.439698
_cell_angle_alpha 90.000000
_cell_angle_beta 51.139345
_cell_angle_gamma 90.000000
_cell_volume 2753.717524
_symmetry_space_group_name_H-M "C 2/M"
_symmetry_group_IT_number 12
_symmetry_cell_setting 'monoclinic'
loop_
_space_group_symop_operation_xyz
x,y,z
-x,y,-z
-x,-y,-z
x,-y,z
1/2+x,1/2+y,z
1/2-x,1/2+y,-z
1/2-x,1/2-y,-z
1/2+x,1/2-y,z
loop_
_atom_site_type_symbol
_atom_site_label
_atom_site_fract_x
_atom_site_fract_y
_atom_site_fract_z
Si Si1 0.919758 0.331591 0.376104
Si Si2 0.733883 0.375513 0.252094
Si Si3 0.517482 0.881103 0.807548
Si Si4 0.500000 0.000000 0.000000
Si Si5 0.791630 0.882726 0.422343
Si Si6 0.237555 0.120509 0.953986
Si Si7 0.783603 0.332168 0.084537
Si Si8 0.107099 0.292127 0.397768
O O1 0.939982 0.374491 0.290798
O O2 0.891094 0.207700 0.385061
O O3 0.802415 0.375217 0.470221
O O4 0.039095 0.352060 0.367168
O O5 0.728749 0.500000 0.264098
O O6 0.872682 0.334925 0.199129
O O7 0.700835 0.346289 0.189621
O O8 0.658776 0.313414 0.342572
O O9 0.379655 0.847948 0.877822
O O10 0.512196 0.000000 0.836111
O O11 0.394735 0.089743 0.041228
O O12 0.710175 0.853413 0.392681
O O13 0.838984 0.000000 0.396217
O O14 0.172499 0.212924 0.943393
O O15 0.219935 0.000000 0.941723
O O16 0.217174 0.134396 0.044470
O O17 0.000000 0.268759 0.500000
#
# Coordination Sequence:
#
# PCOD9195042 Si02
#       8
#     8   8   8   2   8   8   8   8
#     4  10  20  37  57  84 116 154 206 256 308 369
#     4  11  21  36  58  88 121 162 208 253 307 372
#     4  10  20  34  60  87 117 158 205 254 302 366
#     4  12  20  40  66 100 118 166 208 246 304 376
#     4  10  21  38  59  82 117 159 204 256 319 376
#     4  10  21  39  61  95 126 160 204 260 313 370
#     4  11  22  37  65  93 125 160 208 253 308 379
#     4  10  22  38  57  86 121 159 207 261 312 370
#
# _framework density 21.062436000000002
#
# number of rings (size 3 to 8) (size 9 to 14) (size 15 to 20)
#    0.000    1.655    2.759    2.069    1.931    3.862 
#    0.000    1.034    0.000    0.000    0.000    0.000 
#    0.000    0.000    0.000    0.000    0.000    0.000 
#
# Total GULP energy -161627.109865 kJ/mol
# GULP energy per Si atom -5573.348616 kJ/mol
# Density = 2.101450 g / cm^3
# Si number density = 21.062436 Si / 1000 Ang^3
#
#
#
# Elastic Constant Matrix: (Units=GPa)
#
#
# Indices 1 2 3 4 5 6 
#
# 1 40.6733 -1.9397 -0.4554 0.0000 2.3322 0.0000
# 2 -1.9397 120.2066 -7.2270 0.0000 -12.5822 0.0000
# 3 -0.4554 -7.2270 27.5938 0.0000 9.2746 0.0000
# 4 0.0000 0.0000 0.0000 22.6161 0.0000 -1.9536
# 5 2.3322 -12.5822 9.2746 0.0000 15.7176 0.0000
# 6 0.0000 0.0000 0.0000 -1.9536 0.0000 2.5098
#
#
#
# Elastic Compliance Matrix: (Units=1/GPa)
#
#
# Indices 1 2 3 4 5 6 
#
# 1 0.024891 0.000013 0.002061 0.000000 -0.004899 0.000000
# 2 0.000013 0.009080 -0.000080 0.000000 0.007314 0.000000
# 3 0.002061 -0.000080 0.045377 0.000000 -0.027146 0.000000
# 4 0.000000 0.000000 0.000000 0.047404 0.000000 0.036900
# 5 -0.004899 0.007314 -0.027146 0.000000 0.086223 0.000000
# 6 0.000000 0.000000 0.000000 0.036900 0.000000 0.427166
#
#
# Mechanical properties :
#
#
# Convention : Reuss Voigt Hill
#
# Bulk Modulus (GPa) = 11.99980 18.80329 15.40155
# Shear Modulus (GPa) = 7.53089 21.37507 14.45298
#
# Velocity S-wave (km/s) = 1.89295 3.18912 2.62238
# Velocity P-wave (km/s) = 3.23841 4.74420 4.06169
#
# Compressibility (1/GPa) = 0.08333474
#
# Stress axis : x y z
#
# Youngs Moduli (GPa) = 40.17556 110.13245 22.03761
#
# Poissons Ratio (x) = -0.00140 -0.04541
# Poissons Ratio (y) = -0.00051 0.00176
# Poissons Ratio (z) = -0.08279 0.00881
#
# Static dielectric constant tensor:
#      x y z
#    x 1.836690 0.000000 0.033050 
#    y 0.000000 1.753810 0.000000 
#    z 0.033050 0.000000 1.793340 
# 
# From -- ./inp_files/309857.got.cif
#   From: 2010.05.17/outbox.cif.g08.bks.cpg/sg12_155_cif.got.tgz:309857.got - 2010.06.03 13:09:07.
