data_PCOD9195066
_publ_section_title
;
Structure prediction by ZEFSAII (Michael W. Deem and Ramdas Pophale) SiO2 
 PCOD9195066
Probable space group: C 2/M
;
_chemical_formula_sum "Si O2"
_cell_formula_units_Z 64
_cell_length_a 9.174129
_cell_length_b 24.330541
_cell_length_c 14.573386
_cell_angle_alpha 90.000000
_cell_angle_beta 76.474680
_cell_angle_gamma 90.000000
_cell_volume 3162.732569
_symmetry_space_group_name_H-M "C 2/M"
_symmetry_group_IT_number 12
_symmetry_cell_setting 'monoclinic'
loop_
_space_group_symop_operation_xyz
x,y,z
-x,y,-z
-x,-y,-z
x,-y,z
1/2+x,1/2+y,z
1/2-x,1/2+y,-z
1/2-x,1/2-y,-z
1/2+x,1/2-y,z
loop_
_atom_site_type_symbol
_atom_site_label
_atom_site_fract_x
_atom_site_fract_y
_atom_site_fract_z
Si Si1 0.620190 0.733476 0.166726
Si Si2 0.838329 0.360237 0.142108
Si Si3 0.835115 0.863000 0.551734
Si Si4 0.680346 0.847290 0.071556
Si Si5 0.781768 0.674681 0.608062
Si Si6 0.119825 0.065062 0.278868
Si Si7 0.082042 0.279833 0.638607
Si Si8 0.396480 0.636533 0.190926
O O1 0.760607 0.697643 0.182392
O O2 0.680558 0.781526 0.092334
O O3 0.519603 0.761030 0.260413
O O4 0.509307 0.685975 0.145984
O O5 0.764073 0.410169 0.206214
O O6 0.014682 0.362665 0.129378
O O7 0.809148 0.360526 0.036965
O O8 0.751326 0.870460 0.465836
O O9 0.874012 0.911162 0.618268
O O10 0.717009 0.824017 0.622516
O O11 0.000000 0.840774 0.500000
O O12 0.805881 0.877302 0.112982
O O13 0.673977 0.725585 0.596598
O O14 0.723792 0.657480 0.716783
O O15 0.951005 0.694875 0.594888
O O16 0.988804 0.091824 0.235246
O O17 0.112108 0.000000 0.280443
#
# Coordination Sequence:
#
# PCOD9195066 Si02
#       8
#     8   8   8   8   8   8   8   8
#     4  10  20  34  60  95 140 181 209 238 307 387
#     4  10  24  40  64  96 135 171 218 261 317 384
#     4  12  24  42  64  90 123 165 220 267 323 383
#     4  11  20  38  65 101 134 173 205 256 320 386
#     4  11  22  38  59  99 135 174 210 252 309 388
#     4  11  26  49  69  87 117 166 224 283 335 379
#     4  11  23  36  63  94 143 179 207 250 313 384
#     4  10  22  38  63  93 129 167 218 266 309 378
#
# _framework density 20.235665999999998
#
# number of rings (size 3 to 8) (size 9 to 14) (size 15 to 20)
#    0.000    1.250    2.500    3.375    5.250    3.250 
#    0.000    3.125    0.000    1.500    0.000    0.000 
#    0.000    0.000    0.000    0.000    0.000    0.000 
#
# Total GULP energy -178484.901196 kJ/mol
# GULP energy per Si atom -5577.653162 kJ/mol
# Density = 2.018961 g / cm^3
# Si number density = 20.235666 Si / 1000 Ang^3
#
#
#
# Elastic Constant Matrix: (Units=GPa)
#
#
# Indices 1 2 3 4 5 6 
#
# 1 139.2601 41.8069 40.3044 0.0000 9.0279 0.0000
# 2 41.8069 88.6137 15.2769 0.0000 10.3760 0.0000
# 3 40.3044 15.2769 45.5038 0.0000 6.8611 0.0000
# 4 0.0000 0.0000 0.0000 14.0540 0.0000 2.2775
# 5 9.0279 10.3760 6.8611 0.0000 40.1181 0.0000
# 6 0.0000 0.0000 0.0000 2.2775 0.0000 -0.8026
#
#
#
# Elastic Compliance Matrix: (Units=1/GPa)
#
#
# Indices 1 2 3 4 5 6 
#
# 1 0.010640 -0.003598 -0.008207 0.000000 -0.000060 0.000000
# 2 -0.003598 0.013439 -0.000947 0.000000 -0.002504 0.000000
# 3 -0.008207 -0.000947 0.030023 0.000000 -0.003043 0.000000
# 4 0.000000 0.000000 0.000000 0.048740 0.000000 0.138314
# 5 -0.000060 -0.002504 -0.003043 0.000000 0.026108 0.000000
# 6 0.000000 0.000000 0.000000 0.138314 0.000000 -0.853497
#
#
# Mechanical properties :
#
#
# Convention : Reuss Voigt Hill
#
# Bulk Modulus (GPa) = 34.96968 52.01711 43.49340
# Shear Modulus (GPa) = -7.25153 22.40653 7.57750
#
# Velocity S-wave (km/s) = -1.89508 3.33119 1.93720
# Velocity P-wave (km/s) = 3.53982 6.36846 5.15206
#
# Compressibility (1/GPa) = 0.02859620
#
# Stress axis : x y z
#
# Youngs Moduli (GPa) = 93.98310 74.41060 33.30822
#
# Poissons Ratio (x) = 0.26772 0.27337
# Poissons Ratio (y) = 0.33814 0.03156
# Poissons Ratio (z) = 0.77136 0.07050
#
# Static dielectric constant tensor:
#      x y z
#    x 1.761260 0.000000 0.025290 
#    y 0.000000 1.686450 0.000000 
#    z 0.025290 0.000000 1.794860 
# 
# From -- ./inp_files/199785.got.cif
#   From: 2010.05.17/outbox.cif.g08.bks.cpg/sg12_100_cif.got.tgz:199785.got - 2010.06.03 13:09:07.
