data_PCOD9195595
_publ_section_title
;
Structure prediction by ZEFSAII (Michael W. Deem and Ramdas Pophale) SiO2 
 PCOD9195595
Probable space group: C 2/M
;
_chemical_formula_sum "Si O2"
_cell_formula_units_Z 56
_cell_length_a 23.346931
_cell_length_b 8.906146
_cell_length_c 19.965968
_cell_angle_alpha 90.000000
_cell_angle_beta 51.300150
_cell_angle_gamma 90.000000
_cell_volume 3240.000475
_symmetry_space_group_name_H-M "C 2/M"
_symmetry_group_IT_number 12
_symmetry_cell_setting 'monoclinic'
loop_
_space_group_symop_operation_xyz
x,y,z
-x,y,-z
-x,-y,-z
x,-y,z
1/2+x,1/2+y,z
1/2-x,1/2+y,-z
1/2-x,1/2-y,-z
1/2+x,1/2-y,z
loop_
_atom_site_type_symbol
_atom_site_label
_atom_site_fract_x
_atom_site_fract_y
_atom_site_fract_z
Si Si1 0.580238 0.322571 0.969577
Si Si2 0.202135 0.321392 0.095063
Si Si3 0.101844 0.180093 0.692896
Si Si4 0.229586 0.322204 0.822353
Si Si5 0.561113 0.678103 0.141644
Si Si6 0.249084 0.180204 0.667276
Si Si7 0.822535 0.320699 0.480239
O O1 0.594180 0.500000 0.945937
O O2 0.644470 0.226728 0.890087
O O3 0.500000 0.286882 0.000000
O O4 0.578944 0.300087 0.050315
O O5 0.210806 0.500000 0.087270
O O6 0.230464 0.257181 0.144608
O O7 0.118677 0.272343 0.142348
O O8 0.250000 0.250000 0.000000
O O9 0.170618 0.222820 0.690347
O O10 0.112730 0.253983 0.612095
O O11 0.023368 0.217605 0.781928
O O12 0.106263 0.000000 0.682252
O O13 0.237035 0.500000 0.822669
O O14 0.258358 0.263341 0.730227
O O15 0.570425 0.500000 0.149019
O O16 0.312311 0.213802 0.566258
O O17 0.247231 0.000000 0.679224
O O18 0.820702 0.500000 0.474604
O O19 0.750000 0.250000 0.500000
#
# Coordination Sequence:
#
# PCOD9195595 Si02
#       7
#     8   8   8   8   8   8   8
#     4  10  20  35  55  77 107 146 177 210 264 323
#     4  12  24  40  59  77 102 140 185 230 272 319
#     4   9  18  33  55  83 114 146 179 216 267 327
#     4  12  24  36  54  80 107 139 181 229 273 316
#     4  10  20  35  56  80 108 143 181 221 264 320
#     4   9  18  34  54  79 111 148 182 215 265 326
#     4   9  17  30  51  78 110 146 182 220 265 320
#
# _framework density 17.283947000000001
#
# number of rings (size 3 to 8) (size 9 to 14) (size 15 to 20)
#    0.000    1.857    1.429    4.714    0.000    6.000 
#    0.000    1.429    0.000    0.857    0.000    6.000 
#    0.000    0.000    0.000    0.000    0.000    0.000 
#
# Total GULP energy -156292.693915 kJ/mol
# GULP energy per Si atom -5581.881926 kJ/mol
# Density = 1.724461 g / cm^3
# Si number density = 17.283947 Si / 1000 Ang^3
#
#
#
# Elastic Constant Matrix: (Units=GPa)
#
#
# Indices 1 2 3 4 5 6 
#
# 1 59.0686 26.7883 6.5777 0.0001 23.5282 -0.0003
# 2 26.7883 63.6727 35.4082 0.0000 19.3547 -0.0002
# 3 6.5777 35.4082 81.5562 0.0001 24.7445 0.0001
# 4 0.0001 0.0000 0.0001 31.8693 0.0000 0.5954
# 5 23.5282 19.3547 24.7445 0.0000 23.6001 0.0000
# 6 -0.0003 -0.0002 0.0001 0.5954 0.0000 24.9168
#
#
#
# Elastic Compliance Matrix: (Units=1/GPa)
#
#
# Indices 1 2 3 4 5 6 
#
# 1 0.038165 -0.010840 0.015362 0.000000 -0.045266 0.000000
# 2 -0.010840 0.025967 -0.010584 0.000000 0.000609 0.000000
# 3 0.015362 -0.010584 0.025856 0.000000 -0.033745 0.000000
# 4 0.000000 0.000000 0.000000 0.031392 0.000000 -0.000750
# 5 -0.045266 0.000609 -0.033745 0.000000 0.122383 0.000000
# 6 0.000000 0.000000 0.000000 -0.000750 0.000000 0.040152
#
#
# Mechanical properties :
#
#
# Convention : Reuss Voigt Hill
#
# Bulk Modulus (GPa) = 12.84293 37.98286 25.41289
# Shear Modulus (GPa) = 15.52829 25.11213 20.32021
#
# Velocity S-wave (km/s) = 3.00062 3.81585 3.43252
# Velocity P-wave (km/s) = 4.41040 6.43722 5.51767
#
# Compressibility (1/GPa) = 0.07786388
#
# Stress axis : x y z
#
# Youngs Moduli (GPa) = 26.20189 38.51101 38.67578
#
# Poissons Ratio (x) = 0.41746 -0.59414
# Poissons Ratio (y) = 0.28403 0.40934
# Poissons Ratio (z) = -0.40251 0.40760
#
# Static dielectric constant tensor:
#      x y z
#    x 1.576020 0.000000 -0.004730 
#    y 0.000000 1.578270 0.000000 
#    z -0.004730 0.000000 1.603830 
# 
# From -- ./inp_files/280859.got.cif
#   From: 2010.05.17/outbox.cif.g08.bks.cpg/sg12_141_cif.got.tgz:280859.got - 2010.06.03 13:09:07.
