data_PCOD9195665
_publ_section_title
;
Structure prediction by ZEFSAII (Michael W. Deem and Ramdas Pophale) SiO2 
 PCOD9195665
Probable space group: C 2/M
;
_chemical_formula_sum "Si O2"
_cell_formula_units_Z 64
_cell_length_a 32.678270
_cell_length_b 8.981437
_cell_length_c 26.396357
_cell_angle_alpha 90.000000
_cell_angle_beta 151.380192
_cell_angle_gamma 90.000000
_cell_volume 3710.907982
_symmetry_space_group_name_H-M "C 2/M"
_symmetry_group_IT_number 12
_symmetry_cell_setting 'monoclinic'
loop_
_space_group_symop_operation_xyz
x,y,z
-x,y,-z
-x,-y,-z
x,-y,z
1/2+x,1/2+y,z
1/2-x,1/2+y,-z
1/2-x,1/2-y,-z
1/2+x,1/2-y,z
loop_
_atom_site_type_symbol
_atom_site_label
_atom_site_fract_x
_atom_site_fract_y
_atom_site_fract_z
Si Si1 0.924708 0.821552 0.456458
Si Si2 0.017440 0.321868 0.273565
Si Si3 0.179837 0.322191 0.959929
Si Si4 0.269524 0.822743 0.782759
Si Si5 0.700470 0.821656 0.300153
Si Si6 0.383703 0.821638 0.516303
Si Si7 0.144438 0.177045 0.027229
Si Si8 0.053726 0.177241 0.207826
O O1 0.831631 0.789876 0.331455
O O2 0.928521 0.739384 0.514292
O O3 0.000000 0.780080 0.500000
O O4 0.928470 0.000000 0.469322
O O5 0.025947 0.500000 0.274927
O O6 0.063143 0.283013 0.375709
O O7 0.057706 0.237981 0.269447
O O8 0.916259 0.287752 0.164058
O O9 0.189906 0.500000 0.971942
O O10 0.250000 0.250000 0.000000
O O11 0.184267 0.257207 0.021471
O O12 0.307321 0.787082 0.768293
O O13 0.313607 0.735279 0.875838
O O14 0.279207 0.000000 0.801719
O O15 0.789875 0.751151 0.415359
O O16 0.622900 0.756459 0.247875
O O17 0.704967 0.000000 0.309921
O O18 0.375942 0.000000 0.505089
O O19 0.155223 0.000000 0.033891
O O20 0.042850 0.209503 0.915834
O O21 0.066629 0.000000 0.221032
#
# Coordination Sequence:
#
# PCOD9195665 Si02
#       8
#     8   8   8   8   8   8   8   8
#     4   9  19  36  55  77 107 141 177 215 258 311
#     4   9  20  37  55  77 106 139 174 214 260 310
#     4  10  20  36  56  78 107 140 176 217 260 309
#     4   9  19  35  54  77 104 138 177 214 258 310
#     4  10  21  37  56  78 106 139 174 213 260 313
#     4  10  20  35  55  79 106 136 174 218 262 308
#     4  10  21  36  54  78 107 138 174 217 263 309
#     4  10  21  36  55  79 105 136 175 216 259 308
#
# _framework density 17.246452999999999
#
# number of rings (size 3 to 8) (size 9 to 14) (size 15 to 20)
#    0.000    2.375    0.000    2.625    0.000    7.750 
#    0.000    5.000    0.000    0.000    0.000    0.000 
#    0.000    0.000    0.000    0.000    0.000    0.000 
#
# Total GULP energy -178611.503426 kJ/mol
# GULP energy per Si atom -5581.609482 kJ/mol
# Density = 1.720720 g / cm^3
# Si number density = 17.246453 Si / 1000 Ang^3
#
#
#
# Elastic Constant Matrix: (Units=GPa)
#
#
# Indices 1 2 3 4 5 6 
#
# 1 189.4610 85.2616 103.7631 0.0000 5.3437 0.0000
# 2 85.2616 65.6482 64.5350 0.0000 -6.0426 0.0000
# 3 103.7631 64.5350 106.2772 0.0000 -25.5936 0.0000
# 4 0.0000 0.0000 0.0000 28.9443 0.0000 -1.2756
# 5 5.3437 -6.0426 -25.5936 0.0000 27.7943 0.0000
# 6 0.0000 0.0000 0.0000 -1.2756 0.0000 37.5184
#
#
#
# Elastic Compliance Matrix: (Units=1/GPa)
#
#
# Indices 1 2 3 4 5 6 
#
# 1 0.023787 -0.009534 -0.024460 0.000000 -0.029169 0.000000
# 2 -0.009534 0.048686 -0.022184 0.000000 -0.008010 0.000000
# 3 -0.024460 -0.022184 0.060048 0.000000 0.055173 0.000000
# 4 0.000000 0.000000 0.000000 0.034601 0.000000 0.001176
# 5 -0.029169 -0.008010 0.055173 0.000000 0.090650 0.000000
# 6 0.000000 0.000000 0.000000 0.001176 0.000000 0.026694
#
#
# Mechanical properties :
#
#
# Convention : Reuss Voigt Hill
#
# Bulk Modulus (GPa) = 49.58930 96.50064 73.04497
# Shear Modulus (GPa) = 12.39024 26.03983 19.21504
#
# Velocity S-wave (km/s) = 2.68325 3.88991 3.34150
# Velocity P-wave (km/s) = 6.19803 8.73216 7.57186
#
# Compressibility (1/GPa) = 0.02016564
#
# Stress axis : x y z
#
# Youngs Moduli (GPa) = 42.03909 20.53980 16.65336
#
# Poissons Ratio (x) = 0.19583 0.40734
# Poissons Ratio (y) = 0.40081 0.36944
# Poissons Ratio (z) = 1.02826 0.45565
#
# Static dielectric constant tensor:
#      x y z
#    x 1.555660 0.000000 0.004560 
#    y 0.000000 1.573540 0.000000 
#    z 0.004560 0.000000 1.565320 
# 
# From -- ./inp_files/244203.got.cif
#   From: 2010.05.17/outbox.cif.g08.bks.cpg/sg12_123_cif.got.tgz:244203.got - 2010.06.03 13:09:07.
