data_PCOD9195138
_publ_section_title
;
Structure prediction by ZEFSAII (Michael W. Deem and Ramdas Pophale) SiO2 
 PCOD9195138
Probable space group: C 2/M
;
_chemical_formula_sum "Si O2"
_cell_formula_units_Z 38
_cell_length_a 16.652001
_cell_length_b 13.998558
_cell_length_c 8.833472
_cell_angle_alpha 90.000000
_cell_angle_beta 47.610796
_cell_angle_gamma 90.000000
_cell_volume 1520.828039
_symmetry_space_group_name_H-M "C 2/M"
_symmetry_group_IT_number 12
_symmetry_cell_setting 'monoclinic'
loop_
_space_group_symop_operation_xyz
x,y,z
-x,y,-z
-x,-y,-z
x,-y,z
1/2+x,1/2+y,z
1/2-x,1/2+y,-z
1/2-x,1/2-y,-z
1/2+x,1/2-y,z
loop_
_atom_site_type_symbol
_atom_site_label
_atom_site_fract_x
_atom_site_fract_y
_atom_site_fract_z
Si Si1 0.609312 0.215941 0.516334
Si Si2 0.500000 0.500000 0.000000
Si Si3 0.917807 0.500000 0.931797
Si Si4 0.328588 0.813197 0.211063
Si Si5 0.126231 0.500000 0.468849
Si Si6 0.728114 0.500000 0.948792
Si Si7 0.934464 0.841000 0.864017
O O1 0.644933 0.190880 0.644833
O O2 0.701630 0.290115 0.346860
O O3 0.496528 0.271796 0.671548
O O4 0.606148 0.111402 0.444229
O O5 0.509544 0.416933 0.855045
O O6 0.846485 0.500000 0.869306
O O7 0.043127 0.500000 0.718888
O O8 0.878266 0.408085 0.074585
O O9 0.385263 0.726743 0.053528
O O10 0.257287 0.500000 0.255161
O O11 0.661754 0.406779 0.078744
#
# Coordination Sequence:
#
# PCOD9195138 Si02
#       7
#     8   2   4   8   4   4   8
#     4  11  23  41  69 106 131 165 223 277 351 387
#     4  10  20  34  66  92 134 164 218 252 338 390
#     4  12  27  45  66  95 140 178 224 268 332 398
#     4  11  23  41  67 102 136 170 213 281 337 397
#     4  12  23  43  69  98 132 175 224 282 330 395
#     4  11  27  46  64  96 130 190 230 260 322 403
#     4  11  21  41  67  96 131 178 216 275 323 394
#
# _framework density 24.986387000000001
#
# number of rings (size 3 to 8) (size 9 to 14) (size 15 to 20)
#    0.000    0.842    6.316    0.947    0.000    3.368 
#    0.000    2.105    0.000    0.000    0.000    0.000 
#    0.000    0.000    0.000    0.000    0.000    0.000 
#
# Total GULP energy -105834.818607 kJ/mol
# GULP energy per Si atom -5570.253611 kJ/mol
# Density = 2.492952 g / cm^3
# Si number density = 24.986387 Si / 1000 Ang^3
#
#
#
# Elastic Constant Matrix: (Units=GPa)
#
#
# Indices 1 2 3 4 5 6 
#
# 1 69.2358 15.1113 20.7176 0.0000 10.3538 0.0000
# 2 15.1113 183.3500 53.0372 0.0000 0.4608 0.0000
# 3 20.7176 53.0372 121.3082 0.0000 -16.7930 0.0000
# 4 0.0000 0.0000 0.0000 72.7131 0.0000 -9.5945
# 5 10.3538 0.4608 -16.7930 0.0000 25.6624 0.0000
# 6 0.0000 0.0000 0.0000 -9.5945 0.0000 13.5166
#
#
#
# Elastic Compliance Matrix: (Units=1/GPa)
#
#
# Indices 1 2 3 4 5 6 
#
# 1 0.017185 -0.000178 -0.004197 0.000000 -0.009677 0.000000
# 2 -0.000178 0.006349 -0.003025 0.000000 -0.002022 0.000000
# 3 -0.004197 -0.003025 0.011573 0.000000 0.009321 0.000000
# 4 0.000000 0.000000 0.000000 0.015174 0.000000 0.010771
# 5 -0.009677 -0.002022 0.009321 0.000000 0.049007 0.000000
# 6 0.000000 0.000000 0.000000 0.010771 0.000000 0.081629
#
#
# Mechanical properties :
#
#
# Convention : Reuss Voigt Hill
#
# Bulk Modulus (GPa) = 49.24370 61.29182 55.26776
# Shear Modulus (GPa) = 24.69303 41.38026 33.03665
#
# Velocity S-wave (km/s) = 3.14707 4.07395 3.64013
# Velocity P-wave (km/s) = 5.74077 6.83467 6.31146
#
# Compressibility (1/GPa) = 0.02030717
#
# Stress axis : x y z
#
# Youngs Moduli (GPa) = 58.18986 157.50698 86.40674
#
# Poissons Ratio (x) = 0.02805 0.36262
# Poissons Ratio (y) = 0.01036 0.26141
# Poissons Ratio (z) = 0.24420 0.47650
#
# Static dielectric constant tensor:
#      x y z
#    x 1.907370 0.000000 -0.160200 
#    y 0.000000 1.865400 0.000000 
#    z -0.160200 0.000000 1.920940 
# 
# From -- ./inp_files/165426.got.cif
#   From: 2010.05.17/outbox.cif.g08.bks.cpg/sg12_83_cif.got.tgz:165426.got - 2010.06.03 13:09:07.
