data_PCOD9195032
_publ_section_title
;
Structure prediction by ZEFSAII (Michael W. Deem and Ramdas Pophale) SiO2 
 PCOD9195032
Probable space group: C 2/M
;
_chemical_formula_sum "Si O2"
_cell_formula_units_Z 40
_cell_length_a 8.016349
_cell_length_b 24.564898
_cell_length_c 11.605064
_cell_angle_alpha 90.000000
_cell_angle_beta 122.410554
_cell_angle_gamma 90.000000
_cell_volume 1929.298810
_symmetry_space_group_name_H-M "C 2/M"
_symmetry_group_IT_number 12
_symmetry_cell_setting 'monoclinic'
loop_
_space_group_symop_operation_xyz
x,y,z
-x,y,-z
-x,-y,-z
x,-y,z
1/2+x,1/2+y,z
1/2-x,1/2+y,-z
1/2-x,1/2-y,-z
1/2+x,1/2-y,z
loop_
_atom_site_type_symbol
_atom_site_label
_atom_site_fract_x
_atom_site_fract_y
_atom_site_fract_z
Si Si1 0.952843 0.663327 0.231981
Si Si2 0.142876 0.858403 0.941352
Si Si3 0.466810 0.437994 0.300157
Si Si4 0.906629 0.241615 0.840595
Si Si5 0.830443 0.563162 0.591956
O O1 0.783153 0.702428 0.222262
O O2 0.116423 0.706530 0.249748
O O3 0.018117 0.612551 0.332984
O O4 0.856364 0.640581 0.078261
O O5 0.102021 0.901200 0.828829
O O6 0.081749 0.799916 0.865660
O O7 0.000000 0.866886 0.000000
O O8 0.473958 0.500000 0.263160
O O9 0.311225 0.435104 0.347719
O O10 0.683080 0.425109 0.431420
O O11 0.000000 0.256997 0.000000
O O12 0.903951 0.500000 0.609381
#
# Coordination Sequence:
#
# PCOD9195032 Si02
#       5
#     8   8   8   8   8
#     4  10  20  34  60  84 114 148 191 235 272 341
#     4   9  19  35  55  83 115 147 186 232 281 336
#     4   9  19  37  58  80 114 152 186 233 288 334
#     4   9  19  34  52  85 116 150 181 228 291 333
#     4   9  20  37  58  83 112 151 189 230 285 336
#
# _framework density 20.732921999999999
#
# number of rings (size 3 to 8) (size 9 to 14) (size 15 to 20)
#    0.000    3.200    0.000    3.600    5.600    1.200 
#    0.000   10.000    0.000   10.200    0.000    0.000 
#    0.000    0.000    0.000    0.000    0.000    0.000 
#
# Total GULP energy -111488.690671 kJ/mol
# GULP energy per Si atom -5574.434534 kJ/mol
# Density = 2.068573 g / cm^3
# Si number density = 20.732922 Si / 1000 Ang^3
#
#
#
# Elastic Constant Matrix: (Units=GPa)
#
#
# Indices 1 2 3 4 5 6 
#
# 1 43.3338 38.5636 18.5368 0.0000 8.5515 0.0000
# 2 38.5636 108.1865 64.0918 0.0000 14.5117 0.0000
# 3 18.5368 64.0918 60.5125 0.0000 4.9662 0.0000
# 4 0.0000 0.0000 0.0000 7.5998 0.0000 37.5682
# 5 8.5515 14.5117 4.9662 0.0000 18.8771 0.0000
# 6 0.0000 0.0000 0.0000 37.5682 0.0000 -11.9009
#
#
#
# Elastic Compliance Matrix: (Units=1/GPa)
#
#
# Indices 1 2 3 4 5 6 
#
# 1 0.035307 -0.015252 0.005815 0.000000 -0.005799 0.000000
# 2 -0.015252 0.034624 -0.031053 0.000000 -0.011538 0.000000
# 3 0.005815 -0.031053 0.046904 0.000000 0.008898 0.000000
# 4 0.000000 0.000000 0.000000 0.007924 0.000000 0.025015
# 5 -0.005799 -0.011538 0.008898 0.000000 0.062131 0.000000
# 6 0.000000 0.000000 0.000000 0.025015 0.000000 -0.005060
#
#
# Mechanical properties :
#
#
# Convention : Reuss Voigt Hill
#
# Bulk Modulus (GPa) = 27.89098 50.49080 39.19089
# Shear Modulus (GPa) = 18.19761 8.97123 13.58442
#
# Velocity S-wave (km/s) = 2.96584 2.08241 2.56248
# Velocity P-wave (km/s) = 5.02096 5.49434 5.26297
#
# Compressibility (1/GPa) = 0.03585389
#
# Stress axis : x y z
#
# Youngs Moduli (GPa) = 28.32305 28.88160 21.32028
#
# Poissons Ratio (x) = 0.44051 -0.12397
# Poissons Ratio (y) = 0.43199 0.66206
# Poissons Ratio (z) = -0.16469 0.89686
#
# Static dielectric constant tensor:
#      x y z
#    x 1.869010 0.000000 0.018770 
#    y 0.000000 1.748440 0.000000 
#    z 0.018770 0.000000 1.693700 
# 
# From -- ./inp_files/123941.got.cif
#   From: 2010.05.17/outbox.cif.g08.bks.cpg/sg12_62_cif.got.tgz:123941.got - 2010.06.03 13:09:07.
