data_PCOD9195148
_publ_section_title
;
Structure prediction by ZEFSAII (Michael W. Deem and Ramdas Pophale) SiO2 
 PCOD9195148
Probable space group: C 2/M
;
_chemical_formula_sum "Si O2"
_cell_formula_units_Z 36
_cell_length_a 15.094181
_cell_length_b 27.010458
_cell_length_c 5.304684
_cell_angle_alpha 90.000000
_cell_angle_beta 61.520105
_cell_angle_gamma 90.000000
_cell_volume 1901.000509
_symmetry_space_group_name_H-M "C 2/M"
_symmetry_group_IT_number 12
_symmetry_cell_setting 'monoclinic'
loop_
_space_group_symop_operation_xyz
x,y,z
-x,y,-z
-x,-y,-z
x,-y,z
1/2+x,1/2+y,z
1/2-x,1/2+y,-z
1/2-x,1/2-y,-z
1/2+x,1/2-y,z
loop_
_atom_site_type_symbol
_atom_site_label
_atom_site_fract_x
_atom_site_fract_y
_atom_site_fract_z
Si Si1 0.670654 0.884825 0.677111
Si Si2 0.118447 0.441807 0.266095
Si Si3 0.000000 0.313367 0.000000
Si Si4 0.676312 0.298340 0.571809
Si Si5 0.630153 0.736353 0.132361
O O1 0.678127 0.920357 0.426140
O O2 0.577645 0.847841 0.747276
O O3 0.763782 0.847530 0.579669
O O4 0.644723 0.913014 0.972243
O O5 0.138306 0.500000 0.202765
O O6 0.000000 0.436933 0.500000
O O7 0.066323 0.281470 0.105018
O O8 0.750000 0.250000 0.500000
O O9 0.626903 0.303385 0.912041
O O10 0.603534 0.282887 0.444607
O O11 0.750000 0.750000 0.000000
#
# Coordination Sequence:
#
# PCOD9195148 Si02
#       5
#     8   8   4   8   8
#     4  12  22  34  56  73  98 148 187 204 260 325
#     4  11  23  36  49  73 103 133 182 237 259 290
#     4  12  22  32  55  78 102 152 195 196 256 332
#     4  10  20  35  49  72 106 130 177 218 258 292
#     4  10  21  34  47  71 110 132 179 222 246 294
#
# _framework density 18.937396
#
# number of rings (size 3 to 8) (size 9 to 14) (size 15 to 20)
#    0.000    1.111    6.667    2.000    3.111    4.444 
#    0.000    0.000    0.000    0.000    0.000    0.000 
#    0.000    0.000    0.000   70.000    0.000    4.444 
#
# Total GULP energy -100455.072593 kJ/mol
# GULP energy per Si atom -5580.837366 kJ/mol
# Density = 1.889429 g / cm^3
# Si number density = 18.937396 Si / 1000 Ang^3
#
#
#
# Elastic Constant Matrix: (Units=GPa)
#
#
# Indices 1 2 3 4 5 6 
#
# 1 79.9565 44.3459 33.8660 0.0000 26.9417 0.0000
# 2 44.3459 129.1957 58.2096 0.0000 14.2428 0.0000
# 3 33.8660 58.2096 140.1647 0.0000 42.0119 0.0000
# 4 0.0000 0.0000 0.0000 23.4713 0.0000 -1.1377
# 5 26.9417 14.2428 42.0119 0.0000 31.8921 0.0000
# 6 0.0000 0.0000 0.0000 -1.1377 0.0000 27.2042
#
#
#
# Elastic Compliance Matrix: (Units=1/GPa)
#
#
# Indices 1 2 3 4 5 6 
#
# 1 0.021413 -0.006777 0.003562 0.000000 -0.019755 0.000000
# 2 -0.006777 0.011715 -0.005578 0.000000 0.007841 0.000000
# 3 0.003562 -0.005578 0.014452 0.000000 -0.019555 0.000000
# 4 0.000000 0.000000 0.000000 0.042692 0.000000 0.001785
# 5 -0.019755 0.007841 -0.019555 0.000000 0.070303 0.000000
# 6 0.000000 0.000000 0.000000 0.001785 0.000000 0.036834
#
#
# Mechanical properties :
#
#
# Convention : Reuss Voigt Hill
#
# Bulk Modulus (GPa) = 33.34010 69.12888 51.23449
# Shear Modulus (GPa) = 22.22287 30.70654 26.46471
#
# Velocity S-wave (km/s) = 3.42934 4.03112 3.74235
# Velocity P-wave (km/s) = 5.77271 7.63215 6.76661
#
# Compressibility (1/GPa) = 0.02999391
#
# Stress axis : x y z
#
# Youngs Moduli (GPa) = 46.69962 85.35933 69.19559
#
# Poissons Ratio (x) = 0.57848 -0.24647
# Poissons Ratio (y) = 0.31649 0.38598
# Poissons Ratio (z) = -0.16634 0.47614
#
# Static dielectric constant tensor:
#      x y z
#    x 1.650250 0.000000 0.037020 
#    y 0.000000 1.649050 0.000000 
#    z 0.037020 0.000000 1.709060 
# 
# From -- ./inp_files/11115.got.cif
#   From: 2010.05.17/outbox.cif.g08.bks.cpg/sg12_6_cif.got.tgz:11115.got - 2010.06.03 13:09:07.
