data_PCOD9195002
_publ_section_title
;
Structure prediction by ZEFSAII (Michael W. Deem and Ramdas Pophale) SiO2 
 PCOD9195002
Probable space group: C 2/M
;
_chemical_formula_sum "Si O2"
_cell_formula_units_Z 58
_cell_length_a 14.673217
_cell_length_b 10.507432
_cell_length_c 21.189264
_cell_angle_alpha 90.000000
_cell_angle_beta 60.744689
_cell_angle_gamma 90.000000
_cell_volume 2850.222087
_symmetry_space_group_name_H-M "C 2/M"
_symmetry_group_IT_number 12
_symmetry_cell_setting 'monoclinic'
loop_
_space_group_symop_operation_xyz
x,y,z
-x,y,-z
-x,-y,-z
x,-y,z
1/2+x,1/2+y,z
1/2-x,1/2+y,-z
1/2-x,1/2-y,-z
1/2+x,1/2-y,z
loop_
_atom_site_type_symbol
_atom_site_label
_atom_site_fract_x
_atom_site_fract_y
_atom_site_fract_z
Si Si1 0.500000 0.500000 0.000000
Si Si2 0.103560 0.860631 0.288151
Si Si3 0.798253 0.143628 0.083811
Si Si4 0.723091 0.774214 0.676821
Si Si5 0.063660 0.357554 0.631348
Si Si6 0.597340 0.351002 0.824517
Si Si7 0.364711 0.648633 0.873203
Si Si8 0.381272 0.150732 0.525134
O O1 0.590021 0.609619 0.984388
O O2 0.206017 0.847835 0.296718
O O3 0.127601 0.852686 0.205819
O O4 0.026171 0.746590 0.331814
O O5 0.054832 0.000000 0.316238
O O6 0.833016 0.195666 0.141100
O O7 0.723229 0.248600 0.079957
O O8 0.748404 0.000000 0.107283
O O9 0.636708 0.851976 0.667726
O O10 0.659754 0.669857 0.738980
O O11 0.800109 0.717483 0.598312
O O12 0.019318 0.500000 0.638304
O O13 0.130537 0.329301 0.545740
O O14 0.583671 0.500000 0.845946
O O15 0.479200 0.305166 0.856971
O O16 0.345444 0.500000 0.898626
O O17 0.500000 0.192050 0.500000
O O18 0.374413 0.000000 0.539423
#
# Coordination Sequence:
#
# PCOD9195002 Si02
#       8
#     2   8   8   8   8   8   8   8
#     4   8  20  40  70  88 136 150 208 228 280 340
#     4  11  23  38  57  87 121 154 195 255 311 358
#     4   9  19  39  64  90 121 163 194 233 283 341
#     4  12  21  37  59  85 115 153 201 257 312 360
#     4  11  24  41  58  82 115 155 203 255 308 374
#     4  10  20  34  59  90 119 155 200 242 295 359
#     4  10  20  37  58  90 125 154 196 249 295 344
#     4  10  21  37  57  81 113 153 205 257 312 373
#
# _framework density 20.349291000000001
#
# number of rings (size 3 to 8) (size 9 to 14) (size 15 to 20)
#    0.414    1.241    4.138    1.241    0.000    1.655 
#    0.000    3.793    0.000    0.000    0.000    0.000 
#    0.000    0.000    0.000    0.000    0.000    0.000 
#
# Total GULP energy -161474.397526 kJ/mol
# GULP energy per Si atom -5568.082673 kJ/mol
# Density = 2.030297 g / cm^3
# Si number density = 20.349291 Si / 1000 Ang^3
#
#
#
# Elastic Constant Matrix: (Units=GPa)
#
#
# Indices 1 2 3 4 5 6 
#
# 1 94.3743 50.2323 31.9570 0.0000 -5.2262 0.0000
# 2 50.2323 93.5631 22.1902 0.0000 -19.7360 0.0000
# 3 31.9570 22.1902 60.3776 0.0000 5.4419 0.0000
# 4 0.0000 0.0000 0.0000 28.0143 0.0000 -8.8119
# 5 -5.2262 -19.7360 5.4419 0.0000 39.7515 0.0000
# 6 0.0000 0.0000 0.0000 -8.8119 0.0000 27.2941
#
#
#
# Elastic Compliance Matrix: (Units=1/GPa)
#
#
# Indices 1 2 3 4 5 6 
#
# 1 0.016658 -0.007719 -0.005905 0.000000 -0.000834 0.000000
# 2 -0.007719 0.017205 -0.002953 0.000000 0.007932 0.000000
# 3 -0.005905 -0.002953 0.021237 0.000000 -0.005150 0.000000
# 4 0.000000 0.000000 0.000000 0.039731 0.000000 0.012827
# 5 -0.000834 0.007932 -0.005150 0.000000 0.029690 0.000000
# 6 0.000000 0.000000 0.000000 0.012827 0.000000 0.040779
#
#
# Mechanical properties :
#
#
# Convention : Reuss Voigt Hill
#
# Bulk Modulus (GPa) = 45.56303 50.78602 48.17453
# Shear Modulus (GPa) = 24.29913 28.60767 26.45340
#
# Velocity S-wave (km/s) = 3.45933 3.75351 3.60942
# Velocity P-wave (km/s) = 6.19637 6.61789 6.41059
#
# Compressibility (1/GPa) = 0.02194762
#
# Stress axis : x y z
#
# Youngs Moduli (GPa) = 60.03178 58.12111 47.08733
#
# Poissons Ratio (x) = 0.44862 0.27804
# Poissons Ratio (y) = 0.46337 0.13904
# Poissons Ratio (z) = 0.35447 0.17162
#
# Static dielectric constant tensor:
#      x y z
#    x 1.752660 0.000000 0.077170 
#    y 0.000000 1.713350 0.000000 
#    z 0.077170 0.000000 1.866590 
# 
# From -- ./inp_files/309837.got.cif
#   From: 2010.05.17/outbox.cif.g08.bks.cpg/sg12_155_cif.got.tgz:309837.got - 2010.06.03 13:09:07.
