data_PCOD9195681
_publ_section_title
;
Structure prediction by ZEFSAII (Michael W. Deem and Ramdas Pophale) SiO2 
 PCOD9195681
Probable space group: C 2/M
;
_chemical_formula_sum "Si O2"
_cell_formula_units_Z 64
_cell_length_a 20.892569
_cell_length_b 8.666363
_cell_length_c 20.171481
_cell_angle_alpha 90.000000
_cell_angle_beta 90.022996
_cell_angle_gamma 90.000000
_cell_volume 3652.300238
_symmetry_space_group_name_H-M "C 2/M"
_symmetry_group_IT_number 12
_symmetry_cell_setting 'monoclinic'
loop_
_space_group_symop_operation_xyz
x,y,z
-x,y,-z
-x,-y,-z
x,-y,z
1/2+x,1/2+y,z
1/2-x,1/2+y,-z
1/2-x,1/2-y,-z
1/2+x,1/2-y,z
loop_
_atom_site_type_symbol
_atom_site_label
_atom_site_fract_x
_atom_site_fract_y
_atom_site_fract_z
Si Si1 0.442630 0.685951 0.047406
Si Si2 0.557537 0.686042 0.798783
Si Si3 0.696091 0.815565 0.951970
Si Si4 0.302393 0.816134 0.699159
Si Si5 0.053702 0.187430 0.449449
Si Si6 0.196678 0.684816 0.797970
Si Si7 0.057903 0.813255 0.297094
Si Si8 0.699339 0.314521 0.448031
O O1 0.438259 0.500000 0.043219
O O2 0.455246 0.726287 0.124318
O O3 0.374127 0.755348 0.028572
O O4 0.500000 0.737474 0.000000
O O5 0.563778 0.500000 0.794535
O O6 0.625221 0.760210 0.779496
O O7 0.498717 0.733101 0.752260
O O8 0.706840 0.768681 0.875053
O O9 0.696819 0.000000 0.954491
O O10 0.750000 0.750000 0.000000
O O11 0.249484 0.758360 0.750680
O O12 0.373059 0.757151 0.719301
O O13 0.288912 0.747165 0.626135
O O14 0.302054 0.000000 0.695435
O O15 0.041916 0.231365 0.372996
O O16 0.126468 0.232737 0.466522
O O17 0.000000 0.245190 0.500000
O O18 0.052049 0.000000 0.451404
O O19 0.200427 0.500000 0.793860
O O20 0.063818 0.000000 0.294982
O O21 0.701915 0.500000 0.446951
O O22 0.750000 0.250000 0.500000
#
# Coordination Sequence:
#
# PCOD9195681 Si02
#       8
#     8   8   8   8   8   8   8   8
#     4   9  18  33  52  75 104 137 173 213 257 310
#     4   9  18  33  53  76 103 136 174 214 259 314
#     4  10  21  36  55  78 106 140 176 219 268 318
#     4  11  22  36  55  78 106 142 183 224 266 314
#     4   8  15  29  49  72  98 130 168 207 247 297
#     4  10  21  37  55  77 107 140 176 221 271 318
#     4   9  18  33  52  75 105 138 172 214 262 311
#     4  10  20  35  55  79 108 140 175 219 268 317
#
# _framework density 17.523202999999999
#
# number of rings (size 3 to 8) (size 9 to 14) (size 15 to 20)
#    0.000    2.500    0.000    3.000    0.000    4.250 
#    0.000    5.000    0.000    9.375    0.000    0.000 
#    0.000    0.000    0.000    0.000    0.000    0.000 
#
# Total GULP energy -178540.879655 kJ/mol
# GULP energy per Si atom -5579.402489 kJ/mol
# Density = 1.748332 g / cm^3
# Si number density = 17.523203 Si / 1000 Ang^3
#
#
#
# Elastic Constant Matrix: (Units=GPa)
#
#
# Indices 1 2 3 4 5 6 
#
# 1 192.8151 54.6309 130.7431 0.0000 0.8590 0.0000
# 2 54.6309 45.2662 41.5399 0.0000 0.2938 0.0000
# 3 130.7431 41.5399 107.4858 0.0000 0.6926 0.0000
# 4 0.0000 0.0000 0.0000 21.3060 0.0000 2.2745
# 5 0.8590 0.2938 0.6926 0.0000 44.5804 0.0000
# 6 0.0000 0.0000 0.0000 2.2745 0.0000 32.7378
#
#
#
# Elastic Compliance Matrix: (Units=1/GPa)
#
#
# Indices 1 2 3 4 5 6 
#
# 1 0.030115 -0.004229 -0.034997 0.000000 -0.000009 0.000000
# 2 -0.004229 0.034826 -0.008314 0.000000 -0.000019 0.000000
# 3 -0.034997 -0.008314 0.055087 0.000000 -0.000127 0.000000
# 4 0.000000 0.000000 0.000000 0.047286 0.000000 -0.003285
# 5 -0.000009 -0.000019 -0.000127 0.000000 0.022434 0.000000
# 6 0.000000 0.000000 0.000000 -0.003285 0.000000 0.030774
#
#
# Mechanical properties :
#
#
# Convention : Reuss Voigt Hill
#
# Bulk Modulus (GPa) = 40.08535 88.82166 64.45351
# Shear Modulus (GPa) = 15.43601 27.63505 21.53553
#
# Velocity S-wave (km/s) = 2.97120 3.97552 3.50947
# Velocity P-wave (km/s) = 5.89033 8.47768 7.29956
#
# Compressibility (1/GPa) = 0.02494677
#
# Stress axis : x y z
#
# Youngs Moduli (GPa) = 33.20603 28.71409 18.15322
#
# Poissons Ratio (x) = 0.12145 0.63530
# Poissons Ratio (y) = 0.14044 0.15093
# Poissons Ratio (z) = 1.16210 0.23874
#
# Static dielectric constant tensor:
#      x y z
#    x 1.569750 0.000000 -0.002330 
#    y 0.000000 1.592440 0.000000 
#    z -0.002330 0.000000 1.584360 
# 
# From -- ./inp_files/314104.got.cif
#   From: 2010.05.17/outbox.cif.g08.bks.cpg/sg12_158_cif.got.tgz:314104.got - 2010.06.03 13:09:07.
