data_PCOD9195576
_publ_section_title
;
Structure prediction by ZEFSAII (Michael W. Deem and Ramdas Pophale) SiO2 
 PCOD9195576
Probable space group: C 2/M
;
_chemical_formula_sum "Si O2"
_cell_formula_units_Z 56
_cell_length_a 14.441394
_cell_length_b 9.350356
_cell_length_c 31.495182
_cell_angle_alpha 90.000000
_cell_angle_beta 130.972643
_cell_angle_gamma 90.000000
_cell_volume 3211.008232
_symmetry_space_group_name_H-M "C 2/M"
_symmetry_group_IT_number 12
_symmetry_cell_setting 'monoclinic'
loop_
_space_group_symop_operation_xyz
x,y,z
-x,y,-z
-x,-y,-z
x,-y,z
1/2+x,1/2+y,z
1/2-x,1/2+y,-z
1/2-x,1/2-y,-z
1/2+x,1/2-y,z
loop_
_atom_site_type_symbol
_atom_site_label
_atom_site_fract_x
_atom_site_fract_y
_atom_site_fract_z
Si Si1 0.840140 0.828092 0.059181
Si Si2 0.676316 0.671404 0.846743
Si Si3 0.877345 0.170549 0.851325
Si Si4 0.684856 0.669679 0.642105
Si Si5 0.809998 0.165860 0.456967
Si Si6 0.393129 0.670685 0.755927
Si Si7 0.556947 0.832660 0.430719
O O1 0.810732 0.792043 0.099442
O O2 0.982893 0.790075 0.094396
O O3 0.829786 0.000000 0.051892
O O4 0.750000 0.750000 0.000000
O O5 0.688908 0.500000 0.846943
O O6 0.776491 0.748357 0.848269
O O7 0.536224 0.707095 0.791796
O O8 0.865474 0.198345 0.797356
O O9 0.864709 0.000000 0.853530
O O10 0.681727 0.500000 0.648656
O O11 0.688969 0.694025 0.592589
O O12 0.801321 0.740838 0.699350
O O13 0.560523 0.745510 0.620137
O O14 0.672668 0.182348 0.434019
O O15 0.896962 0.266671 0.510856
O O16 0.847379 0.000000 0.475418
O O17 0.378572 0.500000 0.744478
O O18 0.527829 0.000000 0.426305
#
# Coordination Sequence:
#
# PCOD9195576 Si02
#       7
#     8   8   8   8   8   8   8
#     4   9  19  35  53  78 111 142 173 212 256 303
#     4   9  19  36  56  77 104 138 175 215 258 302
#     4   9  19  36  56  76 103 139 174 211 258 306
#     4  11  22  35  53  77 104 134 169 211 258 306
#     4   9  20  37  53  73 104 136 166 206 256 308
#     4   9  20  38  54  72 102 136 171 213 257 304
#     4  10  20  35  55  77 102 134 170 208 254 308
#
# _framework density 17.440004999999999
#
# number of rings (size 3 to 8) (size 9 to 14) (size 15 to 20)
#    0.000    2.571    0.000    3.000    0.000    7.429 
#    0.000   10.000    0.000    0.000    0.000    0.000 
#    0.000    0.000    0.000    0.000    0.000    0.000 
#
# Total GULP energy -156261.205821 kJ/mol
# GULP energy per Si atom -5580.757351 kJ/mol
# Density = 1.740031 g / cm^3
# Si number density = 17.440005 Si / 1000 Ang^3
#
#
#
# Elastic Constant Matrix: (Units=GPa)
#
#
# Indices 1 2 3 4 5 6 
#
# 1 125.3737 58.3792 47.8165 0.0000 13.6538 0.0000
# 2 58.3792 59.6012 55.0491 0.0000 11.1798 0.0000
# 3 47.8165 55.0491 86.3545 0.0000 21.1013 0.0000
# 4 0.0000 0.0000 0.0000 37.6651 0.0000 1.2234
# 5 13.6538 11.1798 21.1013 0.0000 11.0478 0.0000
# 6 0.0000 0.0000 0.0000 1.2234 0.0000 33.3630
#
#
#
# Elastic Compliance Matrix: (Units=1/GPa)
#
#
# Indices 1 2 3 4 5 6 
#
# 1 0.015751 -0.019099 0.006540 0.000000 -0.012630 0.000000
# 2 -0.019099 0.065474 -0.038892 0.000000 0.031632 0.000000
# 3 0.006540 -0.038892 0.047085 0.000000 -0.058659 0.000000
# 4 0.000000 0.000000 0.000000 0.026581 0.000000 -0.000975
# 5 -0.012630 0.031632 -0.058659 0.000000 0.186154 0.000000
# 6 0.000000 0.000000 0.000000 -0.000975 0.000000 0.030009
#
#
# Mechanical properties :
#
#
# Convention : Reuss Voigt Hill
#
# Bulk Modulus (GPa) = 39.35817 65.97988 52.66902
# Shear Modulus (GPa) = 10.36427 23.75416 17.05922
#
# Velocity S-wave (km/s) = 2.44043 3.69460 3.13096
# Velocity P-wave (km/s) = 5.52790 7.49098 6.58302
#
# Compressibility (1/GPa) = 0.02540769
#
# Stress axis : x y z
#
# Youngs Moduli (GPa) = 63.48942 15.27326 21.23797
#
# Poissons Ratio (x) = 0.29171 -0.13890
# Poissons Ratio (y) = 1.21259 0.82599
# Poissons Ratio (z) = -0.41522 0.59401
#
# Static dielectric constant tensor:
#      x y z
#    x 1.589650 0.000000 0.004310 
#    y 0.000000 1.577730 0.000000 
#    z 0.004310 0.000000 1.567070 
# 
# From -- ./inp_files/338149.got.cif
#   From: 2010.05.17/outbox.cif.g08.bks.cpg/sg12_170_cif.got.tgz:338149.got - 2010.06.03 13:09:07.
