data_PCOD9195028
_publ_section_title
;
Structure prediction by ZEFSAII (Michael W. Deem and Ramdas Pophale) SiO2 
 PCOD9195028
Probable space group: C 2/M
;
_chemical_formula_sum "Si O2"
_cell_formula_units_Z 64
_cell_length_a 19.390297
_cell_length_b 31.558856
_cell_length_c 14.034004
_cell_angle_alpha 90.000000
_cell_angle_beta 159.910217
_cell_angle_gamma 90.000000
_cell_volume 2949.879161
_symmetry_space_group_name_H-M "C 2/M"
_symmetry_group_IT_number 12
_symmetry_cell_setting 'monoclinic'
loop_
_space_group_symop_operation_xyz
x,y,z
-x,y,-z
-x,-y,-z
x,-y,z
1/2+x,1/2+y,z
1/2-x,1/2+y,-z
1/2-x,1/2-y,-z
1/2+x,1/2-y,z
loop_
_atom_site_type_symbol
_atom_site_label
_atom_site_fract_x
_atom_site_fract_y
_atom_site_fract_z
Si Si1 0.682332 0.454244 0.158127
Si Si2 0.935979 0.589278 0.630724
Si Si3 0.862759 0.450553 0.917841
Si Si4 0.237356 0.787190 0.778539
Si Si5 0.214181 0.667056 0.984177
Si Si6 0.867158 0.869414 0.453947
Si Si7 0.760272 0.694765 0.187281
Si Si8 0.466930 0.379277 0.802200
O O1 0.698287 0.500000 0.133963
O O2 0.881238 0.442159 0.474251
O O3 0.500000 0.455798 0.000000
O O4 0.614656 0.419437 0.995450
O O5 0.723716 0.610642 0.381445
O O6 0.071411 0.628396 0.773696
O O7 0.022954 0.565396 0.837525
O O8 0.795307 0.500000 0.843254
O O9 0.706692 0.412822 0.689774
O O10 0.000000 0.450810 0.000000
O O11 0.256268 0.826781 0.732082
O O12 0.286032 0.738697 0.819751
O O13 0.000000 0.783472 0.500000
O O14 0.362063 0.802073 0.032772
O O15 0.277352 0.694963 0.975994
O O16 0.405286 0.642850 0.276804
O O17 0.878699 0.873603 0.582512
O O18 0.000000 0.685611 0.500000
O O19 0.607210 0.658591 0.020325
#
# Coordination Sequence:
#
# PCOD9195028 Si02
#       8
#     8   8   8   8   8   8   8   8
#     4   9  19  35  56  80 108 149 196 239 286 346
#     4  11  20  36  59  87 118 157 194 247 299 350
#     4  11  22  36  60  89 122 160 203 242 292 365
#     4   9  18  34  59  83 113 153 200 238 287 361
#     4  10  20  34  60  81 120 154 192 242 293 348
#     4  10  20  38  58  88 117 156 196 244 296 348
#     4  10  20  36  58  86 111 152 203 242 291 348
#     4  10  21  36  59  86 120 151 197 248 296 356
#
# _framework density 21.695805
#
# number of rings (size 3 to 8) (size 9 to 14) (size 15 to 20)
#    0.000    2.000    2.500    1.500    0.000    2.000 
#    0.000    2.500    0.000   17.625    0.000    0.000 
#    0.000    0.000    0.000    0.000    0.000    0.000 
#
# Total GULP energy -178369.395447 kJ/mol
# GULP energy per Si atom -5574.043608 kJ/mol
# Density = 2.164642 g / cm^3
# Si number density = 21.695805 Si / 1000 Ang^3
#
#
#
# Elastic Constant Matrix: (Units=GPa)
#
#
# Indices 1 2 3 4 5 6 
#
# 1 32.7413 23.3297 1.8155 -0.0005 -18.3832 -0.0002
# 2 23.3297 196.9679 59.5966 0.0000 -8.9018 0.0000
# 3 1.8155 59.5966 76.2525 -0.0016 -10.9326 -0.0002
# 4 -0.0005 0.0000 -0.0016 25.9860 -0.0008 4.1197
# 5 -18.3832 -8.9018 -10.9326 -0.0008 27.0164 -0.0002
# 6 -0.0002 0.0000 -0.0002 4.1197 -0.0002 30.3855
#
#
#
# Elastic Compliance Matrix: (Units=1/GPa)
#
#
# Indices 1 2 3 4 5 6 
#
# 1 0.059975 -0.008637 0.011428 0.000003 0.042589 0.000000
# 2 -0.008637 0.007893 -0.006830 -0.000001 -0.006040 0.000000
# 3 0.011428 -0.006830 0.020141 0.000002 0.013676 0.000000
# 4 0.000003 -0.000001 0.000002 0.039328 0.000004 -0.005332
# 5 0.042589 -0.006040 0.013676 0.000004 0.069538 0.000000
# 6 0.000000 0.000000 0.000000 -0.005332 0.000000 0.033633
#
#
# Mechanical properties :
#
#
# Convention : Reuss Voigt Hill
#
# Bulk Modulus (GPa) = 12.51040 52.82726 32.66883
# Shear Modulus (GPa) = 18.85164 31.42556 25.13860
#
# Velocity S-wave (km/s) = 2.95092 3.81000 3.40764
# Velocity P-wave (km/s) = 4.17006 6.61488 5.52929
#
# Compressibility (1/GPa) = 0.07993347
#
# Stress axis : x y z
#
# Youngs Moduli (GPa) = 16.67357 126.68781 49.65035
#
# Poissons Ratio (x) = 1.09419 -0.56743
# Poissons Ratio (y) = 0.14401 0.33909
# Poissons Ratio (z) = -0.19055 0.86522
#
# Static dielectric constant tensor:
#      x y z
#    x 1.881110 0.000000 -0.000300 
#    y 0.000000 1.834060 0.000000 
#    z -0.000300 0.000000 1.832200 
# 
# From -- ./inp_files/209403.got.cif
#   From: 2010.05.17/outbox.cif.g08.bks.cpg/sg12_105_cif.got.tgz:209403.got - 2010.06.03 13:09:07.
