data_PCOD9195578
_publ_section_title
;
Structure prediction by ZEFSAII (Michael W. Deem and Ramdas Pophale) SiO2 
 PCOD9195578
Probable space group: C 2/M
;
_chemical_formula_sum "Si O2"
_cell_formula_units_Z 40
_cell_length_a 28.165134
_cell_length_b 8.912291
_cell_length_c 19.514792
_cell_angle_alpha 90.000000
_cell_angle_beta 152.689849
_cell_angle_gamma 90.000000
_cell_volume 2247.476324
_symmetry_space_group_name_H-M "C 2/M"
_symmetry_group_IT_number 12
_symmetry_cell_setting 'monoclinic'
loop_
_space_group_symop_operation_xyz
x,y,z
-x,y,-z
-x,-y,-z
x,-y,z
1/2+x,1/2+y,z
1/2-x,1/2+y,-z
1/2-x,1/2-y,-z
1/2+x,1/2-y,z
loop_
_atom_site_type_symbol
_atom_site_label
_atom_site_fract_x
_atom_site_fract_y
_atom_site_fract_z
Si Si1 0.978243 0.179923 0.764596
Si Si2 0.922951 0.318893 0.839224
Si Si3 0.529708 0.820610 0.462350
Si Si4 0.812893 0.180148 0.435801
Si Si5 0.361100 0.821062 0.128849
O O1 0.958131 0.244459 0.813712
O O2 0.882802 0.222027 0.591513
O O3 0.080499 0.248647 0.860975
O O4 0.985432 0.000000 0.775355
O O5 0.923972 0.500000 0.832310
O O6 0.805445 0.272471 0.706147
O O7 0.000000 0.280606 0.000000
O O8 0.500000 0.766939 0.500000
O O9 0.630783 0.747849 0.558200
O O10 0.435587 0.790499 0.289404
O O11 0.544986 0.000000 0.484803
O O12 0.815083 0.000000 0.433206
O O13 0.353215 0.000000 0.110073
O O14 0.250000 0.750000 0.000000
#
# Coordination Sequence:
#
# PCOD9195578 Si02
#       5
#     8   8   8   8   8
#     4  10  20  35  55  77 102 136 178 216 253 305
#     4  10  21  36  53  77 108 137 169 213 264 311
#     4   9  19  35  54  77 104 135 172 213 256 302
#     4   9  19  35  54  76 102 136 176 213 253 305
#     4  10  20  35  55  78 106 138 172 213 259 307
#
# _framework density 17.797739
#
# number of rings (size 3 to 8) (size 9 to 14) (size 15 to 20)
#    0.000    2.400    0.000    1.800    0.000    4.800 
#    0.000    4.000    0.000    0.000    0.000    0.000 
#    0.000    0.000    0.000    0.000    0.000    0.000 
#
# Total GULP energy -111636.508545 kJ/mol
# GULP energy per Si atom -5581.825427 kJ/mol
# Density = 1.775723 g / cm^3
# Si number density = 17.797739 Si / 1000 Ang^3
#
#
#
# Elastic Constant Matrix: (Units=GPa)
#
#
# Indices 1 2 3 4 5 6 
#
# 1 222.6951 64.1833 107.0520 0.0000 9.3926 0.0000
# 2 64.1833 32.9404 47.5662 0.0000 5.8475 0.0000
# 3 107.0520 47.5662 102.9180 0.0000 26.0534 0.0000
# 4 0.0000 0.0000 0.0000 18.9876 0.0000 2.1225
# 5 9.3926 5.8475 26.0534 0.0000 34.1689 0.0000
# 6 0.0000 0.0000 0.0000 2.1225 0.0000 38.9110
#
#
#
# Elastic Compliance Matrix: (Units=1/GPa)
#
#
# Indices 1 2 3 4 5 6 
#
# 1 0.011372 -0.012755 -0.007057 0.000000 0.004438 0.000000
# 2 -0.012755 0.118853 -0.046348 0.000000 0.018506 0.000000
# 3 -0.007057 -0.046348 0.044584 0.000000 -0.024123 0.000000
# 4 0.000000 0.000000 0.000000 0.052989 0.000000 -0.002890
# 5 0.004438 0.018506 -0.024123 0.000000 0.043273 0.000000
# 6 0.000000 0.000000 0.000000 -0.002890 0.000000 0.025857
#
#
# Mechanical properties :
#
#
# Convention : Reuss Voigt Hill
#
# Bulk Modulus (GPa) = 23.53559 88.46182 55.99870
# Shear Modulus (GPa) = 11.27622 27.73029 19.50326
#
# Velocity S-wave (km/s) = 2.51982 3.95153 3.31392
# Velocity P-wave (km/s) = 4.66033 8.40425 6.79522
#
# Compressibility (1/GPa) = 0.04248885
#
# Stress axis : x y z
#
# Youngs Moduli (GPa) = 87.93741 8.41378 22.42942
#
# Poissons Ratio (x) = 0.10732 0.15828
# Poissons Ratio (y) = 1.12167 1.03956
# Poissons Ratio (z) = 0.62055 0.38996
#
# Static dielectric constant tensor:
#      x y z
#    x 1.575430 0.000000 -0.002470 
#    y 0.000000 1.593480 0.000000 
#    z -0.002470 0.000000 1.599340 
# 
# From -- ./inp_files/151968.got.cif
#   From: 2010.05.17/outbox.cif.g08.bks.cpg/sg12_76_cif.got.tgz:151968.got - 2010.06.03 13:09:07.
