data_PCOD9195887
_publ_section_title
;
Structure prediction by ZEFSAII (Michael W. Deem and Ramdas Pophale) SiO2 
 PCOD9195887
Probable space group: C 2/M
;
_chemical_formula_sum "Si O2"
_cell_formula_units_Z 50
_cell_length_a 30.556455
_cell_length_b 9.116780
_cell_length_c 11.949782
_cell_angle_alpha 90.000000
_cell_angle_beta 58.844001
_cell_angle_gamma 90.000000
_cell_volume 2848.769682
_symmetry_space_group_name_H-M "C 2/M"
_symmetry_group_IT_number 12
_symmetry_cell_setting 'monoclinic'
loop_
_space_group_symop_operation_xyz
x,y,z
-x,y,-z
-x,-y,-z
x,-y,z
1/2+x,1/2+y,z
1/2-x,1/2+y,-z
1/2-x,1/2-y,-z
1/2+x,1/2-y,z
loop_
_atom_site_type_symbol
_atom_site_label
_atom_site_fract_x
_atom_site_fract_y
_atom_site_fract_z
Si Si1 0.212542 0.826337 0.803418
Si Si2 0.353586 0.674002 0.331090
Si Si3 0.000000 0.000000 0.500000
Si Si4 0.940442 0.325341 0.080260
Si Si5 0.373792 0.826280 0.947460
Si Si6 0.396760 0.662030 0.688227
Si Si7 0.829173 0.675459 0.597490
O O1 0.186941 0.800340 0.715466
O O2 0.180047 0.734146 0.934961
O O3 0.272198 0.790623 0.717597
O O4 0.206641 0.000000 0.835242
O O5 0.357337 0.500000 0.345664
O O6 0.407210 0.737069 0.214310
O O7 0.336826 0.755227 0.465285
O O8 0.955556 0.874547 0.582803
O O9 0.936509 0.500000 0.108795
O O10 0.914343 0.299164 0.994133
O O11 0.000000 0.284856 0.000000
O O12 0.370972 0.000000 0.931490
O O13 0.390205 0.742441 0.814652
O O14 0.371358 0.500000 0.727277
O O15 0.370265 0.756030 0.626917
O O16 0.834018 0.500000 0.584594
#
# Coordination Sequence:
#
# PCOD9195887 Si02
#       7
#     8   8   2   8   8   8   8
#     4   9  20  37  58  86 121 160 195 238 296 352
#     4  10  20  35  55  84 121 159 195 238 296 350
#     4   8  24  44  62  80 110 156 194 244 294 352
#     4   9  19  36  56  83 115 150 195 245 295 346
#     4  10  20  36  60  88 118 153 194 243 297 352
#     4  10  22  42  61  81 112 152 195 243 294 350
#     4  11  22  37  59  87 118 155 202 246 290 355
#
# _framework density 17.551437
#
# number of rings (size 3 to 8) (size 9 to 14) (size 15 to 20)
#    0.480    1.760    0.000    2.400    0.000    4.800 
#    0.000    3.200    0.000    0.000    0.000    0.000 
#    0.000    0.000    0.000    0.000    0.000    0.000 
#
# Total GULP energy -139206.052239 kJ/mol
# GULP energy per Si atom -5568.242090 kJ/mol
# Density = 1.751149 g / cm^3
# Si number density = 17.551437 Si / 1000 Ang^3
#
#
#
# Elastic Constant Matrix: (Units=GPa)
#
#
# Indices 1 2 3 4 5 6 
#
# 1 78.0221 56.4345 73.1518 0.0000 -26.3810 0.0000
# 2 56.4345 83.0588 69.4315 0.0000 -10.5384 0.0000
# 3 73.1518 69.4315 110.7291 0.0000 -20.2636 0.0000
# 4 0.0000 0.0000 0.0000 37.5005 0.0000 -1.6367
# 5 -26.3810 -10.5384 -20.2636 0.0000 21.3073 0.0000
# 6 0.0000 0.0000 0.0000 -1.6367 0.0000 19.2452
#
#
#
# Elastic Compliance Matrix: (Units=1/GPa)
#
#
# Indices 1 2 3 4 5 6 
#
# 1 0.061234 -0.018977 -0.019852 0.000000 0.047549 0.000000
# 2 -0.018977 0.031355 -0.010395 0.000000 -0.017874 0.000000
# 3 -0.019852 -0.010395 0.028119 0.000000 -0.002979 0.000000
# 4 0.000000 0.000000 0.000000 0.026766 0.000000 0.002276
# 5 0.047549 -0.017874 -0.002979 0.000000 0.094130 0.000000
# 6 0.000000 0.000000 0.000000 0.002276 0.000000 0.052155
#
#
# Mechanical properties :
#
#
# Convention : Reuss Voigt Hill
#
# Bulk Modulus (GPa) = 44.92508 74.42731 59.67619
# Shear Modulus (GPa) = 12.51164 20.46342 16.48753
#
# Velocity S-wave (km/s) = 2.67283 3.41825 3.06826
# Velocity P-wave (km/s) = 5.93104 7.62080 6.82839
#
# Compressibility (1/GPa) = 0.02225928
#
# Stress axis : x y z
#
# Youngs Moduli (GPa) = 16.33080 31.89234 35.56296
#
# Poissons Ratio (x) = 0.60523 0.70601
# Poissons Ratio (y) = 0.30992 0.36967
# Poissons Ratio (z) = 0.32421 0.33152
#
# Static dielectric constant tensor:
#      x y z
#    x 1.588240 0.000000 0.006890 
#    y 0.000000 1.588440 0.000000 
#    z 0.006890 0.000000 1.564110 
# 
# From -- ./inp_files/179811.got.cif
#   From: 2010.05.17/outbox.cif.g08.bks.cpg/sg12_90_cif.got.tgz:179811.got - 2010.06.03 13:09:07.
