data_PCOD9195408
_publ_section_title
;
Structure prediction by ZEFSAII (Michael W. Deem and Ramdas Pophale) SiO2 
 PCOD9195408
Probable space group: C 2/M
;
_chemical_formula_sum "Si O2"
_cell_formula_units_Z 56
_cell_length_a 20.586944
_cell_length_b 28.967560
_cell_length_c 10.879292
_cell_angle_alpha 90.000000
_cell_angle_beta 24.336701
_cell_angle_gamma 90.000000
_cell_volume 2673.652861
_symmetry_space_group_name_H-M "C 2/M"
_symmetry_group_IT_number 12
_symmetry_cell_setting 'monoclinic'
loop_
_space_group_symop_operation_xyz
x,y,z
-x,y,-z
-x,-y,-z
x,-y,z
1/2+x,1/2+y,z
1/2-x,1/2+y,-z
1/2-x,1/2-y,-z
1/2+x,1/2-y,z
loop_
_atom_site_type_symbol
_atom_site_label
_atom_site_fract_x
_atom_site_fract_y
_atom_site_fract_z
Si Si1 0.834155 0.447339 0.720788
Si Si2 0.170573 0.861557 0.647129
Si Si3 0.678999 0.619541 0.161126
Si Si4 0.378985 0.213195 0.819762
Si Si5 0.814696 0.607092 0.172289
Si Si6 0.537668 0.197146 0.798696
Si Si7 0.110789 0.447986 0.665608
O O1 0.785676 0.500000 0.834879
O O2 0.871502 0.445361 0.512960
O O3 0.000000 0.437038 0.500000
O O4 0.710978 0.409832 0.983653
O O5 0.176908 0.867596 0.488520
O O6 0.280088 0.819401 0.507238
O O7 0.264451 0.909040 0.511302
O O8 0.000000 0.859886 0.000000
O O9 0.500000 0.631124 0.500000
O O10 0.743277 0.591341 0.167113
O O11 0.785488 0.665065 0.984203
O O12 0.500000 0.210096 0.500000
O O13 0.472562 0.222390 0.788126
O O14 0.250000 0.250000 0.000000
O O15 0.942744 0.648699 0.953019
O O16 0.930123 0.565209 0.010682
O O17 0.500000 0.217536 0.000000
O O18 0.150915 0.500000 0.632876
#
# Coordination Sequence:
#
# PCOD9195408 Si02
#       7
#     8   8   8   8   8   8   8
#     4  10  20  36  57  84 118 160 212 258 306 380
#     4  10  21  34  56  87 119 152 214 260 304 370
#     4  11  23  36  62  90 123 162 200 254 326 376
#     4  11  24  42  67  99 131 162 209 266 319 386
#     4   9  19  35  54  81 111 155 210 249 298 374
#     4   8  18  40  64  86 121 167 202 248 308 380
#     4  10  20  35  54  76 115 161 206 258 311 368
#
# _framework density 20.945125999999998
#
# number of rings (size 3 to 8) (size 9 to 14) (size 15 to 20)
#    0.000    2.143    1.429    2.143    6.000    1.714 
#    0.000    2.143    0.000    0.000    0.000    0.000 
#    0.000    0.000    0.000    0.000    0.000    0.000 
#
# Total GULP energy -155941.218879 kJ/mol
# GULP energy per Si atom -5569.329246 kJ/mol
# Density = 2.089745 g / cm^3
# Si number density = 20.945126 Si / 1000 Ang^3
#
#
#
# Elastic Constant Matrix: (Units=GPa)
#
#
# Indices 1 2 3 4 5 6 
#
# 1 91.9450 19.3784 36.8735 -0.0064 5.8212 -0.0025
# 2 19.3784 35.8544 25.5315 -0.0160 -2.8691 -0.0004
# 3 36.8735 25.5315 171.3230 -0.0464 -3.7358 -0.0001
# 4 -0.0064 -0.0160 -0.0464 6.1565 0.0081 -5.9110
# 5 5.8212 -2.8691 -3.7358 0.0081 18.6281 0.0033
# 6 -0.0025 -0.0004 -0.0001 -5.9110 0.0033 9.0525
#
#
#
# Elastic Compliance Matrix: (Units=1/GPa)
#
#
# Indices 1 2 3 4 5 6 
#
# 1 0.013364 -0.006189 -0.002075 -0.000015 -0.005545 -0.000004
# 2 -0.006189 0.034351 -0.003646 0.000119 0.006494 0.000075
# 3 -0.002075 -0.003646 0.006859 0.000099 0.001462 0.000064
# 4 -0.000015 0.000119 0.000099 0.435384 -0.000196 0.284292
# 5 -0.005545 0.006494 0.001462 -0.000196 0.056709 -0.000150
# 6 -0.000004 0.000075 0.000064 0.284292 -0.000150 0.296101
#
#
# Mechanical properties :
#
#
# Convention : Reuss Voigt Hill
#
# Bulk Modulus (GPa) = 32.51528 51.40992 41.96260
# Shear Modulus (GPa) = 5.70231 21.25669 13.47950
#
# Velocity S-wave (km/s) = 1.65179 3.18917 2.53961
# Velocity P-wave (km/s) = 4.38128 6.17733 5.35514
#
# Compressibility (1/GPa) = 0.03075477
#
# Stress axis : x y z
#
# Youngs Moduli (GPa) = 74.82983 29.11109 145.80062
#
# Poissons Ratio (x) = 0.18017 0.30251
# Poissons Ratio (y) = 0.46312 0.53152
# Poissons Ratio (z) = 0.15526 0.10613
#
# Static dielectric constant tensor:
#      x y z
#    x 1.934660 -0.000030 0.141880 
#    y -0.000030 1.792390 -0.000070 
#    z 0.141880 -0.000070 1.843980 
# 
# From -- ./inp_files/178678.got.cif
#   From: 2010.05.17/outbox.cif.g08.bks.cpg/sg12_90_cif.got.tgz:178678.got - 2010.06.03 13:09:07.
