data_PCOD9195992
_publ_section_title
;
Structure prediction by ZEFSAII (Michael W. Deem and Ramdas Pophale) SiO2 
 PCOD9195992
Probable space group: C 2/M
;
_chemical_formula_sum "Si O2"
_cell_formula_units_Z 50
_cell_length_a 15.621291
_cell_length_b 9.173607
_cell_length_c 16.858027
_cell_angle_alpha 90.000000
_cell_angle_beta 74.619071
_cell_angle_gamma 90.000000
_cell_volume 2329.290217
_symmetry_space_group_name_H-M "C 2/M"
_symmetry_group_IT_number 12
_symmetry_cell_setting 'monoclinic'
loop_
_space_group_symop_operation_xyz
x,y,z
-x,y,-z
-x,-y,-z
x,-y,z
1/2+x,1/2+y,z
1/2-x,1/2+y,-z
1/2-x,1/2-y,-z
1/2+x,1/2-y,z
loop_
_atom_site_type_symbol
_atom_site_label
_atom_site_fract_x
_atom_site_fract_y
_atom_site_fract_z
Si Si1 0.342221 0.831699 0.660943
Si Si2 0.084770 0.666634 0.815769
Si Si3 0.521113 0.667510 0.588136
Si Si4 0.238950 0.834041 0.854585
Si Si5 0.400915 0.164180 0.897534
Si Si6 0.000000 0.500000 0.000000
Si Si7 0.817481 0.333271 0.378207
O O1 0.437358 0.754432 0.644398
O O2 0.294023 0.830096 0.758162
O O3 0.274994 0.747759 0.617950
O O4 0.353498 0.000000 0.633509
O O5 0.070867 0.500000 0.852185
O O6 0.151232 0.746766 0.856684
O O7 0.130020 0.659980 0.719078
O O8 0.987011 0.734416 0.835632
O O9 0.500000 0.666343 0.500000
O O10 0.524768 0.500000 0.615691
O O11 0.614340 0.746268 0.583087
O O12 0.306307 0.768128 0.902917
O O13 0.213744 0.000000 0.880343
O O14 0.433810 0.126847 0.976753
O O15 0.391493 0.000000 0.861660
O O16 0.802263 0.500000 0.408350
#
# Coordination Sequence:
#
# PCOD9195992 Si02
#       7
#     8   8   8   8   8   2   8
#     4  10  20  35  56  80 105 136 175 222 273 315
#     4   9  17  31  52  77 103 130 169 217 258 306
#     4  11  24  39  54  75 106 141 179 218 267 327
#     4   9  17  31  52  77 103 130 169 217 258 306
#     4   8  15  29  48  68 103 135 175 199 244 299
#     4   8  16  28  52  72 102 146 182 196 238 308
#     4  10  20  35  56  80 105 136 175 222 273 315
#
# _framework density 21.465769000000002
#
# number of rings (size 3 to 8) (size 9 to 14) (size 15 to 20)
#    0.480    2.080    0.000    2.400    0.000    5.760 
#    0.000    1.600    0.000    0.000    0.000    1.120 
#    0.000    0.000    0.000    0.000    0.000    0.000 
#
# Total GULP energy -139187.146011 kJ/mol
# GULP energy per Si atom -5567.485840 kJ/mol
# Density = 2.141691 g / cm^3
# Si number density = 21.465769 Si / 1000 Ang^3
#
#
#
# Elastic Constant Matrix: (Units=GPa)
#
#
# Indices 1 2 3 4 5 6 
#
# 1 116.1242 43.6490 26.8575 0.0000 42.9427 0.0000
# 2 43.6490 101.7264 17.8664 0.0000 16.0529 0.0000
# 3 26.8575 17.8664 35.6026 0.0000 2.8409 0.0000
# 4 0.0000 0.0000 0.0000 17.8516 0.0000 4.8760
# 5 42.9427 16.0529 2.8409 0.0000 38.2818 0.0000
# 6 0.0000 0.0000 0.0000 4.8760 0.0000 38.6542
#
#
#
# Elastic Compliance Matrix: (Units=1/GPa)
#
#
# Indices 1 2 3 4 5 6 
#
# 1 0.020116 -0.003345 -0.011878 0.000000 -0.020281 0.000000
# 2 -0.003345 0.012032 -0.003432 0.000000 -0.001039 0.000000
# 3 -0.011878 -0.003432 0.037816 0.000000 0.011957 0.000000
# 4 0.000000 0.000000 0.000000 0.058016 0.000000 -0.007318
# 5 -0.020281 -0.001039 0.011957 0.000000 0.048420 0.000000
# 6 0.000000 0.000000 0.000000 -0.007318 0.000000 0.026794
#
#
# Mechanical properties :
#
#
# Convention : Reuss Voigt Hill
#
# Bulk Modulus (GPa) = 30.62325 47.79988 39.21157
# Shear Modulus (GPa) = 19.88957 29.96289 24.92623
#
# Velocity S-wave (km/s) = 3.04727 3.74015 3.41135
# Velocity P-wave (km/s) = 5.16509 6.40062 5.81576
#
# Compressibility (1/GPa) = 0.03265492
#
# Stress axis : x y z
#
# Youngs Moduli (GPa) = 49.71269 83.11059 26.44371
#
# Poissons Ratio (x) = 0.27798 0.31409
# Poissons Ratio (y) = 0.16628 0.09075
# Poissons Ratio (z) = 0.59047 0.28524
#
# Static dielectric constant tensor:
#      x y z
#    x 1.768490 0.000000 -0.030500 
#    y 0.000000 1.781180 0.000000 
#    z -0.030500 0.000000 1.619940 
# 
# From -- ./inp_files/308404.got.cif
#   From: 2010.05.17/outbox.cif.g08.bks.cpg/sg12_155_cif.got.tgz:308404.got - 2010.06.03 13:09:07.
