data_PCOD9195453
_publ_section_title
;
Structure prediction by ZEFSAII (Michael W. Deem and Ramdas Pophale) SiO2 
 PCOD9195453
Probable space group: C 2/M
;
_chemical_formula_sum "Si O2"
_cell_formula_units_Z 50
_cell_length_a 15.865036
_cell_length_b 9.636374
_cell_length_c 14.796957
_cell_angle_alpha 90.000000
_cell_angle_beta 111.914579
_cell_angle_gamma 90.000000
_cell_volume 2098.717670
_symmetry_space_group_name_H-M "C 2/M"
_symmetry_group_IT_number 12
_symmetry_cell_setting 'monoclinic'
loop_
_space_group_symop_operation_xyz
x,y,z
-x,y,-z
-x,-y,-z
x,-y,z
1/2+x,1/2+y,z
1/2-x,1/2+y,-z
1/2-x,1/2-y,-z
1/2+x,1/2-y,z
loop_
_atom_site_type_symbol
_atom_site_label
_atom_site_fract_x
_atom_site_fract_y
_atom_site_fract_z
Si Si1 0.530479 0.764660 0.886964
Si Si2 0.168352 0.341959 0.243511
Si Si3 0.422704 0.659248 0.282625
Si Si4 0.358660 0.340049 0.597670
Si Si5 0.500000 0.500000 0.000000
Si Si6 0.109437 0.339957 0.560708
Si Si7 0.797343 0.655327 0.945379
O O1 0.440163 0.842319 0.819756
O O2 0.586554 0.728203 0.818747
O O3 0.502077 0.621180 0.922499
O O4 0.596866 0.840645 0.983101
O O5 0.194495 0.500000 0.279187
O O6 0.181134 0.231061 0.328134
O O7 0.209660 0.303293 0.162257
O O8 0.391725 0.500000 0.272206
O O9 0.531775 0.655883 0.343419
O O10 0.379304 0.749526 0.344680
O O11 0.330377 0.500000 0.571404
O O12 0.347491 0.239388 0.507335
O O13 0.138200 0.500000 0.581212
O O14 0.000000 0.342803 0.500000
O O15 0.762116 0.500000 0.940892
O O16 0.750000 0.750000 0.000000
#
# Coordination Sequence:
#
# PCOD9195453 Si02
#       7
#     8   8   8   8   2   8   8
#     4  11  21  34  57  79 108 140 184 222 267 319
#     4  10  20  35  54  78 107 139 178 222 267 316
#     4   9  17  27  43  69  99 134 171 213 257 307
#     4   9  17  27  46  71 100 134 172 212 258 312
#     4  12  20  32  58  84 106 144 180 232 264 320
#     4   9  16  26  40  64 100 137 168 207 260 310
#     4  11  25  39  55  77 108 144 180 226 273 320
#
# _framework density 23.824071
#
# number of rings (size 3 to 8) (size 9 to 14) (size 15 to 20)
#    0.000    2.080    2.400    1.440    2.240    8.320 
#    0.000    0.000    0.000    0.000    0.000    1.120 
#    0.000    0.000    0.000    0.000    0.000    0.000 
#
# Total GULP energy -139704.187048 kJ/mol
# GULP energy per Si atom -5588.167482 kJ/mol
# Density = 2.376985 g / cm^3
# Si number density = 23.824071 Si / 1000 Ang^3
#
#
#
# Elastic Constant Matrix: (Units=GPa)
#
#
# Indices 1 2 3 4 5 6 
#
# 1 93.4887 34.4524 30.0204 0.0000 -18.3505 0.0000
# 2 34.4524 179.4214 93.5060 0.0000 -45.7832 0.0000
# 3 30.0204 93.5060 172.1825 0.0000 -41.9714 0.0000
# 4 0.0000 0.0000 0.0000 36.8809 0.0000 -13.3355
# 5 -18.3505 -45.7832 -41.9714 0.0000 62.2952 0.0000
# 6 0.0000 0.0000 0.0000 -13.3355 0.0000 11.0338
#
#
#
# Elastic Compliance Matrix: (Units=1/GPa)
#
#
# Indices 1 2 3 4 5 6 
#
# 1 0.011844 -0.001327 -0.000875 0.000000 0.001924 0.000000
# 2 -0.001327 0.008588 -0.003577 0.000000 0.003511 0.000000
# 3 -0.000875 -0.003577 0.008614 0.000000 0.002917 0.000000
# 4 0.000000 0.000000 0.000000 0.048161 0.000000 0.058208
# 5 0.001924 0.003511 0.002917 0.000000 0.021165 0.000000
# 6 0.000000 0.000000 0.000000 0.058208 0.000000 0.160982
#
#
# Mechanical properties :
#
#
# Convention : Reuss Voigt Hill
#
# Bulk Modulus (GPa) = 57.18263 84.56115 70.87189
# Shear Modulus (GPa) = 18.06735 41.18288 29.62512
#
# Velocity S-wave (km/s) = 2.75683 4.16218 3.53015
# Velocity P-wave (km/s) = 5.84702 7.65960 6.81385
#
# Compressibility (1/GPa) = 0.01748783
#
# Stress axis : x y z
#
# Youngs Moduli (GPa) = 84.42876 116.43801 116.09204
#
# Poissons Ratio (x) = 0.15454 0.10162
# Poissons Ratio (y) = 0.11206 0.41523
# Poissons Ratio (z) = 0.07391 0.41646
#
# Static dielectric constant tensor:
#      x y z
#    x 1.991930 0.000000 0.038030 
#    y 0.000000 1.819450 0.000000 
#    z 0.038030 0.000000 1.860440 
# 
# From -- ./inp_files/230030.got.cif
#   From: 2010.05.17/outbox.cif.g08.bks.cpg/sg12_116_cif.got.tgz:230030.got - 2010.06.03 13:09:07.
