data_PCOD9195737
_publ_section_title
;
Structure prediction by ZEFSAII (Michael W. Deem and Ramdas Pophale) SiO2 
 PCOD9195737
Probable space group: C 2/M
;
_chemical_formula_sum "Si O2"
_cell_formula_units_Z 40
_cell_length_a 7.651384
_cell_length_b 15.996950
_cell_length_c 19.003190
_cell_angle_alpha 90.000000
_cell_angle_beta 127.153343
_cell_angle_gamma 90.000000
_cell_volume 1853.847477
_symmetry_space_group_name_H-M "C 2/M"
_symmetry_group_IT_number 12
_symmetry_cell_setting 'monoclinic'
loop_
_space_group_symop_operation_xyz
x,y,z
-x,y,-z
-x,-y,-z
x,-y,z
1/2+x,1/2+y,z
1/2-x,1/2+y,-z
1/2-x,1/2-y,-z
1/2+x,1/2-y,z
loop_
_atom_site_type_symbol
_atom_site_label
_atom_site_fract_x
_atom_site_fract_y
_atom_site_fract_z
Si Si1 0.437956 0.500000 0.601496
Si Si2 0.034284 0.342744 0.716533
Si Si3 0.384680 0.657256 0.283467
Si Si4 0.814618 0.096387 0.903410
Si Si5 0.133467 0.500000 0.398505
Si Si6 0.895616 0.596387 0.903410
O O1 0.458687 0.582497 0.654152
O O2 0.229917 0.500000 0.500001
O O3 0.652730 0.500000 0.601819
O O4 0.026994 0.250000 0.684661
O O5 0.251341 0.356112 0.816892
O O6 0.829182 0.350429 0.719453
O O7 0.003769 0.417503 0.654150
O O8 0.300659 0.643889 0.183107
O O9 0.595864 0.093042 0.897241
O O10 0.875292 0.000000 0.900649
O O11 0.000000 0.131999 0.000000
O O12 0.826661 0.500000 0.900650
O O13 0.000000 0.632000 0.000000
#
# Coordination Sequence:
#
# PCOD9195737 Si02
#       6
#     4   8   8   8   4   8
#     4   9  18  36  60  79 101 139 179 213 260 321
#     4  10  20  35  55  80 108 138 175 217 260 310
#     4  10  20  35  55  80 108 138 175 217 260 310
#     4   9  17  31  51  74 103 139 177 213 252 303
#     4   9  18  36  60  79 101 139 179 213 260 321
#     4   9  17  31  51  74 103 139 177 213 252 303
#
# _framework density 21.576747000000001
#
# number of rings (size 3 to 8) (size 9 to 14) (size 15 to 20)
#    0.000    2.600    2.000    0.000    0.000    3.200 
#    0.000    5.000    0.000    1.200    0.000    0.000 
#    0.000    0.000    0.000    0.000    0.000    0.000 
#
# Total GULP energy -111652.601204 kJ/mol
# GULP energy per Si atom -5582.630060 kJ/mol
# Density = 2.152764 g / cm^3
# Si number density = 21.576747 Si / 1000 Ang^3
#
#
#
# Elastic Constant Matrix: (Units=GPa)
#
#
# Indices 1 2 3 4 5 6 
#
# 1 38.3116 0.8739 9.7738 0.0000 0.0008 0.0000
# 2 0.8739 168.7842 104.5163 0.0000 0.0059 0.0000
# 3 9.7738 104.5163 183.5000 0.0001 0.0078 0.0000
# 4 0.0000 0.0000 0.0001 -2.5044 0.0000 -0.0003
# 5 0.0008 0.0059 0.0078 0.0000 11.2343 0.0000
# 6 0.0000 0.0000 0.0000 -0.0003 0.0000 17.1976
#
#
#
# Elastic Compliance Matrix: (Units=1/GPa)
#
#
# Indices 1 2 3 4 5 6 
#
# 1 0.026603 0.001143 -0.002068 0.000000 -0.000001 0.000000
# 2 0.001143 0.009202 -0.005302 0.000000 -0.000001 0.000000
# 3 -0.002068 -0.005302 0.008580 0.000000 -0.000003 0.000000
# 4 0.000000 0.000000 0.000000 -0.399305 0.000001 -0.000007
# 5 -0.000001 -0.000001 -0.000003 0.000001 0.089013 0.000000
# 6 0.000000 0.000000 0.000000 -0.000007 0.000000 0.058148
#
#
# Mechanical properties :
#
#
# Convention : Reuss Voigt Hill
#
# Bulk Modulus (GPa) = 31.31801 68.99154 50.15477
# Shear Modulus (GPa) = -27.07662 23.54763 -1.76449
#
# Velocity S-wave (km/s) = -3.54630 3.30713 -0.90529
# Velocity P-wave (km/s) = 1.49067 6.82841 4.71196
#
# Compressibility (1/GPa) = 0.03193051
#
# Stress axis : x y z
#
# Youngs Moduli (GPa) = 37.58945 108.67193 116.55512
#
# Poissons Ratio (x) = -0.12418 0.24102
# Poissons Ratio (y) = -0.04295 0.61798
# Poissons Ratio (z) = 0.07773 0.57619
#
# Static dielectric constant tensor:
#      x y z
#    x 1.818560 0.000000 0.000000 
#    y 0.000000 1.771260 0.000000 
#    z 0.000000 0.000000 1.781300 
# 
# From -- ./inp_files/203818.got.cif
#   From: 2010.05.17/outbox.cif.g08.bks.cpg/sg12_102_cif.got.tgz:203818.got - 2010.06.03 13:09:07.
