data_PCOD9195140
_publ_section_title
;
Structure prediction by ZEFSAII (Michael W. Deem and Ramdas Pophale) SiO2 
 PCOD9195140
Probable space group: C 2/M
;
_chemical_formula_sum "Si O2"
_cell_formula_units_Z 32
_cell_length_a 21.989768
_cell_length_b 11.988725
_cell_length_c 7.369380
_cell_angle_alpha 90.000000
_cell_angle_beta 55.233393
_cell_angle_gamma 90.000000
_cell_volume 1595.961777
_symmetry_space_group_name_H-M "C 2/M"
_symmetry_group_IT_number 12
_symmetry_cell_setting 'monoclinic'
loop_
_space_group_symop_operation_xyz
x,y,z
-x,y,-z
-x,-y,-z
x,-y,z
1/2+x,1/2+y,z
1/2-x,1/2+y,-z
1/2-x,1/2-y,-z
1/2+x,1/2-y,z
loop_
_atom_site_type_symbol
_atom_site_label
_atom_site_fract_x
_atom_site_fract_y
_atom_site_fract_z
Si Si1 0.587484 0.745768 0.813805
Si Si2 0.310740 0.131099 0.087816
Si Si3 0.912165 0.000000 0.185535
Si Si4 0.151199 0.771199 0.312261
Si Si5 0.412947 0.500000 0.615077
O O1 0.634022 0.835083 0.845907
O O2 0.614288 0.621338 0.831918
O O3 0.602743 0.753347 0.572601
O O4 0.500000 0.754487 0.000000
O O5 0.233744 0.197863 0.237488
O O6 0.295520 0.000000 0.112647
O O7 0.345073 0.172591 0.838939
O O8 0.899402 0.000000 0.422424
O O9 0.000000 0.000000 0.000000
O O10 0.121125 0.883272 0.263936
O O11 0.500000 0.500000 0.500000
#
# Coordination Sequence:
#
# PCOD9195140 Si02
#       5
#     8   8   4   8   4
#     4  10  22  40  65  92 121 156 203 260 310 361
#     4  11  24  42  61  87 127 169 206 243 301 381
#     4   8  18  34  54  96 116 139 191 244 315 356
#     4  10  23  42  62  93 124 160 202 254 315 362
#     4  10  20  34  68  92 119 148 195 267 309 349
#
# _framework density 20.050605999999998
#
# number of rings (size 3 to 8) (size 9 to 14) (size 15 to 20)
#    0.000    2.000    1.250    0.750   10.500    1.500 
#    2.250    1.250    0.000    0.000    0.000    0.000 
#    0.000    0.000    0.000    0.000    0.000    0.000 
#
# Total GULP energy -89323.759754 kJ/mol
# GULP energy per Si atom -5582.734985 kJ/mol
# Density = 2.000497 g / cm^3
# Si number density = 20.050606 Si / 1000 Ang^3
#
#
#
# Elastic Constant Matrix: (Units=GPa)
#
#
# Indices 1 2 3 4 5 6 
#
# 1 56.1865 3.6648 5.2091 0.0000 -1.9426 0.0000
# 2 3.6648 44.7182 -2.1006 0.0000 12.3743 0.0000
# 3 5.2091 -2.1006 106.6819 0.0000 12.6725 0.0000
# 4 0.0000 0.0000 0.0000 27.0429 0.0000 -0.7190
# 5 -1.9426 12.3743 12.6725 0.0000 27.6206 0.0000
# 6 0.0000 0.0000 0.0000 -0.7190 0.0000 27.8040
#
#
#
# Elastic Compliance Matrix: (Units=1/GPa)
#
#
# Indices 1 2 3 4 5 6 
#
# 1 0.018171 -0.002358 -0.001281 0.000000 0.002922 0.000000
# 2 -0.002358 0.026230 0.002165 0.000000 -0.012910 0.000000
# 3 -0.001281 0.002165 0.010158 0.000000 -0.005721 0.000000
# 4 0.000000 0.000000 0.000000 0.037004 0.000000 0.000957
# 5 0.002922 -0.012910 -0.005721 0.000000 0.044819 0.000000
# 6 0.000000 0.000000 0.000000 0.000957 0.000000 0.035991
#
#
# Mechanical properties :
#
#
# Convention : Reuss Voigt Hill
#
# Bulk Modulus (GPa) = 19.37517 24.57036 21.97276
# Shear Modulus (GPa) = 25.97072 29.88104 27.92588
#
# Velocity S-wave (km/s) = 3.60287 3.86460 3.73603
# Velocity P-wave (km/s) = 5.19536 5.67400 5.43995
#
# Compressibility (1/GPa) = 0.05161245
#
# Stress axis : x y z
#
# Youngs Moduli (GPa) = 55.03146 38.12469 98.44069
#
# Poissons Ratio (x) = 0.08990 0.12608
# Poissons Ratio (y) = 0.12976 -0.21314
# Poissons Ratio (z) = 0.07048 -0.08255
#
# Static dielectric constant tensor:
#      x y z
#    x 1.709410 0.000000 0.020330 
#    y 0.000000 1.756410 0.000000 
#    z 0.020330 0.000000 1.696150 
# 
# From -- ./inp_files/83259.got.cif
#   From: 2010.05.17/outbox.cif.g08.bks.cpg/sg12_42_cif.got.tgz:83259.got - 2010.06.03 13:09:07.
