data_PCOD9195041
_publ_section_title
;
Structure prediction by ZEFSAII (Michael W. Deem and Ramdas Pophale) SiO2 
 PCOD9195041
Probable space group: C 2/M
;
_chemical_formula_sum "Si O2"
_cell_formula_units_Z 48
_cell_length_a 12.656948
_cell_length_b 18.333066
_cell_length_c 10.809766
_cell_angle_alpha 90.000000
_cell_angle_beta 86.417336
_cell_angle_gamma 90.000000
_cell_volume 2503.403242
_symmetry_space_group_name_H-M "C 2/M"
_symmetry_group_IT_number 12
_symmetry_cell_setting 'monoclinic'
loop_
_space_group_symop_operation_xyz
x,y,z
-x,y,-z
-x,-y,-z
x,-y,z
1/2+x,1/2+y,z
1/2-x,1/2+y,-z
1/2-x,1/2-y,-z
1/2+x,1/2-y,z
loop_
_atom_site_type_symbol
_atom_site_label
_atom_site_fract_x
_atom_site_fract_y
_atom_site_fract_z
Si Si1 0.276911 0.165588 0.983916
Si Si2 0.453372 0.079598 0.863821
Si Si3 0.580461 0.418564 0.882195
Si Si4 0.964550 0.802996 0.317528
Si Si5 0.646504 0.149344 0.744532
Si Si6 0.823664 0.812301 0.554153
O O1 0.304246 0.142769 0.122067
O O2 0.250000 0.250000 0.000000
O O3 0.373986 0.147220 0.884795
O O4 0.183297 0.119277 0.932046
O O5 0.545940 0.095749 0.759300
O O6 0.403818 0.000000 0.842746
O O7 0.500000 0.075415 0.000000
O O8 0.601964 0.500000 0.831243
O O9 0.530722 0.363161 0.788081
O O10 0.500000 0.424976 0.000000
O O11 0.904737 0.729939 0.274421
O O12 0.892022 0.838327 0.431659
O O13 0.081986 0.785797 0.361095
O O14 0.739927 0.139278 0.637573
O O15 0.750000 0.750000 0.500000
#
# Coordination Sequence:
#
# PCOD9195041 Si02
#       6
#     8   8   8   8   8   8
#     4  11  21  34  59  89 119 158 203 242 294 365
#     4   9  20  35  51  80 119 154 192 245 299 346
#     4  11  24  38  57  88 128 160 192 244 308 367
#     4  10  20  37  59  84 123 153 207 257 305 357
#     4  10  20  34  60  86 117 158 202 249 297 365
#     4   9  20  37  57  88 115 154 204 262 305 348
#
# _framework density 19.173898999999999
#
# number of rings (size 3 to 8) (size 9 to 14) (size 15 to 20)
#    0.000    2.000    1.667    1.500    4.667    0.667 
#    0.000    3.333    0.000    0.000    0.000   12.833 
#    0.000    0.000    0.000    0.000    0.000    0.000 
#
# Total GULP energy -133609.610904 kJ/mol
# GULP energy per Si atom -5567.067121 kJ/mol
# Density = 1.913026 g / cm^3
# Si number density = 19.173899 Si / 1000 Ang^3
#
#
#
# Elastic Constant Matrix: (Units=GPa)
#
#
# Indices 1 2 3 4 5 6 
#
# 1 101.1328 21.2958 32.0682 0.0000 -5.9200 0.0000
# 2 21.2958 80.7107 12.2552 0.0000 1.1376 0.0000
# 3 32.0682 12.2552 79.2504 0.0000 -8.3702 0.0000
# 4 0.0000 0.0000 0.0000 13.4390 0.0000 -7.5738
# 5 -5.9200 1.1376 -8.3702 0.0000 44.6176 0.0000
# 6 0.0000 0.0000 0.0000 -7.5738 0.0000 31.1233
#
#
#
# Elastic Compliance Matrix: (Units=1/GPa)
#
#
# Indices 1 2 3 4 5 6 
#
# 1 0.011826 -0.002477 -0.004315 0.000000 0.000823 0.000000
# 2 -0.002477 0.013228 -0.001136 0.000000 -0.000879 0.000000
# 3 -0.004315 -0.001136 0.014776 0.000000 0.002228 0.000000
# 4 0.000000 0.000000 0.000000 0.086237 0.000000 0.020986
# 5 0.000823 -0.000879 0.002228 0.000000 0.022962 0.000000
# 6 0.000000 0.000000 0.000000 0.020986 0.000000 0.037237
#
#
# Mechanical properties :
#
#
# Convention : Reuss Voigt Hill
#
# Bulk Modulus (GPa) = 41.71351 43.59248 42.65300
# Shear Modulus (GPa) = 23.79662 30.86764 27.33213
#
# Velocity S-wave (km/s) = 3.52674 4.01668 3.77966
# Velocity P-wave (km/s) = 6.19568 6.65555 6.42973
#
# Compressibility (1/GPa) = 0.02397305
#
# Stress axis : x y z
#
# Youngs Moduli (GPa) = 84.55901 75.59531 67.67955
#
# Poissons Ratio (x) = 0.18723 0.29207
# Poissons Ratio (y) = 0.20943 0.07690
# Poissons Ratio (z) = 0.36491 0.08590
#
# Static dielectric constant tensor:
#      x y z
#    x 1.866100 0.000000 -0.050700 
#    y 0.000000 1.659070 0.000000 
#    z -0.050700 0.000000 1.682170 
# 
# From -- ./inp_files/131021.got.cif
#   From: 2010.05.17/outbox.cif.g08.bks.cpg/sg12_66_cif.got.tgz:131021.got - 2010.06.03 13:09:07.
