data_PCOD9195516
_publ_section_title
;
Structure prediction by ZEFSAII (Michael W. Deem and Ramdas Pophale) SiO2 
 PCOD9195516
Probable space group: C 2/M
;
_chemical_formula_sum "Si O2"
_cell_formula_units_Z 48
_cell_length_a 31.753093
_cell_length_b 14.817018
_cell_length_c 9.104334
_cell_angle_alpha 90.000000
_cell_angle_beta 32.857196
_cell_angle_gamma 90.000000
_cell_volume 2323.980215
_symmetry_space_group_name_H-M "C 2/M"
_symmetry_group_IT_number 12
_symmetry_cell_setting 'monoclinic'
loop_
_space_group_symop_operation_xyz
x,y,z
-x,y,-z
-x,-y,-z
x,-y,z
1/2+x,1/2+y,z
1/2-x,1/2+y,-z
1/2-x,1/2-y,-z
1/2+x,1/2-y,z
loop_
_atom_site_type_symbol
_atom_site_label
_atom_site_fract_x
_atom_site_fract_y
_atom_site_fract_z
Si Si1 0.082679 0.099879 0.186380
Si Si2 0.189741 0.344344 0.009117
Si Si3 0.866232 0.604621 0.399050
Si Si4 0.116575 0.285632 0.943650
Si Si5 0.466904 0.100785 0.387423
Si Si6 0.709339 0.640415 0.041490
O O1 0.111202 0.179346 0.994577
O O2 0.000000 0.123374 0.500000
O O3 0.078343 0.000000 0.130475
O O4 0.140636 0.094756 0.154922
O O5 0.182633 0.327096 0.857376
O O6 0.111075 0.393457 0.288068
O O7 0.265979 0.384339 0.864470
O O8 0.186067 0.245509 0.095605
O O9 0.867278 0.500000 0.343323
O O10 0.935705 0.614478 0.312924
O O11 0.787176 0.620611 0.720717
O O12 0.870103 0.677160 0.258206
O O13 0.032721 0.327737 0.231999
O O14 0.499696 0.000000 0.304574
#
# Coordination Sequence:
#
# PCOD9195516 Si02
#       6
#     8   8   8   8   8   8
#     4  10  21  37  58  80 103 141 191 235 277 324
#     4   9  19  32  54  82 107 142 183 223 267 311
#     4  10  21  35  55  83 115 152 180 208 270 344
#     4  11  20  33  55  85 115 143 182 227 268 318
#     4  10  20  35  54  81 118 151 177 213 271 338
#     4   9  18  37  56  76 110 144 180 222 269 325
#
# _framework density 20.654222000000001
#
# number of rings (size 3 to 8) (size 9 to 14) (size 15 to 20)
#    0.000    2.167    0.000    4.000    0.000    6.667 
#    0.000    0.000    0.000    3.000    0.000   14.000 
#    0.000    0.000    0.000    0.000    0.000    0.000 
#
# Total GULP energy -133857.814827 kJ/mol
# GULP energy per Si atom -5577.408951 kJ/mol
# Density = 2.060721 g / cm^3
# Si number density = 20.654222 Si / 1000 Ang^3
#
#
#
# Elastic Constant Matrix: (Units=GPa)
#
#
# Indices 1 2 3 4 5 6 
#
# 1 116.4892 40.7844 14.6019 0.0000 1.7568 0.0000
# 2 40.7844 120.9002 15.8838 0.0000 9.6168 0.0000
# 3 14.6019 15.8838 25.2339 0.0000 -4.6894 0.0000
# 4 0.0000 0.0000 0.0000 30.2705 0.0000 0.5430
# 5 1.7568 9.6168 -4.6894 0.0000 34.9279 0.0000
# 6 0.0000 0.0000 0.0000 0.5430 0.0000 17.9729
#
#
#
# Elastic Compliance Matrix: (Units=1/GPa)
#
#
# Indices 1 2 3 4 5 6 
#
# 1 0.010099 -0.002846 -0.004104 0.000000 -0.000275 0.000000
# 2 -0.002846 0.010212 -0.005413 0.000000 -0.003395 0.000000
# 3 -0.004104 -0.005413 0.046897 0.000000 0.007993 0.000000
# 4 0.000000 0.000000 0.000000 0.033053 0.000000 -0.000999
# 5 -0.000275 -0.003395 0.007993 0.000000 0.030652 0.000000
# 6 0.000000 0.000000 0.000000 -0.000999 0.000000 0.055669
#
#
# Mechanical properties :
#
#
# Convention : Reuss Voigt Hill
#
# Bulk Modulus (GPa) = 23.53849 45.01816 34.27833
# Shear Modulus (GPa) = 22.17594 29.39114 25.78354
#
# Velocity S-wave (km/s) = 3.28025 3.77637 3.53702
# Velocity P-wave (km/s) = 5.07621 6.39203 5.77174
#
# Compressibility (1/GPa) = 0.04248360
#
# Stress axis : x y z
#
# Youngs Moduli (GPa) = 99.01527 97.91941 21.32353
#
# Poissons Ratio (x) = 0.27866 0.08751
# Poissons Ratio (y) = 0.28178 0.11542
# Poissons Ratio (z) = 0.40636 0.53000
#
# Static dielectric constant tensor:
#      x y z
#    x 1.793280 0.000000 0.004340 
#    y 0.000000 1.775380 0.000000 
#    z 0.004340 0.000000 1.742200 
# 
# From -- ./inp_files/111479.got.cif
#   From: 2010.05.17/outbox.cif.g08.bks.cpg/sg12_56_cif.got.tgz:111479.got - 2010.06.03 13:09:07.
