data_PCOD9195646
_publ_section_title
;
Structure prediction by ZEFSAII (Michael W. Deem and Ramdas Pophale) SiO2 
 PCOD9195646
Probable space group: C 2/M
;
_chemical_formula_sum "Si O2"
_cell_formula_units_Z 56
_cell_length_a 16.163418
_cell_length_b 9.102846
_cell_length_c 20.750581
_cell_angle_alpha 90.000000
_cell_angle_beta 125.866788
_cell_angle_gamma 90.000000
_cell_volume 2474.173355
_symmetry_space_group_name_H-M "C 2/M"
_symmetry_group_IT_number 12
_symmetry_cell_setting 'monoclinic'
loop_
_space_group_symop_operation_xyz
x,y,z
-x,y,-z
-x,-y,-z
x,-y,z
1/2+x,1/2+y,z
1/2-x,1/2+y,-z
1/2-x,1/2-y,-z
1/2+x,1/2-y,z
loop_
_atom_site_type_symbol
_atom_site_label
_atom_site_fract_x
_atom_site_fract_y
_atom_site_fract_z
Si Si1 0.111633 0.824532 0.243214
Si Si2 0.168082 0.174568 0.668520
Si Si3 0.681999 0.828224 0.802081
Si Si4 0.137053 0.668677 0.524817
Si Si5 0.881759 0.826227 0.963111
Si Si6 0.578851 0.171945 0.894429
Si Si7 0.116918 0.832057 0.388985
O O1 0.215946 0.736472 0.281907
O O2 0.074825 0.792844 0.299730
O O3 0.023034 0.769115 0.156828
O O4 0.129532 0.000000 0.245942
O O5 0.134324 0.232452 0.723175
O O6 0.117004 0.242167 0.581053
O O7 0.164885 0.000000 0.663868
O O8 0.801613 0.792846 0.869815
O O9 0.634479 0.810783 0.851281
O O10 0.673572 0.000000 0.779604
O O11 0.109593 0.500000 0.521495
O O12 0.091340 0.733391 0.438331
O O13 0.260036 0.673645 0.567604
O O14 0.868716 0.000000 0.971505
O O15 0.859756 0.730786 0.016288
O O16 0.000000 0.800705 0.000000
O O17 0.554959 0.000000 0.891631
O O18 0.090493 0.000000 0.392697
#
# Coordination Sequence:
#
# PCOD9195646 Si02
#       7
#     8   8   8   8   8   8   8
#     4  10  20  35  55  78 109 146 183 227 277 326
#     4  11  21  33  54  82 110 142 184 230 272 321
#     4  10  22  39  56  79 113 148 181 220 271 325
#     4   9  16  27  46  73 107 143 176 219 274 325
#     4  10  21  38  61  84 108 143 182 221 269 323
#     4  11  23  37  56  82 112 145 182 225 268 319
#     4   8  15  27  45  72 103 137 178 223 270 321
#
# _framework density 22.633824000000001
#
# number of rings (size 3 to 8) (size 9 to 14) (size 15 to 20)
#    0.000    2.143    0.000    4.714    0.000    7.143 
#    0.000    0.000    0.000    0.857    0.000    6.000 
#    0.000    0.000    0.000    0.000    0.000    0.000 
#
# Total GULP energy -156591.428796 kJ/mol
# GULP energy per Si atom -5592.551028 kJ/mol
# Density = 2.258231 g / cm^3
# Si number density = 22.633824 Si / 1000 Ang^3
#
#
#
# Elastic Constant Matrix: (Units=GPa)
#
#
# Indices 1 2 3 4 5 6 
#
# 1 70.2836 25.6750 12.3606 0.0000 -10.9531 0.0000
# 2 25.6750 111.3030 86.8022 0.0000 -30.8476 0.0000
# 3 12.3606 86.8022 142.2267 0.0000 -24.5889 0.0000
# 4 0.0000 0.0000 0.0000 42.6601 0.0000 -12.9761
# 5 -10.9531 -30.8476 -24.5889 0.0000 35.4766 0.0000
# 6 0.0000 0.0000 0.0000 -12.9761 0.0000 10.7734
#
#
#
# Elastic Compliance Matrix: (Units=1/GPa)
#
#
# Indices 1 2 3 4 5 6 
#
# 1 0.015870 -0.004310 0.001648 0.000000 0.002294 0.000000
# 2 -0.004310 0.021055 -0.010839 0.000000 0.009464 0.000000
# 3 0.001648 -0.010839 0.013590 0.000000 0.000503 0.000000
# 4 0.000000 0.000000 0.000000 0.036995 0.000000 0.044559
# 5 0.002294 0.009464 0.000503 0.000000 0.037474 0.000000
# 6 0.000000 0.000000 0.000000 0.044559 0.000000 0.146491
#
#
# Mechanical properties :
#
#
# Convention : Reuss Voigt Hill
#
# Bulk Modulus (GPa) = 42.53091 63.72099 53.12595
# Shear Modulus (GPa) = 16.32306 31.04705 23.68505
#
# Velocity S-wave (km/s) = 2.68839 3.70768 3.23839
# Velocity P-wave (km/s) = 5.33557 6.82226 6.12420
#
# Compressibility (1/GPa) = 0.02351231
#
# Stress axis : x y z
#
# Youngs Moduli (GPa) = 63.01058 47.49472 73.58318
#
# Poissons Ratio (x) = 0.20472 -0.12127
# Poissons Ratio (y) = 0.27160 0.79758
# Poissons Ratio (z) = -0.10384 0.51480
#
# Static dielectric constant tensor:
#      x y z
#    x 1.918700 0.000000 -0.010110 
#    y 0.000000 1.751490 0.000000 
#    z -0.010110 0.000000 1.819500 
# 
# From -- ./inp_files/275350.got.cif
#   From: 2010.05.17/outbox.cif.g08.bks.cpg/sg12_138_cif.got.tgz:275350.got - 2010.06.03 13:09:07.
