data_PCOD9195491
_publ_section_title
;
Structure prediction by ZEFSAII (Michael W. Deem and Ramdas Pophale) SiO2 
 PCOD9195491
Probable space group: C 2/M
;
_chemical_formula_sum "Si O2"
_cell_formula_units_Z 56
_cell_length_a 18.050853
_cell_length_b 31.720880
_cell_length_c 8.574589
_cell_angle_alpha 90.000000
_cell_angle_beta 32.450471
_cell_angle_gamma 90.000000
_cell_volume 2634.407377
_symmetry_space_group_name_H-M "C 2/M"
_symmetry_group_IT_number 12
_symmetry_cell_setting 'monoclinic'
loop_
_space_group_symop_operation_xyz
x,y,z
-x,y,-z
-x,-y,-z
x,-y,z
1/2+x,1/2+y,z
1/2-x,1/2+y,-z
1/2-x,1/2-y,-z
1/2+x,1/2-y,z
loop_
_atom_site_type_symbol
_atom_site_label
_atom_site_fract_x
_atom_site_fract_y
_atom_site_fract_z
Si Si1 0.965377 0.952828 0.724796
Si Si2 0.652253 0.600866 0.803555
Si Si3 0.083314 0.732921 0.618018
Si Si4 0.624458 0.878254 0.060795
Si Si5 0.328023 0.846547 0.688138
Si Si6 0.270592 0.951978 0.322886
Si Si7 0.308116 0.796154 0.237619
O O1 0.111424 0.955819 0.552154
O O2 0.000000 0.931089 0.500000
O O3 0.912453 0.000000 0.785338
O O4 0.863844 0.929420 0.018939
O O5 0.707625 0.643603 0.780096
O O6 0.756164 0.577268 0.501390
O O7 0.500000 0.606044 0.000000
O O8 0.130577 0.702389 0.394462
O O9 0.155992 0.777971 0.478868
O O10 0.146379 0.712306 0.665353
O O11 0.919815 0.729984 0.935463
O O12 0.463394 0.870483 0.380948
O O13 0.696281 0.864383 0.095756
O O14 0.653375 0.924717 0.944760
O O15 0.674037 0.844391 0.843875
O O16 0.321880 0.000000 0.255733
#
# Coordination Sequence:
#
# PCOD9195491 Si02
#       7
#     8   8   8   8   8   8   8
#     4   9  17  31  52  76 107 144 182 229 285 337
#     4  10  20  35  54  80 109 147 186 238 280 336
#     4   9  18  35  57  85 115 150 189 233 283 347
#     4  10  21  38  60  79 114 154 188 233 286 343
#     4  10  21  38  57  82 113 151 190 232 287 340
#     4  10  20  35  55  81 111 146 192 239 284 338
#     4   9  18  35  58  84 114 152 188 231 288 343
#
# _framework density 21.257152000000001
#
# number of rings (size 3 to 8) (size 9 to 14) (size 15 to 20)
#    0.000    2.429    0.000    2.143    0.000    4.000 
#   10.286    4.286    0.000    0.000    0.000    0.000 
#    0.000    0.000    0.000    0.000    0.000    0.000 
#
# Total GULP energy -156186.526766 kJ/mol
# GULP energy per Si atom -5578.090242 kJ/mol
# Density = 2.120877 g / cm^3
# Si number density = 21.257152 Si / 1000 Ang^3
#
#
#
# Elastic Constant Matrix: (Units=GPa)
#
#
# Indices 1 2 3 4 5 6 
#
# 1 54.7126 4.3129 4.3955 0.0000 15.5758 0.0000
# 2 4.3129 48.4305 29.1883 0.0000 1.2849 0.0000
# 3 4.3955 29.1883 48.5293 0.0000 19.1188 0.0000
# 4 0.0000 0.0000 0.0000 -430.8379 0.0000 334.5497
# 5 15.5758 1.2849 19.1188 0.0000 30.3091 0.0000
# 6 0.0000 0.0000 0.0000 334.5497 0.0000 -228.4468
#
#
#
# Elastic Compliance Matrix: (Units=1/GPa)
#
#
# Indices 1 2 3 4 5 6 
#
# 1 0.022967 -0.006881 0.008774 0.000000 -0.017046 0.000000
# 2 -0.006881 0.040092 -0.032221 0.000000 0.022161 0.000000
# 3 0.008774 -0.032221 0.053799 0.000000 -0.037079 0.000000
# 4 0.000000 0.000000 0.000000 0.016922 0.000000 0.024782
# 5 -0.017046 0.022161 -0.037079 0.000000 0.064203 0.000000
# 6 0.000000 0.000000 0.000000 0.024782 0.000000 0.031914
#
#
# Mechanical properties :
#
#
# Convention : Reuss Voigt Hill
#
# Bulk Modulus (GPa) = 17.79314 25.27397 21.53356
# Shear Modulus (GPa) = 16.16614 -118.21008 -51.02197
#
# Velocity S-wave (km/s) = 2.76071 -7.46527 -4.90452
# Velocity P-wave (km/s) = 4.30705 7.89883 4.68193
#
# Compressibility (1/GPa) = 0.05620142
#
# Stress axis : x y z
#
# Youngs Moduli (GPa) = 43.53982 24.94244 18.58775
#
# Poissons Ratio (x) = 0.17162 -0.16308
# Poissons Ratio (y) = 0.29959 0.59892
# Poissons Ratio (z) = -0.38200 0.80368
#
# Static dielectric constant tensor:
#      x y z
#    x 1.801010 0.000000 0.005210 
#    y 0.000000 1.769060 0.000000 
#    z 0.005210 0.000000 1.772740 
# 
# From -- ./inp_files/91557.got.cif
#   From: 2010.05.17/outbox.cif.g08.bks.cpg/sg12_46_cif.got.tgz:91557.got - 2010.06.03 13:09:07.
