data_PCOD9195287
_publ_section_title
;
Structure prediction by ZEFSAII (Michael W. Deem and Ramdas Pophale) SiO2 
 PCOD9195287
Probable space group: C 2/M
;
_chemical_formula_sum "Si O2"
_cell_formula_units_Z 64
_cell_length_a 31.742120
_cell_length_b 8.878206
_cell_length_c 26.082316
_cell_angle_alpha 90.000000
_cell_angle_beta 149.983993
_cell_angle_gamma 90.000000
_cell_volume 3676.947145
_symmetry_space_group_name_H-M "C 2/M"
_symmetry_group_IT_number 12
_symmetry_cell_setting 'monoclinic'
loop_
_space_group_symop_operation_xyz
x,y,z
-x,y,-z
-x,-y,-z
x,-y,z
1/2+x,1/2+y,z
1/2-x,1/2+y,-z
1/2-x,1/2-y,-z
1/2+x,1/2-y,z
loop_
_atom_site_type_symbol
_atom_site_label
_atom_site_fract_x
_atom_site_fract_y
_atom_site_fract_z
Si Si1 0.224567 0.677715 0.388409
Si Si2 0.622700 0.824536 0.176095
Si Si3 0.591101 0.179045 0.409687
Si Si4 0.065650 0.820226 0.276843
Si Si5 0.136285 0.179323 0.660764
Si Si6 0.963288 0.679380 0.077591
Si Si7 0.531254 0.679523 0.450279
Si Si8 0.184051 0.822694 0.137583
O O1 0.232106 0.500000 0.408353
O O2 0.188058 0.689982 0.292137
O O3 0.313731 0.757739 0.486963
O O4 0.154916 0.752940 0.351441
O O5 0.531733 0.789473 0.104639
O O6 0.648408 0.722615 0.155922
O O7 0.622610 0.000000 0.159263
O O8 0.549746 0.255006 0.316352
O O9 0.545805 0.229635 0.414073
O O10 0.591894 0.000000 0.405137
O O11 0.997586 0.762240 0.164049
O O12 0.069430 0.000000 0.281358
O O13 0.100757 0.218224 0.566814
O O14 0.219758 0.268433 0.762357
O O15 0.059282 0.205234 0.618782
O O16 0.154193 0.000000 0.679373
O O17 0.964832 0.500000 0.087659
O O18 0.873586 0.736428 0.964200
O O19 0.539156 0.500000 0.448480
O O20 0.177469 0.000000 0.122729
#
# Coordination Sequence:
#
# PCOD9195287 Si02
#       8
#     8   8   8   8   8   8   8   8
#     4  10  20  35  53  76 108 144 181 219 261 311
#     4   9  19  34  52  74 104 142 179 216 261 312
#     4  12  23  34  52  79 109 142 178 216 262 314
#     4  11  22  37  55  76 105 139 178 223 266 310
#     4   9  19  37  59  80 107 140 173 213 263 318
#     4  10  21  38  56  74 102 141 182 221 263 311
#     4   9  19  37  59  82 106 137 176 216 262 314
#     4  12  23  32  50  80 110 140 177 218 260 311
#
# _framework density 17.405743999999999
#
# number of rings (size 3 to 8) (size 9 to 14) (size 15 to 20)
#    0.000    1.750    0.000    7.125    0.000    8.500 
#    0.000    1.250    0.000    0.750    0.000    0.000 
#    0.000    0.000    0.000    0.000    0.000    0.000 
#
# Total GULP energy -178871.092951 kJ/mol
# GULP energy per Si atom -5589.721655 kJ/mol
# Density = 1.736613 g / cm^3
# Si number density = 17.405744 Si / 1000 Ang^3
#
#
#
# Elastic Constant Matrix: (Units=GPa)
#
#
# Indices 1 2 3 4 5 6 
#
# 1 71.5643 51.7016 34.7834 0.0000 -17.8072 0.0000
# 2 51.7016 110.9140 47.2676 0.0000 -7.7122 0.0000
# 3 34.7834 47.2676 81.0341 0.0000 5.8633 0.0000
# 4 0.0000 0.0000 0.0000 25.9223 0.0000 -3.3406
# 5 -17.8072 -7.7122 5.8633 0.0000 14.4837 0.0000
# 6 0.0000 0.0000 0.0000 -3.3406 0.0000 29.3715
#
#
#
# Elastic Compliance Matrix: (Units=1/GPa)
#
#
# Indices 1 2 3 4 5 6 
#
# 1 0.041485 -0.008528 -0.016684 0.000000 0.053218 0.000000
# 2 -0.008528 0.015171 -0.005166 0.000000 -0.000315 0.000000
# 3 -0.016684 -0.005166 0.024929 0.000000 -0.033354 0.000000
# 4 0.000000 0.000000 0.000000 0.039151 0.000000 0.004453
# 5 0.053218 -0.000315 -0.033354 0.000000 0.147808 0.000000
# 6 0.000000 0.000000 0.000000 0.004453 0.000000 0.034553
#
#
# Mechanical properties :
#
#
# Convention : Reuss Voigt Hill
#
# Bulk Modulus (GPa) = 48.00757 59.00194 53.50476
# Shear Modulus (GPa) = 13.48458 22.60616 18.04537
#
# Velocity S-wave (km/s) = 2.78640 3.60776 3.22335
# Velocity P-wave (km/s) = 6.16388 7.16423 6.68280
#
# Compressibility (1/GPa) = 0.02083005
#
# Stress axis : x y z
#
# Youngs Moduli (GPa) = 24.10486 65.91669 40.11460
#
# Poissons Ratio (x) = 0.56211 0.66926
# Poissons Ratio (y) = 0.20556 0.20723
# Poissons Ratio (z) = 0.40216 0.34052
#
# Static dielectric constant tensor:
#      x y z
#    x 1.579370 0.000000 -0.008150 
#    y 0.000000 1.573520 0.000000 
#    z -0.008150 0.000000 1.588960 
# 
# From -- ./inp_files/353472.got.cif
#   From: 2010.05.17/outbox.cif.g08.bks.cpg/sg12_177_cif.got.tgz:353472.got - 2010.06.03 13:09:07.
