data_PCOD9195802
_publ_section_title
;
Structure prediction by ZEFSAII (Michael W. Deem and Ramdas Pophale) SiO2 
 PCOD9195802
Probable space group: C 2/M
;
_chemical_formula_sum "Si O2"
_cell_formula_units_Z 36
_cell_length_a 5.180412
_cell_length_b 35.635744
_cell_length_c 11.944056
_cell_angle_alpha 90.000000
_cell_angle_beta 124.476581
_cell_angle_gamma 90.000000
_cell_volume 1817.680822
_symmetry_space_group_name_H-M "C 2/M"
_symmetry_group_IT_number 12
_symmetry_cell_setting 'monoclinic'
loop_
_space_group_symop_operation_xyz
x,y,z
-x,y,-z
-x,-y,-z
x,-y,z
1/2+x,1/2+y,z
1/2-x,1/2+y,-z
1/2-x,1/2-y,-z
1/2+x,1/2-y,z
loop_
_atom_site_type_symbol
_atom_site_label
_atom_site_fract_x
_atom_site_fract_y
_atom_site_fract_z
Si Si1 0.234343 0.855787 0.743795
Si Si2 0.276104 0.774159 0.838555
Si Si3 0.500000 0.401722 0.500000
Si Si4 0.891081 0.104845 0.848811
Si Si5 0.040404 0.542952 0.644341
O O1 0.228304 0.811248 0.753801
O O2 0.967212 0.873386 0.596272
O O3 0.572970 0.870115 0.782823
O O4 0.149857 0.872097 0.844591
O O5 0.460293 0.742833 0.812604
O O6 0.500000 0.783628 0.000000
O O7 0.247755 0.431106 0.391399
O O8 0.826674 0.066775 0.762940
O O9 0.000000 0.095731 0.000000
O O10 0.032402 0.500000 0.680439
O O11 0.000000 0.542934 0.500000
#
# Coordination Sequence:
#
# PCOD9195802 Si02
#       5
#     8   8   4   8   8
#     4  11  22  38  61  85 117 153 194 238 287 344
#     4  10  20  35  55  81 112 147 187 232 286 343
#     4  10  21  38  60  84 114 156 198 236 280 352
#     4  11  22  37  59  88 118 152 195 243 291 338
#     4  10  20  37  59  83 116 155 196 238 285 346
#
# _framework density 19.80546
#
# number of rings (size 3 to 8) (size 9 to 14) (size 15 to 20)
#    0.000    1.556    2.222    3.667    0.000    2.222 
#    0.000    1.111    0.000    4.000    0.000    0.000 
#    0.000    0.000    0.000    0.000    0.000    0.000 
#
# Total GULP energy -100312.503544 kJ/mol
# GULP energy per Si atom -5572.916864 kJ/mol
# Density = 1.976038 g / cm^3
# Si number density = 19.805460 Si / 1000 Ang^3
#
#
#
# Elastic Constant Matrix: (Units=GPa)
#
#
# Indices 1 2 3 4 5 6 
#
# 1 56.3605 5.7982 -4.5201 0.0000 -12.7683 0.0000
# 2 5.7982 129.9380 25.6156 0.0000 -7.6121 0.0000
# 3 -4.5201 25.6156 49.5041 0.0000 -16.7277 0.0000
# 4 0.0000 0.0000 0.0000 25.2872 0.0000 -6.6851
# 5 -12.7683 -7.6121 -16.7277 0.0000 23.5379 0.0000
# 6 0.0000 0.0000 0.0000 -6.6851 0.0000 21.7542
#
#
#
# Elastic Compliance Matrix: (Units=1/GPa)
#
#
# Indices 1 2 3 4 5 6 
#
# 1 0.022815 -0.001755 0.009188 0.000000 0.018338 0.000000
# 2 -0.001755 0.008710 -0.005313 0.000000 -0.001911 0.000000
# 3 0.009188 -0.005313 0.032758 0.000000 0.026546 0.000000
# 4 0.000000 0.000000 0.000000 0.043043 0.000000 0.013227
# 5 0.018338 -0.001911 0.026546 0.000000 0.070680 0.000000
# 6 0.000000 0.000000 0.000000 0.013227 0.000000 0.050033
#
#
# Mechanical properties :
#
#
# Convention : Reuss Voigt Hill
#
# Bulk Modulus (GPa) = 14.59366 32.17666 23.38516
# Shear Modulus (GPa) = 20.27252 28.04310 24.15781
#
# Velocity S-wave (km/s) = 3.20282 3.76696 3.49629
# Velocity P-wave (km/s) = 4.58932 5.93310 5.30394
#
# Compressibility (1/GPa) = 0.06852289
#
# Stress axis : x y z
#
# Youngs Moduli (GPa) = 43.83134 114.81470 30.52646
#
# Poissons Ratio (x) = 0.20150 -0.28047
# Poissons Ratio (y) = 0.07693 0.16218
# Poissons Ratio (z) = -0.40271 0.60998
#
# Static dielectric constant tensor:
#      x y z
#    x 0.528360 0.000000 0.301090 
#    y 0.000000 1.664540 0.000000 
#    z 0.301090 0.000000 1.683910 
# 
# From -- ./inp_files/115371.got.cif
#   From: 2010.05.17/outbox.cif.g08.bks.cpg/sg12_58_cif.got.tgz:115371.got - 2010.06.03 13:09:07.
