data_PCOD9195686
_publ_section_title
;
Structure prediction by ZEFSAII (Michael W. Deem and Ramdas Pophale) SiO2 
 PCOD9195686
Probable space group: C 2/M
;
_chemical_formula_sum "Si O2"
_cell_formula_units_Z 56
_cell_length_a 17.144981
_cell_length_b 14.931043
_cell_length_c 13.071568
_cell_angle_alpha 90.000000
_cell_angle_beta 70.159201
_cell_angle_gamma 90.000000
_cell_volume 3147.588654
_symmetry_space_group_name_H-M "C 2/M"
_symmetry_group_IT_number 12
_symmetry_cell_setting 'monoclinic'
loop_
_space_group_symop_operation_xyz
x,y,z
-x,y,-z
-x,-y,-z
x,-y,z
1/2+x,1/2+y,z
1/2-x,1/2+y,-z
1/2-x,1/2-y,-z
1/2+x,1/2-y,z
loop_
_atom_site_type_symbol
_atom_site_label
_atom_site_fract_x
_atom_site_fract_y
_atom_site_fract_z
Si Si1 0.062420 0.730567 0.691383
Si Si2 0.428320 0.893709 0.115097
Si Si3 0.316006 0.809278 0.532535
Si Si4 0.756761 0.893770 0.886785
Si Si5 0.374418 0.255464 0.723877
Si Si6 0.731717 0.895875 0.131339
Si Si7 0.173936 0.100075 0.704016
O O1 0.058552 0.667440 0.792039
O O2 0.109892 0.676819 0.580051
O O3 0.114657 0.819862 0.695704
O O4 0.971987 0.760590 0.695876
O O5 0.336952 0.874810 0.109526
O O6 0.568442 0.000000 0.861569
O O7 0.500000 0.876190 0.000000
O O8 0.250000 0.750000 0.500000
O O9 0.350600 0.757706 0.616117
O O10 0.260785 0.889436 0.603308
O O11 0.822515 0.837429 0.793378
O O12 0.770935 0.000000 0.869185
O O13 0.761866 0.871089 0.004876
O O14 0.341508 0.168248 0.799571
O O15 0.801794 0.887800 0.187557
O O16 0.705349 0.000000 0.139526
O O17 0.140416 0.000000 0.703634
#
# Coordination Sequence:
#
# PCOD9195686 Si02
#       7
#     8   8   8   8   8   8   8
#     4  11  22  35  55  81 112 142 176 222 273 328
#     4  10  21  37  57  82 111 143 182 227 271 315
#     4   9  19  37  56  75 101 137 182 223 261 311
#     4  10  20  35  55  79 108 143 183 222 264 319
#     4  11  21  34  55  80 110 142 174 220 274 323
#     4   9  18  34  55  77 103 139 182 223 263 312
#     4   9  19  36  57  79 107 144 183 223 268 320
#
# _framework density 17.791398000000001
#
# number of rings (size 3 to 8) (size 9 to 14) (size 15 to 20)
#    0.000    2.143    0.000    4.286    0.000    4.000 
#    0.000    4.286    0.000   11.571    0.000    0.000 
#    0.000    0.000    0.000    0.000    0.000    0.000 
#
# Total GULP energy -156194.019528 kJ/mol
# GULP energy per Si atom -5578.357840 kJ/mol
# Density = 1.775090 g / cm^3
# Si number density = 17.791398 Si / 1000 Ang^3
#
#
#
# Elastic Constant Matrix: (Units=GPa)
#
#
# Indices 1 2 3 4 5 6 
#
# 1 105.0839 44.3359 58.6199 0.0000 -4.4624 0.0000
# 2 44.3359 65.5634 52.2236 0.0000 3.3880 0.0000
# 3 58.6199 52.2236 136.6752 0.0000 5.1357 0.0000
# 4 0.0000 0.0000 0.0000 11.0601 0.0000 6.8180
# 5 -4.4624 3.3880 5.1357 0.0000 24.9788 0.0000
# 6 0.0000 0.0000 0.0000 6.8180 0.0000 11.7820
#
#
#
# Elastic Compliance Matrix: (Units=1/GPa)
#
#
# Indices 1 2 3 4 5 6 
#
# 1 0.014880 -0.007295 -0.003760 0.000000 0.004421 0.000000
# 2 -0.007295 0.025542 -0.006502 0.000000 -0.003431 0.000000
# 3 -0.003760 -0.006502 0.011495 0.000000 -0.002153 0.000000
# 4 0.000000 0.000000 0.000000 0.140555 0.000000 -0.081336
# 5 0.004421 -0.003431 -0.002153 0.000000 0.041732 0.000000
# 6 0.000000 0.000000 0.000000 -0.081336 0.000000 0.131942
#
#
# Mechanical properties :
#
#
# Convention : Reuss Voigt Hill
#
# Bulk Modulus (GPa) = 59.51887 68.63125 64.07506
# Shear Modulus (GPa) = 12.28925 19.70705 15.99815
#
# Velocity S-wave (km/s) = 2.63105 3.33178 3.00193
# Velocity P-wave (km/s) = 6.53882 7.31166 6.93601
#
# Compressibility (1/GPa) = 0.01680140
#
# Stress axis : x y z
#
# Youngs Moduli (GPa) = 67.20643 39.15164 86.99652
#
# Poissons Ratio (x) = 0.28561 0.32715
# Poissons Ratio (y) = 0.49027 0.56563
# Poissons Ratio (z) = 0.25273 0.25455
#
# Static dielectric constant tensor:
#      x y z
#    x 1.596130 0.000000 -0.000620 
#    y 0.000000 1.600400 0.000000 
#    z -0.000620 0.000000 1.604410 
# 
# From -- ./inp_files/155964.got.cif
#   From: 2010.05.17/outbox.cif.g08.bks.cpg/sg12_78_cif.got.tgz:155964.got - 2010.06.03 13:09:07.
