data_PCOD9195012
_publ_section_title
;
Structure prediction by ZEFSAII (Michael W. Deem and Ramdas Pophale) SiO2 
 PCOD9195012
Probable space group: C 2/M
;
_chemical_formula_sum "Si O2"
_cell_formula_units_Z 50
_cell_length_a 21.097292
_cell_length_b 8.069738
_cell_length_c 18.383353
_cell_angle_alpha 90.000000
_cell_angle_beta 58.309010
_cell_angle_gamma 90.000000
_cell_volume 2663.092181
_symmetry_space_group_name_H-M "C 2/M"
_symmetry_group_IT_number 12
_symmetry_cell_setting 'monoclinic'
loop_
_space_group_symop_operation_xyz
x,y,z
-x,y,-z
-x,-y,-z
x,-y,z
1/2+x,1/2+y,z
1/2-x,1/2+y,-z
1/2-x,1/2-y,-z
1/2+x,1/2-y,z
loop_
_atom_site_type_symbol
_atom_site_label
_atom_site_fract_x
_atom_site_fract_y
_atom_site_fract_z
Si Si1 0.171148 0.198295 0.580117
Si Si2 0.101386 0.805847 0.770716
Si Si3 0.329687 0.687183 0.977671
Si Si4 0.517582 0.806254 0.604208
Si Si5 0.416163 0.806462 0.063842
Si Si6 0.500000 0.500000 0.500000
Si Si7 0.052534 0.688180 0.197475
O O1 0.250000 0.250000 0.500000
O O2 0.160891 0.238670 0.672222
O O3 0.103111 0.286126 0.579591
O O4 0.162580 0.000000 0.576849
O O5 0.120522 0.773275 0.842658
O O6 0.025235 0.710796 0.798192
O O7 0.085100 0.000000 0.771260
O O8 0.322708 0.500000 0.007716
O O9 0.386124 0.697931 0.875947
O O10 0.250000 0.750000 0.000000
O O11 0.367482 0.785058 0.021154
O O12 0.502218 0.651232 0.560841
O O13 0.466858 0.783831 0.706793
O O14 0.507223 0.000000 0.585499
O O15 0.424412 0.000000 0.075252
O O16 0.500000 0.737271 0.000000
O O17 0.078830 0.500000 0.172270
#
# Coordination Sequence:
#
# PCOD9195012 Si02
#       7
#     8   8   8   8   8   2   8
#     4  10  20  37  61  92 127 162 207 258 314 377
#     4  10  20  34  59  91 121 156 204 256 306 360
#     4  12  25  40  62  87 124 164 206 252 309 371
#     4  10  22  39  64  94 124 164 208 259 311 371
#     4  11  22  37  60  91 124 157 202 254 303 359
#     4  12  22  40  64  90 132 154 222 252 312 374
#     4  10  20  37  61  89 120 156 206 253 304 368
#
# _framework density 18.775168000000001
#
# number of rings (size 3 to 8) (size 9 to 14) (size 15 to 20)
#    0.000    1.440    2.400    3.600    2.240    2.560 
#    0.000    1.600    3.520    5.760    0.000    0.000 
#    0.000    0.000    0.000    0.000    0.000    0.000 
#
# Total GULP energy -139231.113456 kJ/mol
# GULP energy per Si atom -5569.244538 kJ/mol
# Density = 1.873243 g / cm^3
# Si number density = 18.775168 Si / 1000 Ang^3
#
#
#
# Elastic Constant Matrix: (Units=GPa)
#
#
# Indices 1 2 3 4 5 6 
#
# 1 61.2964 12.4814 51.0411 0.0000 6.8144 0.0000
# 2 12.4814 92.5637 33.9311 0.0001 13.9504 -0.0001
# 3 51.0411 33.9311 121.1218 0.0001 3.2795 -0.0001
# 4 0.0000 0.0001 0.0001 31.1131 0.0000 5.9659
# 5 6.8144 13.9504 3.2795 0.0000 32.0327 0.0000
# 6 0.0000 -0.0001 -0.0001 5.9659 0.0000 31.2086
#
#
#
# Elastic Compliance Matrix: (Units=1/GPa)
#
#
# Indices 1 2 3 4 5 6 
#
# 1 0.025870 0.001342 -0.011144 0.000000 -0.004947 0.000000
# 2 0.001342 0.012933 -0.004040 0.000000 -0.005504 0.000000
# 3 -0.011144 -0.004040 0.014011 0.000000 0.002695 0.000000
# 4 0.000000 0.000000 0.000000 0.033364 0.000000 -0.006378
# 5 -0.004947 -0.005504 0.002695 0.000000 0.034392 0.000000
# 6 0.000000 0.000000 0.000000 -0.006378 0.000000 0.033262
#
#
# Mechanical properties :
#
#
# Convention : Reuss Voigt Hill
#
# Bulk Modulus (GPa) = 39.79083 52.20989 46.00036
# Shear Modulus (GPa) = 26.33097 30.70610 28.51854
#
# Velocity S-wave (km/s) = 3.74897 4.04847 3.90160
# Velocity P-wave (km/s) = 6.32290 7.05137 6.69705
#
# Compressibility (1/GPa) = 0.02513142
#
# Stress axis : x y z
#
# Youngs Moduli (GPa) = 38.65445 77.32326 71.37322
#
# Poissons Ratio (x) = -0.10378 0.79537
# Poissons Ratio (y) = -0.05188 0.28832
# Poissons Ratio (z) = 0.43076 0.31235
#
# Static dielectric constant tensor:
#      x y z
#    x 1.148960 0.000010 -0.089100 
#    y 0.000010 1.639390 0.000000 
#    z -0.089100 0.000000 1.633110 
# 
# From -- ./inp_files/274946.got.cif
#   From: 2010.05.17/outbox.cif.g08.bks.cpg/sg12_138_cif.got.tgz:274946.got - 2010.06.03 13:09:07.
