data_PCOD9195312
_publ_section_title
;
Structure prediction by ZEFSAII (Michael W. Deem and Ramdas Pophale) SiO2 
 PCOD9195312
Probable space group: C 2/M
;
_chemical_formula_sum "Si O2"
_cell_formula_units_Z 56
_cell_length_a 22.726381
_cell_length_b 8.232411
_cell_length_c 15.422833
_cell_angle_alpha 90.000000
_cell_angle_beta 113.300665
_cell_angle_gamma 90.000000
_cell_volume 2650.166257
_symmetry_space_group_name_H-M "C 2/M"
_symmetry_group_IT_number 12
_symmetry_cell_setting 'monoclinic'
loop_
_space_group_symop_operation_xyz
x,y,z
-x,y,-z
-x,-y,-z
x,-y,z
1/2+x,1/2+y,z
1/2-x,1/2+y,-z
1/2-x,1/2-y,-z
1/2+x,1/2-y,z
loop_
_atom_site_type_symbol
_atom_site_label
_atom_site_fract_x
_atom_site_fract_y
_atom_site_fract_z
Si Si1 0.988457 0.191034 0.088437
Si Si2 0.175395 0.302940 0.459135
Si Si3 0.891430 0.305630 0.756805
Si Si4 0.157475 0.803251 0.751027
Si Si5 0.796503 0.694233 0.845195
Si Si6 0.073782 0.306086 0.547555
Si Si7 0.658883 0.310116 0.948287
O O1 0.914396 0.206938 0.065307
O O2 0.034528 0.265434 0.187216
O O3 0.004414 0.000000 0.094510
O O4 0.000000 0.264495 0.000000
O O5 0.175937 0.500000 0.462125
O O6 0.250000 0.250000 0.500000
O O7 0.141480 0.247194 0.350142
O O8 0.127685 0.246295 0.509307
O O9 0.884889 0.500000 0.752726
O O10 0.854190 0.240104 0.820158
O O11 0.229217 0.760389 0.761839
O O12 0.103467 0.731101 0.658746
O O13 0.158568 0.743294 0.850844
O O14 0.150484 0.000000 0.746973
O O15 0.799600 0.500000 0.845976
O O16 0.800613 0.740732 0.948448
O O17 0.070003 0.500000 0.532205
O O18 0.000000 0.243550 0.500000
O O19 0.675899 0.500000 0.951713
#
# Coordination Sequence:
#
# PCOD9195312 Si02
#       7
#     8   8   8   8   8   8   8
#     4  10  20  35  53  78 113 149 185 230 279 333
#     4  10  22  41  63  89 119 153 196 246 297 350
#     4  10  21  35  56  83 111 145 186 231 282 339
#     4  10  22  39  59  83 113 149 191 237 284 339
#     4  10  20  35  55  83 115 146 184 230 279 336
#     4  10  23  42  62  87 119 154 197 247 297 350
#     4  10  21  36  55  81 114 149 188 230 277 336
#
# _framework density 21.130751
#
# number of rings (size 3 to 8) (size 9 to 14) (size 15 to 20)
#    0.000    2.000    1.429    1.286    2.000    4.571 
#    0.000    0.000    0.000    0.000    0.000    0.000 
#    0.000    0.000    0.000    0.000    0.000    0.000 
#
# Total GULP energy -156209.189305 kJ/mol
# GULP energy per Si atom -5578.899618 kJ/mol
# Density = 2.108266 g / cm^3
# Si number density = 21.130751 Si / 1000 Ang^3
#
#
#
# Elastic Constant Matrix: (Units=GPa)
#
#
# Indices 1 2 3 4 5 6 
#
# 1 -48.3861 81.5561 66.2055 0.0000 -14.9745 0.0000
# 2 81.5561 -25.8661 4.6931 0.0000 14.2679 0.0000
# 3 66.2055 4.6931 152.0084 0.0000 26.5094 0.0000
# 4 0.0000 0.0000 0.0000 21.4336 0.0000 1.9422
# 5 -14.9745 14.2679 26.5094 0.0000 34.3745 0.0000
# 6 0.0000 0.0000 0.0000 1.9422 0.0000 16.5891
#
#
#
# Elastic Compliance Matrix: (Units=1/GPa)
#
#
# Indices 1 2 3 4 5 6 
#
# 1 0.006249 0.017817 -0.002838 0.000000 -0.002484 0.000000
# 2 0.017817 0.019639 -0.009588 0.000000 0.007004 0.000000
# 3 -0.002838 -0.009588 0.008818 0.000000 -0.004058 0.000000
# 4 0.000000 0.000000 0.000000 0.047156 0.000000 -0.005521
# 5 -0.002484 0.007004 -0.004058 0.000000 0.028231 0.000000
# 6 0.000000 0.000000 0.000000 -0.005521 0.000000 0.060927
#
#
# Mechanical properties :
#
#
# Convention : Reuss Voigt Hill
#
# Bulk Modulus (GPa) = 21.98386 42.51840 32.25113
# Shear Modulus (GPa) = 28.50599 9.49955 19.00277
#
# Velocity S-wave (km/s) = 3.67690 2.12258 3.00208
# Velocity P-wave (km/s) = 5.33408 5.11590 5.22613
#
# Compressibility (1/GPa) = 0.04548792
#
# Stress axis : x y z
#
# Youngs Moduli (GPa) = 160.03527 50.91817 113.39869
#
# Poissons Ratio (x) = -0.90719 0.32187
# Poissons Ratio (y) = -2.85130 1.08722
# Poissons Ratio (z) = 0.45424 0.48818
#
# Static dielectric constant tensor:
#      x y z
#    x 1.867150 0.000000 -0.008480 
#    y 0.000000 1.761420 0.000000 
#    z -0.008480 0.000000 1.753020 
# 
# From -- ./inp_files/238986.got.cif
#   From: 2010.05.17/outbox.cif.g08.bks.cpg/sg12_120_cif.got.tgz:238986.got - 2010.06.03 13:09:07.
