data_PCOD9195100
_publ_section_title
;
Structure prediction by ZEFSAII (Michael W. Deem and Ramdas Pophale) SiO2 
 PCOD9195100
Probable space group: C 2/M
;
_chemical_formula_sum "Si O2"
_cell_formula_units_Z 48
_cell_length_a 9.844697
_cell_length_b 30.280779
_cell_length_c 16.490685
_cell_angle_alpha 90.000000
_cell_angle_beta 31.523312
_cell_angle_gamma 90.000000
_cell_volume 2570.285789
_symmetry_space_group_name_H-M "C 2/M"
_symmetry_group_IT_number 12
_symmetry_cell_setting 'monoclinic'
loop_
_space_group_symop_operation_xyz
x,y,z
-x,y,-z
-x,-y,-z
x,-y,z
1/2+x,1/2+y,z
1/2-x,1/2+y,-z
1/2-x,1/2-y,-z
1/2+x,1/2-y,z
loop_
_atom_site_type_symbol
_atom_site_label
_atom_site_fract_x
_atom_site_fract_y
_atom_site_fract_z
Si Si1 0.802641 0.212347 0.370201
Si Si2 0.421448 0.948583 0.272563
Si Si3 0.246289 0.624196 0.166116
Si Si4 0.804909 0.118124 0.320673
Si Si5 0.967263 0.947872 0.377970
Si Si6 0.268754 0.808384 0.406679
O O1 0.500000 0.213922 0.500000
O O2 0.914228 0.168280 0.272574
O O3 0.816477 0.202982 0.458588
O O4 0.886420 0.262583 0.310641
O O5 0.665104 0.916850 0.151749
O O6 0.258988 0.941411 0.439160
O O7 0.229670 0.939020 0.295165
O O8 0.488640 0.000000 0.234961
O O9 0.309253 0.607033 0.224054
O O10 0.994604 0.655682 0.295356
O O11 0.500000 0.646814 0.000000
O O12 0.500000 0.119661 0.500000
O O13 0.931683 0.084163 0.319599
O O14 0.962492 0.000000 0.357701
O O15 0.000000 0.822217 0.500000
#
# Coordination Sequence:
#
# PCOD9195100 Si02
#       6
#     8   8   8   8   8   8
#     4   9  17  34  59  87 108 138 198 238 272 322
#     4   9  19  36  57  85 116 147 188 238 285 338
#     4  12  25  38  55  87 124 151 183 239 297 339
#     4  11  19  35  58  83 114 151 194 237 275 340
#     4   9  18  33  60  91 111 138 197 252 276 316
#     4  10  20  34  62  86 107 148 197 234 275 340
#
# _framework density 18.674965
#
# number of rings (size 3 to 8) (size 9 to 14) (size 15 to 20)
#    0.000    2.000    5.000    1.000    4.667    1.333 
#    0.000    1.667    0.000    2.000    0.000    0.000 
#    0.000    0.000    0.000    0.000    0.000    0.000 
#
# Total GULP energy -133725.917022 kJ/mol
# GULP energy per Si atom -5571.913209 kJ/mol
# Density = 1.863246 g / cm^3
# Si number density = 18.674965 Si / 1000 Ang^3
#
#
#
# Elastic Constant Matrix: (Units=GPa)
#
#
# Indices 1 2 3 4 5 6 
#
# 1 111.2203 54.0534 20.9318 0.0000 -14.8591 0.0000
# 2 54.0534 110.4278 18.6974 0.0000 -16.3681 0.0000
# 3 20.9318 18.6974 40.9965 0.0000 -3.9831 0.0000
# 4 0.0000 0.0000 0.0000 18.6135 0.0000 -2.3311
# 5 -14.8591 -16.3681 -3.9831 0.0000 11.3525 0.0000
# 6 0.0000 0.0000 0.0000 -2.3311 0.0000 31.2755
#
#
#
# Elastic Compliance Matrix: (Units=1/GPa)
#
#
# Indices 1 2 3 4 5 6 
#
# 1 0.013092 -0.004357 -0.003771 0.000000 0.009530 0.000000
# 2 -0.004357 0.013558 -0.002706 0.000000 0.012896 0.000000
# 3 -0.003771 -0.002706 0.027635 0.000000 0.000859 0.000000
# 4 0.000000 0.000000 0.000000 0.054231 0.000000 0.004042
# 5 0.009530 0.012896 0.000859 0.000000 0.119455 0.000000
# 6 0.000000 0.000000 0.000000 0.004042 0.000000 0.032275
#
#
# Mechanical properties :
#
#
# Convention : Reuss Voigt Hill
#
# Bulk Modulus (GPa) = 30.65921 50.00110 40.33015
# Shear Modulus (GPa) = 17.07727 23.51244 20.29486
#
# Velocity S-wave (km/s) = 3.02726 3.55214 3.30015
# Velocity P-wave (km/s) = 5.35463 6.60728 6.01366
#
# Compressibility (1/GPa) = 0.03261663
#
# Stress axis : x y z
#
# Youngs Moduli (GPa) = 76.38412 73.75664 36.18561
#
# Poissons Ratio (x) = 0.32137 0.13646
# Poissons Ratio (y) = 0.33282 0.09792
# Poissons Ratio (z) = 0.28806 0.19958
#
# Static dielectric constant tensor:
#      x y z
#    x 1.626200 0.000000 -0.017240 
#    y 0.000000 1.719950 0.000000 
#    z -0.017240 0.000000 1.632580 
# 
# From -- ./inp_files/260224.got.cif
#   From: 2010.05.17/outbox.cif.g08.bks.cpg/sg12_131_cif.got.tgz:260224.got - 2010.06.03 13:09:07.
