data_PCOD9195603
_publ_section_title
;
Structure prediction by ZEFSAII (Michael W. Deem and Ramdas Pophale) SiO2 
 PCOD9195603
Probable space group: C 2/M
;
_chemical_formula_sum "Si O2"
_cell_formula_units_Z 56
_cell_length_a 15.314321
_cell_length_b 7.451215
_cell_length_c 30.244301
_cell_angle_alpha 90.000000
_cell_angle_beta 131.191461
_cell_angle_gamma 90.000000
_cell_volume 2597.062722
_symmetry_space_group_name_H-M "C 2/M"
_symmetry_group_IT_number 12
_symmetry_cell_setting 'monoclinic'
loop_
_space_group_symop_operation_xyz
x,y,z
-x,y,-z
-x,-y,-z
x,-y,z
1/2+x,1/2+y,z
1/2-x,1/2+y,-z
1/2-x,1/2-y,-z
1/2+x,1/2-y,z
loop_
_atom_site_type_symbol
_atom_site_label
_atom_site_fract_x
_atom_site_fract_y
_atom_site_fract_z
Si Si1 0.264090 0.782621 0.129011
Si Si2 0.059819 0.779628 0.127120
Si Si3 0.032434 0.210562 0.217285
Si Si4 0.826367 0.789773 0.652968
Si Si5 0.136071 0.784815 0.432699
Si Si6 0.608181 0.707431 0.001310
Si Si7 0.942822 0.217280 0.434647
O O1 0.174347 0.727368 0.137607
O O2 0.395438 0.726746 0.180127
O O3 0.213611 0.714966 0.064991
O O4 0.260193 0.000000 0.126352
O O5 0.058723 0.716460 0.177102
O O6 0.056238 0.000000 0.125269
O O7 0.946794 0.716382 0.061726
O O8 0.104593 0.288170 0.282335
O O9 0.062768 0.000000 0.224671
O O10 0.853025 0.712661 0.613296
O O11 0.688873 0.776783 0.613652
O O12 0.858546 0.000000 0.661626
O O13 0.250000 0.750000 0.500000
O O14 0.024562 0.719302 0.422258
O O15 0.126908 0.000000 0.426828
O O16 0.637642 0.500000 0.001780
O O17 0.500000 0.707692 0.000000
O O18 0.000000 0.276170 0.500000
O O19 0.942817 0.000000 0.435009
#
# Coordination Sequence:
#
# PCOD9195603 Si02
#       7
#     8   8   8   8   8   8   8
#     4   9  17  31  52  75  97 128 174 216 248 290
#     4   8  15  30  51  71  98 135 170 206 250 300
#     4  10  21  35  49  71 104 138 168 201 248 302
#     4  10  22  37  52  74 105 137 168 200 242 303
#     4  10  20  35  55  78 103 129 158 198 248 294
#     4   7  11  23  46  73  95 122 166 214 251 287
#     4  10  20  35  56  80 102 126 161 206 250 290
#
# _framework density 21.562822000000001
#
# number of rings (size 3 to 8) (size 9 to 14) (size 15 to 20)
#    0.000    2.857    1.429    1.714    0.000    3.143 
#    0.000    0.714    0.000    3.857    0.000    0.000 
#    0.000    0.000    0.000    0.000    0.000    0.000 
#
# Total GULP energy -156274.295387 kJ/mol
# GULP energy per Si atom -5581.224835 kJ/mol
# Density = 2.151374 g / cm^3
# Si number density = 21.562822 Si / 1000 Ang^3
#
#
#
# Elastic Constant Matrix: (Units=GPa)
#
#
# Indices 1 2 3 4 5 6 
#
# 1 134.9180 -4.9352 101.3983 0.0000 -25.0136 0.0000
# 2 -4.9352 66.2804 3.6180 0.0000 -10.1805 0.0000
# 3 101.3983 3.6180 236.5319 0.0000 -19.3178 0.0000
# 4 0.0000 0.0000 0.0000 37.2303 0.0000 15.3069
# 5 -25.0136 -10.1805 -19.3178 0.0000 39.1418 0.0000
# 6 0.0000 0.0000 0.0000 15.3069 0.0000 13.1039
#
#
#
# Elastic Compliance Matrix: (Units=1/GPa)
#
#
# Indices 1 2 3 4 5 6 
#
# 1 0.012175 0.002084 -0.004764 0.000000 0.005972 0.000000
# 2 0.002084 0.016074 -0.000718 0.000000 0.005158 0.000000
# 3 -0.004764 -0.000718 0.006270 0.000000 -0.000137 0.000000
# 4 0.000000 0.000000 0.000000 0.051679 0.000000 -0.060367
# 5 0.005972 0.005158 -0.000137 0.000000 0.030639 0.000000
# 6 0.000000 0.000000 0.000000 -0.060367 0.000000 0.146829
#
#
# Mechanical properties :
#
#
# Convention : Reuss Voigt Hill
#
# Bulk Modulus (GPa) = 36.07015 70.87695 53.47355
# Shear Modulus (GPa) = 17.87614 40.40515 29.14065
#
# Velocity S-wave (km/s) = 2.88240 4.33348 3.68017
# Velocity P-wave (km/s) = 5.27655 7.61446 6.55065
#
# Compressibility (1/GPa) = 0.02772375
#
# Stress axis : x y z
#
# Youngs Moduli (GPa) = 82.13298 62.21209 159.49787
#
# Poissons Ratio (x) = -0.12964 0.75978
# Poissons Ratio (y) = -0.17115 0.11451
# Poissons Ratio (z) = 0.39125 0.04466
#
# Static dielectric constant tensor:
#      x y z
#    x 1.758600 0.000000 -0.034700 
#    y 0.000000 1.873490 0.000000 
#    z -0.034700 0.000000 1.775360 
# 
# From -- ./inp_files/338145.got.cif
#   From: 2010.05.17/outbox.cif.g08.bks.cpg/sg12_170_cif.got.tgz:338145.got - 2010.06.03 13:09:07.
