data_PCOD9195177
_publ_section_title
;
Structure prediction by ZEFSAII (Michael W. Deem and Ramdas Pophale) SiO2 
 PCOD9195177
Probable space group: C 2/M
;
_chemical_formula_sum "Si O2"
_cell_formula_units_Z 36
_cell_length_a 13.236302
_cell_length_b 26.584450
_cell_length_c 5.138647
_cell_angle_alpha 90.000000
_cell_angle_beta 109.600965
_cell_angle_gamma 90.000000
_cell_volume 1703.404997
_symmetry_space_group_name_H-M "C 2/M"
_symmetry_group_IT_number 12
_symmetry_cell_setting 'monoclinic'
loop_
_space_group_symop_operation_xyz
x,y,z
-x,y,-z
-x,-y,-z
x,-y,z
1/2+x,1/2+y,z
1/2-x,1/2+y,-z
1/2-x,1/2-y,-z
1/2+x,1/2-y,z
loop_
_atom_site_type_symbol
_atom_site_label
_atom_site_fract_x
_atom_site_fract_y
_atom_site_fract_z
Si Si1 0.222637 0.809710 0.724786
Si Si2 0.427368 0.558171 0.679576
Si Si3 0.000000 0.349425 0.500000
Si Si4 0.573901 0.243564 0.870624
Si Si5 0.259334 0.872672 0.266338
O O1 0.115951 0.777608 0.674289
O O2 0.238033 0.827039 0.445881
O O3 0.321034 0.774488 0.887943
O O4 0.228898 0.854896 0.947075
O O5 0.500000 0.578696 0.500000
O O6 0.402888 0.500000 0.591039
O O7 0.317840 0.585359 0.675265
O O8 0.500000 0.559607 0.000000
O O9 0.015160 0.308143 0.740597
O O10 0.111311 0.380315 0.598675
O O11 0.500000 0.274427 0.000000
#
# Coordination Sequence:
#
# PCOD9195177 Si02
#       5
#     8   8   4   8   8
#     4  10  23  34  55  79 114 151 201 232 274 331
#     4  10  22  42  66  89 117 148 185 241 299 350
#     4  10  22  36  59  78 122 156 187 238 288 338
#     4  10  20  35  51  76 114 160 193 234 280 329
#     4  11  22  40  58  89 112 152 196 239 287 352
#
# _framework density 21.134138
#
# number of rings (size 3 to 8) (size 9 to 14) (size 15 to 20)
#    0.000    1.778    2.222    1.333    3.111    5.333 
#    0.000    0.556    0.000    0.000    0.000    9.333 
#    0.000    0.000    0.000    0.000    0.000    0.000 
#
# Total GULP energy -100409.562041 kJ/mol
# GULP energy per Si atom -5578.309002 kJ/mol
# Density = 2.108604 g / cm^3
# Si number density = 21.134138 Si / 1000 Ang^3
#
#
#
# Elastic Constant Matrix: (Units=GPa)
#
#
# Indices 1 2 3 4 5 6 
#
# 1 160.9311 41.2052 19.7542 0.0000 7.7228 0.0000
# 2 41.2052 42.5920 6.8017 0.0000 11.5265 0.0000
# 3 19.7542 6.8017 70.6225 0.0000 -7.1107 0.0000
# 4 0.0000 0.0000 0.0000 16.0729 0.0000 -10.7755
# 5 7.7228 11.5265 -7.1107 0.0000 37.7158 0.0000
# 6 0.0000 0.0000 0.0000 -10.7755 0.0000 14.0766
#
#
#
# Elastic Compliance Matrix: (Units=1/GPa)
#
#
# Indices 1 2 3 4 5 6 
#
# 1 0.008440 -0.008037 -0.001543 0.000000 0.000437 0.000000
# 2 -0.008037 0.034034 -0.001948 0.000000 -0.009123 0.000000
# 3 -0.001543 -0.001948 0.015158 0.000000 0.003769 0.000000
# 4 0.000000 0.000000 0.000000 0.127806 0.000000 0.097835
# 5 0.000437 -0.009123 0.003769 0.000000 0.029923 0.000000
# 6 0.000000 0.000000 0.000000 0.097835 0.000000 0.145932
#
#
# Mechanical properties :
#
#
# Convention : Reuss Voigt Hill
#
# Bulk Modulus (GPa) = 28.92160 45.51862 37.22011
# Shear Modulus (GPa) = 12.63023 27.33202 19.98113
#
# Velocity S-wave (km/s) = 2.44728 3.60010 3.07814
# Velocity P-wave (km/s) = 4.65833 6.23423 5.50299
#
# Compressibility (1/GPa) = 0.03457623
#
# Stress axis : x y z
#
# Youngs Moduli (GPa) = 118.48197 29.38230 65.96976
#
# Poissons Ratio (x) = 0.23615 0.10177
# Poissons Ratio (y) = 0.95227 0.12852
# Poissons Ratio (z) = 0.18279 0.05724
#
# Static dielectric constant tensor:
#      x y z
#    x 1.820540 0.000000 -0.004040 
#    y 0.000000 1.772410 0.000000 
#    z -0.004040 0.000000 1.815600 
# 
# From -- ./inp_files/7438.got.cif
#   From: 2010.05.17/outbox.cif.g08.bks.cpg/sg12_4_cif.got.tgz:7438.got - 2010.06.03 13:09:07.
