data_PCOD9195660
_publ_section_title
;
Structure prediction by ZEFSAII (Michael W. Deem and Ramdas Pophale) SiO2 
 PCOD9195660
Probable space group: C 2/M
;
_chemical_formula_sum "Si O2"
_cell_formula_units_Z 56
_cell_length_a 14.547683
_cell_length_b 9.041113
_cell_length_c 28.240625
_cell_angle_alpha 90.000000
_cell_angle_beta 58.465639
_cell_angle_gamma 90.000000
_cell_volume 3165.892065
_symmetry_space_group_name_H-M "C 2/M"
_symmetry_group_IT_number 12
_symmetry_cell_setting 'monoclinic'
loop_
_space_group_symop_operation_xyz
x,y,z
-x,y,-z
-x,-y,-z
x,-y,z
1/2+x,1/2+y,z
1/2-x,1/2+y,-z
1/2-x,1/2-y,-z
1/2+x,1/2-y,z
loop_
_atom_site_type_symbol
_atom_site_label
_atom_site_fract_x
_atom_site_fract_y
_atom_site_fract_z
Si Si1 0.452047 0.677402 0.063063
Si Si2 0.368948 0.823398 0.642788
Si Si3 0.267232 0.176944 0.238789
Si Si4 0.708707 0.177752 0.157207
Si Si5 0.175736 0.325618 0.454154
Si Si6 0.490192 0.822443 0.855545
Si Si7 0.914033 0.826297 0.430983
O O1 0.464495 0.500000 0.062746
O O2 0.324449 0.710272 0.101966
O O3 0.509397 0.749817 0.092830
O O4 0.500000 0.727119 0.000000
O O5 0.286152 0.748506 0.700930
O O6 0.342787 0.785488 0.595202
O O7 0.489093 0.762734 0.618810
O O8 0.365036 0.000000 0.648880
O O9 0.210128 0.241522 0.207268
O O10 0.394229 0.214435 0.199185
O O11 0.256861 0.000000 0.242902
O O12 0.609605 0.222646 0.150514
O O13 0.702665 0.000000 0.166250
O O14 0.149605 0.500000 0.467263
O O15 0.106507 0.234209 0.510517
O O16 0.300926 0.305149 0.434291
O O17 0.485905 0.000000 0.862081
O O18 0.939170 0.000000 0.425149
#
# Coordination Sequence:
#
# PCOD9195660 Si02
#       7
#     8   8   8   8   8   8   8
#     4   9  18  32  51  78 110 140 172 210 251 301
#     4  11  22  36  54  75 102 136 170 206 256 311
#     4  10  21  36  52  74 101 128 169 218 257 299
#     4   9  18  35  55  74 102 139 173 207 255 307
#     4   9  20  37  54  75 105 138 169 204 253 311
#     4   9  19  35  54  75 101 136 174 213 256 301
#     4  10  20  35  55  79 105 133 169 212 254 300
#
# _framework density 17.688535999999999
#
# number of rings (size 3 to 8) (size 9 to 14) (size 15 to 20)
#    0.000    2.429    0.000    1.714    0.000    6.571 
#    0.000    2.857    0.000    0.000    0.000    0.000 
#    0.000    0.000    0.000    0.000    0.000    0.000 
#
# Total GULP energy -156282.050489 kJ/mol
# GULP energy per Si atom -5581.501803 kJ/mol
# Density = 1.764828 g / cm^3
# Si number density = 17.688536 Si / 1000 Ang^3
#
#
#
# Elastic Constant Matrix: (Units=GPa)
#
#
# Indices 1 2 3 4 5 6 
#
# 1 104.2689 32.1330 35.7416 0.0000 11.4814 0.0000
# 2 32.1330 32.7016 36.4684 0.0000 0.3656 0.0000
# 3 35.7416 36.4684 90.9110 0.0000 -0.8568 0.0000
# 4 0.0000 0.0000 0.0000 33.2999 0.0000 3.6087
# 5 11.4814 0.3656 -0.8568 0.0000 10.6949 0.0000
# 6 0.0000 0.0000 0.0000 3.6087 0.0000 23.1877
#
#
#
# Elastic Compliance Matrix: (Units=1/GPa)
#
#
# Indices 1 2 3 4 5 6 
#
# 1 0.016368 -0.015447 -0.000400 0.000000 -0.017076 0.000000
# 2 -0.015447 0.070055 -0.021912 0.000000 0.012433 0.000000
# 3 -0.000400 -0.021912 0.019973 0.000000 0.002778 0.000000
# 4 0.000000 0.000000 0.000000 0.030545 0.000000 -0.004754
# 5 -0.017076 0.012433 0.002778 0.000000 0.111632 0.000000
# 6 0.000000 0.000000 0.000000 -0.004754 0.000000 0.043866
#
#
# Mechanical properties :
#
#
# Convention : Reuss Voigt Hill
#
# Bulk Modulus (GPa) = 32.38468 48.50750 40.44609
# Shear Modulus (GPa) = 13.21880 21.67240 17.44560
#
# Velocity S-wave (km/s) = 2.73666 3.50412 3.14389
# Velocity P-wave (km/s) = 5.32295 6.62227 6.00784
#
# Compressibility (1/GPa) = 0.03087880
#
# Stress axis : x y z
#
# Youngs Moduli (GPa) = 61.09393 14.27456 50.06800
#
# Poissons Ratio (x) = 0.22050 0.02001
# Poissons Ratio (y) = 0.94372 1.09708
# Poissons Ratio (z) = 0.02441 0.31278
#
# Static dielectric constant tensor:
#      x y z
#    x 1.602230 0.000000 -0.009910 
#    y 0.000000 1.590810 0.000000 
#    z -0.009910 0.000000 1.573480 
# 
# From -- ./inp_files/309038.got.cif
#   From: 2010.05.17/outbox.cif.g08.bks.cpg/sg12_155_cif.got.tgz:309038.got - 2010.06.03 13:09:07.
