data_PCOD9195084
_publ_section_title
;
Structure prediction by ZEFSAII (Michael W. Deem and Ramdas Pophale) SiO2 
 PCOD9195084
Probable space group: C 2/M
;
_chemical_formula_sum "Si O2"
_cell_formula_units_Z 40
_cell_length_a 9.080810
_cell_length_b 25.138567
_cell_length_c 16.535753
_cell_angle_alpha 90.000000
_cell_angle_beta 32.378540
_cell_angle_gamma 90.000000
_cell_volume 2021.422460
_symmetry_space_group_name_H-M "C 2/M"
_symmetry_group_IT_number 12
_symmetry_cell_setting 'monoclinic'
loop_
_space_group_symop_operation_xyz
x,y,z
-x,y,-z
-x,-y,-z
x,-y,z
1/2+x,1/2+y,z
1/2-x,1/2+y,-z
1/2-x,1/2-y,-z
1/2+x,1/2-y,z
loop_
_atom_site_type_symbol
_atom_site_label
_atom_site_fract_x
_atom_site_fract_y
_atom_site_fract_z
Si Si1 0.537240 0.908359 0.611297
Si Si2 0.623739 0.863209 0.862081
Si Si3 0.398560 0.304124 0.455951
Si Si4 0.684850 0.939069 0.116576
Si Si5 0.418943 0.559713 0.291658
O O1 0.674257 0.850972 0.554271
O O2 0.499134 0.932936 0.717076
O O3 0.247347 0.907946 0.699011
O O4 0.734639 0.940188 0.458499
O O5 0.411289 0.892407 0.899726
O O6 0.838271 0.823924 0.718243
O O7 0.802922 0.911924 0.814191
O O8 0.500000 0.836809 0.000000
O O9 0.500000 0.299306 0.500000
O O10 0.250000 0.250000 0.500000
O O11 0.652403 0.000000 0.100444
O O12 0.000000 0.932763 0.000000
O O13 0.453026 0.500000 0.246054
#
# Coordination Sequence:
#
# PCOD9195084 Si02
#       5
#     8   8   8   8   8
#     4  10  20  38  60  91 127 166 217 263 310 375
#     4  11  24  42  63  97 133 164 211 263 316 374
#     4  11  25  46  71  93 119 162 215 272 331 381
#     4  11  22  37  61  92 135 179 212 251 308 377
#     4  10  20  34  61  93 131 174 211 250 305 375
#
# _framework density 19.788046999999999
#
# number of rings (size 3 to 8) (size 9 to 14) (size 15 to 20)
#    0.000    1.400    2.000    4.200    5.600    3.200 
#    0.000    5.000    0.000    0.000    0.000    0.000 
#    0.000    0.000    0.000    0.000    0.000    0.000 
#
# Total GULP energy -111702.107679 kJ/mol
# GULP energy per Si atom -5585.105384 kJ/mol
# Density = 1.974301 g / cm^3
# Si number density = 19.788047 Si / 1000 Ang^3
#
#
#
# Elastic Constant Matrix: (Units=GPa)
#
#
# Indices 1 2 3 4 5 6 
#
# 1 118.2256 60.0123 48.0347 -0.0002 9.4596 0.0001
# 2 60.0123 140.2379 47.0375 -0.0003 -6.4566 0.0004
# 3 48.0347 47.0375 99.6469 0.0006 17.3859 -0.0013
# 4 -0.0002 -0.0003 0.0006 -79.4268 0.0003 119.2150
# 5 9.4596 -6.4566 17.3859 0.0003 42.2226 -0.0001
# 6 0.0001 0.0004 -0.0013 119.2150 -0.0001 -157.6496
#
#
#
# Elastic Compliance Matrix: (Units=1/GPa)
#
#
# Indices 1 2 3 4 5 6 
#
# 1 0.012138 -0.004070 -0.003606 0.000000 -0.001857 0.000000
# 2 -0.004070 0.010250 -0.003565 0.000000 0.003947 0.000000
# 3 -0.003606 -0.003565 0.014449 0.000001 -0.005687 0.000000
# 4 0.000000 0.000000 0.000001 0.093249 -0.000001 0.070515
# 5 -0.001857 0.003947 -0.005687 -0.000001 0.027045 0.000000
# 6 0.000000 0.000000 0.000000 0.070515 0.000000 0.046981
#
#
# Mechanical properties :
#
#
# Convention : Reuss Voigt Hill
#
# Bulk Modulus (GPa) = 69.66467 74.25325 71.95896
# Shear Modulus (GPa) = 21.60953 -25.43569 -1.91308
#
# Velocity S-wave (km/s) = 3.30820 -3.58915 -0.98432
# Velocity P-wave (km/s) = 7.06216 4.51993 5.92891
#
# Compressibility (1/GPa) = 0.01435448
#
# Stress axis : x y z
#
# Youngs Moduli (GPa) = 82.38461 97.56005 69.21060
#
# Poissons Ratio (x) = 0.39711 0.24956
# Poissons Ratio (y) = 0.33534 0.24674
# Poissons Ratio (z) = 0.29706 0.34781
#
# Static dielectric constant tensor:
#      x y z
#    x 1.702320 0.000000 0.019260 
#    y 0.000000 1.660760 0.000000 
#    z 0.019260 0.000000 1.758930 
# 
# From -- ./inp_files/259333.got.cif
#   From: 2010.05.17/outbox.cif.g08.bks.cpg/sg12_130_cif.got.tgz:259333.got - 2010.06.03 13:09:07.
