data_PCOD9195345
_publ_section_title
;
Structure prediction by ZEFSAII (Michael W. Deem and Ramdas Pophale) SiO2 
 PCOD9195345
Probable space group: C 2/M
;
_chemical_formula_sum "Si O2"
_cell_formula_units_Z 56
_cell_length_a 14.370341
_cell_length_b 27.330366
_cell_length_c 14.358184
_cell_angle_alpha 90.000000
_cell_angle_beta 28.623673
_cell_angle_gamma 90.000000
_cell_volume 2701.450586
_symmetry_space_group_name_H-M "C 2/M"
_symmetry_group_IT_number 12
_symmetry_cell_setting 'monoclinic'
loop_
_space_group_symop_operation_xyz
x,y,z
-x,y,-z
-x,-y,-z
x,-y,z
1/2+x,1/2+y,z
1/2-x,1/2+y,-z
1/2-x,1/2-y,-z
1/2+x,1/2-y,z
loop_
_atom_site_type_symbol
_atom_site_label
_atom_site_fract_x
_atom_site_fract_y
_atom_site_fract_z
Si Si1 0.233344 0.306351 0.295230
Si Si2 0.737237 0.138221 0.471534
Si Si3 0.832742 0.682352 0.853353
Si Si4 0.207979 0.300815 0.767372
Si Si5 0.549092 0.292668 0.262255
Si Si6 0.715013 0.910990 0.772559
Si Si7 0.062358 0.944477 0.592813
O O1 0.283132 0.348630 0.323785
O O2 0.285560 0.314324 0.140741
O O3 0.291620 0.252408 0.281186
O O4 0.000000 0.305492 0.500000
O O5 0.506201 0.143233 0.692558
O O6 0.835793 0.088550 0.418706
O O7 0.842578 0.182633 0.433104
O O8 0.934067 0.735491 0.774965
O O9 0.693083 0.678875 0.064645
O O10 0.372440 0.297173 0.702340
O O11 0.225345 0.356480 0.718414
O O12 0.000000 0.301083 0.000000
O O13 0.788453 0.945174 0.625360
O O14 0.870352 0.918149 0.719378
O O15 0.500000 0.919614 0.000000
O O16 0.017627 0.000000 0.660231
#
# Coordination Sequence:
#
# PCOD9195345 Si02
#       7
#     8   8   8   8   8   8   8
#     4   9  21  36  52  82 118 160 190 228 275 344
#     4  11  22  36  58  79 114 152 194 240 291 333
#     4   9  21  35  54  82 118 149 197 228 277 347
#     4  10  21  33  53  85 124 152 182 221 278 350
#     4  10  20  35  53  85 116 156 187 230 274 345
#     4  10  22  40  63  86 120 153 184 235 303 359
#     4  11  25  41  60  87 112 148 204 255 295 343
#
# _framework density 20.729603999999998
#
# number of rings (size 3 to 8) (size 9 to 14) (size 15 to 20)
#    0.000    2.000    1.429    1.286   12.000    2.286 
#    0.000    0.000    0.000    3.857    0.000    1.000 
#    0.000    0.000    0.000    0.000    0.000    0.000 
#
# Total GULP energy -156431.958438 kJ/mol
# GULP energy per Si atom -5586.855659 kJ/mol
# Density = 2.068242 g / cm^3
# Si number density = 20.729604 Si / 1000 Ang^3
#
#
#
# Elastic Constant Matrix: (Units=GPa)
#
#
# Indices 1 2 3 4 5 6 
#
# 1 93.3683 37.5128 30.9847 0.0005 4.7472 -0.0073
# 2 37.5128 108.3420 24.3230 0.0004 -0.9035 -0.0074
# 3 30.9847 24.3230 86.8442 0.0108 1.3327 0.0080
# 4 0.0005 0.0004 0.0108 27.9578 -0.0021 22.7319
# 5 4.7472 -0.9035 1.3327 -0.0021 29.4496 0.0027
# 6 -0.0073 -0.0074 0.0080 22.7319 0.0027 36.2721
#
#
#
# Elastic Compliance Matrix: (Units=1/GPa)
#
#
# Indices 1 2 3 4 5 6 
#
# 1 0.013625 -0.003897 -0.003737 -0.000003 -0.002147 0.000005
# 2 -0.003897 0.010969 -0.001698 -0.000002 0.001041 0.000003
# 3 -0.003737 -0.001698 0.013325 -0.000004 -0.000053 -0.000002
# 4 -0.000003 -0.000002 -0.000004 0.072931 0.000010 -0.045706
# 5 -0.002147 0.001041 -0.000053 0.000010 0.034337 -0.000009
# 6 0.000005 0.000003 -0.000002 -0.045706 -0.000009 0.056214
#
#
# Mechanical properties :
#
#
# Convention : Reuss Voigt Hill
#
# Bulk Modulus (GPa) = 51.93238 52.68838 52.31038
# Shear Modulus (GPa) = 22.07686 31.78484 26.93085
#
# Velocity S-wave (km/s) = 3.26696 3.91999 3.60828
# Velocity P-wave (km/s) = 6.27195 6.77943 6.53062
#
# Compressibility (1/GPa) = 0.01925581
#
# Stress axis : x y z
#
# Youngs Moduli (GPa) = 73.39409 91.16546 75.04958
#
# Poissons Ratio (x) = 0.35523 0.28046
# Poissons Ratio (y) = 0.28598 0.12743
# Poissons Ratio (z) = 0.27427 0.15479
#
# Static dielectric constant tensor:
#      x y z
#    x 1.820100 0.000000 0.018680 
#    y 0.000000 1.717070 0.000000 
#    z 0.018680 0.000000 1.870330 
# 
# From -- ./inp_files/219097.got.cif
#   From: 2010.05.17/outbox.cif.g08.bks.cpg/sg12_110_cif.got.tgz:219097.got - 2010.06.03 13:09:07.
