data_PCOD9195982
_publ_section_title
;
Structure prediction by ZEFSAII (Michael W. Deem and Ramdas Pophale) SiO2 
 PCOD9195982
Probable space group: C 2/M
;
_chemical_formula_sum "Si O2"
_cell_formula_units_Z 40
_cell_length_a 26.649859
_cell_length_b 9.668273
_cell_length_c 18.013182
_cell_angle_alpha 90.000000
_cell_angle_beta 27.421642
_cell_angle_gamma 90.000000
_cell_volume 2137.455071
_symmetry_space_group_name_H-M "C 2/M"
_symmetry_group_IT_number 12
_symmetry_cell_setting 'monoclinic'
loop_
_space_group_symop_operation_xyz
x,y,z
-x,y,-z
-x,-y,-z
x,-y,z
1/2+x,1/2+y,z
1/2-x,1/2+y,-z
1/2-x,1/2-y,-z
1/2+x,1/2-y,z
loop_
_atom_site_type_symbol
_atom_site_label
_atom_site_fract_x
_atom_site_fract_y
_atom_site_fract_z
Si Si1 0.522135 0.500000 0.347186
Si Si2 0.723216 0.760260 0.767234
Si Si3 0.352841 0.500000 0.372142
Si Si4 0.317957 0.500000 0.731423
Si Si5 0.117207 0.500000 0.812235
Si Si6 0.434239 0.500000 0.009194
Si Si7 0.589803 0.732583 0.589635
Si Si8 0.383861 0.000000 0.362202
O O1 0.417316 0.500000 0.540553
O O2 0.628086 0.500000 0.258920
O O3 0.504627 0.635966 0.320087
O O4 0.671731 0.863483 0.774100
O O5 0.834332 0.718156 0.578719
O O6 0.751337 0.861416 0.799097
O O7 0.643422 0.634966 0.891335
O O8 0.469366 0.500000 0.178312
O O9 0.348868 0.631870 0.432072
O O10 0.249228 0.500000 0.452801
O O11 0.108723 0.500000 0.735690
O O12 0.000000 0.500000 0.000000
O O13 0.500000 0.500000 0.000000
O O14 0.562009 0.866517 0.672997
#
# Coordination Sequence:
#
# PCOD9195982 Si02
#       8
#     4   8   4   4   4   4   8   4
#     4   8  16  35  60  88 103 140 191 238 288 330
#     4  10  20  38  53  84 110 148 189 231 276 334
#     4  11  22  37  53  77 115 162 187 218 276 342
#     4   8  16  35  65  79 108 145 186 238 284 333
#     4  11  23  33  52  77 115 151 195 224 264 340
#     4  12  25  33  54  82 124 150 184 230 281 329
#     4  10  20  35  56  79 113 143 193 232 270 342
#     4  12  22  33  55  81 115 160 186 228 278 321
#
# _framework density 18.713843000000001
#
# number of rings (size 3 to 8) (size 9 to 14) (size 15 to 20)
#    0.000    1.800    2.000    4.200    5.600    0.000 
#    0.000    1.000    0.000    9.600    0.000    0.000 
#    0.000    0.000    0.000    0.000    0.000    0.200 
#
# Total GULP energy -111556.075580 kJ/mol
# GULP energy per Si atom -5577.803779 kJ/mol
# Density = 1.867125 g / cm^3
# Si number density = 18.713843 Si / 1000 Ang^3
#
#
#
# Elastic Constant Matrix: (Units=GPa)
#
#
# Indices 1 2 3 4 5 6 
#
# 1 137.8177 72.2477 25.3140 0.0000 -8.4285 0.0000
# 2 72.2477 142.4529 34.3571 -0.0001 -5.7850 0.0000
# 3 25.3140 34.3571 81.2953 0.0000 2.1998 0.0000
# 4 0.0000 -0.0001 0.0000 8.0143 0.0000 -7.1317
# 5 -8.4285 -5.7850 2.1998 0.0000 13.5172 0.0000
# 6 0.0000 0.0000 0.0000 -7.1317 0.0000 7.5520
#
#
#
# Elastic Compliance Matrix: (Units=1/GPa)
#
#
# Indices 1 2 3 4 5 6 
#
# 1 0.010237 -0.004684 -0.001333 0.000000 0.004596 0.000000
# 2 -0.004684 0.010170 -0.002891 0.000001 0.001902 0.000001
# 3 -0.001333 -0.002891 0.014055 0.000000 -0.004356 0.000000
# 4 0.000000 0.000001 0.000000 0.781592 0.000000 0.738099
# 5 0.004596 0.001902 -0.004356 0.000000 0.078368 0.000000
# 6 0.000000 0.000001 0.000000 0.738099 0.000000 0.829443
#
#
# Mechanical properties :
#
#
# Convention : Reuss Voigt Hill
#
# Bulk Modulus (GPa) = 60.06871 69.48929 64.77900
# Shear Modulus (GPa) = 2.86167 21.12650 11.99409
#
# Velocity S-wave (km/s) = 1.23794 3.36359 2.53439
# Velocity P-wave (km/s) = 5.84906 7.23175 6.57684
#
# Compressibility (1/GPa) = 0.01664760
#
# Stress axis : x y z
#
# Youngs Moduli (GPa) = 97.68253 98.32885 71.14707
#
# Poissons Ratio (x) = 0.46057 0.09480
# Poissons Ratio (y) = 0.45755 0.20568
# Poissons Ratio (z) = 0.13016 0.28427
#
# Static dielectric constant tensor:
#      x y z
#    x 1.625190 0.000000 0.024630 
#    y 0.000000 1.602520 0.000000 
#    z 0.024630 0.000000 1.572450 
# 
# From -- ./inp_files/292104.got.cif
#   From: 2010.05.17/outbox.cif.g08.bks.cpg/sg12_147_cif.got.tgz:292104.got - 2010.06.03 13:09:07.
