data_PCOD9195410
_publ_section_title
;
Structure prediction by ZEFSAII (Michael W. Deem and Ramdas Pophale) SiO2 
 PCOD9195410
Probable space group: C 2/M
;
_chemical_formula_sum "Si O2"
_cell_formula_units_Z 56
_cell_length_a 14.344927
_cell_length_b 9.143828
_cell_length_c 26.267954
_cell_angle_alpha 90.000000
_cell_angle_beta 121.767952
_cell_angle_gamma 90.000000
_cell_volume 2929.322960
_symmetry_space_group_name_H-M "C 2/M"
_symmetry_group_IT_number 12
_symmetry_cell_setting 'monoclinic'
loop_
_space_group_symop_operation_xyz
x,y,z
-x,y,-z
-x,-y,-z
x,-y,z
1/2+x,1/2+y,z
1/2-x,1/2+y,-z
1/2-x,1/2-y,-z
1/2+x,1/2-y,z
loop_
_atom_site_type_symbol
_atom_site_label
_atom_site_fract_x
_atom_site_fract_y
_atom_site_fract_z
Si Si1 0.671358 0.325257 0.324685
Si Si2 0.449523 0.825174 0.223312
Si Si3 0.521991 0.330492 0.425210
Si Si4 0.615321 0.325843 0.007723
Si Si5 0.183285 0.171408 0.554286
Si Si6 0.660667 0.326273 0.903379
Si Si7 0.872232 0.327281 0.307161
O O1 0.654741 0.500000 0.322719
O O2 0.563405 0.242423 0.275462
O O3 0.721986 0.264856 0.392069
O O4 0.764186 0.293392 0.308490
O O5 0.409305 0.752218 0.160044
O O6 0.365781 0.792269 0.245763
O O7 0.458262 0.000000 0.220141
O O8 0.542185 0.500000 0.419357
O O9 0.419645 0.325046 0.435614
O O10 0.628367 0.273077 0.486012
O O11 0.476055 0.249792 0.363033
O O12 0.634623 0.500000 0.020492
O O13 0.614179 0.298135 0.946784
O O14 0.500000 0.288050 0.000000
O O15 0.716430 0.237677 0.060335
O O16 0.214464 0.000000 0.558017
O O17 0.661446 0.500000 0.895264
O O18 0.890541 0.500000 0.317010
#
# Coordination Sequence:
#
# PCOD9195410 Si02
#       7
#     8   8   8   8   8   8   8
#     4  10  20  35  54  77 103 135 180 230 272 316
#     4  11  23  39  56  76 109 150 183 216 265 321
#     4   8  14  26  48  74 100 131 171 220 272 326
#     4   9  19  38  63  88 116 149 179 211 258 311
#     4   8  14  27  47  73 102 133 169 215 276 334
#     4  10  21  37  58  86 116 144 180 223 259 301
#     4   9  20  36  53  74 103 139 179 223 272 324
#
# _framework density 19.117045999999998
#
# number of rings (size 3 to 8) (size 9 to 14) (size 15 to 20)
#    0.000    2.714    0.000    2.143    0.000    4.286 
#    0.000    9.286    0.000    0.000    0.000    0.000 
#    0.000    0.000    0.000    0.000    0.000    0.000 
#
# Total GULP energy -156276.944778 kJ/mol
# GULP energy per Si atom -5581.319456 kJ/mol
# Density = 1.907353 g / cm^3
# Si number density = 19.117046 Si / 1000 Ang^3
#
#
#
# Elastic Constant Matrix: (Units=GPa)
#
#
# Indices 1 2 3 4 5 6 
#
# 1 75.5193 35.0573 40.6007 0.0000 6.1355 0.0000
# 2 35.0573 44.1932 53.4903 0.0000 -0.3329 0.0000
# 3 40.6007 53.4903 133.3180 0.0000 -1.8808 0.0000
# 4 0.0000 0.0000 0.0000 41.6301 0.0000 0.7338
# 5 6.1355 -0.3329 -1.8808 0.0000 13.0963 0.0000
# 6 0.0000 0.0000 0.0000 0.7338 0.0000 12.3543
#
#
#
# Elastic Compliance Matrix: (Units=1/GPa)
#
#
# Indices 1 2 3 4 5 6 
#
# 1 0.022440 -0.018324 0.000364 0.000000 -0.010926 0.000000
# 2 -0.018324 0.058981 -0.017978 0.000000 0.007502 0.000000
# 3 0.000364 -0.017978 0.014624 0.000000 0.001473 0.000000
# 4 0.000000 0.000000 0.000000 0.024046 0.000000 -0.001428
# 5 -0.010926 0.007502 0.001473 0.000000 0.081878 0.000000
# 6 0.000000 0.000000 0.000000 -0.001428 0.000000 0.081028
#
#
# Mechanical properties :
#
#
# Convention : Reuss Voigt Hill
#
# Bulk Modulus (GPa) = 41.37632 56.81412 49.09522
# Shear Modulus (GPa) = 13.77676 21.67496 17.72586
#
# Velocity S-wave (km/s) = 2.68741 3.37085 3.04835
# Velocity P-wave (km/s) = 5.59645 6.70327 6.17471
#
# Compressibility (1/GPa) = 0.02416841
#
# Stress axis : x y z
#
# Youngs Moduli (GPa) = 44.56338 16.95472 68.38036
#
# Poissons Ratio (x) = 0.31068 -0.02489
# Poissons Ratio (y) = 0.81657 1.22936
# Poissons Ratio (z) = -0.01622 0.30482
#
# Static dielectric constant tensor:
#      x y z
#    x 1.715080 0.000000 -0.022380 
#    y 0.000000 1.634850 0.000000 
#    z -0.022380 0.000000 1.635120 
# 
# From -- ./inp_files/375147.got.cif
#   From: 2010.05.17/outbox.cif.g08.bks.cpg/sg12_188_cif.got.tgz:375147.got - 2010.06.03 13:09:07.
