data_PCOD9195809
_publ_section_title
;
Structure prediction by ZEFSAII (Michael W. Deem and Ramdas Pophale) SiO2 
 PCOD9195809
Probable space group: C 2/M
;
_chemical_formula_sum "Si O2"
_cell_formula_units_Z 56
_cell_length_a 19.506732
_cell_length_b 9.108577
_cell_length_c 27.753101
_cell_angle_alpha 90.000000
_cell_angle_beta 141.035008
_cell_angle_gamma 90.000000
_cell_volume 3100.919408
_symmetry_space_group_name_H-M "C 2/M"
_symmetry_group_IT_number 12
_symmetry_cell_setting 'monoclinic'
loop_
_space_group_symop_operation_xyz
x,y,z
-x,y,-z
-x,-y,-z
x,-y,z
1/2+x,1/2+y,z
1/2-x,1/2+y,-z
1/2-x,1/2-y,-z
1/2+x,1/2-y,z
loop_
_atom_site_type_symbol
_atom_site_label
_atom_site_fract_x
_atom_site_fract_y
_atom_site_fract_z
Si Si1 0.720404 0.824981 0.125861
Si Si2 0.825393 0.176127 0.000247
Si Si3 0.362492 0.167946 0.553569
Si Si4 0.939958 0.323668 0.872744
Si Si5 0.918823 0.175220 0.305339
Si Si6 0.383103 0.830422 0.450188
Si Si7 0.740903 0.675690 0.695566
O O1 0.711448 0.732067 0.072668
O O2 0.623625 0.794003 0.111593
O O3 0.833855 0.796942 0.215752
O O4 0.714307 0.000000 0.111657
O O5 0.820658 0.000000 0.001171
O O6 0.750000 0.250000 0.000000
O O7 0.949138 0.235253 0.072323
O O8 0.250000 0.250000 0.500000
O O9 0.466440 0.244484 0.634598
O O10 0.378175 0.171403 0.504631
O O11 0.355092 0.000000 0.565671
O O12 0.960573 0.500000 0.882869
O O13 0.854610 0.287013 0.783512
O O14 0.854304 0.219966 0.318750
O O15 0.936159 0.000000 0.317105
O O16 0.500000 0.763693 0.500000
O O17 0.286534 0.747949 0.370119
O O18 0.380956 0.000000 0.432392
O O19 0.737640 0.500000 0.689754
#
# Coordination Sequence:
#
# PCOD9195809 Si02
#       7
#     8   8   8   8   8   8   8
#     4   9  19  38  64  89 115 149 185 230 287 340
#     4  12  25  40  59  85 117 153 191 231 281 338
#     4  11  23  38  55  78 112 153 193 235 284 335
#     4   9  19  38  62  88 118 149 186 232 282 337
#     4   9  18  35  59  86 114 145 185 230 280 335
#     4  10  20  35  55  81 113 148 187 233 283 328
#     4   9  18  33  58  89 114 143 185 232 277 329
#
# _framework density 18.059161
#
# number of rings (size 3 to 8) (size 9 to 14) (size 15 to 20)
#    0.000    2.143    1.429    3.857    0.000    4.857 
#    2.571    2.857    0.000    0.000    0.000    0.000 
#    0.000    0.000    0.000    0.000    0.000    0.000 
#
# Total GULP energy -156256.775779 kJ/mol
# GULP energy per Si atom -5580.599135 kJ/mol
# Density = 1.801806 g / cm^3
# Si number density = 18.059161 Si / 1000 Ang^3
#
#
#
# Elastic Constant Matrix: (Units=GPa)
#
#
# Indices 1 2 3 4 5 6 
#
# 1 72.6374 55.3479 56.6284 0.0000 19.3995 0.0000
# 2 55.3479 85.7646 72.8756 0.0000 16.0121 0.0000
# 3 56.6284 72.8756 122.0400 0.0000 18.3668 0.0000
# 4 0.0000 0.0000 0.0000 34.3752 0.0000 -0.0861
# 5 19.3995 16.0121 18.3668 0.0000 30.7030 0.0000
# 6 0.0000 0.0000 0.0000 -0.0861 0.0000 28.7671
#
#
#
# Elastic Compliance Matrix: (Units=1/GPa)
#
#
# Indices 1 2 3 4 5 6 
#
# 1 0.030430 -0.014405 -0.004126 0.000000 -0.009246 0.000000
# 2 -0.014405 0.031011 -0.011835 0.000000 0.000009 0.000000
# 3 -0.004126 -0.011835 0.017423 0.000000 -0.001643 0.000000
# 4 0.000000 0.000000 0.000000 0.029091 0.000000 0.000087
# 5 -0.009246 0.000009 -0.001643 0.000000 0.039390 0.000000
# 6 0.000000 0.000000 0.000000 0.000087 0.000000 0.034762
#
#
# Mechanical properties :
#
#
# Convention : Reuss Voigt Hill
#
# Bulk Modulus (GPa) = 55.15564 72.23843 63.69704
# Shear Modulus (GPa) = 20.08958 25.14173 22.61565
#
# Velocity S-wave (km/s) = 3.33893 3.73525 3.54264
# Velocity P-wave (km/s) = 6.74333 7.66098 7.21676
#
# Compressibility (1/GPa) = 0.01813051
#
# Stress axis : x y z
#
# Youngs Moduli (GPa) = 32.86259 32.24635 57.39418
#
# Poissons Ratio (x) = 0.46452 0.23682
# Poissons Ratio (y) = 0.47340 0.67928
# Poissons Ratio (z) = 0.13560 0.38164
#
# Static dielectric constant tensor:
#      x y z
#    x 1.631310 0.000000 0.006620 
#    y 0.000000 1.611510 0.000000 
#    z 0.006620 0.000000 1.619450 
# 
# From -- ./inp_files/363225.got.cif
#   From: 2010.05.17/outbox.cif.g08.bks.cpg/sg12_182_cif.got.tgz:363225.got - 2010.06.03 13:09:07.
