data_PCOD9195841
_publ_section_title
;
Structure prediction by ZEFSAII (Michael W. Deem and Ramdas Pophale) SiO2 
 PCOD9195841
Probable space group: C 2/M
;
_chemical_formula_sum "Si O2"
_cell_formula_units_Z 56
_cell_length_a 20.246233
_cell_length_b 8.200984
_cell_length_c 28.486481
_cell_angle_alpha 90.000000
_cell_angle_beta 37.818929
_cell_angle_gamma 90.000000
_cell_volume 2900.203866
_symmetry_space_group_name_H-M "C 2/M"
_symmetry_group_IT_number 12
_symmetry_cell_setting 'monoclinic'
loop_
_space_group_symop_operation_xyz
x,y,z
-x,y,-z
-x,-y,-z
x,-y,z
1/2+x,1/2+y,z
1/2-x,1/2+y,-z
1/2-x,1/2-y,-z
1/2+x,1/2-y,z
loop_
_atom_site_type_symbol
_atom_site_label
_atom_site_fract_x
_atom_site_fract_y
_atom_site_fract_z
Si Si1 0.638926 0.304503 0.538827
Si Si2 0.117292 0.691426 0.446181
Si Si3 0.655534 0.188566 0.707258
Si Si4 0.478956 0.696625 0.303766
Si Si5 0.078703 0.694099 0.996658
Si Si6 0.967011 0.190627 0.875482
Si Si7 0.677972 0.698999 0.129431
O O1 0.638824 0.500000 0.531783
O O2 0.750000 0.250000 0.500000
O O3 0.629723 0.216860 0.494622
O O4 0.546079 0.261166 0.628589
O O5 0.119586 0.500000 0.433475
O O6 0.218601 0.771601 0.363471
O O7 0.000000 0.760269 0.500000
O O8 0.610280 0.228129 0.680692
O O9 0.580197 0.288386 0.784999
O O10 0.637646 0.000000 0.727659
O O11 0.469324 0.500000 0.305059
O O12 0.594047 0.744510 0.217579
O O13 0.087425 0.500000 0.983808
O O14 0.033931 0.722908 0.073998
O O15 0.201588 0.758807 0.928685
O O16 0.000000 0.759826 0.000000
O O17 0.875835 0.252770 0.889786
O O18 0.946612 0.000000 0.895019
O O19 0.679782 0.500000 0.126555
#
# Coordination Sequence:
#
# PCOD9195841 Si02
#       7
#     8   8   8   8   8   8   8
#     4  11  21  34  58  86 115 150 192 239 286 339
#     4  11  24  41  58  79 116 158 194 235 284 339
#     4  11  21  35  59  86 112 142 187 240 286 337
#     4   9  18  34  56  82 112 147 186 233 287 336
#     4  10  20  35  55  82 116 146 181 228 279 333
#     4  10  20  36  59  81 108 145 187 229 277 338
#     4   8  16  33  56  80 108 144 184 227 274 327
#
# _framework density 19.308987999999999
#
# number of rings (size 3 to 8) (size 9 to 14) (size 15 to 20)
#    0.000    2.000    1.429    3.857    0.000    2.000 
#    2.571    2.857    0.000    0.000    0.000    0.000 
#    0.000    0.000    0.000    0.000    0.000    0.000 
#
# Total GULP energy -156276.644097 kJ/mol
# GULP energy per Si atom -5581.308718 kJ/mol
# Density = 1.926504 g / cm^3
# Si number density = 19.308988 Si / 1000 Ang^3
#
#
#
# Elastic Constant Matrix: (Units=GPa)
#
#
# Indices 1 2 3 4 5 6 
#
# 1 105.3216 -7.0723 56.0579 0.0006 -18.0598 -0.0071
# 2 -7.0723 13.6916 -8.1691 0.0020 -4.3927 0.0003
# 3 56.0579 -8.1691 93.5299 -0.0005 -13.2235 -0.0021
# 4 0.0006 0.0020 -0.0005 22.4244 0.0005 8.9573
# 5 -18.0598 -4.3927 -13.2235 0.0005 27.3404 0.0003
# 6 -0.0071 0.0003 -0.0021 8.9573 0.0003 10.8089
#
#
#
# Elastic Compliance Matrix: (Units=1/GPa)
#
#
# Indices 1 2 3 4 5 6 
#
# 1 0.015138 0.005638 -0.007556 -0.000007 0.007251 0.000014
# 2 0.005638 0.087063 0.007223 -0.000014 0.021206 0.000013
# 3 -0.007556 0.007223 0.016433 0.000001 0.004118 -0.000003
# 4 -0.000007 -0.000014 0.000001 0.066660 -0.000007 -0.055240
# 5 0.007251 0.021206 0.004118 -0.000007 0.046764 0.000009
# 6 0.000014 0.000013 -0.000003 -0.055240 0.000009 0.138293
#
#
# Mechanical properties :
#
#
# Convention : Reuss Voigt Hill
#
# Bulk Modulus (GPa) = 7.73718 32.68621 20.21170
# Shear Modulus (GPa) = 12.41240 23.56320 17.98780
#
# Velocity S-wave (km/s) = 2.53816 3.49710 3.05549
# Velocity P-wave (km/s) = 3.55041 5.76810 4.78939
#
# Compressibility (1/GPa) = 0.12924608
#
# Stress axis : x y z
#
# Youngs Moduli (GPa) = 66.05831 11.48590 60.85183
#
# Poissons Ratio (x) = -0.06476 0.45977
# Poissons Ratio (y) = -0.37243 -0.43956
# Poissons Ratio (z) = 0.49911 -0.08297
#
# Static dielectric constant tensor:
#      x y z
#    x 1.708680 0.000010 -0.057390 
#    y 0.000010 1.678350 -0.000010 
#    z -0.057390 -0.000010 1.713950 
# 
# From -- ./inp_files/362974.got.cif
#   From: 2010.05.17/outbox.cif.g08.bks.cpg/sg12_182_cif.got.tgz:362974.got - 2010.06.03 13:09:07.
