data_PCOD9195556
_publ_section_title
;
Structure prediction by ZEFSAII (Michael W. Deem and Ramdas Pophale) SiO2 
 PCOD9195556
Probable space group: C 2/M
;
_chemical_formula_sum "Si O2"
_cell_formula_units_Z 48
_cell_length_a 10.345097
_cell_length_b 26.092415
_cell_length_c 21.599138
_cell_angle_alpha 90.000000
_cell_angle_beta 25.614249
_cell_angle_gamma 90.000000
_cell_volume 2520.464351
_symmetry_space_group_name_H-M "C 2/M"
_symmetry_group_IT_number 12
_symmetry_cell_setting 'monoclinic'
loop_
_space_group_symop_operation_xyz
x,y,z
-x,y,-z
-x,-y,-z
x,-y,z
1/2+x,1/2+y,z
1/2-x,1/2+y,-z
1/2-x,1/2-y,-z
1/2+x,1/2-y,z
loop_
_atom_site_type_symbol
_atom_site_label
_atom_site_fract_x
_atom_site_fract_y
_atom_site_fract_z
Si Si1 0.298264 0.097967 0.336115
Si Si2 0.432017 0.188704 0.597451
Si Si3 0.942719 0.747744 0.094619
Si Si4 0.901855 0.799796 0.646435
Si Si5 0.653137 0.361411 0.826901
Si Si6 0.245194 0.055633 0.949365
O O1 0.229766 0.151953 0.332069
O O2 0.561561 0.106942 0.272126
O O3 0.439883 0.063372 0.220989
O O4 0.000000 0.080244 0.500000
O O5 0.500000 0.169637 0.500000
O O6 0.327574 0.247844 0.641039
O O7 0.202151 0.154952 0.735145
O O8 0.742971 0.191546 0.501249
O O9 0.723772 0.712632 0.230549
O O10 0.841940 0.807379 0.138358
O O11 0.000000 0.730420 0.000000
O O12 0.250000 0.750000 0.000000
O O13 0.359478 0.395279 0.966009
O O14 0.231872 0.000000 0.986628
O O15 0.000000 0.055127 0.000000
#
# Coordination Sequence:
#
# PCOD9195556 Si02
#       6
#     8   8   8   8   8   8
#     4  11  19  34  55  80 111 139 172 215 275 319
#     4  10  21  32  50  76 107 145 182 212 251 310
#     4  11  22  33  49  76 110 148 186 218 258 317
#     4  10  21  32  50  74 110 144 177 214 258 308
#     4  10  20  35  55  75 106 145 176 220 266 319
#     4   9  19  35  56  81 105 133 172 221 278 330
#
# _framework density 19.044108999999999
#
# number of rings (size 3 to 8) (size 9 to 14) (size 15 to 20)
#    0.000    1.833    1.667    4.000    9.333    0.333 
#    0.000    0.000    0.000    0.500    0.000    1.167 
#    0.000    0.000    0.000    0.000    0.000    0.000 
#
# Total GULP energy -133946.933881 kJ/mol
# GULP energy per Si atom -5581.122245 kJ/mol
# Density = 1.900076 g / cm^3
# Si number density = 19.044109 Si / 1000 Ang^3
#
#
#
# Elastic Constant Matrix: (Units=GPa)
#
#
# Indices 1 2 3 4 5 6 
#
# 1 41.6510 3.5869 14.9949 0.0007 20.0537 -0.0117
# 2 3.5869 61.3847 31.7426 -0.0068 12.2229 -0.0030
# 3 14.9949 31.7426 126.0595 -0.0618 24.1685 0.0007
# 4 0.0007 -0.0068 -0.0618 14.3565 -0.0211 3.3517
# 5 20.0537 12.2229 24.1685 -0.0211 41.7995 0.0082
# 6 -0.0117 -0.0030 0.0007 3.3517 0.0082 10.8102
#
#
#
# Elastic Compliance Matrix: (Units=1/GPa)
#
#
# Indices 1 2 3 4 5 6 
#
# 1 0.031494 0.001819 -0.001356 -0.000042 -0.014858 0.000059
# 2 0.001819 0.019197 -0.004281 -0.000019 -0.004011 0.000017
# 3 -0.001356 -0.004281 0.009905 0.000038 -0.003825 -0.000012
# 4 -0.000042 -0.000019 0.000038 0.075090 0.000047 -0.023282
# 5 -0.014858 -0.004011 -0.003825 0.000047 0.034436 -0.000058
# 6 0.000059 0.000017 -0.000012 -0.023282 -0.000058 0.099724
#
#
# Mechanical properties :
#
#
# Convention : Reuss Voigt Hill
#
# Bulk Modulus (GPa) = 18.88201 36.63822 27.76011
# Shear Modulus (GPa) = 16.94134 25.31130 21.12632
#
# Velocity S-wave (km/s) = 2.98583 3.64962 3.33428
# Velocity P-wave (km/s) = 4.67154 6.08605 5.42509
#
# Compressibility (1/GPa) = 0.05296047
#
# Stress axis : x y z
#
# Youngs Moduli (GPa) = 31.75218 52.09156 100.95454
#
# Poissons Ratio (x) = -0.09477 0.13687
# Poissons Ratio (y) = -0.05776 0.43222
# Poissons Ratio (z) = 0.04305 0.22302
#
# Static dielectric constant tensor:
#      x y z
#    x 1.657180 0.000000 -0.005350 
#    y 0.000000 1.686050 0.000020 
#    z -0.005350 0.000020 1.736930 
# 
# From -- ./inp_files/52041.got.cif
#   From: 2010.05.17/outbox.cif.g08.bks.cpg/sg12_27_cif.got.tgz:52041.got - 2010.06.03 13:09:07.
