data_PCOD9195565
_publ_section_title
;
Structure prediction by ZEFSAII (Michael W. Deem and Ramdas Pophale) SiO2 
 PCOD9195565
Probable space group: C 2/M
;
_chemical_formula_sum "Si O2"
_cell_formula_units_Z 52
_cell_length_a 20.385532
_cell_length_b 12.509293
_cell_length_c 19.878048
_cell_angle_alpha 90.000000
_cell_angle_beta 151.080657
_cell_angle_gamma 90.000000
_cell_volume 2451.291758
_symmetry_space_group_name_H-M "C 2/M"
_symmetry_group_IT_number 12
_symmetry_cell_setting 'monoclinic'
loop_
_space_group_symop_operation_xyz
x,y,z
-x,y,-z
-x,-y,-z
x,-y,z
1/2+x,1/2+y,z
1/2-x,1/2+y,-z
1/2-x,1/2-y,-z
1/2+x,1/2-y,z
loop_
_atom_site_type_symbol
_atom_site_label
_atom_site_fract_x
_atom_site_fract_y
_atom_site_fract_z
Si Si1 0.294498 0.614349 0.108915
Si Si2 0.788292 0.623509 0.552890
Si Si3 0.253955 0.884677 0.199222
Si Si4 0.401123 0.160084 0.191590
Si Si5 0.000000 0.296073 0.500000
Si Si6 0.847668 0.656365 0.877410
Si Si7 0.342903 0.383829 0.421358
O O1 0.363169 0.500000 0.164035
O O2 0.397766 0.711380 0.194438
O O3 0.216420 0.619738 0.109745
O O4 0.184248 0.628422 0.950875
O O5 0.737750 0.500000 0.484279
O O6 0.750000 0.750000 0.500000
O O7 0.752018 0.623255 0.599193
O O8 0.947050 0.620509 0.678189
O O9 0.321348 0.879075 0.185841
O O10 0.377325 0.864938 0.361818
O O11 0.156104 0.784965 0.120734
O O12 0.191059 0.000000 0.153264
O O13 0.053178 0.214558 0.490241
O O14 0.749137 0.624304 0.728014
O O15 0.000000 0.620297 0.000000
O O16 0.412408 0.500000 0.485687
#
# Coordination Sequence:
#
# PCOD9195565 Si02
#       7
#     8   8   8   8   4   8   8
#     4  10  20  35  58  83 109 144 183 227 279 335
#     4  11  23  39  59  84 115 151 189 232 282 334
#     4  10  20  35  55  76 104 144 184 226 274 325
#     4  10  21  36  55  81 111 144 185 230 280 335
#     4  10  20  36  56  80 106 138 186 228 270 326
#     4  10  21  35  53  82 112 140 180 224 273 334
#     4  10  21  36  56  81 110 143 178 224 279 328
#
# _framework density 21.213304000000001
#
# number of rings (size 3 to 8) (size 9 to 14) (size 15 to 20)
#    0.000    1.846    0.000    4.154    0.000    3.385 
#    0.000    6.923    0.000    7.385    0.000    0.000 
#    0.000    0.000    0.000    0.000    0.000    0.000 
#
# Total GULP energy -145045.408949 kJ/mol
# GULP energy per Si atom -5578.669575 kJ/mol
# Density = 2.116502 g / cm^3
# Si number density = 21.213304 Si / 1000 Ang^3
#
#
#
# Elastic Constant Matrix: (Units=GPa)
#
#
# Indices 1 2 3 4 5 6 
#
# 1 90.2640 20.1284 14.1480 0.0000 -7.0390 0.0001
# 2 20.1284 203.2179 10.6271 0.0000 -3.6789 0.0002
# 3 14.1480 10.6271 35.4533 0.0000 0.3178 0.0003
# 4 0.0000 0.0000 0.0000 -4.0383 0.0000 21.2451
# 5 -7.0390 -3.6789 0.3178 0.0000 34.1007 0.0001
# 6 0.0001 0.0002 0.0003 21.2451 0.0001 -72.5214
#
#
#
# Elastic Compliance Matrix: (Units=1/GPa)
#
#
# Indices 1 2 3 4 5 6 
#
# 1 0.012199 -0.000922 -0.004614 0.000000 0.002462 0.000000
# 2 -0.000922 0.005079 -0.001158 0.000000 0.000368 0.000000
# 3 -0.004614 -0.001158 0.030407 -0.000001 -0.001361 0.000000
# 4 0.000000 0.000000 -0.000001 0.457559 0.000000 0.134042
# 5 0.002462 0.000368 -0.001361 0.000000 0.029885 0.000000
# 6 0.000000 0.000000 0.000000 0.134042 0.000000 0.025479
#
#
# Mechanical properties :
#
#
# Convention : Reuss Voigt Hill
#
# Bulk Modulus (GPa) = 29.15688 46.52693 37.84191
# Shear Modulus (GPa) = 8.54075 10.44366 9.49220
#
# Velocity S-wave (km/s) = 2.00870 2.22123 2.11763
# Velocity P-wave (km/s) = 4.37656 5.34406 4.88433
#
# Compressibility (1/GPa) = 0.03429722
#
# Stress axis : x y z
#
# Youngs Moduli (GPa) = 81.97076 196.87336 32.88768
#
# Poissons Ratio (x) = 0.18161 0.15174
# Poissons Ratio (y) = 0.07562 0.03807
# Poissons Ratio (z) = 0.37820 0.22792
#
# Static dielectric constant tensor:
#      x y z
#    x 1.724060 0.000000 -0.022220 
#    y 0.000000 1.862960 0.000000 
#    z -0.022220 0.000000 1.721930 
# 
# From -- ./inp_files/175202.got.cif
#   From: 2010.05.17/outbox.cif.g08.bks.cpg/sg12_88_cif.got.tgz:175202.got - 2010.06.03 13:09:07.
