data_PCOD9195412
_publ_section_title
;
Structure prediction by ZEFSAII (Michael W. Deem and Ramdas Pophale) SiO2 
 PCOD9195412
Probable space group: C 2/M
;
_chemical_formula_sum "Si O2"
_cell_formula_units_Z 64
_cell_length_a 14.794358
_cell_length_b 8.784495
_cell_length_c 27.254596
_cell_angle_alpha 90.000000
_cell_angle_beta 77.548983
_cell_angle_gamma 90.000000
_cell_volume 3458.727373
_symmetry_space_group_name_H-M "C 2/M"
_symmetry_group_IT_number 12
_symmetry_cell_setting 'monoclinic'
loop_
_space_group_symop_operation_xyz
x,y,z
-x,y,-z
-x,-y,-z
x,-y,z
1/2+x,1/2+y,z
1/2-x,1/2+y,-z
1/2-x,1/2-y,-z
1/2+x,1/2-y,z
loop_
_atom_site_type_symbol
_atom_site_label
_atom_site_fract_x
_atom_site_fract_y
_atom_site_fract_z
Si Si1 0.779805 0.182100 0.921311
Si Si2 0.438904 0.682450 0.361471
Si Si3 0.224096 0.681923 0.376815
Si Si4 0.362561 0.182423 0.812761
Si Si5 0.261251 0.682881 0.730242
Si Si6 0.606577 0.683584 0.994662
Si Si7 0.552327 0.316025 0.444184
Si Si8 0.547350 0.182364 0.744315
O O1 0.816896 0.246204 0.865982
O O2 0.679197 0.247008 0.947581
O O3 0.774765 0.000000 0.919876
O O4 0.850907 0.224571 0.957013
O O5 0.445991 0.500000 0.357397
O O6 0.330119 0.721828 0.377291
O O7 0.493029 0.731838 0.403492
O O8 0.475580 0.750777 0.306409
O O9 0.217232 0.500000 0.373026
O O10 0.203308 0.758542 0.326577
O O11 0.152652 0.743485 0.425078
O O12 0.312141 0.240826 0.769725
O O13 0.470172 0.227624 0.792714
O O14 0.356720 0.000000 0.816251
O O15 0.270012 0.500000 0.731442
O O16 0.152236 0.725952 0.744964
O O17 0.609174 0.500000 0.990107
O O18 0.500000 0.732387 0.000000
O O19 0.500000 0.271837 0.500000
O O20 0.560329 0.500000 0.442948
O O21 0.545424 0.000000 0.740467
#
# Coordination Sequence:
#
# PCOD9195412 Si02
#       8
#     8   8   8   8   8   8   8   8
#     4  10  21  36  55  82 112 143 181 221 265 316
#     4   9  19  35  54  75 102 136 172 213 260 312
#     4  10  20  35  54  77 104 135 173 215 262 314
#     4  11  22  36  54  79 113 146 176 218 266 309
#     4  10  20  36  56  79 106 138 177 216 260 315
#     4   9  19  38  61  82 107 142 183 225 268 313
#     4  10  21  36  53  75 103 136 174 215 262 314
#     4   9  20  36  54  77 105 138 175 214 258 312
#
# _framework density 18.503914999999999
#
# number of rings (size 3 to 8) (size 9 to 14) (size 15 to 20)
#    0.000    2.250    0.000    2.250    0.000    7.000 
#    0.000    2.500    0.000    0.000    0.000    0.000 
#    0.000    0.000    0.000    0.000    0.000    0.000 
#
# Total GULP energy -178665.753236 kJ/mol
# GULP energy per Si atom -5583.304789 kJ/mol
# Density = 1.846180 g / cm^3
# Si number density = 18.503915 Si / 1000 Ang^3
#
#
#
# Elastic Constant Matrix: (Units=GPa)
#
#
# Indices 1 2 3 4 5 6 
#
# 1 86.6577 22.1133 42.8369 0.0000 -24.7601 0.0000
# 2 22.1133 18.2154 21.8011 0.0000 -10.1658 0.0000
# 3 42.8369 21.8011 99.9019 0.0000 -34.6298 0.0000
# 4 0.0000 0.0000 0.0000 29.1264 0.0000 -0.6066
# 5 -24.7601 -10.1658 -34.6298 0.0000 24.8857 0.0000
# 6 0.0000 0.0000 0.0000 -0.6066 0.0000 17.5171
#
#
#
# Elastic Compliance Matrix: (Units=1/GPa)
#
#
# Indices 1 2 3 4 5 6 
#
# 1 0.019338 -0.016090 -0.000753 0.000000 0.011620 0.000000
# 2 -0.016090 0.090729 -0.010822 0.000000 0.005995 0.000000
# 3 -0.000753 -0.010822 0.021062 0.000000 0.024139 0.000000
# 4 0.000000 0.000000 0.000000 0.034358 0.000000 0.001190
# 5 0.011620 0.005995 0.024139 0.000000 0.087784 0.000000
# 6 0.000000 0.000000 0.000000 0.001190 0.000000 0.057128
#
#
# Mechanical properties :
#
#
# Convention : Reuss Voigt Hill
#
# Bulk Modulus (GPa) = 13.19275 42.03085 27.61180
# Shear Modulus (GPa) = 12.78790 22.17409 17.48099
#
# Velocity S-wave (km/s) = 2.63171 3.46547 3.07696
# Velocity P-wave (km/s) = 4.04719 6.22708 5.25149
#
# Compressibility (1/GPa) = 0.07579924
#
# Stress axis : x y z
#
# Youngs Moduli (GPa) = 51.71278 11.02178 47.47981
#
# Poissons Ratio (x) = 0.17734 0.03574
# Poissons Ratio (y) = 0.83205 0.51384
# Poissons Ratio (z) = 0.03892 0.11928
#
# Static dielectric constant tensor:
#      x y z
#    x 1.655250 0.000000 -0.011120 
#    y 0.000000 1.618790 0.000000 
#    z -0.011120 0.000000 1.605500 
# 
# From -- ./inp_files/359702.got.cif
#   From: 2010.05.17/outbox.cif.g08.bks.cpg/sg12_180_cif.got.tgz:359702.got - 2010.06.03 13:09:07.
