data_PCOD9195642
_publ_section_title
;
Structure prediction by ZEFSAII (Michael W. Deem and Ramdas Pophale) SiO2 
 PCOD9195642
Probable space group: C 2/M
;
_chemical_formula_sum "Si O2"
_cell_formula_units_Z 64
_cell_length_a 18.397891
_cell_length_b 8.351920
_cell_length_c 34.841753
_cell_angle_alpha 90.000000
_cell_angle_beta 37.587966
_cell_angle_gamma 90.000000
_cell_volume 3265.645707
_symmetry_space_group_name_H-M "C 2/M"
_symmetry_group_IT_number 12
_symmetry_cell_setting 'monoclinic'
loop_
_space_group_symop_operation_xyz
x,y,z
-x,y,-z
-x,-y,-z
x,-y,z
1/2+x,1/2+y,z
1/2-x,1/2+y,-z
1/2-x,1/2-y,-z
1/2+x,1/2-y,z
loop_
_atom_site_type_symbol
_atom_site_label
_atom_site_fract_x
_atom_site_fract_y
_atom_site_fract_z
Si Si1 0.363888 0.691883 0.562419
Si Si2 0.678330 0.306434 0.187699
Si Si3 0.262197 0.808081 0.686009
Si Si4 0.490023 0.695587 0.811821
Si Si5 0.447185 0.306382 0.062908
Si Si6 0.884452 0.806425 0.937683
Si Si7 0.800639 0.191965 0.438255
Si Si8 0.926847 0.806320 0.686641
O O1 0.500000 0.748909 0.500000
O O2 0.365118 0.500000 0.561893
O O3 0.311799 0.750219 0.624560
O O4 0.282178 0.749859 0.561696
O O5 0.677013 0.500000 0.188295
O O6 0.593176 0.252260 0.188592
O O7 0.812678 0.250253 0.125048
O O8 0.627538 0.251614 0.250009
O O9 0.126249 0.752011 0.749292
O O10 0.345964 0.749596 0.685316
O O11 0.261243 0.000000 0.686424
O O12 0.490250 0.500000 0.811724
O O13 0.436524 0.747964 0.874966
O O14 0.447439 0.500000 0.062789
O O15 0.531166 0.251945 0.062750
O O16 0.500000 0.251814 0.000000
O O17 0.885185 0.000000 0.937330
O O18 0.750000 0.750000 0.000000
O O19 0.750000 0.250000 0.500000
O O20 0.936771 0.248146 0.375439
O O21 0.801489 0.000000 0.437751
O O22 0.927561 0.000000 0.686542
#
# Coordination Sequence:
#
# PCOD9195642 Si02
#       8
#     8   8   8   8   8   8   8   8
#     4  11  24  41  60  85 119 154 189 236 290 338
#     4  10  20  36  58  80 106 144 187 228 274 333
#     4  11  22  38  62  87 113 150 193 233 280 342
#     4   9  19  36  56  80 110 144 183 230 282 332
#     4  10  21  36  53  78 113 146 178 227 287 335
#     4  10  20  35  55  78 108 144 182 226 275 330
#     4  11  23  40  62  87 118 155 194 237 286 340
#     4  10  22  39  57  82 117 150 183 234 292 337
#
# _framework density 19.597961000000002
#
# number of rings (size 3 to 8) (size 9 to 14) (size 15 to 20)
#    0.000    1.750    0.000    4.125    0.000    9.250 
#    0.000    3.750    0.000    0.000    0.000    0.000 
#    0.000    0.000    0.000    0.000    0.000    0.000 
#
# Total GULP energy -178901.391130 kJ/mol
# GULP energy per Si atom -5590.668473 kJ/mol
# Density = 1.955336 g / cm^3
# Si number density = 19.597961 Si / 1000 Ang^3
#
#
#
# Elastic Constant Matrix: (Units=GPa)
#
#
# Indices 1 2 3 4 5 6 
#
# 1 245.9116 24.7881 152.2350 0.0049 0.8130 0.0029
# 2 24.7881 14.0504 26.3111 0.0330 0.7282 0.0122
# 3 152.2350 26.3111 247.2609 -0.0003 0.8810 0.0028
# 4 0.0049 0.0330 -0.0003 26.5040 0.0019 -6.4375
# 5 0.8130 0.7282 0.8810 0.0019 47.5513 0.0005
# 6 0.0029 0.0122 0.0028 -6.4375 0.0005 27.2334
#
#
#
# Elastic Compliance Matrix: (Units=1/GPa)
#
#
# Indices 1 2 3 4 5 6 
#
# 1 0.006867 -0.005244 -0.003670 0.000006 0.000031 0.000003
# 2 -0.005244 0.092956 -0.006658 -0.000132 -0.001210 -0.000071
# 3 -0.003670 -0.006658 0.007012 0.000010 0.000035 0.000005
# 4 0.000006 -0.000132 0.000010 0.040029 0.000000 0.009462
# 5 0.000031 -0.001210 0.000035 0.000000 0.021047 0.000000
# 6 0.000003 -0.000071 0.000005 0.009462 0.000000 0.038956
#
#
# Mechanical properties :
#
#
# Convention : Reuss Voigt Hill
#
# Bulk Modulus (GPa) = 13.21178 101.54349 57.37763
# Shear Modulus (GPa) = 18.99392 40.51697 29.75545
#
# Velocity S-wave (km/s) = 3.11654 4.55181 3.90076
# Velocity P-wave (km/s) = 4.43920 8.91914 7.04477
#
# Compressibility (1/GPa) = 0.07569004
#
# Stress axis : x y z
#
# Youngs Moduli (GPa) = 145.62499 10.75781 142.60713
#
# Poissons Ratio (x) = 0.05641 0.52337
# Poissons Ratio (y) = 0.76366 0.94955
# Poissons Ratio (z) = 0.53444 0.07163
#
# Static dielectric constant tensor:
#      x y z
#    x 1.644060 -0.000010 -0.001880 
#    y -0.000010 1.690370 -0.000010 
#    z -0.001880 -0.000010 1.653970 
# 
# From -- ./inp_files/378184.got.cif
#   From: 2010.05.17/outbox.cif.g08.bks.cpg/sg12_190_cif.got.tgz:378184.got - 2010.06.03 13:09:07.
