data_PCOD9195387
_publ_section_title
;
Structure prediction by ZEFSAII (Michael W. Deem and Ramdas Pophale) SiO2 
 PCOD9195387
Probable space group: C 2/M
;
_chemical_formula_sum "Si O2"
_cell_formula_units_Z 60
_cell_length_a 15.072685
_cell_length_b 13.940119
_cell_length_c 19.695389
_cell_angle_alpha 90.000000
_cell_angle_beta 137.369878
_cell_angle_gamma 90.000000
_cell_volume 2802.714945
_symmetry_space_group_name_H-M "C 2/M"
_symmetry_group_IT_number 12
_symmetry_cell_setting 'monoclinic'
loop_
_space_group_symop_operation_xyz
x,y,z
-x,y,-z
-x,-y,-z
x,-y,z
1/2+x,1/2+y,z
1/2-x,1/2+y,-z
1/2-x,1/2-y,-z
1/2+x,1/2-y,z
loop_
_atom_site_type_symbol
_atom_site_label
_atom_site_fract_x
_atom_site_fract_y
_atom_site_fract_z
Si Si1 0.689197 0.115189 0.215671
Si Si2 0.368987 0.390470 0.692140
Si Si3 0.000000 0.759141 0.500000
Si Si4 0.968401 0.386529 0.255519
Si Si5 0.669531 0.616750 0.840132
Si Si6 0.101891 0.384057 0.933861
Si Si7 0.838057 0.389792 0.318727
Si Si8 0.738786 0.802142 0.393639
O O1 0.785865 0.145376 0.210224
O O2 0.538621 0.133723 0.110239
O O3 0.713578 0.167225 0.300592
O O4 0.702019 0.000000 0.233991
O O5 0.354051 0.500000 0.659294
O O6 0.519568 0.360763 0.772086
O O7 0.308950 0.386882 0.734371
O O8 0.284342 0.310827 0.605833
O O9 0.921068 0.687709 0.406611
O O10 0.894630 0.819147 0.485279
O O11 0.984419 0.500000 0.255759
O O12 0.917069 0.349353 0.154109
O O13 0.862267 0.370158 0.253861
O O14 0.113496 0.350650 0.358104
O O15 0.676790 0.500000 0.844646
O O16 0.775019 0.652429 0.954370
O O17 0.116495 0.500000 0.939045
O O18 0.884138 0.500000 0.357587
#
# Coordination Sequence:
#
# PCOD9195387 Si02
#       8
#     8   8   4   8   8   8   8   8
#     4   9  17  31  52  78 108 138 165 201 253 303
#     4   9  19  33  49  73 104 136 170 210 253 290
#     4  10  21  34  53  74  94 126 174 218 256 300
#     4   9  18  34  55  77 104 137 166 200 253 305
#     4   9  16  29  52  79 106 136 169 206 246 292
#     4   8  14  27  50  79 106 134 169 202 239 298
#     4   9  18  35  55  73  98 133 172 213 253 297
#     4  10  20  35  54  76 103 132 165 210 258 308
#
# _framework density 21.407814999999999
#
# number of rings (size 3 to 8) (size 9 to 14) (size 15 to 20)
#    0.000    2.933    0.000    1.800    0.000    4.800 
#    0.000    6.000    0.000   16.800    0.000    0.000 
#    0.000    0.000    0.000    0.000    0.000    0.000 
#
# Total GULP energy -167178.416054 kJ/mol
# GULP energy per Si atom -5572.613868 kJ/mol
# Density = 2.135909 g / cm^3
# Si number density = 21.407815 Si / 1000 Ang^3
#
#
#
# Elastic Constant Matrix: (Units=GPa)
#
#
# Indices 1 2 3 4 5 6 
#
# 1 80.2932 -19.6726 3.3653 0.0000 6.6094 0.0000
# 2 -19.6726 53.6027 -6.5154 0.0000 -0.9289 0.0000
# 3 3.3653 -6.5154 37.4513 0.0000 11.2304 0.0000
# 4 0.0000 0.0000 0.0000 19.0750 0.0000 9.2764
# 5 6.6094 -0.9289 11.2304 0.0000 25.5354 0.0000
# 6 0.0000 0.0000 0.0000 9.2764 0.0000 18.7881
#
#
#
# Elastic Compliance Matrix: (Units=1/GPa)
#
#
# Indices 1 2 3 4 5 6 
#
# 1 0.013998 0.005166 0.000773 0.000000 -0.003775 0.000000
# 2 0.005166 0.020983 0.003868 0.000000 -0.002275 0.000000
# 3 0.000773 0.003868 0.031473 0.000000 -0.013901 0.000000
# 4 0.000000 0.000000 0.000000 0.068989 0.000000 -0.034063
# 5 -0.003775 -0.002275 -0.013901 0.000000 0.046169 0.000000
# 6 0.000000 0.000000 0.000000 -0.034063 0.000000 0.070043
#
#
# Mechanical properties :
#
#
# Convention : Reuss Voigt Hill
#
# Bulk Modulus (GPa) = 11.61856 13.96686 12.79271
# Shear Modulus (GPa) = 19.17684 25.62438 22.40061
#
# Velocity S-wave (km/s) = 2.99622 3.46347 3.23828
# Velocity P-wave (km/s) = 4.17238 4.74684 4.46885
#
# Compressibility (1/GPa) = 0.08606921
#
# Stress axis : x y z
#
# Youngs Moduli (GPa) = 71.43640 47.65869 31.77286
#
# Poissons Ratio (x) = -0.24621 -0.02456
# Poissons Ratio (y) = -0.36905 -0.12291
# Poissons Ratio (z) = -0.05522 -0.18436
#
# Static dielectric constant tensor:
#      x y z
#    x 1.834340 0.000000 0.009710 
#    y 0.000000 1.823180 0.000000 
#    z 0.009710 0.000000 1.764250 
# 
# From -- ./inp_files/311067.got.cif
#   From: 2010.05.17/outbox.cif.g08.bks.cpg/sg12_156_cif.got.tgz:311067.got - 2010.06.03 13:09:07.
