data_PCOD9195063
_publ_section_title
;
Structure prediction by ZEFSAII (Michael W. Deem and Ramdas Pophale) SiO2 
 PCOD9195063
Probable space group: C 2/M
;
_chemical_formula_sum "Si O2"
_cell_formula_units_Z 48
_cell_length_a 27.539061
_cell_length_b 18.516142
_cell_length_c 12.748714
_cell_angle_alpha 90.000000
_cell_angle_beta 157.809872
_cell_angle_gamma 90.000000
_cell_volume 2455.225802
_symmetry_space_group_name_H-M "C 2/M"
_symmetry_group_IT_number 12
_symmetry_cell_setting 'monoclinic'
loop_
_space_group_symop_operation_xyz
x,y,z
-x,y,-z
-x,-y,-z
x,-y,z
1/2+x,1/2+y,z
1/2-x,1/2+y,-z
1/2-x,1/2-y,-z
1/2+x,1/2-y,z
loop_
_atom_site_type_symbol
_atom_site_label
_atom_site_fract_x
_atom_site_fract_y
_atom_site_fract_z
Si Si1 0.659610 0.912637 0.211323
Si Si2 0.637425 0.087208 0.407912
Si Si3 0.006815 0.210863 0.387697
Si Si4 0.733770 0.182228 0.786258
Si Si5 0.850446 0.584295 0.197663
Si Si6 0.327332 0.415134 0.356962
O O1 0.676161 0.893374 0.366202
O O2 0.768937 0.887648 0.350104
O O3 0.662662 0.000000 0.213583
O O4 0.514486 0.894054 0.885933
O O5 0.716171 0.131528 0.650606
O O6 0.649879 0.000000 0.446027
O O7 0.114153 0.264428 0.558520
O O8 0.054924 0.131535 0.449617
O O9 0.000000 0.216476 0.500000
O O10 0.867487 0.224223 0.059926
O O11 0.728090 0.131709 0.877825
O O12 0.845502 0.500000 0.218425
O O13 0.000000 0.606132 0.500000
O O14 0.787564 0.591147 0.957948
O O15 0.360264 0.500000 0.431059
#
# Coordination Sequence:
#
# PCOD9195063 Si02
#       6
#     8   8   8   8   8   8
#     4   8  16  34  64  98 123 155 195 245 308 357
#     4   9  18  36  66  96 123 156 201 250 297 356
#     4  12  27  43  59  86 122 169 204 247 310 366
#     4  12  25  40  61  87 122 163 204 251 300 363
#     4  10  20  34  60  94 121 152 198 250 300 356
#     4  10  21  38  61  88 122 157 198 250 305 361
#
# _framework density 19.550135999999998
#
# number of rings (size 3 to 8) (size 9 to 14) (size 15 to 20)
#    0.000    1.833    1.667    3.500    4.667    4.333 
#    0.000    1.667    0.000    3.000    0.000    0.000 
#    0.000    0.000    0.000    0.000    0.000    0.000 
#
# Total GULP energy -134095.203479 kJ/mol
# GULP energy per Si atom -5587.300145 kJ/mol
# Density = 1.950564 g / cm^3
# Si number density = 19.550136 Si / 1000 Ang^3
#
#
#
# Elastic Constant Matrix: (Units=GPa)
#
#
# Indices 1 2 3 4 5 6 
#
# 1 72.1031 32.8664 39.2203 0.0000 -2.9850 0.0000
# 2 32.8664 60.9147 33.0090 0.0000 1.2464 0.0000
# 3 39.2203 33.0090 98.4156 0.0000 6.4328 0.0000
# 4 0.0000 0.0000 0.0000 12.8469 0.0000 22.1677
# 5 -2.9850 1.2464 6.4328 0.0000 24.5318 0.0000
# 6 0.0000 0.0000 0.0000 22.1677 0.0000 8.3501
#
#
#
# Elastic Compliance Matrix: (Units=1/GPa)
#
#
# Indices 1 2 3 4 5 6 
#
# 1 0.021026 -0.008232 -0.005914 0.000000 0.004527 0.000000
# 2 -0.008232 0.023300 -0.004468 0.000000 -0.001014 0.000000
# 3 -0.005914 -0.004468 0.014294 0.000000 -0.004241 0.000000
# 4 0.000000 0.000000 0.000000 -0.021738 0.000000 0.057709
# 5 0.004527 -0.001014 -0.004241 0.000000 0.042478 0.000000
# 6 0.000000 0.000000 0.000000 0.057709 0.000000 -0.033444
#
#
# Mechanical properties :
#
#
# Convention : Reuss Voigt Hill
#
# Bulk Modulus (GPa) = 46.74866 49.06940 47.90903
# Shear Modulus (GPa) = 55.38686 17.56829 36.47758
#
# Velocity S-wave (km/s) = 5.32843 3.00096 4.32423
# Velocity P-wave (km/s) = 7.86259 6.09602 7.03498
#
# Compressibility (1/GPa) = 0.02139099
#
# Stress axis : x y z
#
# Youngs Moduli (GPa) = 47.56049 42.91843 69.96178
#
# Poissons Ratio (x) = 0.35332 0.41375
# Poissons Ratio (y) = 0.39154 0.31258
# Poissons Ratio (z) = 0.28127 0.19175
#
# Static dielectric constant tensor:
#      x y z
#    x 1.680370 0.000000 0.008950 
#    y 0.000000 1.695360 0.000000 
#    z 0.008950 0.000000 1.671550 
# 
# From -- ./inp_files/131133.got.cif
#   From: 2010.05.17/outbox.cif.g08.bks.cpg/sg12_66_cif.got.tgz:131133.got - 2010.06.03 13:09:07.
