data_PCOD9195974
_publ_section_title
;
Structure prediction by ZEFSAII (Michael W. Deem and Ramdas Pophale) SiO2 
 PCOD9195974
Probable space group: C 2/M
;
_chemical_formula_sum "Si O2"
_cell_formula_units_Z 56
_cell_length_a 31.504385
_cell_length_b 9.726733
_cell_length_c 21.313635
_cell_angle_alpha 90.000000
_cell_angle_beta 151.845249
_cell_angle_gamma 90.000000
_cell_volume 3081.794888
_symmetry_space_group_name_H-M "C 2/M"
_symmetry_group_IT_number 12
_symmetry_cell_setting 'monoclinic'
loop_
_space_group_symop_operation_xyz
x,y,z
-x,y,-z
-x,-y,-z
x,-y,z
1/2+x,1/2+y,z
1/2-x,1/2+y,-z
1/2-x,1/2-y,-z
1/2+x,1/2-y,z
loop_
_atom_site_type_symbol
_atom_site_label
_atom_site_fract_x
_atom_site_fract_y
_atom_site_fract_z
Si Si1 0.727202 0.161682 0.409325
Si Si2 0.357861 0.659857 0.916460
Si Si3 0.523190 0.338589 0.457584
Si Si4 0.720548 0.338272 0.658724
Si Si5 0.110802 0.339422 0.799029
Si Si6 0.193719 0.155794 0.008234
Si Si7 0.519765 0.842812 0.100190
O O1 0.750000 0.250000 0.500000
O O2 0.786522 0.193764 0.424646
O O3 0.623745 0.181873 0.252408
O O4 0.738733 0.000000 0.438688
O O5 0.365673 0.500000 0.908792
O O6 0.296550 0.744086 0.788344
O O7 0.312891 0.668691 0.926131
O O8 0.454387 0.732561 0.046044
O O9 0.500000 0.308164 0.500000
O O10 0.501022 0.500000 0.418240
O O11 0.627603 0.320595 0.575171
O O12 0.464793 0.241900 0.337056
O O13 0.747096 0.500000 0.697437
O O14 0.089720 0.500000 0.778898
O O15 0.132285 0.265423 0.892605
O O16 0.203995 0.327064 0.881458
O O17 0.165629 0.000000 0.954005
O O18 0.497839 0.000000 0.090761
O O19 0.500000 0.833885 0.000000
#
# Coordination Sequence:
#
# PCOD9195974 Si02
#       7
#     8   8   8   8   8   8   8
#     4  10  22  40  61  84 114 155 193 237 290 343
#     4  11  22  35  58  89 115 142 187 242 289 334
#     4  10  21  36  57  84 114 150 189 231 284 348
#     4  10  21  39  59  80 113 155 192 229 286 351
#     4  10  20  35  56  79 109 149 191 235 282 333
#     4   9  20  37  54  78 113 149 184 230 287 342
#     4  10  20  39  62  82 113 152 190 231 282 347
#
# _framework density 18.171229
#
# number of rings (size 3 to 8) (size 9 to 14) (size 15 to 20)
#    0.000    2.000    1.429    1.714    0.000    5.143 
#    0.000    4.286    0.000    0.000    0.000    0.000 
#    0.000    0.000    0.000    0.000    0.000    0.000 
#
# Total GULP energy -156287.793576 kJ/mol
# GULP energy per Si atom -5581.706913 kJ/mol
# Density = 1.812987 g / cm^3
# Si number density = 18.171229 Si / 1000 Ang^3
#
#
#
# Elastic Constant Matrix: (Units=GPa)
#
#
# Indices 1 2 3 4 5 6 
#
# 1 92.4961 44.7730 28.0143 0.0000 -2.8981 0.0000
# 2 44.7730 89.1243 55.9589 0.0000 -1.8491 0.0000
# 3 28.0143 55.9589 75.8321 0.0000 -9.7924 0.0000
# 4 0.0000 0.0000 0.0000 35.3240 0.0000 -3.8357
# 5 -2.8981 -1.8491 -9.7924 0.0000 16.0238 0.0000
# 6 0.0000 0.0000 0.0000 -3.8357 0.0000 24.0069
#
#
#
# Elastic Compliance Matrix: (Units=1/GPa)
#
#
# Indices 1 2 3 4 5 6 
#
# 1 0.014342 -0.007453 0.000462 0.000000 0.002016 0.000000
# 2 -0.007453 0.025673 -0.017353 0.000000 -0.008990 0.000000
# 3 0.000462 -0.017353 0.027765 0.000000 0.015049 0.000000
# 4 0.000000 0.000000 0.000000 0.028809 0.000000 0.004603
# 5 0.002016 -0.008990 0.015049 0.000000 0.070931 0.000000
# 6 0.000000 0.000000 0.000000 0.004603 0.000000 0.042390
#
#
# Mechanical properties :
#
#
# Convention : Reuss Voigt Hill
#
# Bulk Modulus (GPa) = 52.37679 57.21610 54.79645
# Shear Modulus (GPa) = 18.87058 23.65137 21.26097
#
# Velocity S-wave (km/s) = 3.22605 3.61166 3.42429
# Velocity P-wave (km/s) = 6.53935 6.99626 6.77166
#
# Compressibility (1/GPa) = 0.01909243
#
# Stress axis : x y z
#
# Youngs Moduli (GPa) = 69.72373 38.95096 36.01700
#
# Poissons Ratio (x) = 0.29031 -0.01664
# Poissons Ratio (y) = 0.51967 0.62499
# Poissons Ratio (z) = -0.03221 0.67590
#
# Static dielectric constant tensor:
#      x y z
#    x 1.630430 0.000000 0.016350 
#    y 0.000000 1.613990 0.000000 
#    z 0.016350 0.000000 1.598050 
# 
# From -- ./inp_files/329513.got.cif
#   From: 2010.05.17/outbox.cif.g08.bks.cpg/sg12_165_cif.got.tgz:329513.got - 2010.06.03 13:09:07.
