data_PCOD9195987
_publ_section_title
;
Structure prediction by ZEFSAII (Michael W. Deem and Ramdas Pophale) SiO2 
 PCOD9195987
Probable space group: C 2/M
;
_chemical_formula_sum "Si O2"
_cell_formula_units_Z 56
_cell_length_a 16.259917
_cell_length_b 7.631649
_cell_length_c 27.018555
_cell_angle_alpha 90.000000
_cell_angle_beta 140.786394
_cell_angle_gamma 90.000000
_cell_volume 2119.641753
_symmetry_space_group_name_H-M "C 2/M"
_symmetry_group_IT_number 12
_symmetry_cell_setting 'monoclinic'
loop_
_space_group_symop_operation_xyz
x,y,z
-x,y,-z
-x,-y,-z
x,-y,z
1/2+x,1/2+y,z
1/2-x,1/2+y,-z
1/2-x,1/2-y,-z
1/2+x,1/2-y,z
loop_
_atom_site_type_symbol
_atom_site_label
_atom_site_fract_x
_atom_site_fract_y
_atom_site_fract_z
Si Si1 0.846578 0.212471 0.476638
Si Si2 0.805989 0.208093 0.909571
Si Si3 0.221697 0.798683 0.767418
Si Si4 0.899319 0.208617 0.053284
Si Si5 0.024894 0.703074 0.807017
Si Si6 0.258273 0.715763 0.333668
Si Si7 0.559937 0.204123 0.376348
O O1 0.853105 0.267907 0.422417
O O2 0.701195 0.270635 0.425568
O O3 0.940074 0.273377 0.564024
O O4 0.853788 0.000000 0.480938
O O5 0.810209 0.224615 0.852529
O O6 0.662692 0.284024 0.856070
O O7 0.806391 0.000000 0.919314
O O8 0.903304 0.273534 0.998014
O O9 0.225628 0.717431 0.714538
O O10 0.067579 0.786041 0.707077
O O11 0.257732 0.000000 0.780515
O O12 0.982421 0.289538 0.136441
O O13 0.921494 0.000000 0.065864
O O14 0.750000 0.250000 0.000000
O O15 0.032981 0.500000 0.796042
O O16 0.889863 0.768915 0.722565
O O17 0.264289 0.500000 0.334864
O O18 0.556339 0.000000 0.362370
#
# Coordination Sequence:
#
# PCOD9195987 Si02
#       7
#     8   8   8   8   8   8   8
#     4   9  18  36  59  77  98 131 170 208 246 296
#     4   9  18  33  53  75 101 133 167 209 259 301
#     4  11  22  34  51  75 103 136 173 208 245 299
#     4   9  17  30  50  77 104 131 167 210 256 302
#     4   9  17  33  56  77 100 132 171 213 254 297
#     4   9  19  35  53  74 101 136 174 208 247 295
#     4  10  20  35  56  80 104 129 162 208 258 300
#
# _framework density 26.419557999999999
#
# number of rings (size 3 to 8) (size 9 to 14) (size 15 to 20)
#    0.000    2.571    0.000    3.000    0.000    6.286 
#    0.000    7.143    0.000    4.286    0.000    0.000 
#    0.000    0.000    0.000    0.000    0.000    0.000 
#
# Total GULP energy -156468.553656 kJ/mol
# GULP energy per Si atom -5588.162631 kJ/mol
# Density = 2.635943 g / cm^3
# Si number density = 26.419558 Si / 1000 Ang^3
#
#
#
# Elastic Constant Matrix: (Units=GPa)
#
#
# Indices 1 2 3 4 5 6 
#
# 1 79.1032 -6.9334 35.8214 0.0001 -26.7789 -0.0002
# 2 -6.9334 58.2917 -1.1030 0.0001 1.1962 -0.0005
# 3 35.8214 -1.1030 223.6553 0.0000 -28.7149 0.0000
# 4 0.0001 0.0001 0.0000 23.8191 0.0000 -10.7708
# 5 -26.7789 1.1962 -28.7149 0.0000 54.7501 0.0001
# 6 -0.0002 -0.0005 0.0000 -10.7708 0.0001 9.2023
#
#
#
# Elastic Compliance Matrix: (Units=1/GPa)
#
#
# Indices 1 2 3 4 5 6 
#
# 1 0.015860 0.001715 -0.001652 0.000000 0.006854 0.000001
# 2 0.001715 0.017348 -0.000139 0.000001 0.000386 0.000002
# 3 -0.001652 -0.000139 0.004966 0.000000 0.001800 0.000000
# 4 0.000000 0.000001 0.000000 0.089187 0.000000 0.104389
# 5 0.006854 0.000386 0.001800 0.000000 0.022552 0.000000
# 6 0.000001 0.000002 0.000000 0.104389 0.000000 0.230850
#
#
# Mechanical properties :
#
#
# Convention : Reuss Voigt Hill
#
# Bulk Modulus (GPa) = 26.30103 46.29113 36.29608
# Shear Modulus (GPa) = 12.70352 39.77197 26.23774
#
# Velocity S-wave (km/s) = 2.19518 3.88416 3.15480
# Velocity P-wave (km/s) = 4.04992 6.13801 5.19985
#
# Compressibility (1/GPa) = 0.03802132
#
# Stress axis : x y z
#
# Youngs Moduli (GPa) = 63.05109 57.64193 201.36511
#
# Poissons Ratio (x) = -0.09883 0.33262
# Poissons Ratio (y) = -0.10811 0.02808
# Poissons Ratio (z) = 0.10415 0.00804
#
# Static dielectric constant tensor:
#      x y z
#    x 2.248930 0.000000 -0.023920 
#    y 0.000000 2.000050 0.000000 
#    z -0.023920 0.000000 2.024790 
# 
# From -- ./inp_files/363215.got.cif
#   From: 2010.05.17/outbox.cif.g08.bks.cpg/sg12_182_cif.got.tgz:363215.got - 2010.06.03 13:09:07.
