data_PCOD9195532
_publ_section_title
;
Structure prediction by ZEFSAII (Michael W. Deem and Ramdas Pophale) SiO2 
 PCOD9195532
Probable space group: C 2/M
;
_chemical_formula_sum "Si O2"
_cell_formula_units_Z 64
_cell_length_a 26.093679
_cell_length_b 25.271075
_cell_length_c 7.717074
_cell_angle_alpha 90.000000
_cell_angle_beta 41.985755
_cell_angle_gamma 90.000000
_cell_volume 3404.102617
_symmetry_space_group_name_H-M "C 2/M"
_symmetry_group_IT_number 12
_symmetry_cell_setting 'monoclinic'
loop_
_space_group_symop_operation_xyz
x,y,z
-x,y,-z
-x,-y,-z
x,-y,z
1/2+x,1/2+y,z
1/2-x,1/2+y,-z
1/2-x,1/2-y,-z
1/2+x,1/2-y,z
loop_
_atom_site_type_symbol
_atom_site_label
_atom_site_fract_x
_atom_site_fract_y
_atom_site_fract_z
Si Si1 0.700886 0.859051 0.971065
Si Si2 0.939716 0.296067 0.022667
Si Si3 0.860411 0.191313 0.160895
Si Si4 0.585445 0.385689 0.272906
Si Si5 0.359647 0.307379 0.569769
Si Si6 0.937514 0.705971 0.532959
Si Si7 0.701428 0.138329 0.562726
Si Si8 0.746423 0.561807 0.866144
O O1 0.768808 0.815960 0.823842
O O2 0.702345 0.874844 0.765139
O O3 0.621202 0.832688 0.226111
O O4 0.721101 0.906885 0.048849
O O5 0.887356 0.251412 0.064832
O O6 0.880478 0.334883 0.262425
O O7 0.000000 0.268292 0.000000
O O8 0.000726 0.323986 0.743707
O O9 0.770182 0.180528 0.356867
O O10 0.904170 0.152161 0.921472
O O11 0.125293 0.181546 0.670803
O O12 0.500000 0.407696 0.500000
O O13 0.600418 0.349274 0.403764
O O14 0.655012 0.427109 0.090758
O O15 0.388668 0.250028 0.555390
O O16 0.000000 0.734499 0.500000
O O17 0.718502 0.090281 0.391744
O O18 0.762636 0.500000 0.830991
#
# Coordination Sequence:
#
# PCOD9195532 Si02
#       8
#     8   8   8   8   8   8   8   8
#     4  10  22  39  59  83 114 152 191 239 281 341
#     4  12  21  32  53  84 120 157 188 225 271 329
#     4  10  21  35  53  79 122 163 190 216 261 337
#     4  10  21  35  57  88 121 150 185 229 280 335
#     4  10  20  35  54  82 122 164 192 213 264 338
#     4  12  21  33  53  84 121 155 188 229 276 335
#     4  10  22  40  58  82 113 152 192 235 284 336
#     4  10  23  43  64  84 105 143 199 248 294 341
#
# _framework density 18.800844000000001
#
# number of rings (size 3 to 8) (size 9 to 14) (size 15 to 20)
#    0.000    1.500    2.500    3.375    0.000    0.750 
#    0.000    0.000    0.000    3.750    0.000    7.000 
#    0.000    0.000    0.000    0.000    0.000    0.000 
#
# Total GULP energy -178525.962856 kJ/mol
# GULP energy per Si atom -5578.936339 kJ/mol
# Density = 1.875805 g / cm^3
# Si number density = 18.800844 Si / 1000 Ang^3
#
#
#
# Elastic Constant Matrix: (Units=GPa)
#
#
# Indices 1 2 3 4 5 6 
#
# 1 92.6162 44.7418 53.6240 0.0000 -7.3930 0.0000
# 2 44.7418 91.6276 60.2621 0.0000 -5.6278 0.0000
# 3 53.6240 60.2621 146.1012 0.0000 -8.5903 0.0000
# 4 0.0000 0.0000 0.0000 10.6573 0.0000 3.9829
# 5 -7.3930 -5.6278 -8.5903 0.0000 27.8982 0.0000
# 6 0.0000 0.0000 0.0000 3.9829 0.0000 11.3175
#
#
#
# Elastic Compliance Matrix: (Units=1/GPa)
#
#
# Indices 1 2 3 4 5 6 
#
# 1 0.015429 -0.005165 -0.003415 0.000000 0.001995 0.000000
# 2 -0.005165 0.016741 -0.004982 0.000000 0.000474 0.000000
# 3 -0.003415 -0.004982 0.010226 0.000000 0.001239 0.000000
# 4 0.000000 0.000000 0.000000 0.108043 0.000000 -0.038023
# 5 0.001995 0.000474 0.001239 0.000000 0.036850 0.000000
# 6 0.000000 0.000000 0.000000 -0.038023 0.000000 0.101740
#
#
# Mechanical properties :
#
#
# Convention : Reuss Voigt Hill
#
# Bulk Modulus (GPa) = 65.47923 71.95563 68.71743
# Shear Modulus (GPa) = 15.56448 21.42240 18.49344
#
# Velocity S-wave (km/s) = 2.88038 3.37922 3.13972
# Velocity P-wave (km/s) = 6.77979 7.31991 7.05502
#
# Compressibility (1/GPa) = 0.01527202
#
# Stress axis : x y z
#
# Youngs Moduli (GPa) = 64.81208 59.73196 97.79390
#
# Poissons Ratio (x) = 0.30854 0.33398
# Poissons Ratio (y) = 0.33478 0.48716
# Poissons Ratio (z) = 0.22134 0.29756
#
# Static dielectric constant tensor:
#      x y z
#    x 1.733510 0.000000 0.052070 
#    y 0.000000 1.592220 0.000000 
#    z 0.052070 0.000000 1.700800 
# 
# From -- ./inp_files/113619.got.cif
#   From: 2010.05.17/outbox.cif.g08.bks.cpg/sg12_57_cif.got.tgz:113619.got - 2010.06.03 13:09:07.
