data_PCOD9195217
_publ_section_title
;
Structure prediction by ZEFSAII (Michael W. Deem and Ramdas Pophale) SiO2 
 PCOD9195217
Probable space group: C 2/M
;
_chemical_formula_sum "Si O2"
_cell_formula_units_Z 64
_cell_length_a 17.966781
_cell_length_b 22.405230
_cell_length_c 9.276896
_cell_angle_alpha 90.000000
_cell_angle_beta 102.730517
_cell_angle_gamma 90.000000
_cell_volume 3642.611273
_symmetry_space_group_name_H-M "C 2/M"
_symmetry_group_IT_number 12
_symmetry_cell_setting 'monoclinic'
loop_
_space_group_symop_operation_xyz
x,y,z
-x,y,-z
-x,-y,-z
x,-y,z
1/2+x,1/2+y,z
1/2-x,1/2+y,-z
1/2-x,1/2-y,-z
1/2+x,1/2-y,z
loop_
_atom_site_type_symbol
_atom_site_label
_atom_site_fract_x
_atom_site_fract_y
_atom_site_fract_z
Si Si1 0.871232 0.931481 0.801946
Si Si2 0.139705 0.935393 0.861105
Si Si3 0.293804 0.685946 0.854481
Si Si4 0.416657 0.208226 0.889856
Si Si5 0.504649 0.373242 0.671145
Si Si6 0.730345 0.859072 0.127798
Si Si7 0.552662 0.244648 0.404527
Si Si8 0.705763 0.270603 0.622620
O O1 0.813668 0.874502 0.774078
O O2 0.944528 0.911159 0.740849
O O3 0.848576 0.000000 0.751610
O O4 0.883065 0.933847 0.980161
O O5 0.088895 0.886503 0.762325
O O6 0.229322 0.923013 0.873365
O O7 0.118514 0.000000 0.793611
O O8 0.366867 0.730573 0.888967
O O9 0.224755 0.720038 0.747799
O O10 0.268972 0.673014 0.006358
O O11 0.359477 0.155487 0.916925
O O12 0.424971 0.204460 0.720272
O O13 0.500000 0.209528 0.000000
O O14 0.500000 0.388279 0.500000
O O15 0.486963 0.303235 0.679545
O O16 0.760856 0.829535 0.288735
O O17 0.500000 0.213408 0.500000
O O18 0.620678 0.272136 0.528992
O O19 0.750000 0.250000 0.500000
#
# Coordination Sequence:
#
# PCOD9195217 Si02
#       8
#     8   8   8   8   8   8   8   8
#     4  10  20  35  52  76 105 141 188 222 258 309
#     4  10  22  37  57  77 104 144 184 221 261 316
#     4  10  21  34  54  76 103 147 176 222 268 315
#     4  11  22  34  52  79 105 134 178 220 269 321
#     4  11  21  34  49  76 111 146 177 214 262 310
#     4  10  21  36  55  76 105 140 176 226 265 316
#     4  11  23  32  50  77 107 145 172 215 260 320
#     4  11  18  35  51  73 106 140 181 210 264 315
#
# _framework density 17.569814000000001
#
# number of rings (size 3 to 8) (size 9 to 14) (size 15 to 20)
#    0.000    1.500    3.750    3.750    7.000    2.000 
#    0.000    0.000    0.000    0.375    0.000    0.000 
#    0.000    1.000    0.000    0.000    0.000    0.000 
#
# Total GULP energy -178187.395637 kJ/mol
# GULP energy per Si atom -5568.356114 kJ/mol
# Density = 1.752982 g / cm^3
# Si number density = 17.569814 Si / 1000 Ang^3
#
#
#
# Elastic Constant Matrix: (Units=GPa)
#
#
# Indices 1 2 3 4 5 6 
#
# 1 87.3627 17.0700 22.8014 0.0000 -10.7749 0.0000
# 2 17.0700 45.7024 0.1647 0.0000 -2.9458 0.0000
# 3 22.8014 0.1647 59.5652 0.0000 -12.2455 0.0000
# 4 0.0000 0.0000 0.0000 13.1228 0.0000 2.3610
# 5 -10.7749 -2.9458 -12.2455 0.0000 34.6081 0.0000
# 6 0.0000 0.0000 0.0000 2.3610 0.0000 14.8253
#
#
#
# Elastic Compliance Matrix: (Units=1/GPa)
#
#
# Indices 1 2 3 4 5 6 
#
# 1 0.013982 -0.005063 -0.004887 0.000000 0.002193 0.000000
# 2 -0.005063 0.023842 0.002120 0.000000 0.001203 0.000000
# 3 -0.004887 0.002120 0.019819 0.000000 0.005672 0.000000
# 4 0.000000 0.000000 0.000000 0.078451 0.000000 -0.012494
# 5 0.002193 0.001203 0.005672 0.000000 0.031687 0.000000
# 6 0.000000 0.000000 0.000000 -0.012494 0.000000 0.069442
#
#
# Mechanical properties :
#
#
# Convention : Reuss Voigt Hill
#
# Bulk Modulus (GPa) = 23.82047 30.30027 27.06037
# Shear Modulus (GPa) = 18.73509 22.68418 20.70963
#
# Velocity S-wave (km/s) = 3.26900 3.59707 3.43695
# Velocity P-wave (km/s) = 5.27594 5.87665 5.58438
#
# Compressibility (1/GPa) = 0.04198070
#
# Stress axis : x y z
#
# Youngs Moduli (GPa) = 71.52093 41.94318 50.45575
#
# Poissons Ratio (x) = 0.21237 0.24660
# Poissons Ratio (y) = 0.36213 -0.10695
# Poissons Ratio (z) = 0.34956 -0.08890
#
# Static dielectric constant tensor:
#      x y z
#    x 1.397620 0.000000 -0.273480 
#    y 0.000000 1.322370 0.000000 
#    z -0.273480 0.000000 1.333850 
# 
# From -- ./inp_files/78832.got.cif
#   From: 2010.05.17/outbox.cif.g08.bks.cpg/sg12_40_cif.got.tgz:78832.got - 2010.06.03 13:09:07.
