data_PCOD9195567
_publ_section_title
;
Structure prediction by ZEFSAII (Michael W. Deem and Ramdas Pophale) SiO2 
 PCOD9195567
Probable space group: C 2/M
;
_chemical_formula_sum "Si O2"
_cell_formula_units_Z 56
_cell_length_a 20.205237
_cell_length_b 7.524818
_cell_length_c 33.343617
_cell_angle_alpha 90.000000
_cell_angle_beta 146.420320
_cell_angle_gamma 90.000000
_cell_volume 2803.969391
_symmetry_space_group_name_H-M "C 2/M"
_symmetry_group_IT_number 12
_symmetry_cell_setting 'monoclinic'
loop_
_space_group_symop_operation_xyz
x,y,z
-x,y,-z
-x,-y,-z
x,-y,z
1/2+x,1/2+y,z
1/2-x,1/2+y,-z
1/2-x,1/2-y,-z
1/2+x,1/2-y,z
loop_
_atom_site_type_symbol
_atom_site_label
_atom_site_fract_x
_atom_site_fract_y
_atom_site_fract_z
Si Si1 0.845138 0.716096 0.689031
Si Si2 0.640264 0.288871 0.915591
Si Si3 0.869626 0.291396 0.791159
Si Si4 0.709875 0.705951 0.545862
Si Si5 0.430067 0.283706 0.598978
Si Si6 0.121650 0.210176 0.817155
Si Si7 0.686242 0.282323 0.763619
O O1 0.841571 0.500000 0.687351
O O2 0.834575 0.780993 0.729474
O O3 0.747012 0.781996 0.607698
O O4 0.978225 0.766919 0.741597
O O5 0.628590 0.500000 0.906329
O O6 0.512293 0.224333 0.867091
O O7 0.656930 0.216448 0.878665
O O8 0.750000 0.250000 0.000000
O O9 0.840419 0.500000 0.774599
O O10 0.795332 0.219669 0.791096
O O11 0.678689 0.500000 0.536970
O O12 0.608563 0.779293 0.464934
O O13 0.830574 0.716298 0.579938
O O14 0.422727 0.500000 0.595803
O O15 0.561661 0.232731 0.679381
O O16 0.182227 0.282010 0.807487
O O17 0.147175 0.000000 0.830844
O O18 0.688232 0.500000 0.766319
#
# Coordination Sequence:
#
# PCOD9195567 Si02
#       7
#     8   8   8   8   8   8   8
#     4   9  16  27  43  66  94 123 157 196 236 275
#     4  10  20  35  55  76  96 119 150 187 227 274
#     4   9  18  32  50  70  96 127 154 187 232 278
#     4   9  16  25  39  64  93 121 158 200 238 271
#     4   9  16  26  42  63  90 124 160 198 234 269
#     4   9  17  30  50  72  91 119 159 193 221 267
#     4   9  16  29  48  70  94 123 160 195 229 271
#
# _framework density 19.971686999999999
#
# number of rings (size 3 to 8) (size 9 to 14) (size 15 to 20)
#    0.000    2.857    1.429    0.429    0.000    0.571 
#    0.000    2.857    0.000    8.571    0.000    0.000 
#    0.000    9.143    0.000    0.000    0.000    0.000 
#
# Total GULP energy -156075.702169 kJ/mol
# GULP energy per Si atom -5574.132220 kJ/mol
# Density = 1.992623 g / cm^3
# Si number density = 19.971687 Si / 1000 Ang^3
#
#
#
# Elastic Constant Matrix: (Units=GPa)
#
#
# Indices 1 2 3 4 5 6 
#
# 1 158.0046 -0.1752 67.4326 -0.0001 -17.2926 0.0001
# 2 -0.1752 45.4849 -10.0856 -0.0005 -2.5759 -0.0003
# 3 67.4326 -10.0856 124.6645 -0.0003 -25.1218 0.0004
# 4 -0.0001 -0.0005 -0.0003 9.6616 0.0001 4.7063
# 5 -17.2926 -2.5759 -25.1218 0.0001 19.1233 -0.0001
# 6 0.0001 -0.0003 0.0004 4.7063 -0.0001 9.9414
#
#
#
# Elastic Compliance Matrix: (Units=1/GPa)
#
#
# Indices 1 2 3 4 5 6 
#
# 1 0.008321 -0.000784 -0.004175 0.000000 0.001935 0.000000
# 2 -0.000784 0.023244 0.003798 0.000001 0.007412 0.000000
# 3 -0.004175 0.003798 0.013504 0.000001 0.014477 -0.000001
# 4 0.000000 0.000001 0.000001 0.134523 0.000000 -0.063683
# 5 0.001935 0.007412 0.014477 0.000000 0.074058 0.000000
# 6 0.000000 0.000000 -0.000001 -0.063683 0.000000 0.130737
#
#
# Mechanical properties :
#
#
# Convention : Reuss Voigt Hill
#
# Bulk Modulus (GPa) = 23.39247 49.16639 36.27943
# Shear Modulus (GPa) = 12.47009 25.81074 19.14042
#
# Velocity S-wave (km/s) = 2.50149 3.59885 3.09913
# Velocity P-wave (km/s) = 4.48124 6.47615 5.56875
#
# Compressibility (1/GPa) = 0.04274880
#
# Stress axis : x y z
#
# Youngs Moduli (GPa) = 120.17075 43.02146 74.05082
#
# Poissons Ratio (x) = 0.03373 0.30914
# Poissons Ratio (y) = 0.09422 -0.28125
# Poissons Ratio (z) = 0.50167 -0.16340
#
# Static dielectric constant tensor:
#      x y z
#    x 1.707040 0.000000 -0.062440 
#    y 0.000000 1.706550 0.000000 
#    z -0.062440 0.000000 1.676810 
# 
# From -- ./inp_files/281625.got.cif
#   From: 2010.05.17/outbox.cif.g08.bks.cpg/sg12_141_cif.got.tgz:281625.got - 2010.06.03 13:09:07.
