data_PCOD9195111
_publ_section_title
;
Structure prediction by ZEFSAII (Michael W. Deem and Ramdas Pophale) SiO2 
 PCOD9195111
Probable space group: C 2/M
;
_chemical_formula_sum "Si O2"
_cell_formula_units_Z 56
_cell_length_a 9.886581
_cell_length_b 27.935475
_cell_length_c 12.016377
_cell_angle_alpha 90.000000
_cell_angle_beta 63.021347
_cell_angle_gamma 90.000000
_cell_volume 2957.597195
_symmetry_space_group_name_H-M "C 2/M"
_symmetry_group_IT_number 12
_symmetry_cell_setting 'monoclinic'
loop_
_space_group_symop_operation_xyz
x,y,z
-x,y,-z
-x,-y,-z
x,-y,z
1/2+x,1/2+y,z
1/2-x,1/2+y,-z
1/2-x,1/2-y,-z
1/2+x,1/2-y,z
loop_
_atom_site_type_symbol
_atom_site_label
_atom_site_fract_x
_atom_site_fract_y
_atom_site_fract_z
Si Si1 0.918308 0.344583 0.244266
Si Si2 0.793723 0.397822 0.835495
Si Si3 0.322169 0.000000 0.087579
Si Si4 0.068417 0.842515 0.761690
Si Si5 0.323114 0.500000 0.099833
Si Si6 0.739519 0.396030 0.122629
Si Si7 0.574308 0.754717 0.090879
Si Si8 0.665657 0.700811 0.495919
O O1 0.847796 0.361724 0.153465
O O2 0.777836 0.327666 0.371642
O O3 0.029684 0.385605 0.250427
O O4 0.027294 0.298916 0.185474
O O5 0.687913 0.361069 0.807998
O O6 0.733917 0.450686 0.824420
O O7 0.772797 0.393227 0.977675
O O8 0.270482 0.050432 0.156289
O O9 0.500000 0.000000 0.000000
O O10 0.254211 0.000000 0.990652
O O11 0.141468 0.829989 0.616364
O O12 0.934020 0.880813 0.798215
O O13 0.989821 0.793954 0.833630
O O14 0.500000 0.500000 0.000000
O O15 0.500000 0.762786 0.000000
O O16 0.750000 0.750000 0.000000
O O17 0.500000 0.709229 0.500000
O O18 0.750000 0.750000 0.500000
#
# Coordination Sequence:
#
# PCOD9195111 Si02
#       8
#     8   8   4   8   4   8   8   8
#     4  12  24  41  64  90 133 171 214 271 312 384
#     4  11  23  38  66 100 128 169 211 264 337 384
#     4  10  20  34  62  93 128 170 208 255 323 398
#     4  12  24  41  63  89 130 169 217 265 314 387
#     4  10  20  38  62  97 138 168 212 261 321 406
#     4  11  21  40  62  96 132 164 207 265 328 389
#     4  12  24  35  56  91 125 157 194 252 325 381
#     4  12  28  48  67  88 125 178 235 263 313 380
#
# _framework density 18.934289
#
# number of rings (size 3 to 8) (size 9 to 14) (size 15 to 20)
#    0.000    0.571    2.857    8.571    2.000    0.000 
#    0.000    0.000    0.000    5.143    0.000    0.000 
#    0.000    0.000    0.000    0.000    0.000    0.000 
#
# Total GULP energy -156468.788880 kJ/mol
# GULP energy per Si atom -5588.171031 kJ/mol
# Density = 1.889119 g / cm^3
# Si number density = 18.934289 Si / 1000 Ang^3
#
#
#
# Elastic Constant Matrix: (Units=GPa)
#
#
# Indices 1 2 3 4 5 6 
#
# 1 153.5981 53.8710 39.5475 0.0000 -17.3741 0.0000
# 2 53.8710 120.6226 59.2564 0.0000 -5.9802 0.0000
# 3 39.5475 59.2564 95.2068 0.0000 -13.3367 0.0000
# 4 0.0000 0.0000 0.0000 6.0448 0.0000 -10.3350
# 5 -17.3741 -5.9802 -13.3367 0.0000 24.9796 0.0000
# 6 0.0000 0.0000 0.0000 -10.3350 0.0000 33.9865
#
#
#
# Elastic Compliance Matrix: (Units=1/GPa)
#
#
# Indices 1 2 3 4 5 6 
#
# 1 0.008333 -0.003038 -0.000930 0.000000 0.004572 0.000000
# 2 -0.003038 0.013082 -0.007282 0.000000 -0.002869 0.000000
# 3 -0.000930 -0.007282 0.016307 0.000000 0.006316 0.000000
# 4 0.000000 0.000000 0.000000 0.344586 0.000000 0.104786
# 5 0.004572 -0.002869 0.006316 0.000000 0.045898 0.000000
# 6 0.000000 0.000000 0.000000 0.104786 0.000000 0.061288
#
#
# Mechanical properties :
#
#
# Convention : Reuss Voigt Hill
#
# Bulk Modulus (GPa) = 65.69727 74.97527 70.33627
# Shear Modulus (GPa) = 9.66991 27.45235 18.56113
#
# Velocity S-wave (km/s) = 2.26234 3.81185 3.13436
# Velocity P-wave (km/s) = 6.44958 7.68487 7.09416
#
# Compressibility (1/GPa) = 0.01522133
#
# Stress axis : x y z
#
# Youngs Moduli (GPa) = 120.01139 76.43907 61.32291
#
# Poissons Ratio (x) = 0.23221 0.05703
# Poissons Ratio (y) = 0.36457 0.44658
# Poissons Ratio (z) = 0.11162 0.55666
#
# Static dielectric constant tensor:
#      x y z
#    x 1.649450 0.000000 -0.004090 
#    y 0.000000 1.745610 0.000000 
#    z -0.004090 0.000000 1.643050 
# 
# From -- ./inp_files/125666.got.cif
#   From: 2010.05.17/outbox.cif.g08.bks.cpg/sg12_63_cif.got.tgz:125666.got - 2010.06.03 13:09:07.
