data_PCOD9195786
_publ_section_title
;
Structure prediction by ZEFSAII (Michael W. Deem and Ramdas Pophale) SiO2 
 PCOD9195786
Probable space group: C 2/M
;
_chemical_formula_sum "Si O2"
_cell_formula_units_Z 56
_cell_length_a 19.276815
_cell_length_b 7.882695
_cell_length_c 25.680789
_cell_angle_alpha 90.000000
_cell_angle_beta 139.221018
_cell_angle_gamma 90.000000
_cell_volume 2548.745985
_symmetry_space_group_name_H-M "C 2/M"
_symmetry_group_IT_number 12
_symmetry_cell_setting 'monoclinic'
loop_
_space_group_symop_operation_xyz
x,y,z
-x,y,-z
-x,-y,-z
x,-y,z
1/2+x,1/2+y,z
1/2-x,1/2+y,-z
1/2-x,1/2-y,-z
1/2+x,1/2-y,z
loop_
_atom_site_type_symbol
_atom_site_label
_atom_site_fract_x
_atom_site_fract_y
_atom_site_fract_z
Si Si1 0.711835 0.705579 0.754355
Si Si2 0.363061 0.195990 0.086212
Si Si3 0.560992 0.697204 0.759092
Si Si4 0.656286 0.292526 0.324875
Si Si5 0.955956 0.801458 0.420880
Si Si6 0.330851 0.202720 0.500044
Si Si7 0.923815 0.798736 0.832921
O O1 0.710033 0.500000 0.752535
O O2 0.644065 0.769065 0.765138
O O3 0.648070 0.769926 0.666822
O O4 0.834386 0.758106 0.824180
O O5 0.394058 0.293137 0.156680
O O6 0.458344 0.223780 0.099084
O O7 0.359890 0.000000 0.098687
O O8 0.250000 0.250000 0.000000
O O9 0.548218 0.500000 0.737884
O O10 0.441786 0.769148 0.694901
O O11 0.655308 0.500000 0.324468
O O12 0.767884 0.239922 0.412084
O O13 0.628078 0.235016 0.250987
O O14 0.000000 0.724178 0.500000
O O15 0.053550 0.785127 0.435584
O O16 0.935171 0.000000 0.418728
O O17 0.250000 0.250000 0.500000
O O18 0.344066 0.000000 0.507030
O O19 0.936367 0.000000 0.836720
#
# Coordination Sequence:
#
# PCOD9195786 Si02
#       7
#     8   8   8   8   8   8   8
#     4  10  20  35  55  80 113 150 186 228 278 328
#     4  11  22  39  63  89 115 141 175 216 264 323
#     4   9  18  35  57  80 110 147 184 223 273 327
#     4   8  16  32  52  72  99 140 184 226 273 325
#     4  10  21  36  53  76 109 148 190 236 283 328
#     4  11  21  33  50  73 103 140 185 234 283 330
#     4  10  20  36  58  82 109 142 181 222 266 320
#
# _framework density 21.971591
#
# number of rings (size 3 to 8) (size 9 to 14) (size 15 to 20)
#    0.000    2.143    0.000    4.714    0.000    3.714 
#    0.000   10.000    0.000    4.286    0.000    0.000 
#    0.000    0.000    0.000    0.000    0.000    0.000 
#
# Total GULP energy -156363.987701 kJ/mol
# GULP energy per Si atom -5584.428132 kJ/mol
# Density = 2.192158 g / cm^3
# Si number density = 21.971591 Si / 1000 Ang^3
#
#
#
# Elastic Constant Matrix: (Units=GPa)
#
#
# Indices 1 2 3 4 5 6 
#
# 1 100.8325 -7.8257 18.4381 0.0000 30.2656 -0.0001
# 2 -7.8257 43.0549 -5.7984 -0.0001 1.8280 -0.0004
# 3 18.4381 -5.7984 83.8754 0.0000 36.6259 0.0000
# 4 0.0000 -0.0001 0.0000 11.2685 0.0000 5.5291
# 5 30.2656 1.8280 36.6259 0.0000 35.6404 0.0000
# 6 -0.0001 -0.0004 0.0000 5.5291 0.0000 23.9727
#
#
#
# Elastic Compliance Matrix: (Units=1/GPa)
#
#
# Indices 1 2 3 4 5 6 
#
# 1 0.014598 0.004021 0.004666 0.000000 -0.017398 0.000000
# 2 0.004021 0.025096 0.005268 0.000000 -0.010115 0.000000
# 3 0.004666 0.005268 0.023781 0.000000 -0.028671 0.000000
# 4 0.000000 0.000000 0.000000 0.100068 0.000000 -0.023080
# 5 -0.017398 -0.010115 -0.028671 0.000000 0.072815 0.000000
# 6 0.000000 0.000000 0.000000 -0.023080 0.000000 0.047037
#
#
# Mechanical properties :
#
#
# Convention : Reuss Voigt Hill
#
# Bulk Modulus (GPa) = 10.94280 26.37676 18.65978
# Shear Modulus (GPa) = 17.48575 29.03955 23.26265
#
# Velocity S-wave (km/s) = 2.82411 3.63944 3.25739
# Velocity P-wave (km/s) = 3.95290 5.44901 4.76010
#
# Compressibility (1/GPa) = 0.09138428
#
# Stress axis : x y z
#
# Youngs Moduli (GPa) = 68.50046 39.84724 42.05099
#
# Poissons Ratio (x) = -0.16021 -0.19622
# Poissons Ratio (y) = -0.27541 -0.22153
# Poissons Ratio (z) = -0.31963 -0.20992
#
# Static dielectric constant tensor:
#      x y z
#    x 1.860090 0.000000 0.024380 
#    y 0.000000 1.794480 0.000000 
#    z 0.024380 0.000000 1.600290 
# 
# From -- ./inp_files/363220.got.cif
#   From: 2010.05.17/outbox.cif.g08.bks.cpg/sg12_182_cif.got.tgz:363220.got - 2010.06.03 13:09:07.
