data_PCOD9195344
_publ_section_title
;
Structure prediction by ZEFSAII (Michael W. Deem and Ramdas Pophale) SiO2 
 PCOD9195344
Probable space group: C 2/M
;
_chemical_formula_sum "Si O2"
_cell_formula_units_Z 56
_cell_length_a 21.129696
_cell_length_b 26.255827
_cell_length_c 11.855613
_cell_angle_alpha 90.000000
_cell_angle_beta 154.956496
_cell_angle_gamma 90.000000
_cell_volume 2784.182411
_symmetry_space_group_name_H-M "C 2/M"
_symmetry_group_IT_number 12
_symmetry_cell_setting 'monoclinic'
loop_
_space_group_symop_operation_xyz
x,y,z
-x,y,-z
-x,-y,-z
x,-y,z
1/2+x,1/2+y,z
1/2-x,1/2+y,-z
1/2-x,1/2-y,-z
1/2+x,1/2-y,z
loop_
_atom_site_type_symbol
_atom_site_label
_atom_site_fract_x
_atom_site_fract_y
_atom_site_fract_z
Si Si1 0.104900 0.136942 0.575251
Si Si2 0.775337 0.809622 0.541674
Si Si3 0.580318 0.059193 0.311374
Si Si4 0.928277 0.190814 0.105983
Si Si5 0.299844 0.097891 0.712084
Si Si6 0.639313 0.848754 0.556078
Si Si7 0.658429 0.211667 0.935398
O O1 0.013940 0.180419 0.361243
O O2 0.000000 0.113373 0.500000
O O3 0.159056 0.097939 0.567508
O O4 0.759275 0.165948 0.144910
O O5 0.750000 0.750000 0.500000
O O6 0.686861 0.843050 0.305517
O O7 0.714566 0.827048 0.563461
O O8 0.948852 0.820628 0.791261
O O9 0.706180 0.068620 0.416969
O O10 0.597630 0.094423 0.449139
O O11 0.570271 0.000000 0.321322
O O12 0.435228 0.078231 0.007252
O O13 0.884542 0.249959 0.032380
O O14 0.777687 0.157475 0.864003
O O15 0.495457 0.814643 0.354999
O O16 0.750000 0.250000 0.000000
#
# Coordination Sequence:
#
# PCOD9195344 Si02
#       7
#     8   8   8   8   8   8   8
#     4  11  22  39  54  82 124 165 202 249 290 355
#     4  10  20  35  53  84 127 166 197 237 312 377
#     4  10  20  39  66  93 117 150 207 275 326 364
#     4  11  23  35  55  83 125 169 202 241 301 372
#     4   9  19  34  59  89 118 151 203 255 305 365
#     4  11  23  38  58  90 123 161 206 254 308 375
#     4  12  23  38  55  85 127 172 212 242 288 362
#
# _framework density 20.113624999999999
#
# number of rings (size 3 to 8) (size 9 to 14) (size 15 to 20)
#    0.000    1.429    4.286    2.143    2.000    0.000 
#    2.571    0.000    0.000   20.571    0.000    7.000 
#    0.000    0.000    0.000    0.000    0.000    0.000 
#
# Total GULP energy -156134.334625 kJ/mol
# GULP energy per Si atom -5576.226237 kJ/mol
# Density = 2.006785 g / cm^3
# Si number density = 20.113625 Si / 1000 Ang^3
#
#
#
# Elastic Constant Matrix: (Units=GPa)
#
#
# Indices 1 2 3 4 5 6 
#
# 1 68.3148 7.0433 18.7569 0.0000 22.7055 0.0000
# 2 7.0433 111.2768 29.5996 0.0000 2.6879 0.0000
# 3 18.7569 29.5996 104.7552 0.0000 12.4640 0.0000
# 4 0.0000 0.0000 0.0000 13.6685 0.0000 1.4687
# 5 22.7055 2.6879 12.4640 0.0000 29.2614 0.0000
# 6 0.0000 0.0000 0.0000 1.4687 0.0000 15.1752
#
#
#
# Elastic Compliance Matrix: (Units=1/GPa)
#
#
# Indices 1 2 3 4 5 6 
#
# 1 0.020075 -0.000460 -0.001702 0.000000 -0.014810 0.000000
# 2 -0.000460 0.009730 -0.002742 0.000000 0.000631 0.000000
# 3 -0.001702 -0.002742 0.010996 0.000000 -0.003111 0.000000
# 4 0.000000 0.000000 0.000000 0.073930 0.000000 -0.007155
# 5 -0.014810 0.000631 -0.003111 0.000000 0.046934 0.000000
# 6 0.000000 0.000000 0.000000 -0.007155 0.000000 0.066590
#
#
# Mechanical properties :
#
#
# Convention : Reuss Voigt Hill
#
# Bulk Modulus (GPa) = 32.26643 43.90516 38.08580
# Shear Modulus (GPa) = 20.12934 26.88416 23.50675
#
# Velocity S-wave (km/s) = 3.16694 3.65994 3.42233
# Velocity P-wave (km/s) = 5.42675 6.30366 5.88157
#
# Compressibility (1/GPa) = 0.03099196
#
# Stress axis : x y z
#
# Youngs Moduli (GPa) = 49.81233 102.77665 90.94381
#
# Poissons Ratio (x) = 0.04728 0.15483
# Poissons Ratio (y) = 0.02292 0.24937
# Poissons Ratio (z) = 0.08480 0.28181
#
# Static dielectric constant tensor:
#      x y z
#    x 1.840130 0.000000 -0.012530 
#    y 0.000000 1.685420 0.000000 
#    z -0.012530 0.000000 1.802820 
# 
# From -- ./inp_files/242311.got.cif
#   From: 2010.05.17/outbox.cif.g08.bks.cpg/sg12_122_cif.got.tgz:242311.got - 2010.06.03 13:09:07.
