data_PCOD9195937
_publ_section_title
;
Structure prediction by ZEFSAII (Michael W. Deem and Ramdas Pophale) SiO2 
 PCOD9195937
Probable space group: C 2/M
;
_chemical_formula_sum "Si O2"
_cell_formula_units_Z 58
_cell_length_a 15.081818
_cell_length_b 9.027538
_cell_length_c 23.562399
_cell_angle_alpha 90.000000
_cell_angle_beta 97.473798
_cell_angle_gamma 90.000000
_cell_volume 3180.806088
_symmetry_space_group_name_H-M "C 2/M"
_symmetry_group_IT_number 12
_symmetry_cell_setting 'monoclinic'
loop_
_space_group_symop_operation_xyz
x,y,z
-x,y,-z
-x,-y,-z
x,-y,z
1/2+x,1/2+y,z
1/2-x,1/2+y,-z
1/2-x,1/2-y,-z
1/2+x,1/2-y,z
loop_
_atom_site_type_symbol
_atom_site_label
_atom_site_fract_x
_atom_site_fract_y
_atom_site_fract_z
Si Si1 0.000000 0.500000 0.000000
Si Si2 0.711439 0.322836 0.629780
Si Si3 0.808510 0.177583 0.239336
Si Si4 0.318256 0.164236 0.964716
Si Si5 0.545848 0.178455 0.562432
Si Si6 0.507575 0.677673 0.225793
Si Si7 0.084113 0.678448 0.345504
Si Si8 0.654858 0.676937 0.152517
O O1 0.918578 0.627199 0.995618
O O2 0.703862 0.500000 0.622641
O O3 0.687404 0.287047 0.693343
O O4 0.642999 0.244690 0.582101
O O5 0.814627 0.279821 0.630473
O O6 0.729572 0.263880 0.202143
O O7 0.903282 0.216246 0.219007
O O8 0.793453 0.000000 0.233390
O O9 0.329599 0.250004 0.906754
O O10 0.279146 0.000000 0.949698
O O11 0.250000 0.250000 0.000000
O O12 0.500000 0.226263 0.500000
O O13 0.483466 0.222328 0.610309
O O14 0.551525 0.000000 0.562189
O O15 0.513976 0.500000 0.232829
O O16 0.555090 0.751315 0.283731
O O17 0.559921 0.719406 0.173071
O O18 0.081866 0.500000 0.339456
O O19 0.659662 0.500000 0.148641
#
# Coordination Sequence:
#
# PCOD9195937 Si02
#       8
#     2   8   8   8   8   8   8   8
#     4   8  24  44  74 102 132 176 230 268 328 382
#     4  10  20  35  57  81 110 147 194 240 296 367
#     4  10  20  36  57  86 121 163 198 245 313 369
#     4  10  22  45  71  96 134 174 222 269 318 377
#     4  10  22  38  55  78 109 146 194 248 302 364
#     4  10  21  36  55  84 124 156 196 244 302 367
#     4  10  20  35  56  78 110 152 191 239 305 365
#     4  11  23  38  60  97 131 160 206 256 305 374
#
# _framework density 18.234369999999998
#
# number of rings (size 3 to 8) (size 9 to 14) (size 15 to 20)
#    0.414    1.517    2.759    0.828    0.000    4.138 
#    0.000    2.759    0.000    0.000    0.000    0.000 
#    0.000    0.000    0.000    0.000    0.000    0.000 
#
# Total GULP energy -161506.967359 kJ/mol
# GULP energy per Si atom -5569.205771 kJ/mol
# Density = 1.819287 g / cm^3
# Si number density = 18.234370 Si / 1000 Ang^3
#
#
#
# Elastic Constant Matrix: (Units=GPa)
#
#
# Indices 1 2 3 4 5 6 
#
# 1 74.2937 14.9784 -8.2228 0.0000 4.0372 0.0000
# 2 14.9784 24.7514 8.8918 0.0000 0.0354 0.0000
# 3 -8.2228 8.8918 32.9386 0.0000 -5.4235 0.0000
# 4 0.0000 0.0000 0.0000 28.2620 0.0000 4.3068
# 5 4.0372 0.0354 -5.4235 0.0000 20.2757 0.0000
# 6 0.0000 0.0000 0.0000 4.3068 0.0000 29.7306
#
#
#
# Elastic Compliance Matrix: (Units=1/GPa)
#
#
# Indices 1 2 3 4 5 6 
#
# 1 0.016982 -0.012976 0.007521 0.000000 -0.001347 0.000000
# 2 -0.012976 0.054890 -0.018460 0.000000 -0.002450 0.000000
# 3 0.007521 -0.018460 0.038683 0.000000 0.008882 0.000000
# 4 0.000000 0.000000 0.000000 0.036182 0.000000 -0.005241
# 5 -0.001347 -0.002450 0.008882 0.000000 0.051969 0.000000
# 6 0.000000 0.000000 0.000000 -0.005241 0.000000 0.034395
#
#
# Mechanical properties :
#
#
# Convention : Reuss Voigt Hill
#
# Bulk Modulus (GPa) = 15.94337 18.14204 17.04271
# Shear Modulus (GPa) = 16.56511 23.40940 19.98725
#
# Velocity S-wave (km/s) = 3.01733 3.58691 3.31438
# Velocity P-wave (km/s) = 4.57183 5.20822 4.90036
#
# Compressibility (1/GPa) = 0.06272201
#
# Stress axis : x y z
#
# Youngs Moduli (GPa) = 58.88636 18.21837 25.85126
#
# Poissons Ratio (x) = 0.23641 -0.19442
# Poissons Ratio (y) = 0.76413 0.47722
# Poissons Ratio (z) = -0.44286 0.33632
#
# Static dielectric constant tensor:
#      x y z
#    x 1.635080 0.000000 -0.019070 
#    y 0.000000 1.617180 0.000000 
#    z -0.019070 0.000000 1.604930 
# 
# From -- ./inp_files/338119.got.cif
#   From: 2010.05.17/outbox.cif.g08.bks.cpg/sg12_170_cif.got.tgz:338119.got - 2010.06.03 13:09:07.
