data_PCOD9195692
_publ_section_title
;
Structure prediction by ZEFSAII (Michael W. Deem and Ramdas Pophale) SiO2 
 PCOD9195692
Probable space group: C 2/M
;
_chemical_formula_sum "Si O2"
_cell_formula_units_Z 56
_cell_length_a 30.088506
_cell_length_b 22.264780
_cell_length_c 8.694950
_cell_angle_alpha 90.000000
_cell_angle_beta 29.895345
_cell_angle_gamma 90.000000
_cell_volume 2903.215244
_symmetry_space_group_name_H-M "C 2/M"
_symmetry_group_IT_number 12
_symmetry_cell_setting 'monoclinic'
loop_
_space_group_symop_operation_xyz
x,y,z
-x,y,-z
-x,-y,-z
x,-y,z
1/2+x,1/2+y,z
1/2-x,1/2+y,-z
1/2-x,1/2-y,-z
1/2+x,1/2-y,z
loop_
_atom_site_type_symbol
_atom_site_label
_atom_site_fract_x
_atom_site_fract_y
_atom_site_fract_z
Si Si1 0.094455 0.719776 0.283176
Si Si2 0.400526 0.000000 0.234115
Si Si3 0.712500 0.883744 0.427121
Si Si4 0.905545 0.719776 0.349905
Si Si5 0.287500 0.883744 0.202124
Si Si6 0.406923 0.354010 0.213012
Si Si7 0.099474 0.500000 0.137273
Si Si8 0.406923 0.645990 0.845453
O O1 0.090354 0.722393 0.478939
O O2 0.105234 0.786660 0.183973
O O3 0.000000 0.696487 0.500000
O O4 0.171809 0.675665 0.995865
O O5 0.345908 0.940831 0.445679
O O6 0.500000 0.000000 0.000000
O O7 0.404574 0.000000 0.036279
O O8 0.671809 0.824335 0.473281
O O9 0.705797 0.877472 0.632609
O O10 0.817042 0.889729 0.075889
O O11 0.894766 0.786660 0.315377
O O12 0.000000 0.696487 0.000000
O O13 0.182958 0.889729 0.478142
O O14 0.345908 0.940831 0.978873
O O15 0.500000 0.377956 0.000000
O O16 0.414513 0.349960 0.006462
O O17 0.000000 0.500000 0.500000
O O18 0.500000 0.622044 0.500000
#
# Coordination Sequence:
#
# PCOD9195692 Si02
#       8
#     8   4   8   8   8   8   4   8
#     4  11  21  33  53  81 112 143 177 219 267 320
#     4  10  22  40  59  80 106 138 177 218 263 314
#     4  10  21  37  56  78 107 143 180 220 267 316
#     4  11  21  33  53  81 112 143 177 219 267 320
#     4  10  21  37  56  78 107 143 180 220 267 316
#     4  10  20  35  55  79 109 142 177 219 266 317
#     4  10  22  40  59  80 106 138 177 218 263 314
#     4  10  20  35  55  79 109 142 177 219 266 317
#
# _framework density 19.288958999999998
#
# number of rings (size 3 to 8) (size 9 to 14) (size 15 to 20)
#    0.000    1.714    0.000    6.857    0.000    9.143 
#    0.000    0.714    0.000    0.000    0.000    0.000 
#    0.000    0.000    0.000    0.000    0.000    0.000 
#
# Total GULP energy -156458.079449 kJ/mol
# GULP energy per Si atom -5587.788552 kJ/mol
# Density = 1.924506 g / cm^3
# Si number density = 19.288959 Si / 1000 Ang^3
#
#
#
# Elastic Constant Matrix: (Units=GPa)
#
#
# Indices 1 2 3 4 5 6 
#
# 1 89.6241 26.7570 56.1190 0.0000 -26.7690 0.0000
# 2 26.7570 41.8657 45.6815 0.0000 -14.1211 0.0000
# 3 56.1190 45.6815 163.2619 0.0000 -28.1783 0.0000
# 4 0.0000 0.0000 0.0000 28.5708 0.0000 -10.5731
# 5 -26.7690 -14.1211 -28.1783 0.0000 35.7414 0.0000
# 6 0.0000 0.0000 0.0000 -10.5731 0.0000 14.4012
#
#
#
# Elastic Compliance Matrix: (Units=1/GPa)
#
#
# Indices 1 2 3 4 5 6 
#
# 1 0.017005 -0.004648 -0.003083 0.000000 0.008469 0.000000
# 2 -0.004648 0.037210 -0.007961 0.000000 0.004944 0.000000
# 3 -0.003083 -0.007961 0.009805 0.000000 0.002276 0.000000
# 4 0.000000 0.000000 0.000000 0.048058 0.000000 0.035283
# 5 0.008469 0.004944 0.002276 0.000000 0.038070 0.000000
# 6 0.000000 0.000000 0.000000 0.035283 0.000000 0.095343
#
#
# Mechanical properties :
#
#
# Convention : Reuss Voigt Hill
#
# Bulk Modulus (GPa) = 30.63909 61.31850 45.97880
# Shear Modulus (GPa) = 17.37597 26.82230 22.09914
#
# Velocity S-wave (km/s) = 3.00463 3.73306 3.38847
# Velocity P-wave (km/s) = 5.28733 7.10207 6.26080
#
# Compressibility (1/GPa) = 0.03263804
#
# Stress axis : x y z
#
# Youngs Moduli (GPa) = 58.80463 26.87434 101.98681
#
# Poissons Ratio (x) = 0.12490 0.31444
# Poissons Ratio (y) = 0.27330 0.81188
# Poissons Ratio (z) = 0.18131 0.21394
#
# Static dielectric constant tensor:
#      x y z
#    x 1.661100 0.000000 -0.021930 
#    y 0.000000 1.642900 0.000000 
#    z -0.021930 0.000000 1.690480 
# 
# From -- ./inp_files/113366.got.cif
#   From: 2010.05.17/outbox.cif.g08.bks.cpg/sg12_57_cif.got.tgz:113366.got - 2010.06.03 13:09:07.
