data_PCOD9195738
_publ_section_title
;
Structure prediction by ZEFSAII (Michael W. Deem and Ramdas Pophale) SiO2 
 PCOD9195738
Probable space group: C 2/M
;
_chemical_formula_sum "Si O2"
_cell_formula_units_Z 40
_cell_length_a 27.805644
_cell_length_b 9.922788
_cell_length_c 26.457760
_cell_angle_alpha 90.000000
_cell_angle_beta 162.087190
_cell_angle_gamma 90.000000
_cell_volume 2245.240248
_symmetry_space_group_name_H-M "C 2/M"
_symmetry_group_IT_number 12
_symmetry_cell_setting 'monoclinic'
loop_
_space_group_symop_operation_xyz
x,y,z
-x,y,-z
-x,-y,-z
x,-y,z
1/2+x,1/2+y,z
1/2-x,1/2+y,-z
1/2-x,1/2-y,-z
1/2+x,1/2-y,z
loop_
_atom_site_type_symbol
_atom_site_label
_atom_site_fract_x
_atom_site_fract_y
_atom_site_fract_z
Si Si1 0.189895 0.500000 0.632613
Si Si2 0.687876 0.212352 0.828844
Si Si3 0.313644 0.500000 0.033942
Si Si4 0.185911 0.500000 0.019741
Si Si5 0.187880 0.287648 0.546912
Si Si6 0.814090 0.500000 0.647921
Si Si7 0.813647 0.000000 0.593349
Si Si8 0.689893 0.000000 0.747175
O O1 0.234631 0.370039 0.644007
O O2 0.248736 0.500000 0.748736
O O3 0.000001 0.500000 0.444725
O O4 0.499998 0.207553 0.645396
O O5 0.734628 0.129962 0.825253
O O6 0.745517 0.364580 0.887353
O O7 0.759368 0.129499 0.947333
O O8 0.499999 0.500000 0.225776
O O9 0.236090 0.500000 0.011159
O O10 0.000001 0.500000 0.837597
O O11 0.245523 0.135421 0.603687
O O12 0.259370 0.370502 0.571405
O O13 0.763908 0.500000 0.538977
#
# Coordination Sequence:
#
# PCOD9195738 Si02
#       8
#     4   8   4   4   8   4   4   4
#     4   8  16  34  60  83 101 128 171 220 264 311
#     4  10  20  35  55  80 108 138 177 218 259 309
#     4  11  21  35  54  77 108 144 180 213 256 311
#     4  12  23  35  51  75 110 145 178 216 262 309
#     4  10  20  35  55  80 108 138 177 218 259 309
#     4  12  23  35  51  75 110 145 178 216 262 309
#     4  11  21  35  54  77 108 144 180 213 256 311
#     4   8  16  34  60  83 101 128 171 220 264 311
#
# _framework density 17.815465
#
# number of rings (size 3 to 8) (size 9 to 14) (size 15 to 20)
#    0.000    1.800    0.000    7.200    0.000    0.000 
#    0.000    1.000    0.000   27.600    0.000    0.000 
#    0.000    0.000    0.000    0.000    0.000    0.000 
#
# Total GULP energy -111734.288840 kJ/mol
# GULP energy per Si atom -5586.714442 kJ/mol
# Density = 1.777492 g / cm^3
# Si number density = 17.815465 Si / 1000 Ang^3
#
#
#
# Elastic Constant Matrix: (Units=GPa)
#
#
# Indices 1 2 3 4 5 6 
#
# 1 101.4556 47.3716 -2.1937 0.0000 -19.7446 -0.0009
# 2 47.3716 156.9930 5.1754 -0.0009 -12.0043 -0.0008
# 3 -2.1937 5.1754 42.1371 -0.0038 2.8696 0.0004
# 4 0.0000 -0.0009 -0.0038 31.0352 -0.0009 11.1214
# 5 -19.7446 -12.0043 2.8696 -0.0009 23.5568 -0.0006
# 6 -0.0009 -0.0008 0.0004 11.1214 -0.0006 -8.0443
#
#
#
# Elastic Compliance Matrix: (Units=1/GPa)
#
#
# Indices 1 2 3 4 5 6 
#
# 1 0.013222 -0.003290 0.000456 0.000001 0.009350 -0.000001
# 2 -0.003290 0.007493 -0.001174 0.000000 0.001204 0.000000
# 3 0.000456 -0.001174 0.024115 0.000002 -0.003154 0.000004
# 4 0.000001 0.000000 0.000002 0.021547 0.000002 0.029789
# 5 0.009350 0.001204 -0.003154 0.000002 0.051286 -0.000002
# 6 -0.000001 0.000000 0.000004 0.029789 -0.000002 -0.083128
#
#
# Mechanical properties :
#
#
# Convention : Reuss Voigt Hill
#
# Bulk Modulus (GPa) = 27.16317 44.58804 35.87561
# Shear Modulus (GPa) = 91.20594 25.99169 58.59881
#
# Velocity S-wave (km/s) = 7.16282 3.82375 5.74139
# Velocity P-wave (km/s) = 9.14811 6.67659 8.00827
#
# Compressibility (1/GPa) = 0.03681455
#
# Stress axis : x y z
#
# Youngs Moduli (GPa) = 75.63069 133.45567 41.46854
#
# Poissons Ratio (x) = 0.43903 -0.01890
# Poissons Ratio (y) = 0.24881 0.04867
# Poissons Ratio (z) = -0.03446 0.15662
#
# Static dielectric constant tensor:
#      x y z
#    x 1.591990 0.000000 0.003040 
#    y 0.000000 1.600150 0.000000 
#    z 0.003040 0.000000 1.602690 
# 
# From -- ./inp_files/368958.got.cif
#   From: 2010.05.17/outbox.cif.g08.bks.cpg/sg12_185_cif.got.tgz:368958.got - 2010.06.03 13:09:07.
