data_PCOD9195270
_publ_section_title
;
Structure prediction by ZEFSAII (Michael W. Deem and Ramdas Pophale) SiO2 
 PCOD9195270
Probable space group: C 2/M
;
_chemical_formula_sum "Si O2"
_cell_formula_units_Z 40
_cell_length_a 18.784627
_cell_length_b 20.719446
_cell_length_c 5.249844
_cell_angle_alpha 90.000000
_cell_angle_beta 74.877381
_cell_angle_gamma 90.000000
_cell_volume 1972.517130
_symmetry_space_group_name_H-M "C 2/M"
_symmetry_group_IT_number 12
_symmetry_cell_setting 'monoclinic'
loop_
_space_group_symop_operation_xyz
x,y,z
-x,y,-z
-x,-y,-z
x,-y,z
1/2+x,1/2+y,z
1/2-x,1/2+y,-z
1/2-x,1/2-y,-z
1/2+x,1/2-y,z
loop_
_atom_site_type_symbol
_atom_site_label
_atom_site_fract_x
_atom_site_fract_y
_atom_site_fract_z
Si Si1 0.587955 0.927974 0.454280
Si Si2 0.050774 0.302623 0.705838
Si Si3 0.216029 0.422697 0.979496
Si Si4 0.948887 0.841405 0.296850
Si Si5 0.697347 0.421869 0.596521
O O1 0.500000 0.932988 0.500000
O O2 0.599020 0.866753 0.625461
O O3 0.632364 0.912224 0.154641
O O4 0.613197 0.000000 0.519627
O O5 0.084910 0.231309 0.686204
O O6 0.000000 0.300449 0.500000
O O7 0.000000 0.310264 0.000000
O O8 0.222131 0.500000 0.959420
O O9 0.266595 0.401211 0.169849
O O10 0.250640 0.399323 0.684558
O O11 0.883241 0.892283 0.361413
O O12 0.000000 0.846550 0.500000
O O13 0.000000 0.849496 0.000000
O O14 0.693369 0.500000 0.600078
#
# Coordination Sequence:
#
# PCOD9195270 Si02
#       5
#     8   8   8   8   8
#     4   9  18  34  57  81 103 134 177 214 248 304
#     4   9  19  34  51  75 106 134 164 212 265 299
#     4   9  19  34  51  75 108 138 165 210 265 303
#     4  10  20  35  55  77 103 136 174 214 255 303
#     4  10  20  35  53  75 106 139 170 210 261 307
#
# _framework density 20.278659000000001
#
# number of rings (size 3 to 8) (size 9 to 14) (size 15 to 20)
#    0.000    2.600    0.000    1.200    0.000    4.400 
#    0.000    8.000    0.000    0.000    0.000    0.000 
#    0.000    0.000    0.000    0.000    0.000    0.000 
#
# Total GULP energy -111493.819860 kJ/mol
# GULP energy per Si atom -5574.690993 kJ/mol
# Density = 2.023250 g / cm^3
# Si number density = 20.278659 Si / 1000 Ang^3
#
#
#
# Elastic Constant Matrix: (Units=GPa)
#
#
# Indices 1 2 3 4 5 6 
#
# 1 95.1811 37.1521 46.0142 0.0000 -8.5095 0.0000
# 2 37.1521 72.7445 34.5730 0.0000 -8.1993 0.0000
# 3 46.0142 34.5730 138.0481 0.0000 7.4956 0.0000
# 4 0.0000 0.0000 0.0000 9.2360 0.0000 -2.5066
# 5 -8.5095 -8.1993 7.4956 0.0000 27.7390 0.0000
# 6 0.0000 0.0000 0.0000 -2.5066 0.0000 1.5848
#
#
#
# Elastic Compliance Matrix: (Units=1/GPa)
#
#
# Indices 1 2 3 4 5 6 
#
# 1 0.014770 -0.005277 -0.003819 0.000000 0.004003 0.000000
# 2 -0.005277 0.018450 -0.003115 0.000000 0.004676 0.000000
# 3 -0.003819 -0.003115 0.009551 0.000000 -0.004673 0.000000
# 4 0.000000 0.000000 0.000000 0.189697 0.000000 0.300029
# 5 0.004003 0.004676 -0.004673 0.000000 0.039923 0.000000
# 6 0.000000 0.000000 0.000000 0.300029 0.000000 1.105518
#
#
# Mechanical properties :
#
#
# Convention : Reuss Voigt Hill
#
# Bulk Modulus (GPa) = 54.50361 60.16137 57.33249
# Shear Modulus (GPa) = 3.55000 20.26093 11.90547
#
# Velocity S-wave (km/s) = 1.32454 3.16432 2.42563
# Velocity P-wave (km/s) = 5.41063 6.56371 6.01487
#
# Compressibility (1/GPa) = 0.01834741
#
# Stress axis : x y z
#
# Youngs Moduli (GPa) = 67.70348 54.20131 104.70369
#
# Poissons Ratio (x) = 0.28604 0.39986
# Poissons Ratio (y) = 0.35729 0.32620
# Poissons Ratio (z) = 0.25856 0.16886
#
# Static dielectric constant tensor:
#      x y z
#    x 1.715080 0.000000 0.024000 
#    y 0.000000 1.756560 0.000000 
#    z 0.024000 0.000000 1.728270 
# 
# From -- ./inp_files/11320.got.cif
#   From: 2010.05.17/outbox.cif.g08.bks.cpg/sg12_6_cif.got.tgz:11320.got - 2010.06.03 13:09:07.
