data_PCOD9195740
_publ_section_title
;
Structure prediction by ZEFSAII (Michael W. Deem and Ramdas Pophale) SiO2 
 PCOD9195740
Probable space group: C 2/M
;
_chemical_formula_sum "Si O2"
_cell_formula_units_Z 56
_cell_length_a 14.447844
_cell_length_b 23.807019
_cell_length_c 13.387301
_cell_angle_alpha 90.000000
_cell_angle_beta 146.834837
_cell_angle_gamma 90.000000
_cell_volume 2519.019725
_symmetry_space_group_name_H-M "C 2/M"
_symmetry_group_IT_number 12
_symmetry_cell_setting 'monoclinic'
loop_
_space_group_symop_operation_xyz
x,y,z
-x,y,-z
-x,-y,-z
x,-y,z
1/2+x,1/2+y,z
1/2-x,1/2+y,-z
1/2-x,1/2-y,-z
1/2+x,1/2-y,z
loop_
_atom_site_type_symbol
_atom_site_label
_atom_site_fract_x
_atom_site_fract_y
_atom_site_fract_z
Si Si1 0.941421 0.174447 0.254845
Si Si2 0.702524 0.935857 0.677200
Si Si3 0.061917 0.233449 0.166984
Si Si4 0.559143 0.842729 0.863684
Si Si5 0.588989 0.564994 0.327825
Si Si6 0.447482 0.213238 0.557022
Si Si7 0.209976 0.563199 0.897991
O O1 0.952534 0.202271 0.153305
O O2 0.064416 0.120128 0.375510
O O3 0.989699 0.222918 0.375037
O O4 0.742899 0.162521 0.081017
O O5 0.500000 0.937785 0.500000
O O6 0.784165 0.916415 0.647167
O O7 0.747008 0.908563 0.823533
O O8 0.771238 0.000000 0.742853
O O9 0.247201 0.215332 0.368284
O O10 0.054348 0.301346 0.172702
O O11 0.000000 0.218888 0.000000
O O12 0.524951 0.816420 0.723097
O O13 0.569001 0.907730 0.840048
O O14 0.632332 0.500000 0.399199
O O15 0.395112 0.561531 0.113777
O O16 0.500000 0.186812 0.500000
O O17 0.150618 0.500000 0.825663
#
# Coordination Sequence:
#
# PCOD9195740 Si02
#       7
#     8   8   8   8   8   8   8
#     4  10  20  35  55  80 108 139 178 218 262 317
#     4   9  17  27  41  66 100 137 176 214 251 297
#     4  11  22  37  56  78 106 138 176 221 268 315
#     4  10  20  35  55  81 109 138 177 218 261 317
#     4   9  18  32  50  73 104 141 176 213 260 313
#     4  11  22  37  56  78 106 139 176 220 268 315
#     4   9  18  32  50  73 104 140 174 212 260 314
#
# _framework density 22.230869999999999
#
# number of rings (size 3 to 8) (size 9 to 14) (size 15 to 20)
#    0.000    2.143    0.000    5.571    0.000    8.000 
#    0.000    0.000    0.000    0.857    0.000    0.000 
#    0.000    0.000    0.000    0.000    0.000    0.000 
#
# Total GULP energy -155907.333707 kJ/mol
# GULP energy per Si atom -5568.119061 kJ/mol
# Density = 2.218027 g / cm^3
# Si number density = 22.230870 Si / 1000 Ang^3
#
#
#
# Elastic Constant Matrix: (Units=GPa)
#
#
# Indices 1 2 3 4 5 6 
#
# 1 21.8974 11.9516 -3.0376 0.0000 -2.5577 0.0000
# 2 11.9516 93.3976 25.6898 0.0000 -0.8727 0.0000
# 3 -3.0376 25.6898 27.8601 0.0000 -3.0421 0.0000
# 4 0.0000 0.0000 0.0000 16.7304 0.0000 -0.4875
# 5 -2.5577 -0.8727 -3.0421 0.0000 31.4169 0.0000
# 6 0.0000 0.0000 0.0000 -0.4875 0.0000 65.7023
#
#
#
# Elastic Compliance Matrix: (Units=1/GPa)
#
#
# Indices 1 2 3 4 5 6 
#
# 1 0.055268 -0.011859 0.017603 0.000000 0.005875 0.000000
# 2 -0.011859 0.016915 -0.017125 0.000000 -0.002154 0.000000
# 3 0.017603 -0.017125 0.054283 0.000000 0.006214 0.000000
# 4 0.000000 0.000000 0.000000 0.059785 0.000000 0.000444
# 5 0.005875 -0.002154 0.006214 0.000000 0.032850 0.000000
# 6 0.000000 0.000000 0.000000 0.000444 0.000000 0.015223
#
#
# Mechanical properties :
#
#
# Convention : Reuss Voigt Hill
#
# Bulk Modulus (GPa) = 9.64298 23.59585 16.61941
# Shear Modulus (GPa) = 17.14353 30.00668 23.57510
#
# Velocity S-wave (km/s) = 2.77999 3.67791 3.26001
# Velocity P-wave (km/s) = 3.82773 5.35473 4.65428
#
# Compressibility (1/GPa) = 0.10370242
#
# Stress axis : x y z
#
# Youngs Moduli (GPa) = 18.09350 59.11956 18.42207
#
# Poissons Ratio (x) = 0.70112 -0.32428
# Poissons Ratio (y) = 0.21458 0.31549
# Poissons Ratio (z) = -0.31850 1.01245
#
# Static dielectric constant tensor:
#      x y z
#    x 1.766550 0.000000 -0.066580 
#    y 0.000000 1.956800 0.000000 
#    z -0.066580 0.000000 1.720500 
# 
# From -- ./inp_files/219145.got.cif
#   From: 2010.05.17/outbox.cif.g08.bks.cpg/sg12_110_cif.got.tgz:219145.got - 2010.06.03 13:09:07.
