data_PCOD9195237
_publ_section_title
;
Structure prediction by ZEFSAII (Michael W. Deem and Ramdas Pophale) SiO2 
 PCOD9195237
Probable space group: C 2/M
;
_chemical_formula_sum "Si O2"
_cell_formula_units_Z 40
_cell_length_a 25.217634
_cell_length_b 7.402851
_cell_length_c 17.377427
_cell_angle_alpha 90.000000
_cell_angle_beta 33.523517
_cell_angle_gamma 90.000000
_cell_volume 1791.626636
_symmetry_space_group_name_H-M "C 2/M"
_symmetry_group_IT_number 12
_symmetry_cell_setting 'monoclinic'
loop_
_space_group_symop_operation_xyz
x,y,z
-x,y,-z
-x,-y,-z
x,-y,z
1/2+x,1/2+y,z
1/2-x,1/2+y,-z
1/2-x,1/2-y,-z
1/2+x,1/2-y,z
loop_
_atom_site_type_symbol
_atom_site_label
_atom_site_fract_x
_atom_site_fract_y
_atom_site_fract_z
Si Si1 0.902010 0.206596 0.024365
Si Si2 0.602094 0.280498 0.724502
Si Si3 0.049503 0.294290 0.614309
Si Si4 0.146440 0.284849 0.090130
Si Si5 0.249332 0.278478 0.331480
O O1 0.821108 0.284595 0.177820
O O2 0.913853 0.000000 0.036417
O O3 0.863887 0.208599 0.983063
O O4 0.010037 0.280193 0.886848
O O5 0.598378 0.500000 0.723614
O O6 0.586370 0.206326 0.658400
O O7 0.698620 0.228304 0.651573
O O8 0.037983 0.500000 0.600573
O O9 0.139791 0.213182 0.459850
O O10 0.942726 0.214686 0.750333
O O11 0.132800 0.500000 0.099418
O O12 0.250000 0.250000 0.000000
O O13 0.244952 0.500000 0.335078
#
# Coordination Sequence:
#
# PCOD9195237 Si02
#       5
#     8   8   8   8   8
#     4   9  17  30  49  72  96 123 155 188 223 267
#     4   9  16  27  46  71  98 129 159 183 214 263
#     4   9  18  31  47  69  95 123 156 191 227 270
#     4  10  20  35  53  69  87 116 155 196 237 280
#     4   9  16  28  47  71  99 127 154 185 221 266
#
# _framework density 22.326079
#
# number of rings (size 3 to 8) (size 9 to 14) (size 15 to 20)
#    0.000    2.800    0.000    1.800    0.000    3.200 
#    0.000    3.000    0.000   10.800    0.000    0.000 
#    0.000    0.000    0.000    0.000    0.000    0.000 
#
# Total GULP energy -111588.850625 kJ/mol
# GULP energy per Si atom -5579.442531 kJ/mol
# Density = 2.227526 g / cm^3
# Si number density = 22.326079 Si / 1000 Ang^3
#
#
#
# Elastic Constant Matrix: (Units=GPa)
#
#
# Indices 1 2 3 4 5 6 
#
# 1 51.9567 -7.4874 27.4675 -0.0073 -35.7704 0.0061
# 2 -7.4874 84.2806 -2.7859 -0.0025 -1.0475 0.0072
# 3 27.4675 -2.7859 155.9530 -0.0149 -34.1749 0.0105
# 4 -0.0073 -0.0025 -0.0149 -0.7954 0.0035 5.6073
# 5 -35.7704 -1.0475 -34.1749 0.0035 37.9781 -0.0015
# 6 0.0061 0.0072 0.0105 5.6073 -0.0015 9.7918
#
#
#
# Elastic Compliance Matrix: (Units=1/GPa)
#
#
# Indices 1 2 3 4 5 6 
#
# 1 0.058120 0.005951 0.002369 -0.000117 0.057037 0.000032
# 2 0.005951 0.012494 0.000596 -0.000033 0.006486 0.000006
# 3 0.002369 0.000596 0.008094 -0.000039 0.009531 0.000013
# 4 -0.000117 -0.000033 -0.000039 -0.249594 -0.000117 0.142932
# 5 0.057037 0.006486 0.009531 -0.000117 0.088808 0.000030
# 6 0.000032 0.000006 0.000013 0.142932 0.000030 0.020275
#
#
# Mechanical properties :
#
#
# Convention : Reuss Voigt Hill
#
# Bulk Modulus (GPa) = 10.35839 36.28652 23.32245
# Shear Modulus (GPa) = -105.36765 27.72796 -38.81985
#
# Velocity S-wave (km/s) = -6.87731 3.52796 -4.17438
# Velocity P-wave (km/s) = 7.64287 5.73442 3.57280
#
# Compressibility (1/GPa) = 0.09654010
#
# Stress axis : x y z
#
# Youngs Moduli (GPa) = 17.20566 80.03784 123.54423
#
# Poissons Ratio (x) = -0.47627 -0.29264
# Poissons Ratio (y) = -0.10238 -0.07369
# Poissons Ratio (z) = -0.04075 -0.04774
#
# Static dielectric constant tensor:
#      x y z
#    x 1.751770 0.000000 -0.007710 
#    y 0.000000 1.912690 0.000000 
#    z -0.007710 0.000000 1.893180 
# 
# From -- ./inp_files/151643.got.cif
#   From: 2010.05.17/outbox.cif.g08.bks.cpg/sg12_76_cif.got.tgz:151643.got - 2010.06.03 13:09:07.
