data_PCOD9195068
_publ_section_title
;
Structure prediction by ZEFSAII (Michael W. Deem and Ramdas Pophale) SiO2 
 PCOD9195068
Probable space group: C 2/M
;
_chemical_formula_sum "Si O2"
_cell_formula_units_Z 56
_cell_length_a 9.497899
_cell_length_b 13.436309
_cell_length_c 27.455910
_cell_angle_alpha 90.000000
_cell_angle_beta 130.502090
_cell_angle_gamma 90.000000
_cell_volume 2664.252347
_symmetry_space_group_name_H-M "C 2/M"
_symmetry_group_IT_number 12
_symmetry_cell_setting 'monoclinic'
loop_
_space_group_symop_operation_xyz
x,y,z
-x,y,-z
-x,-y,-z
x,-y,z
1/2+x,1/2+y,z
1/2-x,1/2+y,-z
1/2-x,1/2-y,-z
1/2+x,1/2-y,z
loop_
_atom_site_type_symbol
_atom_site_label
_atom_site_fract_x
_atom_site_fract_y
_atom_site_fract_z
Si Si1 0.619096 0.744042 0.814015
Si Si2 0.201846 0.500000 0.570487
Si Si3 0.617440 0.612552 0.977080
Si Si4 0.423504 0.157389 0.613882
Si Si5 0.177797 0.000000 0.505401
Si Si6 0.882530 0.719356 0.423805
Si Si7 0.258572 0.614930 0.756421
Si Si8 0.524575 0.806487 0.898058
O O1 0.670180 0.817920 0.780470
O O2 0.584353 0.809198 0.855039
O O3 0.436989 0.673001 0.773875
O O4 0.807389 0.677948 0.859079
O O5 0.345706 0.500000 0.557786
O O6 0.198165 0.606287 0.596738
O O7 0.000000 0.500000 0.500000
O O8 0.579516 0.500000 0.953411
O O9 0.832663 0.627439 0.039247
O O10 0.500000 0.633301 0.000000
O O11 0.562707 0.693303 0.924791
O O12 0.306558 0.090234 0.550996
O O13 0.280976 0.203708 0.618421
O O14 0.488190 0.243305 0.592369
O O15 0.596326 0.111799 0.679744
O O16 0.000000 0.000000 0.500000
O O17 0.000000 0.729530 0.500000
O O18 0.301418 0.500000 0.780019
#
# Coordination Sequence:
#
# PCOD9195068 Si02
#       8
#     8   4   8   8   4   8   8   8
#     4  10  23  43  66  92 127 177 227 274 326 381
#     4  10  20  40  56  90 124 162 194 238 311 409
#     4  10  20  34  61 101 133 174 214 251 337 392
#     4  12  23  41  62  89 122 162 204 268 321 385
#     4  12  24  38  62  92 128 158 208 252 327 410
#     4  11  22  37  63  89 126 159 197 246 326 406
#     4  11  25  46  69  91 125 171 229 280 332 380
#     4  10  20  39  63  93 138 168 208 278 314 384
#
# _framework density 21.019030000000001
#
# number of rings (size 3 to 8) (size 9 to 14) (size 15 to 20)
#    0.000    1.286    5.000    1.714    2.000    3.429 
#    0.000    2.857    0.000    0.000    0.000    0.000 
#    0.000    0.000    0.000    0.000    0.000    0.000 
#
# Total GULP energy -156136.908460 kJ/mol
# GULP energy per Si atom -5576.318159 kJ/mol
# Density = 2.097119 g / cm^3
# Si number density = 21.019030 Si / 1000 Ang^3
#
#
#
# Elastic Constant Matrix: (Units=GPa)
#
#
# Indices 1 2 3 4 5 6 
#
# 1 145.8492 21.7351 32.4445 0.0000 6.5213 0.0000
# 2 21.7351 76.6702 15.9495 0.0000 4.7453 0.0000
# 3 32.4445 15.9495 61.2867 0.0000 6.1391 0.0000
# 4 0.0000 0.0000 0.0000 4.0825 0.0000 -8.2607
# 5 6.5213 4.7453 6.1391 0.0000 33.4001 0.0000
# 6 0.0000 0.0000 0.0000 -8.2607 0.0000 9.5455
#
#
#
# Elastic Compliance Matrix: (Units=1/GPa)
#
#
# Indices 1 2 3 4 5 6 
#
# 1 0.007936 -0.001426 -0.003764 0.000000 -0.000655 0.000000
# 2 -0.001426 0.014103 -0.002794 0.000000 -0.001212 0.000000
# 3 -0.003764 -0.002794 0.019278 0.000000 -0.002411 0.000000
# 4 0.000000 0.000000 0.000000 -0.326132 0.000000 -0.282234
# 5 -0.000655 -0.001212 -0.002411 0.000000 0.030683 0.000000
# 6 0.000000 0.000000 0.000000 -0.282234 0.000000 -0.139483
#
#
# Mechanical properties :
#
#
# Convention : Reuss Voigt Hill
#
# Bulk Modulus (GPa) = 39.45010 47.11827 43.28418
# Shear Modulus (GPa) = -13.54294 23.65076 5.05391
#
# Velocity S-wave (km/s) = -2.54110 3.35805 1.55231
# Velocity P-wave (km/s) = 3.19373 6.12380 4.88369
#
# Compressibility (1/GPa) = 0.02534848
#
# Stress axis : x y z
#
# Youngs Moduli (GPa) = 126.01497 70.90506 51.87207
#
# Poissons Ratio (x) = 0.10111 0.19526
# Poissons Ratio (y) = 0.17970 0.14493
# Poissons Ratio (z) = 0.47436 0.19811
#
# Static dielectric constant tensor:
#      x y z
#    x 1.796080 0.000000 -0.024690 
#    y 0.000000 1.782450 0.000000 
#    z -0.024690 0.000000 1.787620 
# 
# From -- ./inp_files/333053.got.cif
#   From: 2010.05.17/outbox.cif.g08.bks.cpg/sg12_167_cif.got.tgz:333053.got - 2010.06.03 13:09:07.
