data_PCOD9195506
_publ_section_title
;
Structure prediction by ZEFSAII (Michael W. Deem and Ramdas Pophale) SiO2 
 PCOD9195506
Probable space group: C 2/M
;
_chemical_formula_sum "Si O2"
_cell_formula_units_Z 56
_cell_length_a 14.745910
_cell_length_b 29.670288
_cell_length_c 8.873848
_cell_angle_alpha 90.000000
_cell_angle_beta 47.768365
_cell_angle_gamma 90.000000
_cell_volume 2874.692833
_symmetry_space_group_name_H-M "C 2/M"
_symmetry_group_IT_number 12
_symmetry_cell_setting 'monoclinic'
loop_
_space_group_symop_operation_xyz
x,y,z
-x,y,-z
-x,-y,-z
x,-y,z
1/2+x,1/2+y,z
1/2-x,1/2+y,-z
1/2-x,1/2-y,-z
1/2+x,1/2-y,z
loop_
_atom_site_type_symbol
_atom_site_label
_atom_site_fract_x
_atom_site_fract_y
_atom_site_fract_z
Si Si1 0.779244 0.186662 0.849143
Si Si2 0.358066 0.053682 0.107278
Si Si3 0.883034 0.248507 0.523069
Si Si4 0.327430 0.382088 0.531670
Si Si5 0.000944 0.821580 0.818279
Si Si6 0.852021 0.354605 0.530403
Si Si7 0.624096 0.120729 0.173970
O O1 0.772841 0.229973 0.749866
O O2 0.830873 0.148686 0.677037
O O3 0.871262 0.190582 0.886444
O O4 0.653732 0.166454 0.049244
O O5 0.244903 0.072658 0.335596
O O6 0.352515 0.000000 0.105262
O O7 0.500000 0.065561 0.000000
O O8 0.340409 0.078413 0.966673
O O9 0.907300 0.217603 0.349437
O O10 0.873676 0.301293 0.512623
O O11 0.000000 0.239620 0.500000
O O12 0.455017 0.369642 0.304522
O O13 0.235250 0.363589 0.509379
O O14 0.000000 0.822947 0.000000
O O15 0.809462 0.373552 0.739823
O O16 0.980165 0.379232 0.359871
#
# Coordination Sequence:
#
# PCOD9195506 Si02
#       7
#     8   8   8   8   8   8   8
#     4   9  20  35  55  75 108 155 189 222 268 320
#     4  10  20  38  60  83 108 138 181 224 281 347
#     4   9  18  35  48  73 111 147 193 225 257 319
#     4  10  20  36  59  80 110 143 183 227 278 329
#     4  10  20  37  54  80 110 151 192 223 265 314
#     4  11  20  34  51  80 114 144 180 232 277 314
#     4  10  20  35  54  81 109 143 179 230 279 322
#
# _framework density 19.480342
#
# number of rings (size 3 to 8) (size 9 to 14) (size 15 to 20)
#    0.000    2.143    2.857    2.143    0.000    2.857 
#    7.714    2.143    0.000    7.286    0.000    0.000 
#    0.000    0.000    0.000    0.000    0.000    0.000 
#
# Total GULP energy -155927.119832 kJ/mol
# GULP energy per Si atom -5568.825708 kJ/mol
# Density = 1.943600 g / cm^3
# Si number density = 19.480342 Si / 1000 Ang^3
#
#
#
# Elastic Constant Matrix: (Units=GPa)
#
#
# Indices 1 2 3 4 5 6 
#
# 1 63.7351 14.6239 19.0959 0.0000 26.8998 0.0000
# 2 14.6239 93.0737 37.6125 0.0000 13.7830 0.0000
# 3 19.0959 37.6125 94.8363 0.0000 28.9764 0.0000
# 4 0.0000 0.0000 0.0000 26.2499 0.0000 -7.8960
# 5 26.8998 13.7830 28.9764 0.0000 25.6140 0.0000
# 6 0.0000 0.0000 0.0000 -7.8960 0.0000 35.5705
#
#
#
# Elastic Compliance Matrix: (Units=1/GPa)
#
#
# Indices 1 2 3 4 5 6 
#
# 1 0.030129 -0.001614 0.006076 0.000000 -0.037646 0.000000
# 2 -0.001614 0.012933 -0.004884 0.000000 0.000261 0.000000
# 3 0.006076 -0.004884 0.018957 0.000000 -0.025199 0.000000
# 4 0.000000 0.000000 0.000000 0.040821 0.000000 0.009062
# 5 -0.037646 0.000261 -0.025199 0.000000 0.106944 0.000000
# 6 0.000000 0.000000 0.000000 0.009062 0.000000 0.030125
#
#
# Mechanical properties :
#
#
# Convention : Reuss Voigt Hill
#
# Bulk Modulus (GPa) = 16.34669 43.81218 30.07943
# Shear Modulus (GPa) = 19.14647 29.50772 24.32709
#
# Velocity S-wave (km/s) = 3.13846 3.89619 3.53767
# Velocity P-wave (km/s) = 4.64143 6.54062 5.67109
#
# Compressibility (1/GPa) = 0.06117448
#
# Stress axis : x y z
#
# Youngs Moduli (GPa) = 33.19093 77.32264 52.74976
#
# Poissons Ratio (x) = 0.12483 -0.32052
# Poissons Ratio (y) = 0.05358 0.25763
# Poissons Ratio (z) = -0.20167 0.37764
#
# Static dielectric constant tensor:
#      x y z
#    x 1.702270 0.000000 -0.026940 
#    y 0.000000 1.661880 0.000000 
#    z -0.026940 0.000000 1.766720 
# 
# From -- ./inp_files/68132.got.cif
#   From: 2010.05.17/outbox.cif.g08.bks.cpg/sg12_35_cif.got.tgz:68132.got - 2010.06.03 13:09:07.
