data_PCOD9195801
_publ_section_title
;
Structure prediction by ZEFSAII (Michael W. Deem and Ramdas Pophale) SiO2 
 PCOD9195801
Probable space group: C 2/M
;
_chemical_formula_sum "Si O2"
_cell_formula_units_Z 48
_cell_length_a 13.978787
_cell_length_b 8.728314
_cell_length_c 17.641954
_cell_angle_alpha 90.000000
_cell_angle_beta 89.367157
_cell_angle_gamma 90.000000
_cell_volume 2152.385425
_symmetry_space_group_name_H-M "C 2/M"
_symmetry_group_IT_number 12
_symmetry_cell_setting 'monoclinic'
loop_
_space_group_symop_operation_xyz
x,y,z
-x,y,-z
-x,-y,-z
x,-y,z
1/2+x,1/2+y,z
1/2-x,1/2+y,-z
1/2-x,1/2-y,-z
1/2+x,1/2-y,z
loop_
_atom_site_type_symbol
_atom_site_label
_atom_site_fract_x
_atom_site_fract_y
_atom_site_fract_z
Si Si1 0.764606 0.677258 0.148509
Si Si2 0.735460 0.322790 0.378035
Si Si3 0.112373 0.681489 0.509436
Si Si4 0.617423 0.176338 0.250702
Si Si5 0.429110 0.671126 0.226645
Si Si6 0.418583 0.326185 0.054003
O O1 0.742695 0.500000 0.144077
O O2 0.671839 0.771352 0.173819
O O3 0.842115 0.710997 0.215594
O O4 0.820994 0.736277 0.073676
O O5 0.727012 0.500000 0.353548
O O6 0.842967 0.292803 0.407268
O O7 0.669340 0.291159 0.452130
O O8 0.691889 0.210266 0.316715
O O9 0.131885 0.500000 0.492397
O O10 0.000000 0.705274 0.500000
O O11 0.521675 0.271241 0.268743
O O12 0.591640 0.000000 0.245799
O O13 0.397047 0.500000 0.248967
O O14 0.462137 0.661273 0.138055
O O15 0.397287 0.500000 0.027433
O O16 0.500000 0.256961 0.000000
#
# Coordination Sequence:
#
# PCOD9195801 Si02
#       6
#     8   8   8   8   8   8
#     4  10  20  35  55  81 112 146 185 229 279 334
#     4  10  21  36  56  82 112 144 181 230 280 327
#     4   9  19  38  60  82 110 143 182 224 271 330
#     4  12  23  37  56  80 113 152 192 233 280 330
#     4   9  19  36  56  80 110 143 183 231 281 335
#     4   8  16  34  58  81 110 146 183 230 283 333
#
# _framework density 22.300839
#
# number of rings (size 3 to 8) (size 9 to 14) (size 15 to 20)
#    1.000    1.333    0.000    3.500    0.000    2.667 
#    0.000    5.833    0.000    0.000    0.000    0.000 
#    0.000    0.000    0.000    0.000    0.000    0.000 
#
# Total GULP energy -133783.623021 kJ/mol
# GULP energy per Si atom -5574.317626 kJ/mol
# Density = 2.225008 g / cm^3
# Si number density = 22.300839 Si / 1000 Ang^3
#
#
#
# Elastic Constant Matrix: (Units=GPa)
#
#
# Indices 1 2 3 4 5 6 
#
# 1 72.2301 2.6301 3.5314 0.0000 16.0019 0.0000
# 2 2.6301 72.0984 -1.9014 0.0000 3.5578 0.0000
# 3 3.5314 -1.9014 19.9394 0.0000 -0.1040 0.0000
# 4 0.0000 0.0000 0.0000 19.5902 0.0000 -4.8348
# 5 16.0019 3.5578 -0.1040 0.0000 25.8675 0.0000
# 6 0.0000 0.0000 0.0000 -4.8348 0.0000 23.6906
#
#
#
# Elastic Compliance Matrix: (Units=1/GPa)
#
#
# Indices 1 2 3 4 5 6 
#
# 1 0.016214 -0.000175 -0.002941 0.000000 -0.010018 0.000000
# 2 -0.000175 0.014002 0.001357 0.000000 -0.001812 0.000000
# 3 -0.002941 0.001357 0.050812 0.000000 0.001837 0.000000
# 4 0.000000 0.000000 0.000000 0.053753 0.000000 0.010970
# 5 -0.010018 -0.001812 0.001837 0.000000 0.045113 0.000000
# 6 0.000000 0.000000 0.000000 0.010970 0.000000 0.044450
#
#
# Mechanical properties :
#
#
# Convention : Reuss Voigt Hill
#
# Bulk Modulus (GPa) = 12.90151 19.19870 16.05010
# Shear Modulus (GPa) = 19.70856 24.49683 22.10269
#
# Velocity S-wave (km/s) = 2.97603 3.31791 3.15161
# Velocity P-wave (km/s) = 4.19605 4.82760 4.52286
#
# Compressibility (1/GPa) = 0.07751030
#
# Stress axis : x y z
#
# Youngs Moduli (GPa) = 61.67443 71.42089 19.68049
#
# Poissons Ratio (x) = 0.01248 0.05787
# Poissons Ratio (y) = 0.01077 -0.02670
# Poissons Ratio (z) = 0.18136 -0.09689
#
# Static dielectric constant tensor:
#      x y z
#    x 1.839320 0.000000 0.001040 
#    y 0.000000 1.779870 0.000000 
#    z 0.001040 0.000000 1.911500 
# 
# From -- ./inp_files/307986.got.cif
#   From: 2010.05.17/outbox.cif.g08.bks.cpg/sg12_154_cif.got.tgz:307986.got - 2010.06.03 13:09:07.
