data_PCOD9195544
_publ_section_title
;
Structure prediction by ZEFSAII (Michael W. Deem and Ramdas Pophale) SiO2 
 PCOD9195544
Probable space group: C 2/M
;
_chemical_formula_sum "Si O2"
_cell_formula_units_Z 58
_cell_length_a 25.602594
_cell_length_b 7.400911
_cell_length_c 12.032572
_cell_angle_alpha 90.000000
_cell_angle_beta 108.356317
_cell_angle_gamma 90.000000
_cell_volume 2163.949360
_symmetry_space_group_name_H-M "C 2/M"
_symmetry_group_IT_number 12
_symmetry_cell_setting 'monoclinic'
loop_
_space_group_symop_operation_xyz
x,y,z
-x,y,-z
-x,-y,-z
x,-y,z
1/2+x,1/2+y,z
1/2-x,1/2+y,-z
1/2-x,1/2-y,-z
1/2+x,1/2-y,z
loop_
_atom_site_type_symbol
_atom_site_label
_atom_site_fract_x
_atom_site_fract_y
_atom_site_fract_z
Si Si1 0.556836 0.282059 0.597551
Si Si2 0.500000 0.500000 0.000000
Si Si3 0.136590 0.295068 0.086253
Si Si4 0.752223 0.707455 0.256485
Si Si5 0.837533 0.791611 0.468566
Si Si6 0.810903 0.714881 0.090883
Si Si7 0.097647 0.283456 0.280258
Si Si8 0.477922 0.785915 0.185867
O O1 0.500000 0.218634 0.500000
O O2 0.556708 0.500000 0.591009
O O3 0.609691 0.214515 0.563153
O O4 0.560969 0.234191 0.731685
O O5 0.476958 0.660081 0.075785
O O6 0.116694 0.500000 0.056215
O O7 0.196404 0.305601 0.187222
O O8 0.101603 0.204175 0.158854
O O9 0.147257 0.211227 0.973014
O O10 0.740691 0.500000 0.218218
O O11 0.779507 0.709399 0.394605
O O12 0.801695 0.777829 0.209562
O O13 0.854503 0.778400 0.607756
O O14 0.832227 0.000000 0.437282
O O15 0.820769 0.500000 0.099145
O O16 0.750000 0.750000 0.000000
O O17 0.101571 0.500000 0.276621
O O18 0.037332 0.234969 0.280593
O O19 0.479488 0.000000 0.157834
#
# Coordination Sequence:
#
# PCOD9195544 Si02
#       8
#     8   2   8   8   8   8   8   8
#     4  10  20  40  68  95 125 165 212 270 332 394
#     4  12  26  48  70  94 144 176 214 286 320 394
#     4   9  18  36  59  82 117 160 205 253 309 373
#     4  10  20  35  54  85 122 157 202 260 310 370
#     4  11  23  37  61  89 122 161 205 256 327 386
#     4   8  15  30  53  75 103 145 189 239 295 349
#     4  10  22  39  61  91 121 159 210 261 315 389
#     4  11  24  44  72 100 133 178 220 267 335 395
#
# _framework density 26.802844
#
# number of rings (size 3 to 8) (size 9 to 14) (size 15 to 20)
#    0.000    2.069    2.069    1.034    0.966    3.034 
#    2.483    0.000    0.000    0.000    0.000    0.000 
#    0.000    0.000    0.000    0.000    0.000    0.000 
#
# Total GULP energy -161846.415585 kJ/mol
# GULP energy per Si atom -5580.910882 kJ/mol
# Density = 2.674184 g / cm^3
# Si number density = 26.802844 Si / 1000 Ang^3
#
#
#
# Elastic Constant Matrix: (Units=GPa)
#
#
# Indices 1 2 3 4 5 6 
#
# 1 70.5638 -13.2045 21.4539 0.0000 -4.2258 0.0000
# 2 -13.2045 144.5617 2.4187 0.0000 -6.4683 0.0000
# 3 21.4539 2.4187 147.0384 0.0000 9.2815 0.0000
# 4 0.0000 0.0000 0.0000 11.5729 0.0000 -16.7758
# 5 -4.2258 -6.4683 9.2815 0.0000 61.6978 0.0000
# 6 0.0000 0.0000 0.0000 -16.7758 0.0000 -0.8248
#
#
#
# Elastic Compliance Matrix: (Units=1/GPa)
#
#
# Indices 1 2 3 4 5 6 
#
# 1 0.015260 0.001503 -0.002350 0.000000 0.001556 0.000000
# 2 0.001503 0.007102 -0.000393 0.000000 0.000907 0.000000
# 3 -0.002350 -0.000393 0.007232 0.000000 -0.001290 0.000000
# 4 0.000000 0.000000 0.000000 0.002835 0.000000 -0.057654
# 5 0.001556 0.000907 -0.001290 0.000000 0.016604 0.000000
# 6 0.000000 0.000000 0.000000 -0.057654 0.000000 -0.039773
#
#
# Mechanical properties :
#
#
# Convention : Reuss Voigt Hill
#
# Bulk Modulus (GPa) = 36.88154 42.61112 39.74633
# Shear Modulus (GPa) = 240.64771 37.92223 139.28497
#
# Velocity S-wave (km/s) = 9.48574 3.76554 7.21660
# Velocity P-wave (km/s) = 11.56558 5.90239 9.18153
#
# Compressibility (1/GPa) = 0.02711383
#
# Stress axis : x y z
#
# Youngs Moduli (GPa) = 65.52934 140.80777 138.28076
#
# Poissons Ratio (x) = -0.21161 0.32490
# Poissons Ratio (y) = -0.09848 0.05439
# Poissons Ratio (z) = 0.15396 0.05538
#
# Static dielectric constant tensor:
#      x y z
#    x 2.167590 0.000000 -0.049030 
#    y 0.000000 1.983080 0.000000 
#    z -0.049030 0.000000 2.219590 
# 
# From -- ./inp_files/186715.got.cif
#   From: 2010.05.17/outbox.cif.g08.bks.cpg/sg12_94_cif.got.tgz:186715.got - 2010.06.03 13:09:07.
