data_PCOD9195487
_publ_section_title
;
Structure prediction by ZEFSAII (Michael W. Deem and Ramdas Pophale) SiO2 
 PCOD9195487
Probable space group: C 2/M
;
_chemical_formula_sum "Si O2"
_cell_formula_units_Z 64
_cell_length_a 14.842731
_cell_length_b 8.086022
_cell_length_c 25.967649
_cell_angle_alpha 90.000000
_cell_angle_beta 90.850230
_cell_angle_gamma 90.000000
_cell_volume 3116.259022
_symmetry_space_group_name_H-M "C 2/M"
_symmetry_group_IT_number 12
_symmetry_cell_setting 'monoclinic'
loop_
_space_group_symop_operation_xyz
x,y,z
-x,y,-z
-x,-y,-z
x,-y,z
1/2+x,1/2+y,z
1/2-x,1/2+y,-z
1/2-x,1/2-y,-z
1/2+x,1/2-y,z
loop_
_atom_site_type_symbol
_atom_site_label
_atom_site_fract_x
_atom_site_fract_y
_atom_site_fract_z
Si Si1 0.247202 0.700008 0.419176
Si Si2 0.790460 0.806298 0.101586
Si Si3 0.396990 0.199332 0.497100
Si Si4 0.045819 0.199598 0.237583
Si Si5 0.658485 0.297876 0.782553
Si Si6 0.204171 0.698980 0.304268
Si Si7 0.605513 0.692767 0.128335
Si Si8 0.541069 0.193741 0.946725
O O1 0.245339 0.500000 0.418891
O O2 0.341142 0.753077 0.445707
O O3 0.165932 0.757576 0.455937
O O4 0.232111 0.759347 0.360923
O O5 0.816611 0.743920 0.159383
O O6 0.684008 0.779221 0.096946
O O7 0.852994 0.719705 0.060184
O O8 0.810328 0.000000 0.099074
O O9 0.500000 0.260242 0.500000
O O10 0.400024 0.000000 0.499749
O O11 0.103311 0.254663 0.286800
O O12 0.095613 0.261168 0.186048
O O13 0.942315 0.253654 0.233674
O O14 0.045605 0.000000 0.235477
O O15 0.660808 0.500000 0.783315
O O16 0.729199 0.239866 0.740241
O O17 0.210599 0.500000 0.304964
O O18 0.628182 0.500000 0.131374
O O19 0.510218 0.714693 0.099789
O O20 0.520131 0.000000 0.942199
O O21 0.500000 0.255030 0.000000
#
# Coordination Sequence:
#
# PCOD9195487 Si02
#       8
#     8   8   8   8   8   8   8   8
#     4   9  19  34  52  78 109 143 185 230 276 331
#     4  11  21  38  63  87 114 150 189 232 284 341
#     4   9  18  34  55  76 105 145 186 230 281 331
#     4  10  20  35  54  80 110 143 183 223 269 331
#     4   9  18  34  54  78 108 144 180 219 275 332
#     4  10  20  35  54  79 113 146 181 228 278 332
#     4  11  22  38  61  88 116 149 191 235 281 343
#     4  11  25  43  62  87 117 149 190 240 291 342
#
# _framework density 20.537447
#
# number of rings (size 3 to 8) (size 9 to 14) (size 15 to 20)
#    0.000    2.000    2.500    1.125    0.000    3.750 
#    0.000    0.625    0.000    0.000    0.000    0.000 
#    0.000    0.000    0.000    0.000    0.000    0.000 
#
# Total GULP energy -178705.036698 kJ/mol
# GULP energy per Si atom -5584.532397 kJ/mol
# Density = 2.049070 g / cm^3
# Si number density = 20.537447 Si / 1000 Ang^3
#
#
#
# Elastic Constant Matrix: (Units=GPa)
#
#
# Indices 1 2 3 4 5 6 
#
# 1 78.3089 0.9523 -24.0867 0.0000 -5.0567 0.0000
# 2 0.9523 14.3573 6.7260 0.0000 -1.8347 0.0000
# 3 -24.0867 6.7260 28.6888 0.0000 -4.0160 0.0000
# 4 0.0000 0.0000 0.0000 16.5509 0.0000 5.8759
# 5 -5.0567 -1.8347 -4.0160 0.0000 17.8915 0.0000
# 6 0.0000 0.0000 0.0000 5.8759 0.0000 26.8817
#
#
#
# Elastic Compliance Matrix: (Units=1/GPa)
#
#
# Indices 1 2 3 4 5 6 
#
# 1 0.019607 -0.009492 0.019954 0.000000 0.009047 0.000000
# 2 -0.009492 0.083123 -0.027504 0.000000 -0.000332 0.000000
# 3 0.019954 -0.027504 0.060349 0.000000 0.016365 0.000000
# 4 0.000000 0.000000 0.000000 0.065503 0.000000 -0.014318
# 5 0.009047 -0.000332 0.016365 0.000000 0.062089 0.000000
# 6 0.000000 0.000000 0.000000 -0.014318 0.000000 0.040330
#
#
# Mechanical properties :
#
#
# Convention : Reuss Voigt Hill
#
# Bulk Modulus (GPa) = 7.75229 9.83756 8.79493
# Shear Modulus (GPa) = 12.25243 21.44905 16.85074
#
# Velocity S-wave (km/s) = 2.44517 3.23520 2.86752
# Velocity P-wave (km/s) = 3.42851 4.33080 3.90580
#
# Compressibility (1/GPa) = 0.12899411
#
# Stress axis : x y z
#
# Youngs Moduli (GPa) = 51.00197 12.03040 16.57032
#
# Poissons Ratio (x) = 0.11419 -0.33064
# Poissons Ratio (y) = 0.48412 0.45575
# Poissons Ratio (z) = -1.01768 0.33088
#
# Static dielectric constant tensor:
#      x y z
#    x 1.713030 0.000000 -0.013440 
#    y 0.000000 1.716220 0.000000 
#    z -0.013440 0.000000 1.727440 
# 
# From -- ./inp_files/338805.got.cif
#   From: 2010.05.17/outbox.cif.g08.bks.cpg/sg12_170_cif.got.tgz:338805.got - 2010.06.03 13:09:07.
