data_PCOD9195016
_publ_section_title
;
Structure prediction by ZEFSAII (Michael W. Deem and Ramdas Pophale) SiO2 
 PCOD9195016
Probable space group: C 2/M
;
_chemical_formula_sum "Si O2"
_cell_formula_units_Z 56
_cell_length_a 13.996683
_cell_length_b 20.352877
_cell_length_c 11.337673
_cell_angle_alpha 90.000000
_cell_angle_beta 127.003060
_cell_angle_gamma 90.000000
_cell_volume 2579.324593
_symmetry_space_group_name_H-M "C 2/M"
_symmetry_group_IT_number 12
_symmetry_cell_setting 'monoclinic'
loop_
_space_group_symop_operation_xyz
x,y,z
-x,y,-z
-x,-y,-z
x,-y,z
1/2+x,1/2+y,z
1/2-x,1/2+y,-z
1/2-x,1/2-y,-z
1/2+x,1/2-y,z
loop_
_atom_site_type_symbol
_atom_site_label
_atom_site_fract_x
_atom_site_fract_y
_atom_site_fract_z
Si Si1 0.751156 0.579018 0.476687
Si Si2 0.055213 0.746545 0.909148
Si Si3 0.172445 0.570585 0.805185
Si Si4 0.721302 0.648425 0.921938
Si Si5 0.413945 0.573951 0.836504
Si Si6 0.363476 0.574428 0.359339
Si Si7 0.027644 0.678401 0.388975
O O1 0.774145 0.500000 0.466418
O O2 0.626272 0.600485 0.319708
O O3 0.724154 0.580863 0.594679
O O4 0.854894 0.631262 0.522728
O O5 0.120250 0.813824 0.920442
O O6 0.977763 0.723105 0.735315
O O7 0.164298 0.695192 0.002164
O O8 0.000000 0.749258 0.000000
O O9 0.111236 0.500000 0.755136
O O10 0.283100 0.571329 0.798551
O O11 0.082065 0.628064 0.709547
O O12 0.232702 0.584644 0.975108
O O13 0.670433 0.628191 0.760146
O O14 0.461405 0.500000 0.850003
O O15 0.500000 0.602420 0.000000
O O16 0.500000 0.581624 0.500000
O O17 0.351421 0.500000 0.302869
O O18 0.000000 0.708810 0.500000
#
# Coordination Sequence:
#
# PCOD9195016 Si02
#       7
#     8   8   8   8   8   8   8
#     4  10  20  35  58  92 132 166 198 244 309 376
#     4  10  23  44  66  86 116 162 215 264 307 356
#     4  10  20  34  59  92 126 160 194 244 307 370
#     4  10  22  41  63  87 119 155 212 255 305 363
#     4   9  18  30  49  82 124 163 199 234 284 360
#     4  10  22  39  60  90 127 163 197 244 310 381
#     4  11  21  37  64  95 128 163 205 255 309 366
#
# _framework density 21.711109
#
# number of rings (size 3 to 8) (size 9 to 14) (size 15 to 20)
#    0.000    2.000    1.429    1.714    2.000    1.714 
#    0.000    0.000    0.000   12.429    0.000    0.000 
#    0.000    0.000    0.000    0.000    0.000    0.000 
#
# Total GULP energy -156124.549263 kJ/mol
# GULP energy per Si atom -5575.876759 kJ/mol
# Density = 2.166169 g / cm^3
# Si number density = 21.711109 Si / 1000 Ang^3
#
#
#
# Elastic Constant Matrix: (Units=GPa)
#
#
# Indices 1 2 3 4 5 6 
#
# 1 79.0786 20.5701 46.4087 0.0000 -20.0277 0.0000
# 2 20.5701 37.2932 42.6934 0.0000 -6.2155 0.0000
# 3 46.4087 42.6934 143.1168 0.0000 -15.2904 0.0000
# 4 0.0000 0.0000 0.0000 -18.3239 0.0000 -27.1889
# 5 -20.0277 -6.2155 -15.2904 0.0000 33.4659 0.0000
# 6 0.0000 0.0000 0.0000 -27.1889 0.0000 3.5941
#
#
#
# Elastic Compliance Matrix: (Units=1/GPa)
#
#
# Indices 1 2 3 4 5 6 
#
# 1 0.018033 -0.004379 -0.003654 0.000000 0.008309 0.000000
# 2 -0.004379 0.041928 -0.011076 0.000000 0.000106 0.000000
# 3 -0.003654 -0.011076 0.011588 0.000000 0.001051 0.000000
# 4 0.000000 0.000000 0.000000 -0.004464 0.000000 -0.033771
# 5 0.008309 0.000106 0.001051 0.000000 0.035354 0.000000
# 6 0.000000 0.000000 0.000000 -0.033771 0.000000 0.022760
#
#
# Mechanical properties :
#
#
# Convention : Reuss Voigt Hill
#
# Bulk Modulus (GPa) = 30.00157 53.20367 41.60262
# Shear Modulus (GPa) = 28.64876 13.73499 21.19187
#
# Velocity S-wave (km/s) = 3.63649 2.51793 3.12762
# Velocity P-wave (km/s) = 5.61076 5.74559 5.67858
#
# Compressibility (1/GPa) = 0.03333159
#
# Stress axis : x y z
#
# Youngs Moduli (GPa) = 55.45252 23.85060 86.29267
#
# Poissons Ratio (x) = 0.10445 0.31528
# Poissons Ratio (y) = 0.24285 0.95579
# Poissons Ratio (z) = 0.20260 0.26417
#
# Static dielectric constant tensor:
#      x y z
#    x 1.805300 0.000000 -0.059630 
#    y 0.000000 1.815490 0.000000 
#    z -0.059630 0.000000 1.891270 
# 
# From -- ./inp_files/65974.got.cif
#   From: 2010.05.17/outbox.cif.g08.bks.cpg/sg12_33_cif.got.tgz:65974.got - 2010.06.03 13:09:07.
