data_PCOD9195390
_publ_section_title
;
Structure prediction by ZEFSAII (Michael W. Deem and Ramdas Pophale) SiO2 
 PCOD9195390
Probable space group: C 2/M
;
_chemical_formula_sum "Si O2"
_cell_formula_units_Z 56
_cell_length_a 19.323621
_cell_length_b 7.567019
_cell_length_c 21.951170
_cell_angle_alpha 90.000000
_cell_angle_beta 56.569180
_cell_angle_gamma 90.000000
_cell_volume 2678.700877
_symmetry_space_group_name_H-M "C 2/M"
_symmetry_group_IT_number 12
_symmetry_cell_setting 'monoclinic'
loop_
_space_group_symop_operation_xyz
x,y,z
-x,y,-z
-x,-y,-z
x,-y,z
1/2+x,1/2+y,z
1/2-x,1/2+y,-z
1/2-x,1/2-y,-z
1/2+x,1/2-y,z
loop_
_atom_site_type_symbol
_atom_site_label
_atom_site_fract_x
_atom_site_fract_y
_atom_site_fract_z
Si Si1 0.951386 0.801389 0.336264
Si Si2 0.108062 0.795065 0.763172
Si Si3 0.344236 0.790274 0.939798
Si Si4 0.494476 0.297999 0.070733
Si Si5 0.130357 0.710980 0.210643
Si Si6 0.790634 0.791183 0.709504
Si Si7 0.025617 0.783371 0.419887
O O1 0.913386 0.716874 0.293310
O O2 0.048889 0.807235 0.273698
O O3 0.959499 0.721893 0.400318
O O4 0.915935 0.000000 0.359172
O O5 0.061087 0.720453 0.846245
O O6 0.206383 0.788291 0.724793
O O7 0.079775 0.000000 0.773334
O O8 0.412163 0.701884 0.949357
O O9 0.356898 0.734131 0.864266
O O10 0.358489 0.000000 0.937076
O O11 0.250000 0.750000 0.000000
O O12 0.463330 0.500000 0.077516
O O13 0.500000 0.217490 0.000000
O O14 0.116533 0.500000 0.219395
O O15 0.204083 0.755631 0.220787
O O16 0.879570 0.725937 0.640513
O O17 0.786893 0.000000 0.700208
O O18 0.000000 0.731254 0.500000
O O19 0.025176 0.000000 0.417113
#
# Coordination Sequence:
#
# PCOD9195390 Si02
#       7
#     8   8   8   8   8   8   8
#     4   9  17  32  56  80 102 138 178 213 261 315
#     4  10  20  35  54  77 110 144 178 222 266 319
#     4  11  24  38  55  78 105 138 178 225 273 319
#     4  10  22  39  57  77 106 144 182 222 271 319
#     4  10  20  35  54  76 103 136 176 222 268 313
#     4  10  21  34  54  81 108 141 180 219 263 316
#     4   8  15  31  55  81 107 137 177 219 260 312
#
# _framework density 20.905657999999999
#
# number of rings (size 3 to 8) (size 9 to 14) (size 15 to 20)
#    0.000    2.286    1.429    2.143    2.000    3.143 
#    0.000    0.714    0.000   10.714    0.000    0.000 
#    0.000    0.000    0.000    0.000    0.000    0.000 
#
# Total GULP energy -156057.303693 kJ/mol
# GULP energy per Si atom -5573.475132 kJ/mol
# Density = 2.085808 g / cm^3
# Si number density = 20.905658 Si / 1000 Ang^3
#
#
#
# Elastic Constant Matrix: (Units=GPa)
#
#
# Indices 1 2 3 4 5 6 
#
# 1 152.7318 -4.5820 65.5461 0.0010 32.2103 0.0011
# 2 -4.5820 49.7966 3.9752 0.0096 2.3664 0.0026
# 3 65.5461 3.9752 124.2003 -0.0006 40.9946 -0.0001
# 4 0.0010 0.0096 -0.0006 111.1055 -0.0005 9.0476
# 5 32.2103 2.3664 40.9946 -0.0005 40.6067 -0.0001
# 6 0.0011 0.0026 -0.0001 9.0476 -0.0001 21.7146
#
#
#
# Elastic Compliance Matrix: (Units=1/GPa)
#
#
# Indices 1 2 3 4 5 6 
#
# 1 0.008850 0.001265 -0.003554 0.000000 -0.003506 -0.000001
# 2 0.001265 0.020330 -0.000894 -0.000002 -0.001286 -0.000002
# 3 -0.003554 -0.000894 0.013510 0.000000 -0.010768 0.000000
# 4 0.000000 -0.000002 0.000000 0.009317 0.000000 -0.003882
# 5 -0.003506 -0.001286 -0.010768 0.000000 0.038353 0.000000
# 6 -0.000001 -0.000002 0.000000 -0.003882 0.000000 0.047669
#
#
# Mechanical properties :
#
#
# Convention : Reuss Voigt Hill
#
# Bulk Modulus (GPa) = 27.52976 50.73413 39.13194
# Shear Modulus (GPa) = 31.94827 52.13797 42.04312
#
# Velocity S-wave (km/s) = 3.91348 4.99938 4.48938
# Velocity P-wave (km/s) = 5.79806 7.59249 6.75512
#
# Compressibility (1/GPa) = 0.03632433
#
# Stress axis : x y z
#
# Youngs Moduli (GPa) = 112.99599 49.18719 74.02102
#
# Poissons Ratio (x) = -0.06220 0.26305
# Poissons Ratio (y) = -0.14290 0.06616
# Poissons Ratio (z) = 0.40156 0.04396
#
# Static dielectric constant tensor:
#      x y z
#    x 1.732350 0.000000 0.046240 
#    y 0.000000 1.816550 0.000000 
#    z 0.046240 0.000000 1.853590 
# 
# From -- ./inp_files/275563.got.cif
#   From: 2010.05.17/outbox.cif.g08.bks.cpg/sg12_138_cif.got.tgz:275563.got - 2010.06.03 13:09:07.
