data_PCOD9195557
_publ_section_title
;
Structure prediction by ZEFSAII (Michael W. Deem and Ramdas Pophale) SiO2 
 PCOD9195557
Probable space group: C 2/M
;
_chemical_formula_sum "Si O2"
_cell_formula_units_Z 48
_cell_length_a 18.504564
_cell_length_b 9.117092
_cell_length_c 16.868467
_cell_angle_alpha 90.000000
_cell_angle_beta 74.321609
_cell_angle_gamma 90.000000
_cell_volume 2739.959007
_symmetry_space_group_name_H-M "C 2/M"
_symmetry_group_IT_number 12
_symmetry_cell_setting 'monoclinic'
loop_
_space_group_symop_operation_xyz
x,y,z
-x,y,-z
-x,-y,-z
x,-y,z
1/2+x,1/2+y,z
1/2-x,1/2+y,-z
1/2-x,1/2-y,-z
1/2+x,1/2-y,z
loop_
_atom_site_type_symbol
_atom_site_label
_atom_site_fract_x
_atom_site_fract_y
_atom_site_fract_z
Si Si1 0.187079 0.323539 0.573340
Si Si2 0.317618 0.830805 0.082430
Si Si3 0.531068 0.324671 0.579270
Si Si4 0.232197 0.321393 0.737322
Si Si5 0.601135 0.321207 0.262507
Si Si6 0.141522 0.830821 0.081893
O O1 0.191378 0.500000 0.566392
O O2 0.250000 0.250000 0.500000
O O3 0.106660 0.264047 0.570725
O O4 0.202045 0.280419 0.660487
O O5 0.316118 0.769888 0.172437
O O6 0.229429 0.827302 0.082711
O O7 0.340946 0.000000 0.077343
O O8 0.362895 0.750061 0.000314
O O9 0.500000 0.301919 0.500000
O O10 0.545114 0.500000 0.583906
O O11 0.467830 0.279615 0.661689
O O12 0.232162 0.500000 0.741611
O O13 0.318799 0.274954 0.724251
O O14 0.602917 0.500000 0.259491
O O15 0.598102 0.270633 0.171856
O O16 0.120802 0.000000 0.076694
#
# Coordination Sequence:
#
# PCOD9195557 Si02
#       6
#     8   8   8   8   8   8
#     4  11  22  36  54  75 100 128 162 203 247 295
#     4   8  13  23  41  65  92 121 155 193 233 279
#     4  10  20  35  55  75  97 129 167 203 244 296
#     4   8  15  29  49  71  95 127 163 197 237 287
#     4   8  14  27  48  71  95 126 163 198 236 288
#     4   8  13  22  39  65  94 121 152 193 237 278
#
# _framework density 17.518509999999999
#
# number of rings (size 3 to 8) (size 9 to 14) (size 15 to 20)
#    0.000    3.167    0.000    3.500    0.000    3.000 
#    0.000    2.500    0.000    8.000    0.000    7.000 
#    0.000    0.000    0.000    0.000    0.000    0.000 
#
# Total GULP energy -133645.163953 kJ/mol
# GULP energy per Si atom -5568.548498 kJ/mol
# Density = 1.747864 g / cm^3
# Si number density = 17.518510 Si / 1000 Ang^3
#
#
#
# Elastic Constant Matrix: (Units=GPa)
#
#
# Indices 1 2 3 4 5 6 
#
# 1 69.7426 31.7265 68.0891 0.0000 -2.7849 0.0000
# 2 31.7265 34.6912 57.9589 0.0000 0.9364 0.0000
# 3 68.0891 57.9589 196.2305 0.0000 -5.1281 0.0000
# 4 0.0000 0.0000 0.0000 25.1099 0.0000 -1.6080
# 5 -2.7849 0.9364 -5.1281 0.0000 24.4942 0.0000
# 6 0.0000 0.0000 0.0000 -1.6080 0.0000 18.4570
#
#
#
# Elastic Compliance Matrix: (Units=1/GPa)
#
#
# Indices 1 2 3 4 5 6 
#
# 1 0.026211 -0.017726 -0.003785 0.000000 0.002865 0.000000
# 2 -0.017726 0.069705 -0.014640 0.000000 -0.007745 0.000000
# 3 -0.003785 -0.014640 0.010796 0.000000 0.002390 0.000000
# 4 0.000000 0.000000 0.000000 0.040048 0.000000 0.003489
# 5 0.002865 -0.007745 0.002390 0.000000 0.041948 0.000000
# 6 0.000000 0.000000 0.000000 0.003489 0.000000 0.054484
#
#
# Mechanical properties :
#
#
# Convention : Reuss Voigt Hill
#
# Bulk Modulus (GPa) = 29.06014 68.46812 48.76413
# Shear Modulus (GPa) = 15.29226 23.13822 19.21524
#
# Velocity S-wave (km/s) = 2.95773 3.63821 3.31547
# Velocity P-wave (km/s) = 5.31869 7.53770 6.52324
#
# Compressibility (1/GPa) = 0.03441140
#
# Stress axis : x y z
#
# Youngs Moduli (GPa) = 38.15159 14.34623 92.62907
#
# Poissons Ratio (x) = 0.25430 0.35056
# Poissons Ratio (y) = 0.67626 1.35608
# Poissons Ratio (z) = 0.14439 0.21003
#
# Static dielectric constant tensor:
#      x y z
#    x 1.577530 0.000000 -0.001850 
#    y 0.000000 1.594760 0.000000 
#    z -0.001850 0.000000 1.628820 
# 
# From -- ./inp_files/212665.got.cif
#   From: 2010.05.17/outbox.cif.g08.bks.cpg/sg12_107_cif.got.tgz:212665.got - 2010.06.03 13:09:07.
