data_PCOD9195326
_publ_section_title
;
Structure prediction by ZEFSAII (Michael W. Deem and Ramdas Pophale) SiO2 
 PCOD9195326
Probable space group: C 2/M
;
_chemical_formula_sum "Si O2"
_cell_formula_units_Z 48
_cell_length_a 9.258589
_cell_length_b 27.038346
_cell_length_c 11.528731
_cell_angle_alpha 90.000000
_cell_angle_beta 65.085482
_cell_angle_gamma 90.000000
_cell_volume 2617.481957
_symmetry_space_group_name_H-M "C 2/M"
_symmetry_group_IT_number 12
_symmetry_cell_setting 'monoclinic'
loop_
_space_group_symop_operation_xyz
x,y,z
-x,y,-z
-x,-y,-z
x,-y,z
1/2+x,1/2+y,z
1/2-x,1/2+y,-z
1/2-x,1/2-y,-z
1/2+x,1/2-y,z
loop_
_atom_site_type_symbol
_atom_site_label
_atom_site_fract_x
_atom_site_fract_y
_atom_site_fract_z
Si Si1 0.895144 0.306411 0.185674
Si Si2 0.686006 0.443413 0.895459
Si Si3 0.818682 0.803108 0.519181
Si Si4 0.262951 0.293363 0.123843
Si Si5 0.134314 0.870081 0.716874
Si Si6 0.285065 0.366752 0.921574
O O1 0.790902 0.315193 0.334640
O O2 0.828218 0.259839 0.135560
O O3 0.856375 0.352012 0.115271
O O4 0.074491 0.295247 0.162652
O O5 0.739537 0.500000 0.877785
O O6 0.700370 0.418631 0.762885
O O7 0.500000 0.442342 0.000000
O O8 0.760659 0.408766 0.969950
O O9 0.750000 0.750000 0.500000
O O10 0.819612 0.847553 0.423860
O O11 0.000000 0.795807 0.500000
O O12 0.305998 0.327083 0.217971
O O13 0.334417 0.320070 0.986664
O O14 0.943433 0.876809 0.792875
#
# Coordination Sequence:
#
# PCOD9195326 Si02
#       6
#     8   8   8   8   8   8
#     4  12  22  34  51  74 111 150 185 217 260 315
#     4   8  16  33  60  85 105 132 174 228 282 327
#     4  12  23  37  52  72 112 153 187 216 254 310
#     4  11  22  34  51  75 109 147 183 222 262 317
#     4  10  20  36  55  79 106 142 184 222 265 318
#     4  10  20  35  53  80 108 136 176 225 276 318
#
# _framework density 18.338235000000001
#
# number of rings (size 3 to 8) (size 9 to 14) (size 15 to 20)
#    0.000    1.500    3.333    4.500    0.000    1.333 
#    0.000    0.000    0.000    9.500    0.000    4.667 
#    0.000    0.000    0.000    0.000    0.000    0.000 
#
# Total GULP energy -133818.361199 kJ/mol
# GULP energy per Si atom -5575.765050 kJ/mol
# Density = 1.829650 g / cm^3
# Si number density = 18.338235 Si / 1000 Ang^3
#
#
#
# Elastic Constant Matrix: (Units=GPa)
#
#
# Indices 1 2 3 4 5 6 
#
# 1 98.3156 33.8128 13.3217 0.0000 -3.5388 0.0000
# 2 33.8128 111.3565 43.3452 0.0000 12.8570 0.0000
# 3 13.3217 43.3452 105.7472 0.0000 7.6850 0.0000
# 4 0.0000 0.0000 0.0000 10.7221 0.0000 -5.6270
# 5 -3.5388 12.8570 7.6850 0.0000 24.9313 0.0000
# 6 0.0000 0.0000 0.0000 -5.6270 0.0000 8.6645
#
#
#
# Elastic Compliance Matrix: (Units=1/GPa)
#
#
# Indices 1 2 3 4 5 6 
#
# 1 0.011672 -0.003922 -0.000133 0.000000 0.003720 0.000000
# 2 -0.003922 0.012463 -0.004201 0.000000 -0.005689 0.000000
# 3 -0.000133 -0.004201 0.011292 0.000000 -0.001333 0.000000
# 4 0.000000 0.000000 0.000000 0.141487 0.000000 0.091886
# 5 0.003720 -0.005689 -0.001333 0.000000 0.043983 0.000000
# 6 0.000000 0.000000 0.000000 0.091886 0.000000 0.175086
#
#
# Mechanical properties :
#
#
# Convention : Reuss Voigt Hill
#
# Bulk Modulus (GPa) = 52.86787 55.15318 54.01053
# Shear Modulus (GPa) = 11.93883 23.85956 17.89920
#
# Velocity S-wave (km/s) = 2.55431 3.61097 3.12758
# Velocity P-wave (km/s) = 6.13117 6.89393 6.52370
#
# Compressibility (1/GPa) = 0.01891508
#
# Stress axis : x y z
#
# Youngs Moduli (GPa) = 85.67446 80.23698 88.55690
#
# Poissons Ratio (x) = 0.31468 0.01180
# Poissons Ratio (y) = 0.33600 0.37203
# Poissons Ratio (z) = 0.01142 0.33708
#
# Static dielectric constant tensor:
#      x y z
#    x 1.657300 0.000000 -0.005410 
#    y 0.000000 1.649900 0.000000 
#    z -0.005410 0.000000 1.669950 
# 
# From -- ./inp_files/123491.got.cif
#   From: 2010.05.17/outbox.cif.g08.bks.cpg/sg12_62_cif.got.tgz:123491.got - 2010.06.03 13:09:07.
