data_PCOD9195283
_publ_section_title
;
Structure prediction by ZEFSAII (Michael W. Deem and Ramdas Pophale) SiO2 
 PCOD9195283
Probable space group: C 2/M
;
_chemical_formula_sum "Si O2"
_cell_formula_units_Z 28
_cell_length_a 14.928561
_cell_length_b 19.202404
_cell_length_c 15.233489
_cell_angle_alpha 90.000000
_cell_angle_beta 160.941144
_cell_angle_gamma 90.000000
_cell_volume 1425.963213
_symmetry_space_group_name_H-M "C 2/M"
_symmetry_group_IT_number 12
_symmetry_cell_setting 'monoclinic'
loop_
_space_group_symop_operation_xyz
x,y,z
-x,y,-z
-x,-y,-z
x,-y,z
1/2+x,1/2+y,z
1/2-x,1/2+y,-z
1/2-x,1/2-y,-z
1/2+x,1/2-y,z
loop_
_atom_site_type_symbol
_atom_site_label
_atom_site_fract_x
_atom_site_fract_y
_atom_site_fract_z
Si Si1 0.311447 0.670943 0.024758
Si Si2 0.745040 0.131220 0.434483
Si Si3 0.793834 0.500000 0.727506
Si Si4 0.797267 0.240567 0.737730
O O1 0.474373 0.629896 0.251351
O O2 0.517464 0.680261 0.134458
O O3 0.250000 0.750000 0.000000
O O4 0.011346 0.638813 0.736396
O O5 0.689523 0.067330 0.319084
O O6 0.756429 0.200690 0.385294
O O7 0.500000 0.500000 0.500000
O O8 0.000000 0.500000 0.000000
O O9 0.500000 0.220237 0.500000
O O10 0.000000 0.271066 0.000000
#
# Coordination Sequence:
#
# PCOD9195283 Si02
#       4
#     8   8   4   8
#     4  10  20  35  53  76 107 144 181 221 273 328
#     4  11  21  36  53  77 113 148 177 216 266 330
#     4  12  24  38  56  84 114 150 188 218 256 324
#     4  11  19  31  52  80 106 134 172 226 276 316
#
# _framework density 19.635850000000001
#
# number of rings (size 3 to 8) (size 9 to 14) (size 15 to 20)
#    0.000    1.143    0.000   12.000    0.000    0.000 
#    0.000    0.000    0.000    0.000    0.000   20.000 
#    0.000    0.000    0.000    0.000    0.000    0.000 
#
# Total GULP energy -78164.152132 kJ/mol
# GULP energy per Si atom -5583.153724 kJ/mol
# Density = 1.959116 g / cm^3
# Si number density = 19.635850 Si / 1000 Ang^3
#
#
#
# Elastic Constant Matrix: (Units=GPa)
#
#
# Indices 1 2 3 4 5 6 
#
# 1 91.2628 17.4895 21.3082 0.0005 40.8431 0.0003
# 2 17.4895 47.1789 2.3200 0.0006 11.7697 0.0001
# 3 21.3082 2.3200 116.2235 0.0025 19.2467 0.0019
# 4 0.0005 0.0006 0.0025 21.4781 0.0007 -5.8614
# 5 40.8431 11.7697 19.2467 0.0007 49.4462 0.0011
# 6 0.0003 0.0001 0.0019 -5.8614 0.0011 22.9725
#
#
#
# Elastic Compliance Matrix: (Units=1/GPa)
#
#
# Indices 1 2 3 4 5 6 
#
# 1 0.017903 -0.003182 -0.000957 0.000000 -0.013658 0.000001
# 2 -0.003182 0.023124 0.000639 -0.000001 -0.003124 0.000000
# 3 -0.000957 0.000639 0.009258 -0.000001 -0.002965 -0.000001
# 4 0.000000 -0.000001 -0.000001 0.050044 -0.000001 0.012769
# 5 -0.013658 -0.003124 -0.002965 -0.000001 0.033404 -0.000001
# 6 0.000001 0.000000 -0.000001 0.012769 -0.000001 0.046788
#
#
# Mechanical properties :
#
#
# Convention : Reuss Voigt Hill
#
# Bulk Modulus (GPa) = 23.10309 37.43341 30.26825
# Shear Modulus (GPa) = 24.75877 33.01586 28.88732
#
# Velocity S-wave (km/s) = 3.55476 4.10495 3.83972
# Velocity P-wave (km/s) = 5.35161 6.44768 5.92505
#
# Compressibility (1/GPa) = 0.04328426
#
# Stress axis : x y z
#
# Youngs Moduli (GPa) = 55.85601 43.24583 108.01637
#
# Poissons Ratio (x) = 0.13763 0.10337
# Poissons Ratio (y) = 0.17776 -0.06905
# Poissons Ratio (z) = 0.05345 -0.02765
#
# Static dielectric constant tensor:
#      x y z
#    x 1.749670 0.000060 0.004900 
#    y 0.000060 -0.382930 0.000180 
#    z 0.004900 0.000180 1.695060 
# 
# From -- ./inp_files/251.got.cif
#   From: 2010.05.17/outbox.cif.g08.bks.cpg/sg12_1_cif.got.tgz:251.got - 2010.06.03 13:09:07.
