data_PCOD9195864
_publ_section_title
;
Structure prediction by ZEFSAII (Michael W. Deem and Ramdas Pophale) SiO2 
 PCOD9195864
Probable space group: C 2/M
;
_chemical_formula_sum "Si O2"
_cell_formula_units_Z 56
_cell_length_a 26.219658
_cell_length_b 14.281404
_cell_length_c 8.429891
_cell_angle_alpha 90.000000
_cell_angle_beta 64.812783
_cell_angle_gamma 90.000000
_cell_volume 2856.479060
_symmetry_space_group_name_H-M "C 2/M"
_symmetry_group_IT_number 12
_symmetry_cell_setting 'monoclinic'
loop_
_space_group_symop_operation_xyz
x,y,z
-x,y,-z
-x,-y,-z
x,-y,z
1/2+x,1/2+y,z
1/2-x,1/2+y,-z
1/2-x,1/2-y,-z
1/2+x,1/2-y,z
loop_
_atom_site_type_symbol
_atom_site_label
_atom_site_fract_x
_atom_site_fract_y
_atom_site_fract_z
Si Si1 0.585138 0.606166 0.572199
Si Si2 0.893642 0.104173 0.830311
Si Si3 0.044063 0.606294 0.794900
Si Si4 0.263207 0.605741 0.954751
Si Si5 0.012870 0.213912 0.170218
Si Si6 0.242278 0.731339 0.268438
Si Si7 0.846550 0.267038 0.341156
O O1 0.598396 0.500000 0.598415
O O2 0.594733 0.616723 0.372373
O O3 0.521138 0.632857 0.695674
O O4 0.621032 0.678567 0.627582
O O5 0.826881 0.103170 0.933428
O O6 0.922825 0.188763 0.884139
O O7 0.913758 0.000000 0.853379
O O8 0.051613 0.500000 0.723603
O O9 0.011647 0.686716 0.736525
O O10 0.104855 0.654520 0.754936
O O11 0.000000 0.598434 0.000000
O O12 0.242509 0.500000 0.961352
O O13 0.265356 0.663558 0.788923
O O14 0.231662 0.664712 0.131506
O O15 0.000000 0.208288 0.000000
O O16 0.198321 0.703467 0.463186
O O17 0.305654 0.733892 0.254031
#
# Coordination Sequence:
#
# PCOD9195864 Si02
#       7
#     8   8   8   8   8   8   8
#     4  10  20  35  55  83 116 150 187 228 293 367
#     4  10  20  35  56  81 115 154 185 228 296 363
#     4   9  20  38  58  83 114 152 197 242 293 349
#     4  10  22  39  59  85 118 156 196 241 297 363
#     4  10  21  34  55  84 114 146 190 242 292 347
#     4  10  22  39  60  88 120 154 200 245 302 357
#     4  10  21  38  62  89 117 154 196 253 301 349
#
# _framework density 19.604555000000001
#
# number of rings (size 3 to 8) (size 9 to 14) (size 15 to 20)
#    0.000    2.143    1.429    0.857    6.000    4.000 
#    0.000    2.857    0.000    6.857    0.000    0.000 
#    0.000    0.000    0.000    0.000    0.000    0.000 
#
# Total GULP energy -155980.501717 kJ/mol
# GULP energy per Si atom -5570.732204 kJ/mol
# Density = 1.955993 g / cm^3
# Si number density = 19.604555 Si / 1000 Ang^3
#
#
#
# Elastic Constant Matrix: (Units=GPa)
#
#
# Indices 1 2 3 4 5 6 
#
# 1 67.8897 27.8832 -5.2056 0.0000 -4.6715 0.0000
# 2 27.8832 111.8653 15.2773 0.0000 8.1808 0.0000
# 3 -5.2056 15.2773 56.1439 0.0000 -12.7849 0.0000
# 4 0.0000 0.0000 0.0000 13.0243 0.0000 -0.7682
# 5 -4.6715 8.1808 -12.7849 0.0000 23.5925 0.0000
# 6 0.0000 0.0000 0.0000 -0.7682 0.0000 19.3659
#
#
#
# Elastic Compliance Matrix: (Units=1/GPa)
#
#
# Indices 1 2 3 4 5 6 
#
# 1 0.018103 -0.005836 0.005183 0.000000 0.008417 0.000000
# 2 -0.005836 0.011769 -0.005631 0.000000 -0.008288 0.000000
# 3 0.005183 -0.005631 0.023389 0.000000 0.015653 0.000000
# 4 0.000000 0.000000 0.000000 0.076959 0.000000 0.003053
# 5 0.008417 -0.008288 0.015653 0.000000 0.055409 0.000000
# 6 0.000000 0.000000 0.000000 0.003053 0.000000 0.051758
#
#
# Mechanical properties :
#
#
# Convention : Reuss Voigt Hill
#
# Bulk Modulus (GPa) = 24.57369 34.64543 29.60956
# Shear Modulus (GPa) = 18.97396 24.39282 21.68339
#
# Velocity S-wave (km/s) = 3.11438 3.53121 3.32932
# Velocity P-wave (km/s) = 5.04919 5.85973 5.46950
#
# Compressibility (1/GPa) = 0.04069393
#
# Stress axis : x y z
#
# Youngs Moduli (GPa) = 55.23891 84.96895 42.75588
#
# Poissons Ratio (x) = 0.49586 -0.22161
# Poissons Ratio (y) = 0.32236 0.24075
# Poissons Ratio (z) = -0.28631 0.47844
#
# Static dielectric constant tensor:
#      x y z
#    x 1.717100 0.000000 -0.020640 
#    y 0.000000 1.722840 0.000000 
#    z -0.020640 0.000000 1.718930 
# 
# From -- ./inp_files/96294.got.cif
#   From: 2010.05.17/outbox.cif.g08.bks.cpg/sg12_49_cif.got.tgz:96294.got - 2010.06.03 13:09:07.
