data_PCOD9195418
_publ_section_title
;
Structure prediction by ZEFSAII (Michael W. Deem and Ramdas Pophale) SiO2 
 PCOD9195418
Probable space group: C 2/M
;
_chemical_formula_sum "Si O2"
_cell_formula_units_Z 56
_cell_length_a 30.389734
_cell_length_b 11.413259
_cell_length_c 10.002027
_cell_angle_alpha 90.000000
_cell_angle_beta 61.777008
_cell_angle_gamma 90.000000
_cell_volume 3056.726444
_symmetry_space_group_name_H-M "C 2/M"
_symmetry_group_IT_number 12
_symmetry_cell_setting 'monoclinic'
loop_
_space_group_symop_operation_xyz
x,y,z
-x,y,-z
-x,-y,-z
x,-y,z
1/2+x,1/2+y,z
1/2-x,1/2+y,-z
1/2-x,1/2-y,-z
1/2+x,1/2-y,z
loop_
_atom_site_type_symbol
_atom_site_label
_atom_site_fract_x
_atom_site_fract_y
_atom_site_fract_z
Si Si1 0.587247 0.866235 0.520658
Si Si2 0.339579 0.137317 0.833939
Si Si3 0.181336 0.633799 0.584332
Si Si4 0.758354 0.636770 0.747928
Si Si5 0.520835 0.367317 0.619868
Si Si6 0.455763 0.364134 0.971374
Si Si7 0.346471 0.263604 0.105504
O O1 0.615288 0.852952 0.337533
O O2 0.630013 0.865277 0.572582
O O3 0.553860 0.750222 0.589257
O O4 0.564710 0.000000 0.555728
O O5 0.290883 0.185748 0.824524
O O6 0.331792 0.000000 0.872613
O O7 0.349598 0.197179 0.960128
O O8 0.196395 0.500000 0.589278
O O9 0.221171 0.687441 0.421936
O O10 0.171660 0.691004 0.740242
O O11 0.772656 0.500000 0.722509
O O12 0.699436 0.646925 0.847869
O O13 0.500000 0.365494 0.500000
O O14 0.543745 0.500000 0.607930
O O15 0.476348 0.359108 0.791164
O O16 0.450574 0.500000 0.018818
O O17 0.500000 0.311975 0.000000
O O18 0.401370 0.309863 0.060036
#
# Coordination Sequence:
#
# PCOD9195418 Si02
#       7
#     8   8   8   8   8   8   8
#     4   9  18  36  57  75 102 144 181 212 263 329
#     4   9  19  34  53  79 110 136 165 214 273 321
#     4   9  19  34  52  75 105 136 170 216 267 313
#     4   9  19  35  52  75 106 140 173 209 262 328
#     4  10  20  35  54  77 106 139 177 226 275 312
#     4  10  22  37  51  73 107 142 175 217 270 317
#     4  12  19  31  56  79 100 134 181 219 258 314
#
# _framework density 18.320253000000001
#
# number of rings (size 3 to 8) (size 9 to 14) (size 15 to 20)
#    0.000    2.286    0.000    5.143    0.000    0.286 
#    0.000    2.857    0.000   10.714    0.000    0.000 
#    0.000    0.000    0.000    0.000    0.000    0.000 
#
# Total GULP energy -155877.418288 kJ/mol
# GULP energy per Si atom -5567.050653 kJ/mol
# Density = 1.827856 g / cm^3
# Si number density = 18.320253 Si / 1000 Ang^3
#
#
#
# Elastic Constant Matrix: (Units=GPa)
#
#
# Indices 1 2 3 4 5 6 
#
# 1 85.1548 32.7418 31.0036 0.0000 -12.1245 0.0000
# 2 32.7418 73.2494 24.9605 0.0000 -10.1534 0.0000
# 3 31.0036 24.9605 77.9584 0.0000 8.7419 0.0000
# 4 0.0000 0.0000 0.0000 25.2955 0.0000 -4.4521
# 5 -12.1245 -10.1534 8.7419 0.0000 31.2286 0.0000
# 6 0.0000 0.0000 0.0000 -4.4521 0.0000 31.5645
#
#
#
# Elastic Compliance Matrix: (Units=1/GPa)
#
#
# Indices 1 2 3 4 5 6 
#
# 1 0.016551 -0.004472 -0.005893 0.000000 0.006622 0.000000
# 2 -0.004472 0.017956 -0.004574 0.000000 0.005382 0.000000
# 3 -0.005893 -0.004574 0.017612 0.000000 -0.008705 0.000000
# 4 0.000000 0.000000 0.000000 0.040539 0.000000 0.005718
# 5 0.006622 0.005382 -0.008705 0.000000 0.038779 0.000000
# 6 0.000000 0.000000 0.000000 0.005718 0.000000 0.032488
#
#
# Mechanical properties :
#
#
# Convention : Reuss Voigt Hill
#
# Bulk Modulus (GPa) = 44.96362 45.97493 45.46928
# Shear Modulus (GPa) = 24.84890 27.46151 26.15520
#
# Velocity S-wave (km/s) = 3.68688 3.87585 3.78255
# Velocity P-wave (km/s) = 6.53609 6.72155 6.62947
#
# Compressibility (1/GPa) = 0.02224020
#
# Stress axis : x y z
#
# Youngs Moduli (GPa) = 60.41846 55.69268 56.78099
#
# Poissons Ratio (x) = 0.24908 0.33461
# Poissons Ratio (y) = 0.27021 0.25971
# Poissons Ratio (z) = 0.35604 0.25473
#
# Static dielectric constant tensor:
#      x y z
#    x 1.647610 0.000000 0.011380 
#    y 0.000000 1.651820 0.000000 
#    z 0.011380 0.000000 1.630300 
# 
# From -- ./inp_files/110080.got.cif
#   From: 2010.05.17/outbox.cif.g08.bks.cpg/sg12_56_cif.got.tgz:110080.got - 2010.06.03 13:09:07.
