data_PCOD9195444
_publ_section_title
;
Structure prediction by ZEFSAII (Michael W. Deem and Ramdas Pophale) SiO2 
 PCOD9195444
Probable space group: C 2/M
;
_chemical_formula_sum "Si O2"
_cell_formula_units_Z 48
_cell_length_a 9.144979
_cell_length_b 29.110652
_cell_length_c 17.566057
_cell_angle_alpha 90.000000
_cell_angle_beta 151.889000
_cell_angle_gamma 90.000000
_cell_volume 2203.418103
_symmetry_space_group_name_H-M "C 2/M"
_symmetry_group_IT_number 12
_symmetry_cell_setting 'monoclinic'
loop_
_space_group_symop_operation_xyz
x,y,z
-x,y,-z
-x,-y,-z
x,-y,z
1/2+x,1/2+y,z
1/2-x,1/2+y,-z
1/2-x,1/2-y,-z
1/2+x,1/2-y,z
loop_
_atom_site_type_symbol
_atom_site_label
_atom_site_fract_x
_atom_site_fract_y
_atom_site_fract_z
Si Si1 0.117279 0.688833 0.403448
Si Si2 0.222602 0.688799 0.211273
Si Si3 0.590491 0.734621 0.259269
Si Si4 0.627279 0.000000 0.973440
Si Si5 0.243941 0.898362 0.182941
Si Si6 0.260175 0.500000 0.818294
Si Si7 0.873119 0.401261 0.026555
O O1 0.875668 0.704633 0.358117
O O2 0.980779 0.643294 0.301141
O O3 0.453043 0.682795 0.594565
O O4 0.140759 0.729981 0.352760
O O5 0.327714 0.701524 0.173417
O O6 0.037816 0.730732 0.164892
O O7 0.030824 0.642855 0.134353
O O8 0.539026 0.049062 0.897176
O O9 0.500000 0.000000 0.000000
O O10 0.001501 0.000000 0.143496
O O11 0.391230 0.949605 0.249880
O O12 0.996995 0.896595 0.138916
O O13 0.000000 0.893595 0.000000
O O14 0.500000 0.500000 0.000000
O O15 0.000000 0.402742 0.000000
#
# Coordination Sequence:
#
# PCOD9195444 Si02
#       7
#     8   8   8   4   8   4   8
#     4  11  20  35  55  76 100 136 175 210 247 299
#     4  11  20  35  55  76 100 136 175 210 247 299
#     4  10  21  36  54  72 102 142 175 200 249 314
#     4   8  16  32  53  72  99 136 166 194 248 316
#     4  10  20  35  54  78 104 133 168 209 254 302
#     4   8  16  32  53  72  99 136 166 194 248 316
#     4  10  20  35  54  78 104 133 168 209 254 302
#
# _framework density 21.784334000000001
#
# number of rings (size 3 to 8) (size 9 to 14) (size 15 to 20)
#    0.000    2.000    0.000    6.000    0.000    0.000 
#    0.000   17.500    0.000    0.000    0.000   18.667 
#    0.000    0.000    0.000    0.000    0.000    0.000 
#
# Total GULP energy -133884.631277 kJ/mol
# GULP energy per Si atom -5578.526303 kJ/mol
# Density = 2.173475 g / cm^3
# Si number density = 21.784334 Si / 1000 Ang^3
#
#
#
# Elastic Constant Matrix: (Units=GPa)
#
#
# Indices 1 2 3 4 5 6 
#
# 1 109.5347 4.5810 8.6329 0.0000 2.9423 0.0000
# 2 4.5810 200.8130 64.6819 0.0000 7.9720 0.0000
# 3 8.6329 64.6819 70.2159 0.0001 10.3806 0.0000
# 4 0.0000 0.0000 0.0001 12.8566 0.0000 10.2253
# 5 2.9423 7.9720 10.3806 0.0000 10.5748 0.0000
# 6 0.0000 0.0000 0.0000 10.2253 0.0000 21.3373
#
#
#
# Elastic Compliance Matrix: (Units=1/GPa)
#
#
# Indices 1 2 3 4 5 6 
#
# 1 0.009251 0.000202 -0.001077 0.000000 -0.001669 0.000000
# 2 0.000202 0.007099 -0.006744 0.000000 0.001212 0.000000
# 3 -0.001077 -0.006744 0.023150 0.000000 -0.017341 0.000000
# 4 0.000000 0.000000 0.000000 0.125685 0.000000 -0.060231
# 5 -0.001669 0.001212 -0.017341 0.000000 0.111139 0.000000
# 6 0.000000 0.000000 0.000000 -0.060231 0.000000 0.075730
#
#
# Mechanical properties :
#
#
# Convention : Reuss Voigt Hill
#
# Bulk Modulus (GPa) = 41.21434 59.59500 50.40467
# Shear Modulus (GPa) = 13.31989 29.13158 21.22574
#
# Velocity S-wave (km/s) = 2.47542 3.66084 3.12486
# Velocity P-wave (km/s) = 5.20871 6.72943 6.01730
#
# Compressibility (1/GPa) = 0.02426340
#
# Stress axis : x y z
#
# Youngs Moduli (GPa) = 108.09910 140.86154 43.19648
#
# Poissons Ratio (x) = -0.02846 0.04651
# Poissons Ratio (y) = -0.02184 0.29130
# Poissons Ratio (z) = 0.11639 0.94992
#
# Static dielectric constant tensor:
#      x y z
#    x 1.899630 0.000000 -0.033150 
#    y 0.000000 1.846450 0.000000 
#    z -0.033150 0.000000 1.780480 
# 
# From -- ./inp_files/260470.got.cif
#   From: 2010.05.17/outbox.cif.g08.bks.cpg/sg12_131_cif.got.tgz:260470.got - 2010.06.03 13:09:07.
