data_PCOD9195300
_publ_section_title
;
Structure prediction by ZEFSAII (Michael W. Deem and Ramdas Pophale) SiO2 
 PCOD9195300
Probable space group: C 2/M
;
_chemical_formula_sum "Si O2"
_cell_formula_units_Z 56
_cell_length_a 30.472814
_cell_length_b 11.765130
_cell_length_c 8.635154
_cell_angle_alpha 90.000000
_cell_angle_beta 109.212916
_cell_angle_gamma 90.000000
_cell_volume 2923.414420
_symmetry_space_group_name_H-M "C 2/M"
_symmetry_group_IT_number 12
_symmetry_cell_setting 'monoclinic'
loop_
_space_group_symop_operation_xyz
x,y,z
-x,y,-z
-x,-y,-z
x,-y,z
1/2+x,1/2+y,z
1/2-x,1/2+y,-z
1/2-x,1/2-y,-z
1/2+x,1/2-y,z
loop_
_atom_site_type_symbol
_atom_site_label
_atom_site_fract_x
_atom_site_fract_y
_atom_site_fract_z
Si Si1 0.636697 0.873227 0.591165
Si Si2 0.829998 0.289437 0.048118
Si Si3 0.471225 0.868763 0.625586
Si Si4 0.263036 0.618089 0.151193
Si Si5 0.798180 0.805703 0.506176
Si Si6 0.368832 0.372960 0.845145
Si Si7 0.969225 0.868015 0.809045
O O1 0.642974 0.851211 0.782311
O O2 0.583255 0.864129 0.480291
O O3 0.667129 0.786731 0.527362
O O4 0.653706 0.000000 0.578479
O O5 0.794143 0.207264 0.096047
O O6 0.792248 0.360983 0.907493
O O7 0.862982 0.220001 0.972173
O O8 0.500000 0.864608 0.500000
O O9 0.481010 0.749339 0.729165
O O10 0.479419 0.000000 0.701491
O O11 0.269664 0.500000 0.073243
O O12 0.283981 0.616577 0.346152
O O13 0.750000 0.750000 0.500000
O O14 0.824802 0.861656 0.679969
O O15 0.370487 0.500000 0.914498
O O16 0.415464 0.357775 0.799065
O O17 0.974725 0.000000 0.748571
O O18 0.000000 0.867107 0.000000
#
# Coordination Sequence:
#
# PCOD9195300 Si02
#       7
#     8   8   8   8   8   8   8
#     4  10  22  40  60  84 120 158 198 250 300 357
#     4  10  21  36  54  82 113 152 201 237 291 351
#     4  10  22  42  67  93 122 159 203 250 307 371
#     4  10  20  35  53  77 113 153 197 243 285 344
#     4  11  21  38  56  85 116 157 204 241 296 363
#     4  11  22  39  60  85 119 156 197 252 305 357
#     4  10  23  43  66  93 124 156 199 255 312 369
#
# _framework density 19.155684000000001
#
# number of rings (size 3 to 8) (size 9 to 14) (size 15 to 20)
#    0.000    1.714    2.857    1.286    2.000    1.714 
#    0.000    2.143    0.000    0.000    0.000    0.000 
#    0.000    0.000    0.000    0.000    0.000    0.000 
#
# Total GULP energy -155890.479271 kJ/mol
# GULP energy per Si atom -5567.517117 kJ/mol
# Density = 1.911208 g / cm^3
# Si number density = 19.155684 Si / 1000 Ang^3
#
#
#
# Elastic Constant Matrix: (Units=GPa)
#
#
# Indices 1 2 3 4 5 6 
#
# 1 58.9504 21.8670 -0.4286 0.0000 -3.1996 0.0000
# 2 21.8670 135.9216 26.7105 0.0000 -4.8930 0.0000
# 3 -0.4286 26.7105 44.7457 0.0000 4.7304 0.0000
# 4 0.0000 0.0000 0.0000 68.3359 0.0000 20.3691
# 5 -3.1996 -4.8930 4.7304 0.0000 23.4307 0.0000
# 6 0.0000 0.0000 0.0000 20.3691 0.0000 -47.4721
#
#
#
# Elastic Compliance Matrix: (Units=1/GPa)
#
#
# Indices 1 2 3 4 5 6 
#
# 1 0.018270 -0.003278 0.001983 0.000000 0.001410 0.000000
# 2 -0.003278 0.009108 -0.005744 0.000000 0.002614 0.000000
# 3 0.001983 -0.005744 0.026459 0.000000 -0.006271 0.000000
# 4 0.000000 0.000000 0.000000 0.012974 0.000000 0.005567
# 5 0.001410 0.002614 -0.006271 0.000000 0.044683 0.000000
# 6 0.000000 0.000000 0.000000 0.005567 0.000000 -0.018676
#
#
# Mechanical properties :
#
#
# Convention : Reuss Voigt Hill
#
# Bulk Modulus (GPa) = 25.15224 37.32393 31.23808
# Shear Modulus (GPa) = 41.61433 21.62350 31.61891
#
# Velocity S-wave (km/s) = 4.66599 3.36345 4.06720
# Velocity P-wave (km/s) = 6.49519 5.88307 6.19670
#
# Compressibility (1/GPa) = 0.03975790
#
# Stress axis : x y z
#
# Youngs Moduli (GPa) = 54.73338 109.79923 37.79361
#
# Poissons Ratio (x) = 0.35995 -0.07494
# Poissons Ratio (y) = 0.17943 0.21710
# Poissons Ratio (z) = -0.10853 0.63073
#
# Static dielectric constant tensor:
#      x y z
#    x 1.634170 0.000000 0.014090 
#    y 0.000000 1.758510 0.000000 
#    z 0.014090 0.000000 1.678450 
# 
# From -- ./inp_files/110095.got.cif
#   From: 2010.05.17/outbox.cif.g08.bks.cpg/sg12_56_cif.got.tgz:110095.got - 2010.06.03 13:09:07.
