data_PCOD9195922
_publ_section_title
;
Structure prediction by ZEFSAII (Michael W. Deem and Ramdas Pophale) SiO2 
 PCOD9195922
Probable space group: C 2/M
;
_chemical_formula_sum "Si O2"
_cell_formula_units_Z 48
_cell_length_a 9.895825
_cell_length_b 27.311197
_cell_length_c 9.386341
_cell_angle_alpha 90.000000
_cell_angle_beta 57.925092
_cell_angle_gamma 90.000000
_cell_volume 2149.583105
_symmetry_space_group_name_H-M "C 2/M"
_symmetry_group_IT_number 12
_symmetry_cell_setting 'monoclinic'
loop_
_space_group_symop_operation_xyz
x,y,z
-x,y,-z
-x,-y,-z
x,-y,z
1/2+x,1/2+y,z
1/2-x,1/2+y,-z
1/2-x,1/2-y,-z
1/2+x,1/2-y,z
loop_
_atom_site_type_symbol
_atom_site_label
_atom_site_fract_x
_atom_site_fract_y
_atom_site_fract_z
Si Si1 0.256191 0.446239 0.110065
Si Si2 0.674708 0.299820 0.983120
Si Si3 0.503450 0.342536 0.339931
Si Si4 0.382992 0.056144 0.397125
Si Si5 0.760653 0.635016 0.692955
Si Si6 0.140166 0.054743 0.270221
O O1 0.308653 0.500000 0.126368
O O2 0.337630 0.405311 0.160790
O O3 0.067150 0.440581 0.246114
O O4 0.280731 0.442113 0.929103
O O5 0.796345 0.328245 0.806375
O O6 0.500000 0.294686 0.000000
O O7 0.750000 0.250000 0.000000
O O8 0.637972 0.328519 0.150975
O O9 0.500000 0.321509 0.500000
O O10 0.338631 0.330853 0.356175
O O11 0.515917 0.401378 0.346014
O O12 0.349873 0.099193 0.529573
O O13 0.271129 0.061119 0.321102
O O14 0.358782 0.000000 0.466205
O O15 0.070746 0.000000 0.319965
#
# Coordination Sequence:
#
# PCOD9195922 Si02
#       6
#     8   8   8   8   8   8
#     4  10  20  35  55  88 131 174 213 248 295 355
#     4  10  24  49  71  93 123 157 203 270 333 385
#     4  11  22  42  65  88 123 160 202 256 311 372
#     4  10  20  35  56  90 136 172 207 251 292 357
#     4  11  21  37  63  89 122 162 201 254 313 370
#     4  10  20  35  58  89 129 173 212 245 291 356
#
# _framework density 22.329910999999999
#
# number of rings (size 3 to 8) (size 9 to 14) (size 15 to 20)
#    0.000    1.667    3.333    1.500    0.000    5.000 
#    3.000    6.667    0.000    0.000    0.000    0.000 
#    0.000    0.000    0.000    0.000    0.000    0.000 
#
# Total GULP energy -133679.273316 kJ/mol
# GULP energy per Si atom -5569.969722 kJ/mol
# Density = 2.227909 g / cm^3
# Si number density = 22.329911 Si / 1000 Ang^3
#
#
#
# Elastic Constant Matrix: (Units=GPa)
#
#
# Indices 1 2 3 4 5 6 
#
# 1 49.3231 1.7311 28.5543 0.0000 14.9760 0.0000
# 2 1.7311 91.8152 40.1162 0.0000 9.1156 0.0000
# 3 28.5543 40.1162 186.7777 0.0000 20.7609 0.0000
# 4 0.0000 0.0000 0.0000 -67.9688 0.0000 -253.2347
# 5 14.9760 9.1156 20.7609 0.0000 42.7236 0.0000
# 6 0.0000 0.0000 0.0000 -253.2347 0.0000 -676.5491
#
#
#
# Elastic Compliance Matrix: (Units=1/GPa)
#
#
# Indices 1 2 3 4 5 6 
#
# 1 0.024325 0.001695 -0.003272 0.000000 -0.007299 0.000000
# 2 0.001695 0.012216 -0.002671 0.000000 -0.001903 0.000000
# 3 -0.003272 -0.002671 0.006593 0.000000 -0.001487 0.000000
# 4 0.000000 0.000000 0.000000 0.037289 0.000000 -0.013957
# 5 -0.007299 -0.001903 -0.001487 0.000000 0.027093 0.000000
# 6 0.000000 0.000000 0.000000 -0.013957 0.000000 0.003746
#
#
# Mechanical properties :
#
#
# Convention : Reuss Voigt Hill
#
# Bulk Modulus (GPa) = 28.86947 52.07991 40.47469
# Shear Modulus (GPa) = 38.07980 -123.19121 -42.55570
#
# Velocity S-wave (km/s) = 4.13404 -7.43562 -4.37025
# Velocity P-wave (km/s) = 5.97861 7.09538 2.70191
#
# Compressibility (1/GPa) = 0.03463867
#
# Stress axis : x y z
#
# Youngs Moduli (GPa) = 41.10982 81.86275 151.67187
#
# Poissons Ratio (x) = -0.13880 0.49622
# Poissons Ratio (y) = -0.06970 0.40518
# Poissons Ratio (z) = 0.13450 0.21869
#
# Static dielectric constant tensor:
#      x y z
#    x 1.932770 0.000000 -0.018250 
#    y 0.000000 1.836600 0.000000 
#    z -0.018250 0.000000 1.866810 
# 
# From -- ./inp_files/51305.got.cif
#   From: 2010.05.17/outbox.cif.g08.bks.cpg/sg12_26_cif.got.tgz:51305.got - 2010.06.03 13:09:07.
