data_PCOD9195153
_publ_section_title
;
Structure prediction by ZEFSAII (Michael W. Deem and Ramdas Pophale) SiO2 
 PCOD9195153
Probable space group: C 2/M
;
_chemical_formula_sum "Si O2"
_cell_formula_units_Z 64
_cell_length_a 30.346762
_cell_length_b 19.133106
_cell_length_c 20.815351
_cell_angle_alpha 90.000000
_cell_angle_beta 18.876430
_cell_angle_gamma 90.000000
_cell_volume 3910.152635
_symmetry_space_group_name_H-M "C 2/M"
_symmetry_group_IT_number 12
_symmetry_cell_setting 'monoclinic'
loop_
_space_group_symop_operation_xyz
x,y,z
-x,y,-z
-x,-y,-z
x,-y,z
1/2+x,1/2+y,z
1/2-x,1/2+y,-z
1/2-x,1/2-y,-z
1/2+x,1/2-y,z
loop_
_atom_site_type_symbol
_atom_site_label
_atom_site_fract_x
_atom_site_fract_y
_atom_site_fract_z
Si Si1 0.546829 0.328117 0.114815
Si Si2 0.060485 0.078427 0.845485
Si Si3 0.663883 0.844977 0.502983
Si Si4 0.993225 0.672933 0.861884
Si Si5 0.860415 0.580594 0.150899
Si Si6 0.217001 0.418532 0.168897
Si Si7 0.940632 0.581233 0.478473
Si Si8 0.262243 0.314162 0.580598
O O1 0.532294 0.373956 0.071022
O O2 0.574559 0.248534 0.055907
O O3 0.398913 0.330789 0.352570
O O4 0.660109 0.364152 0.002644
O O5 0.210873 0.109265 0.644051
O O6 0.063412 0.000000 0.815140
O O7 0.000000 0.077206 0.000000
O O8 0.546175 0.850277 0.719074
O O9 0.612492 0.871664 0.505608
O O10 0.716913 0.765337 0.425080
O O11 0.130308 0.684138 0.715888
O O12 0.900191 0.618789 0.029417
O O13 0.814374 0.500000 0.206639
O O14 0.762994 0.630687 0.327443
O O15 0.000000 0.578173 0.000000
O O16 0.260393 0.500000 0.103244
O O17 0.147143 0.410781 0.335458
O O18 0.096896 0.405683 0.283423
O O19 0.928196 0.500000 0.476001
#
# Coordination Sequence:
#
# PCOD9195153 Si02
#       8
#     8   8   8   8   8   8   8   8
#     4  11  19  33  52  76 104 140 174 208 265 319
#     4  11  22  29  44  79 111 136 165 204 258 324
#     4  11  19  33  52  76 104 140 174 208 265 319
#     4  10  20  35  50  75 107 139 175 217 265 310
#     4   9  20  34  50  70  97 142 187 213 250 310
#     4   9  19  35  53  76 107 141 176 213 256 311
#     4   9  19  35  53  76 107 141 176 213 256 311
#     4  10  20  35  50  75 107 139 175 217 265 310
#
# _framework density 16.367647999999999
#
# number of rings (size 3 to 8) (size 9 to 14) (size 15 to 20)
#    0.000    2.000    2.500    3.000    3.500    4.000 
#    0.000    2.500    0.000    0.000    0.000    0.000 
#    0.000    4.000    0.000    0.000    0.000    0.000 
#
# Total GULP energy -178496.860370 kJ/mol
# GULP energy per Si atom -5578.026887 kJ/mol
# Density = 1.633039 g / cm^3
# Si number density = 16.367648 Si / 1000 Ang^3
#
#
#
# Elastic Constant Matrix: (Units=GPa)
#
#
# Indices 1 2 3 4 5 6 
#
# 1 44.8883 15.5638 0.3468 0.0007 2.1591 -0.0001
# 2 15.5638 49.4671 11.5092 0.0022 14.3222 -0.0018
# 3 0.3468 11.5092 20.2244 0.0019 0.7073 -0.0022
# 4 0.0007 0.0022 0.0019 -14.9031 -0.0003 -39.6432
# 5 2.1591 14.3222 0.7073 -0.0003 22.2817 0.0007
# 6 -0.0001 -0.0018 -0.0022 -39.6432 0.0007 -2.8599
#
#
#
# Elastic Compliance Matrix: (Units=1/GPa)
#
#
# Indices 1 2 3 4 5 6 
#
# 1 0.025689 -0.010530 0.005408 0.000000 0.004108 0.000000
# 2 -0.010530 0.033546 -0.018211 -0.000001 -0.019964 0.000001
# 3 0.005408 -0.018211 0.059391 -0.000002 0.009296 0.000003
# 4 0.000000 -0.000001 -0.000002 0.001870 0.000002 -0.025928
# 5 0.004108 -0.019964 0.009296 0.000002 0.057019 -0.000002
# 6 0.000000 0.000001 0.000003 -0.025928 -0.000002 0.009747
#
#
# Mechanical properties :
#
#
# Convention : Reuss Voigt Hill
#
# Bulk Modulus (GPa) = 13.89671 18.82440 16.36055
# Shear Modulus (GPa) = 19.38615 6.71441 13.05028
#
# Velocity S-wave (km/s) = 3.44527 2.02760 2.82675
# Velocity P-wave (km/s) = 4.93308 4.12401 4.54658
#
# Compressibility (1/GPa) = 0.07195949
#
# Stress axis : x y z
#
# Youngs Moduli (GPa) = 38.92685 29.80984 16.83760
#
# Poissons Ratio (x) = 0.31390 -0.09106
# Poissons Ratio (y) = 0.40991 0.30664
# Poissons Ratio (z) = -0.21053 0.54288
#
# Static dielectric constant tensor:
#      x y z
#    x 1.532300 0.000000 0.010090 
#    y 0.000000 1.562300 0.000000 
#    z 0.010090 0.000000 1.559080 
# 
# From -- ./inp_files/157859.got.cif
#   From: 2010.05.17/outbox.cif.g08.bks.cpg/sg12_79_cif.got.tgz:157859.got - 2010.06.03 13:09:07.
