data_PCOD9195409
_publ_section_title
;
Structure prediction by ZEFSAII (Michael W. Deem and Ramdas Pophale) SiO2 
 PCOD9195409
Probable space group: C 2/M
;
_chemical_formula_sum "Si O2"
_cell_formula_units_Z 56
_cell_length_a 20.148483
_cell_length_b 7.772240
_cell_length_c 19.820449
_cell_angle_alpha 90.000000
_cell_angle_beta 68.733199
_cell_angle_gamma 90.000000
_cell_volume 2892.491416
_symmetry_space_group_name_H-M "C 2/M"
_symmetry_group_IT_number 12
_symmetry_cell_setting 'monoclinic'
loop_
_space_group_symop_operation_xyz
x,y,z
-x,y,-z
-x,-y,-z
x,-y,z
1/2+x,1/2+y,z
1/2-x,1/2+y,-z
1/2-x,1/2-y,-z
1/2+x,1/2-y,z
loop_
_atom_site_type_symbol
_atom_site_label
_atom_site_fract_x
_atom_site_fract_y
_atom_site_fract_z
Si Si1 0.648806 0.291375 0.309804
Si Si2 0.325042 0.707257 0.552887
Si Si3 0.230759 0.704773 0.083120
Si Si4 0.925530 0.711612 0.238443
Si Si5 0.161796 0.705524 0.599990
Si Si6 0.417252 0.203997 0.802581
Si Si7 0.299034 0.795721 0.192567
O O1 0.648069 0.500000 0.308343
O O2 0.639111 0.234918 0.390612
O O3 0.594305 0.229512 0.273176
O O4 0.727406 0.230954 0.256214
O O5 0.322499 0.500000 0.556071
O O6 0.242764 0.771305 0.581145
O O7 0.359349 0.755955 0.469023
O O8 0.227759 0.500000 0.089850
O O9 0.153387 0.775951 0.134854
O O10 0.287771 0.764721 0.117702
O O11 0.250000 0.750000 0.000000
O O12 0.927614 0.500000 0.237408
O O13 0.890849 0.766979 0.322383
O O14 0.871114 0.769226 0.200209
O O15 0.006463 0.773305 0.202795
O O16 0.165666 0.500000 0.605891
O O17 0.417908 0.000000 0.815591
O O18 0.298914 0.000000 0.204037
#
# Coordination Sequence:
#
# PCOD9195409 Si02
#       7
#     8   8   8   8   8   8   8
#     4   9  16  29  48  69  94 127 165 200 239 287
#     4   9  16  27  43  67  95 124 162 204 242 280
#     4  10  20  35  54  77 101 125 155 191 232 281
#     4   9  16  31  52  73  97 126 161 200 242 285
#     4   9  16  27  45  68  93 124 161 202 243 281
#     4   9  19  33  51  74  98 123 157 200 239 280
#     4   9  16  30  54  76  94 124 162 197 235 280
#
# _framework density 19.360472000000001
#
# number of rings (size 3 to 8) (size 9 to 14) (size 15 to 20)
#    0.000    2.857    1.429    0.429    0.000    1.143 
#    0.000    3.571    0.000    8.571    0.000    0.000 
#    0.000    0.000    0.000    0.000    0.000    0.000 
#
# Total GULP energy -156072.078010 kJ/mol
# GULP energy per Si atom -5574.002786 kJ/mol
# Density = 1.931641 g / cm^3
# Si number density = 19.360472 Si / 1000 Ang^3
#
#
#
# Elastic Constant Matrix: (Units=GPa)
#
#
# Indices 1 2 3 4 5 6 
#
# 1 136.2063 2.8106 60.9547 0.0000 16.2062 0.0000
# 2 2.8106 18.3321 -11.3088 0.0001 -5.6080 0.0000
# 3 60.9547 -11.3088 120.2190 0.0000 17.4634 0.0000
# 4 0.0000 0.0001 0.0000 23.3876 0.0000 6.5581
# 5 16.2062 -5.6080 17.4634 0.0000 19.1064 0.0000
# 6 0.0000 0.0000 0.0000 6.5581 0.0000 12.9220
#
#
#
# Elastic Compliance Matrix: (Units=1/GPa)
#
#
# Indices 1 2 3 4 5 6 
#
# 1 0.010468 -0.006609 -0.005025 0.000000 -0.006226 0.000000
# 2 -0.006609 0.065450 0.006807 0.000000 0.018595 0.000000
# 3 -0.005025 0.006807 0.012219 0.000000 -0.004909 0.000000
# 4 0.000000 0.000000 0.000000 0.049852 0.000000 -0.025301
# 5 -0.006226 0.018595 -0.004909 0.000000 0.067564 0.000000
# 6 0.000000 0.000000 0.000000 -0.025301 0.000000 0.090228
#
#
# Mechanical properties :
#
#
# Convention : Reuss Voigt Hill
#
# Bulk Modulus (GPa) = 12.74177 42.18559 27.46368
# Shear Modulus (GPa) = 15.07862 25.90325 20.49094
#
# Velocity S-wave (km/s) = 2.79379 3.66176 3.25682
# Velocity P-wave (km/s) = 4.12342 6.30197 5.32529
#
# Compressibility (1/GPa) = 0.07848206
#
# Stress axis : x y z
#
# Youngs Moduli (GPa) = 95.53278 15.27890 81.83886
#
# Poissons Ratio (x) = 0.10098 0.41122
# Poissons Ratio (y) = 0.63139 -0.55704
# Poissons Ratio (z) = 0.48002 -0.10400
#
# Static dielectric constant tensor:
#      x y z
#    x 1.677200 0.000000 -0.013920 
#    y 0.000000 1.719910 0.000000 
#    z -0.013920 0.000000 1.642520 
# 
# From -- ./inp_files/276678.got.cif
#   From: 2010.05.17/outbox.cif.g08.bks.cpg/sg12_139_cif.got.tgz:276678.got - 2010.06.03 13:09:07.
