data_PCOD9195203
_publ_section_title
;
Structure prediction by ZEFSAII (Michael W. Deem and Ramdas Pophale) SiO2 
 PCOD9195203
Probable space group: C 2/M
;
_chemical_formula_sum "Si O2"
_cell_formula_units_Z 48
_cell_length_a 20.336184
_cell_length_b 7.477390
_cell_length_c 15.113039
_cell_angle_alpha 90.000000
_cell_angle_beta 97.956934
_cell_angle_gamma 90.000000
_cell_volume 2275.987258
_symmetry_space_group_name_H-M "C 2/M"
_symmetry_group_IT_number 12
_symmetry_cell_setting 'monoclinic'
loop_
_space_group_symop_operation_xyz
x,y,z
-x,y,-z
-x,-y,-z
x,-y,z
1/2+x,1/2+y,z
1/2-x,1/2+y,-z
1/2-x,1/2-y,-z
1/2+x,1/2-y,z
loop_
_atom_site_type_symbol
_atom_site_label
_atom_site_fract_x
_atom_site_fract_y
_atom_site_fract_z
Si Si1 0.680373 0.287391 0.439042
Si Si2 0.357173 0.209627 0.265193
Si Si3 0.589576 0.281873 0.094840
Si Si4 0.933171 0.295000 0.448410
Si Si5 0.206687 0.218864 0.243973
Si Si6 0.941867 0.784085 0.108621
O O1 0.669571 0.500000 0.436573
O O2 0.750000 0.250000 0.500000
O O3 0.621829 0.204494 0.485426
O O4 0.684902 0.226891 0.338486
O O5 0.398996 0.287472 0.355062
O O6 0.282256 0.280711 0.242416
O O7 0.398658 0.224392 0.183288
O O8 0.348015 0.000000 0.285162
O O9 0.589936 0.500000 0.095038
O O10 0.653202 0.221165 0.161635
O O11 0.519106 0.227268 0.124651
O O12 0.587497 0.226238 0.991772
O O13 0.950905 0.500000 0.427062
O O14 0.000000 0.211013 0.500000
O O15 0.206242 0.000000 0.241631
O O16 0.941703 0.000000 0.109122
#
# Coordination Sequence:
#
# PCOD9195203 Si02
#       6
#     8   8   8   8   8   8
#     4  11  21  36  58  81 109 144 182 222 265 319
#     4  10  20  35  52  74 106 141 171 209 266 318
#     4   8  16  33  54  76 102 135 170 213 263 310
#     4  10  22  39  55  76 111 148 180 220 273 320
#     4   9  18  33  53  75 103 139 175 210 259 316
#     4   9  18  33  55  79 103 131 171 217 261 308
#
# _framework density 21.089751
#
# number of rings (size 3 to 8) (size 9 to 14) (size 15 to 20)
#    0.000    2.500    1.667    1.500    2.333    1.667 
#    0.000    1.667    0.000    3.000    0.000    0.000 
#    0.000    0.000    0.000    0.000    0.000    0.000 
#
# Total GULP energy -134003.030461 kJ/mol
# GULP energy per Si atom -5583.459603 kJ/mol
# Density = 2.104175 g / cm^3
# Si number density = 21.089751 Si / 1000 Ang^3
#
#
#
# Elastic Constant Matrix: (Units=GPa)
#
#
# Indices 1 2 3 4 5 6 
#
# 1 179.3670 -8.9772 131.3801 0.0000 28.2335 0.0000
# 2 -8.9772 59.0058 -2.9213 0.0000 9.3399 0.0000
# 3 131.3801 -2.9213 163.4354 0.0000 16.8742 0.0000
# 4 0.0000 0.0000 0.0000 8.8158 0.0000 -18.5643
# 5 28.2335 9.3399 16.8742 0.0000 45.2812 0.0000
# 6 0.0000 0.0000 0.0000 -18.5643 0.0000 5.6100
#
#
#
# Elastic Compliance Matrix: (Units=1/GPa)
#
#
# Indices 1 2 3 4 5 6 
#
# 1 0.014904 0.002591 -0.011357 0.000000 -0.005595 0.000000
# 2 0.002591 0.018050 -0.001257 0.000000 -0.004870 0.000000
# 3 -0.011357 -0.001257 0.015047 0.000000 0.001733 0.000000
# 4 0.000000 0.000000 0.000000 -0.019006 0.000000 -0.062892
# 5 -0.005595 -0.004870 0.001733 0.000000 0.025931 0.000000
# 6 0.000000 0.000000 0.000000 -0.062892 0.000000 -0.029866
#
#
# Mechanical properties :
#
#
# Convention : Reuss Voigt Hill
#
# Bulk Modulus (GPa) = 35.77249 71.19683 53.48466
# Shear Modulus (GPa) = 91.86924 30.76318 61.31621
#
# Velocity S-wave (km/s) = 6.60724 3.82341 5.39788
# Velocity P-wave (km/s) = 8.67216 7.30230 8.01654
#
# Compressibility (1/GPa) = 0.02795444
#
# Stress axis : x y z
#
# Youngs Moduli (GPa) = 67.09583 55.40076 66.46028
#
# Poissons Ratio (x) = -0.14354 0.75478
# Poissons Ratio (y) = -0.17384 0.08356
# Poissons Ratio (z) = 0.76200 0.06965
#
# Static dielectric constant tensor:
#      x y z
#    x 1.739480 0.000000 0.023600 
#    y 0.000000 1.815880 0.000000 
#    z 0.023600 0.000000 1.727450 
# 
# From -- ./inp_files/221524.got.cif
#   From: 2010.05.17/outbox.cif.g08.bks.cpg/sg12_111_cif.got.tgz:221524.got - 2010.06.03 13:09:07.
