data_PCOD9195112
_publ_section_title
;
Structure prediction by ZEFSAII (Michael W. Deem and Ramdas Pophale) SiO2 
 PCOD9195112
Probable space group: C 2/M
;
_chemical_formula_sum "Si O2"
_cell_formula_units_Z 58
_cell_length_a 8.573656
_cell_length_b 19.927883
_cell_length_c 22.963803
_cell_angle_alpha 90.000000
_cell_angle_beta 137.928083
_cell_angle_gamma 90.000000
_cell_volume 2628.975762
_symmetry_space_group_name_H-M "C 2/M"
_symmetry_group_IT_number 12
_symmetry_cell_setting 'monoclinic'
loop_
_space_group_symop_operation_xyz
x,y,z
-x,y,-z
-x,-y,-z
x,-y,z
1/2+x,1/2+y,z
1/2-x,1/2+y,-z
1/2-x,1/2-y,-z
1/2+x,1/2-y,z
loop_
_atom_site_type_symbol
_atom_site_label
_atom_site_fract_x
_atom_site_fract_y
_atom_site_fract_z
Si Si1 0.500000 0.500000 0.000000
Si Si2 0.058776 0.424653 0.756103
Si Si3 0.757140 0.320113 0.401754
Si Si4 0.989445 0.754249 0.874818
Si Si5 0.711296 0.850797 0.115680
Si Si6 0.638074 0.578944 0.727222
Si Si7 0.418045 0.392176 0.059446
Si Si8 0.573521 0.202770 0.680667
O O1 0.656918 0.440303 0.012671
O O2 0.011372 0.500000 0.721249
O O3 0.879555 0.411429 0.759036
O O4 0.023029 0.366886 0.698946
O O5 0.328917 0.422879 0.851069
O O6 0.566748 0.377976 0.358838
O O7 0.646962 0.249663 0.391431
O O8 0.000000 0.334258 0.500000
O O9 0.801700 0.312112 0.345266
O O10 0.008207 0.683299 0.912389
O O11 0.013621 0.814279 0.928351
O O12 0.745204 0.757177 0.772342
O O13 0.163413 0.782130 0.873310
O O14 0.834335 0.892629 0.200040
O O15 0.742808 0.893781 0.065770
O O16 0.586317 0.500000 0.713708
#
# Coordination Sequence:
#
# PCOD9195112 Si02
#       8
#     2   8   8   8   8   8   8   8
#     4  12  20  44  64  90 144 156 212 214 318 384
#     4  10  21  38  60  91 117 152 212 253 303 345
#     4  12  24  39  58  87 124 165 201 251 326 380
#     4   9  18  34  57  94 111 149 206 252 305 323
#     4  10  20  34  62  94 117 150 207 259 297 343
#     4  11  23  37  59  87 122 158 203 269 300 358
#     4   9  22  34  63  92 118 169 187 249 290 372
#     4  11  20  36  59  86 117 155 205 261 300 362
#
# _framework density 22.061824999999999
#
# number of rings (size 3 to 8) (size 9 to 14) (size 15 to 20)
#    0.828    0.828    3.448    1.241    4.828    1.931 
#    0.000    0.690    0.000    3.724    0.000    0.000 
#    0.000    0.000    0.000    0.000    0.000    0.000 
#
# Total GULP energy -161556.258268 kJ/mol
# GULP energy per Si atom -5570.905458 kJ/mol
# Density = 2.201161 g / cm^3
# Si number density = 22.061825 Si / 1000 Ang^3
#
#
#
# Elastic Constant Matrix: (Units=GPa)
#
#
# Indices 1 2 3 4 5 6 
#
# 1 112.4809 49.8098 25.1369 0.0003 4.1492 0.0000
# 2 49.8098 106.9389 24.5653 0.0000 6.5725 0.0000
# 3 25.1369 24.5653 71.4547 0.0002 16.5809 0.0002
# 4 0.0003 0.0000 0.0002 32.6824 0.0004 -2.6317
# 5 4.1492 6.5725 16.5809 0.0004 28.0715 0.0001
# 6 0.0000 0.0000 0.0002 -2.6317 0.0001 17.7630
#
#
#
# Elastic Compliance Matrix: (Units=1/GPa)
#
#
# Indices 1 2 3 4 5 6 
#
# 1 0.011593 -0.004854 -0.002637 0.000000 0.000981 0.000000
# 2 -0.004854 0.012189 -0.002303 0.000000 -0.000776 0.000000
# 3 -0.002637 -0.002303 0.017960 0.000000 -0.009680 0.000000
# 4 0.000000 0.000000 0.000000 0.030967 0.000000 0.004588
# 5 0.000981 -0.000776 -0.009680 0.000000 0.041378 0.000000
# 6 0.000000 0.000000 0.000000 0.004588 0.000000 0.056977
#
#
# Mechanical properties :
#
#
# Convention : Reuss Voigt Hill
#
# Bulk Modulus (GPa) = 45.13762 54.43315 49.78539
# Shear Modulus (GPa) = 25.24792 28.46088 26.85440
#
# Velocity S-wave (km/s) = 3.38659 3.59562 3.49267
# Velocity P-wave (km/s) = 5.98298 6.47801 6.23541
#
# Compressibility (1/GPa) = 0.02215447
#
# Stress axis : x y z
#
# Youngs Moduli (GPa) = 86.25753 82.04231 55.67837
#
# Poissons Ratio (x) = 0.39826 0.14682
# Poissons Ratio (y) = 0.41873 0.12820
# Poissons Ratio (z) = 0.22746 0.18891
#
# Static dielectric constant tensor:
#      x y z
#    x 1.862550 0.000000 0.024780 
#    y 0.000000 1.789200 0.000000 
#    z 0.024780 0.000000 1.858950 
# 
# From -- ./inp_files/333878.got.cif
#   From: 2010.05.17/outbox.cif.g08.bks.cpg/sg12_167_cif.got.tgz:333878.got - 2010.06.03 13:09:07.
