data_PCOD9195699
_publ_section_title
;
Structure prediction by ZEFSAII (Michael W. Deem and Ramdas Pophale) SiO2 
 PCOD9195699
Probable space group: C 2/M
;
_chemical_formula_sum "Si O2"
_cell_formula_units_Z 64
_cell_length_a 18.562994
_cell_length_b 8.234553
_cell_length_c 31.350653
_cell_angle_alpha 90.000000
_cell_angle_beta 137.774029
_cell_angle_gamma 90.000000
_cell_volume 3220.626105
_symmetry_space_group_name_H-M "C 2/M"
_symmetry_group_IT_number 12
_symmetry_cell_setting 'monoclinic'
loop_
_space_group_symop_operation_xyz
x,y,z
-x,y,-z
-x,-y,-z
x,-y,z
1/2+x,1/2+y,z
1/2-x,1/2+y,-z
1/2-x,1/2-y,-z
1/2+x,1/2-y,z
loop_
_atom_site_type_symbol
_atom_site_label
_atom_site_fract_x
_atom_site_fract_y
_atom_site_fract_z
Si Si1 0.260863 0.691317 0.075118
Si Si2 0.035422 0.303808 0.562474
Si Si3 0.441213 0.801747 0.687892
Si Si4 0.775923 0.696441 0.688208
Si Si5 0.314672 0.808706 0.191163
Si Si6 0.410352 0.308304 0.062689
Si Si7 0.144852 0.308544 0.184268
Si Si8 0.629817 0.803751 0.437309
O O1 0.275143 0.500000 0.088978
O O2 0.274229 0.780978 0.125492
O O3 0.349918 0.746770 0.079545
O O4 0.147752 0.722301 0.002320
O O5 0.031770 0.500000 0.560553
O O6 0.155784 0.252510 0.626092
O O7 0.000000 0.246206 0.500000
O O8 0.952527 0.246415 0.562370
O O9 0.357328 0.747358 0.687025
O O10 0.562470 0.751088 0.751179
O O11 0.406196 0.748214 0.625431
O O12 0.440049 0.000000 0.687839
O O13 0.776228 0.500000 0.688478
O O14 0.816702 0.751524 0.752477
O O15 0.238068 0.720956 0.191060
O O16 0.312377 0.000000 0.200212
O O17 0.389994 0.500000 0.049439
O O18 0.535503 0.275262 0.121536
O O19 0.122527 0.500000 0.177938
O O20 0.750000 0.750000 0.500000
O O21 0.626935 0.000000 0.435943
#
# Coordination Sequence:
#
# PCOD9195699 Si02
#       8
#     8   8   8   8   8   8   8   8
#     4  10  21  38  60  87 118 148 184 235 285 330
#     4  10  21  36  54  80 114 148 183 228 281 332
#     4   9  19  36  57  80 107 142 184 229 277 331
#     4  10  21  37  58  82 108 143 186 230 279 336
#     4  11  22  38  60  83 112 151 191 230 280 343
#     4  10  21  38  61  87 114 150 193 230 276 341
#     4  11  23  38  56  82 116 148 185 237 290 336
#     4  10  20  35  55  79 109 144 183 226 273 326
#
# _framework density 19.871912999999999
#
# number of rings (size 3 to 8) (size 9 to 14) (size 15 to 20)
#    0.000    1.875    0.000    3.750    0.000    5.750 
#    0.000    5.000    0.000    0.000    0.000    0.000 
#    0.000    0.000    0.000    0.000    0.000    0.000 
#
# Total GULP energy -178857.488496 kJ/mol
# GULP energy per Si atom -5589.296515 kJ/mol
# Density = 1.982668 g / cm^3
# Si number density = 19.871913 Si / 1000 Ang^3
#
#
#
# Elastic Constant Matrix: (Units=GPa)
#
#
# Indices 1 2 3 4 5 6 
#
# 1 151.4064 -3.5367 83.0319 0.0000 2.2432 0.0000
# 2 -3.5367 9.9713 -7.9181 0.0000 -2.1111 0.0000
# 3 83.0319 -7.9181 137.3971 0.0000 3.3081 0.0000
# 4 0.0000 0.0000 0.0000 21.3707 0.0000 6.5613
# 5 2.2432 -2.1111 3.3081 0.0000 39.9169 0.0000
# 6 0.0000 0.0000 0.0000 6.5613 0.0000 12.3592
#
#
#
# Elastic Compliance Matrix: (Units=1/GPa)
#
#
# Indices 1 2 3 4 5 6 
#
# 1 0.009895 -0.001323 -0.006053 0.000000 -0.000124 0.000000
# 2 -0.001323 0.106307 0.006803 0.000000 0.005133 -0.000001
# 3 -0.006053 0.006803 0.011334 0.000000 -0.000239 0.000000
# 4 0.000000 0.000000 0.000000 0.055905 0.000000 -0.029679
# 5 -0.000124 0.005133 -0.000239 0.000000 0.025350 0.000000
# 6 0.000000 -0.000001 0.000000 -0.029679 0.000000 0.096667
#
#
# Mechanical properties :
#
#
# Convention : Reuss Voigt Hill
#
# Bulk Modulus (GPa) = 7.91214 49.10322 28.50768
# Shear Modulus (GPa) = 14.33749 29.87588 22.10669
#
# Velocity S-wave (km/s) = 2.68898 3.88161 3.33897
# Velocity P-wave (km/s) = 3.69202 6.69721 5.40757
#
# Compressibility (1/GPa) = 0.12638808
#
# Stress axis : x y z
#
# Youngs Moduli (GPa) = 101.05853 9.40673 88.22999
#
# Poissons Ratio (x) = 0.01245 0.53407
# Poissons Ratio (y) = 0.13374 -0.60019
# Poissons Ratio (z) = 0.61172 -0.06399
#
# Static dielectric constant tensor:
#      x y z
#    x 1.675400 0.000000 -0.011010 
#    y 0.000000 1.689570 0.000000 
#    z -0.011010 0.000000 1.658610 
# 
# From -- ./inp_files/378405.got.cif
#   From: 2010.05.17/outbox.cif.g08.bks.cpg/sg12_190_cif.got.tgz:378405.got - 2010.06.03 13:09:07.
