data_PCOD9195983
_publ_section_title
;
Structure prediction by ZEFSAII (Michael W. Deem and Ramdas Pophale) SiO2 
 PCOD9195983
Probable space group: C 2/M
;
_chemical_formula_sum "Si O2"
_cell_formula_units_Z 40
_cell_length_a 32.089012
_cell_length_b 11.005848
_cell_length_c 10.570681
_cell_angle_alpha 90.000000
_cell_angle_beta 34.632302
_cell_angle_gamma 90.000000
_cell_volume 2121.614029
_symmetry_space_group_name_H-M "C 2/M"
_symmetry_group_IT_number 12
_symmetry_cell_setting 'monoclinic'
loop_
_space_group_symop_operation_xyz
x,y,z
-x,y,-z
-x,-y,-z
x,-y,z
1/2+x,1/2+y,z
1/2-x,1/2+y,-z
1/2-x,1/2-y,-z
1/2+x,1/2-y,z
loop_
_atom_site_type_symbol
_atom_site_label
_atom_site_fract_x
_atom_site_fract_y
_atom_site_fract_z
Si Si1 0.087183 0.134958 0.291599
Si Si2 0.584194 0.353552 0.786206
Si Si3 0.173169 0.138926 0.813546
Si Si4 0.712557 0.260115 0.305763
Si Si5 0.674084 0.867948 0.163442
O O1 0.122440 0.250744 0.272478
O O2 0.000000 0.145939 0.500000
O O3 0.104374 0.000000 0.303640
O O4 0.120496 0.137040 0.067543
O O5 0.582946 0.500000 0.781651
O O6 0.626251 0.320487 0.810554
O O7 0.633776 0.304999 0.547999
O O8 0.500000 0.311045 0.000000
O O9 0.240277 0.222231 0.689886
O O10 0.198152 0.000000 0.727473
O O11 0.705657 0.147585 0.225840
O O12 0.760500 0.353370 0.102126
O O13 0.639108 0.000000 0.235289
#
# Coordination Sequence:
#
# PCOD9195983 Si02
#       5
#     8   8   8   8   8
#     4   9  19  34  56  84 115 149 185 231 284 339
#     4  10  21  34  54  83 111 142 186 240 284 327
#     4   9  18  34  54  79 109 144 188 232 278 333
#     4  10  20  35  56  79 113 150 190 230 279 341
#     4  10  21  35  56  84 114 150 191 235 281 333
#
# _framework density 18.853570000000001
#
# number of rings (size 3 to 8) (size 9 to 14) (size 15 to 20)
#    0.000    2.400    0.000    1.800    2.800    6.000 
#    0.000    0.000    0.000    3.600    0.000    0.000 
#    0.000    0.000    0.000    0.000    0.000    0.000 
#
# Total GULP energy -111510.044348 kJ/mol
# GULP energy per Si atom -5575.502217 kJ/mol
# Density = 1.881066 g / cm^3
# Si number density = 18.853570 Si / 1000 Ang^3
#
#
#
# Elastic Constant Matrix: (Units=GPa)
#
#
# Indices 1 2 3 4 5 6 
#
# 1 96.5702 44.5704 51.2608 0.0000 2.0624 0.0000
# 2 44.5704 105.4102 30.7555 0.0000 -8.7863 0.0000
# 3 51.2608 30.7555 90.4893 0.0000 -25.8306 0.0000
# 4 0.0000 0.0000 0.0000 6.7053 0.0000 -5.3874
# 5 2.0624 -8.7863 -25.8306 0.0000 28.6832 0.0000
# 6 0.0000 0.0000 0.0000 -5.3874 0.0000 16.7950
#
#
#
# Elastic Compliance Matrix: (Units=1/GPa)
#
#
# Indices 1 2 3 4 5 6 
#
# 1 0.021419 -0.006125 -0.014843 0.000000 -0.016783 0.000000
# 2 -0.006125 0.012283 0.000666 0.000000 0.004803 0.000000
# 3 -0.014843 0.000666 0.026376 0.000000 0.025024 0.000000
# 4 0.000000 0.000000 0.000000 0.200919 0.000000 0.064450
# 5 -0.016783 0.004803 0.025024 0.000000 0.060077 0.000000
# 6 0.000000 0.000000 0.000000 0.064450 0.000000 0.080216
#
#
# Mechanical properties :
#
#
# Convention : Reuss Voigt Hill
#
# Bulk Modulus (GPa) = 51.34875 60.62700 55.98787
# Shear Modulus (GPa) = 11.15117 21.49555 16.32336
#
# Velocity S-wave (km/s) = 2.43464 3.38025 2.94563
# Velocity P-wave (km/s) = 5.93279 6.88922 6.42881
#
# Compressibility (1/GPa) = 0.01947467
#
# Stress axis : x y z
#
# Youngs Moduli (GPa) = 46.68746 81.41654 37.91331
#
# Poissons Ratio (x) = 0.49867 0.56273
# Poissons Ratio (y) = 0.28595 -0.02525
# Poissons Ratio (z) = 0.69296 -0.05422
#
# Static dielectric constant tensor:
#      x y z
#    x 1.687260 0.000000 0.005700 
#    y 0.000000 1.664800 0.000000 
#    z 0.005700 0.000000 1.654590 
# 
# From -- ./inp_files/71237.got.cif
#   From: 2010.05.17/outbox.cif.g08.bks.cpg/sg12_36_cif.got.tgz:71237.got - 2010.06.03 13:09:07.
