data_PCOD9195980
_publ_section_title
;
Structure prediction by ZEFSAII (Michael W. Deem and Ramdas Pophale) SiO2 
 PCOD9195980
Probable space group: C 2/M
;
_chemical_formula_sum "Si O2"
_cell_formula_units_Z 56
_cell_length_a 27.015651
_cell_length_b 13.358286
_cell_length_c 15.309775
_cell_angle_alpha 90.000000
_cell_angle_beta 26.253964
_cell_angle_gamma 90.000000
_cell_volume 2444.003031
_symmetry_space_group_name_H-M "C 2/M"
_symmetry_group_IT_number 12
_symmetry_cell_setting 'monoclinic'
loop_
_space_group_symop_operation_xyz
x,y,z
-x,y,-z
-x,-y,-z
x,-y,z
1/2+x,1/2+y,z
1/2-x,1/2+y,-z
1/2-x,1/2-y,-z
1/2+x,1/2-y,z
loop_
_atom_site_type_symbol
_atom_site_label
_atom_site_fract_x
_atom_site_fract_y
_atom_site_fract_z
Si Si1 0.601013 0.392728 0.911895
Si Si2 0.677089 0.247994 0.259326
Si Si3 0.991503 0.617878 0.658844
Si Si4 0.521603 0.735277 0.769857
Si Si5 0.342324 0.785260 0.286065
Si Si6 0.786530 0.885562 0.636783
Si Si7 0.227045 0.885360 0.025576
O O1 0.657239 0.500000 0.827308
O O2 0.671358 0.304279 0.761498
O O3 0.500000 0.400283 0.000000
O O4 0.557098 0.354534 0.072992
O O5 0.575462 0.182256 0.462425
O O6 0.726275 0.321421 0.255145
O O7 0.767840 0.172498 0.074184
O O8 0.656491 0.322612 0.208823
O O9 0.026405 0.500000 0.606369
O O10 0.993285 0.675856 0.748501
O O11 0.860510 0.616619 0.838511
O O12 0.551602 0.784058 0.817788
O O13 0.617603 0.671913 0.568998
O O14 0.250000 0.750000 0.500000
O O15 0.316157 0.880593 0.269264
O O16 0.814009 0.000000 0.613898
O O17 0.190640 0.000000 0.078482
#
# Coordination Sequence:
#
# PCOD9195980 Si02
#       7
#     8   8   8   8   8   8   8
#     4   9  17  32  54  75 103 145 189 233 282 330
#     4  10  21  37  60  88 118 150 200 252 290 360
#     4  10  21  38  64  90 121 161 200 241 300 363
#     4   9  19  35  56  84 117 147 195 241 285 340
#     4   9  19  33  51  81 114 151 192 236 280 343
#     4  10  20  35  56  79 112 155 192 235 298 353
#     4  10  21  39  65  89 115 156 199 243 306 368
#
# _framework density 22.913229000000001
#
# number of rings (size 3 to 8) (size 9 to 14) (size 15 to 20)
#    0.000    2.429    0.000    1.714    2.000    5.143 
#    0.000    6.429    0.000   34.286    0.000    0.000 
#    0.000    0.000    0.000    0.000    0.000    0.000 
#
# Total GULP energy -156010.960603 kJ/mol
# GULP energy per Si atom -5571.820022 kJ/mol
# Density = 2.286108 g / cm^3
# Si number density = 22.913229 Si / 1000 Ang^3
#
#
#
# Elastic Constant Matrix: (Units=GPa)
#
#
# Indices 1 2 3 4 5 6 
#
# 1 97.4150 50.0963 19.4936 0.0000 24.9497 0.0000
# 2 50.0963 182.1166 48.6097 0.0000 22.2385 0.0000
# 3 19.4936 48.6097 93.6740 0.0000 36.3884 0.0000
# 4 0.0000 0.0000 0.0000 17.9473 0.0000 -5.9665
# 5 24.9497 22.2385 36.3884 0.0000 31.5732 0.0000
# 6 0.0000 0.0000 0.0000 -5.9665 0.0000 18.4724
#
#
#
# Elastic Compliance Matrix: (Units=1/GPa)
#
#
# Indices 1 2 3 4 5 6 
#
# 1 0.014826 -0.003476 0.004198 0.000000 -0.014105 0.000000
# 2 -0.003476 0.007215 -0.003827 0.000000 0.002076 0.000000
# 3 0.004198 -0.003827 0.021780 0.000000 -0.025723 0.000000
# 4 0.000000 0.000000 0.000000 0.062421 0.000000 0.020162
# 5 -0.014105 0.002076 -0.025723 0.000000 0.071003 0.000000
# 6 0.000000 0.000000 0.000000 0.020162 0.000000 0.060647
#
#
# Mechanical properties :
#
#
# Convention : Reuss Voigt Hill
#
# Bulk Modulus (GPa) = 26.58860 67.73386 47.16123
# Shear Modulus (GPa) = 19.48255 30.59898 25.04076
#
# Velocity S-wave (km/s) = 2.91911 3.65832 3.30942
# Velocity P-wave (km/s) = 4.79488 6.88982 5.93550
#
# Compressibility (1/GPa) = 0.03761010
#
# Stress axis : x y z
#
# Youngs Moduli (GPa) = 67.45109 138.59475 45.91331
#
# Poissons Ratio (x) = 0.48180 -0.19274
# Poissons Ratio (y) = 0.23448 0.17571
# Poissons Ratio (z) = -0.28315 0.53041
#
# Static dielectric constant tensor:
#      x y z
#    x 1.864770 0.000000 -0.270280 
#    y 0.000000 1.821070 0.000000 
#    z -0.270280 0.000000 1.549850 
# 
# From -- ./inp_files/251026.got.cif
#   From: 2010.05.17/outbox.cif.g08.bks.cpg/sg12_126_cif.got.tgz:251026.got - 2010.06.03 13:09:07.
