data_PCOD9195209
_publ_section_title
;
Structure prediction by ZEFSAII (Michael W. Deem and Ramdas Pophale) SiO2 
 PCOD9195209
Probable space group: C 2/M
;
_chemical_formula_sum "Si O2"
_cell_formula_units_Z 48
_cell_length_a 31.978987
_cell_length_b 10.747492
_cell_length_c 26.355045
_cell_angle_alpha 90.000000
_cell_angle_beta 159.979421
_cell_angle_gamma 90.000000
_cell_volume 3101.098841
_symmetry_space_group_name_H-M "C 2/M"
_symmetry_group_IT_number 12
_symmetry_cell_setting 'monoclinic'
loop_
_space_group_symop_operation_xyz
x,y,z
-x,y,-z
-x,-y,-z
x,-y,z
1/2+x,1/2+y,z
1/2-x,1/2+y,-z
1/2-x,1/2-y,-z
1/2+x,1/2-y,z
loop_
_atom_site_type_symbol
_atom_site_label
_atom_site_fract_x
_atom_site_fract_y
_atom_site_fract_z
Si Si1 0.171127 0.500000 0.120284
Si Si2 0.775358 0.500000 0.706167
Si Si3 0.528659 0.212500 0.090154
Si Si4 0.172119 0.363000 0.933026
Si Si5 0.782487 0.000000 0.141839
Si Si6 0.032363 0.000000 0.364782
Si Si7 0.417980 0.257978 0.645070
Si Si8 0.348450 0.350576 0.677702
O O1 0.242571 0.500000 0.254358
O O2 0.263673 0.500000 0.179493
O O3 0.082757 0.621605 0.020075
O O4 0.857334 0.619043 0.786328
O O5 0.652284 0.500000 0.535435
O O6 0.569979 0.306885 0.181295
O O7 0.500000 0.261153 0.000000
O O8 0.202651 0.500000 0.944916
O O9 0.028995 0.338077 0.766438
O O10 0.250000 0.250000 0.000000
O O11 0.211307 0.382826 0.036130
O O12 0.915298 0.000000 0.267987
O O13 0.039752 0.878958 0.337878
O O14 0.400325 0.295841 0.683831
O O15 0.289878 0.204367 0.478074
O O16 0.343777 0.500000 0.669560
#
# Coordination Sequence:
#
# PCOD9195209 Si02
#       8
#     4   4   8   8   4   4   8   8
#     4   9  18  35  53  81  99 136 176 217 265 313
#     4   9  18  33  55  75 105 135 172 219 274 306
#     4   9  18  34  55  74 105 137 171 221 271 315
#     4  10  20  35  52  75 105 142 173 210 256 319
#     4  10  21  32  56  76 105 138 180 211 259 307
#     4  12  19  34  54  76 108 139 171 223 261 315
#     4  11  21  35  49  75 111 137 173 215 270 319
#     4  11  22  32  51  78 104 139 177 218 265 320
#
# _framework density 15.478384
#
# number of rings (size 3 to 8) (size 9 to 14) (size 15 to 20)
#    0.500    1.333    4.167    2.500    0.000    0.667 
#    1.500    0.000    0.000    0.000    0.000    0.000 
#    0.000    4.333    0.000    0.000    0.000    0.000 
#
# Total GULP energy -133618.351180 kJ/mol
# GULP energy per Si atom -5567.431299 kJ/mol
# Density = 1.544315 g / cm^3
# Si number density = 15.478384 Si / 1000 Ang^3
#
#
#
# Elastic Constant Matrix: (Units=GPa)
#
#
# Indices 1 2 3 4 5 6 
#
# 1 88.2744 26.4488 30.8304 0.0000 -0.7912 0.0000
# 2 26.4488 82.9120 14.3107 0.0000 -3.7320 0.0000
# 3 30.8304 14.3107 73.3435 0.0000 -3.7508 0.0000
# 4 0.0000 0.0000 0.0000 24.2738 0.0000 -4.2824
# 5 -0.7912 -3.7320 -3.7508 0.0000 26.3153 0.0000
# 6 0.0000 0.0000 0.0000 -4.2824 0.0000 13.9775
#
#
#
# Elastic Compliance Matrix: (Units=1/GPa)
#
#
# Indices 1 2 3 4 5 6 
#
# 1 0.014283 -0.003675 -0.005331 0.000000 -0.000851 0.000000
# 2 -0.003675 0.013481 -0.001001 0.000000 0.001659 0.000000
# 3 -0.005331 -0.001001 0.016173 0.000000 0.002003 0.000000
# 4 0.000000 0.000000 0.000000 0.043551 0.000000 0.013343
# 5 -0.000851 0.001659 0.002003 0.000000 0.038496 0.000000
# 6 0.000000 0.000000 0.000000 0.013343 0.000000 0.075631
#
#
# Mechanical properties :
#
#
# Convention : Reuss Voigt Hill
#
# Bulk Modulus (GPa) = 41.79786 43.07888 42.43837
# Shear Modulus (GPa) = 21.77680 24.44266 23.10973
#
# Velocity S-wave (km/s) = 3.75496 3.97816 3.86817
# Velocity P-wave (km/s) = 6.77217 6.99951 6.88677
#
# Compressibility (1/GPa) = 0.02392467
#
# Stress axis : x y z
#
# Youngs Moduli (GPa) = 70.01107 74.18077 61.83152
#
# Poissons Ratio (x) = 0.27259 0.32961
# Poissons Ratio (y) = 0.25727 0.06188
# Poissons Ratio (z) = 0.37321 0.07424
#
# Static dielectric constant tensor:
#      x y z
#    x 1.511110 0.000000 -0.007840 
#    y 0.000000 1.525260 0.000000 
#    z -0.007840 0.000000 1.511740 
# 
# From -- ./inp_files/353881.got.cif
#   From: 2010.05.17/outbox.cif.g08.bks.cpg/sg12_177_cif.got.tgz:353881.got - 2010.06.03 13:09:07.
