data_PCOD9195416
_publ_section_title
;
Structure prediction by ZEFSAII (Michael W. Deem and Ramdas Pophale) SiO2 
 PCOD9195416
Probable space group: C 2/M
;
_chemical_formula_sum "Si O2"
_cell_formula_units_Z 50
_cell_length_a 30.255596
_cell_length_b 9.516608
_cell_length_c 19.524454
_cell_angle_alpha 90.000000
_cell_angle_beta 22.317264
_cell_angle_gamma 90.000000
_cell_volume 2134.751501
_symmetry_space_group_name_H-M "C 2/M"
_symmetry_group_IT_number 12
_symmetry_cell_setting 'monoclinic'
loop_
_space_group_symop_operation_xyz
x,y,z
-x,y,-z
-x,-y,-z
x,-y,z
1/2+x,1/2+y,z
1/2-x,1/2+y,-z
1/2-x,1/2-y,-z
1/2+x,1/2-y,z
loop_
_atom_site_type_symbol
_atom_site_label
_atom_site_fract_x
_atom_site_fract_y
_atom_site_fract_z
Si Si1 0.664111 0.836800 0.778615
Si Si2 0.025167 0.727673 0.559301
Si Si3 0.441735 0.339191 0.346512
Si Si4 0.368135 0.329345 0.307206
Si Si5 0.500000 0.500000 0.500000
Si Si6 0.210243 0.160098 0.842286
Si Si7 0.228889 0.342566 0.096134
O O1 0.802714 0.836527 0.561941
O O2 0.605082 0.744118 0.803401
O O3 0.656786 0.762953 0.862744
O O4 0.628512 0.000000 0.829915
O O5 0.004328 0.747314 0.670732
O O6 0.150395 0.657095 0.372532
O O7 0.910379 0.657052 0.693304
O O8 0.030837 0.877306 0.512965
O O9 0.479271 0.500000 0.300543
O O10 0.452797 0.302335 0.250535
O O11 0.353447 0.500000 0.322265
O O12 0.250000 0.250000 0.500000
O O13 0.208519 0.206218 0.924102
O O14 0.166317 0.000000 0.898040
O O15 0.266820 0.500000 0.027137
O O16 0.250000 0.250000 0.000000
#
# Coordination Sequence:
#
# PCOD9195416 Si02
#       7
#     8   8   8   8   2   8   8
#     4   9  17  27  45  70  99 131 171 210 258 315
#     4  11  20  33  54  80 107 140 180 217 264 313
#     4   8  15  25  41  67  99 131 170 206 248 303
#     4   9  15  25  39  63  99 136 168 209 254 304
#     4  12  20  28  58  84 108 140 178 226 264 312
#     4  10  20  35  54  77 105 137 174 221 264 311
#     4  11  25  39  54  76 107 141 178 221 268 317
#
# _framework density 23.42193
#
# number of rings (size 3 to 8) (size 9 to 14) (size 15 to 20)
#    0.000    2.240    2.400    2.400    2.240    1.920 
#    0.000    2.400    0.000    0.000    0.000    1.120 
#    0.000    7.680    0.000    0.000    0.000    0.160 
#
# Total GULP energy -139460.875423 kJ/mol
# GULP energy per Si atom -5578.435017 kJ/mol
# Density = 2.336862 g / cm^3
# Si number density = 23.421930 Si / 1000 Ang^3
#
#
#
# Elastic Constant Matrix: (Units=GPa)
#
#
# Indices 1 2 3 4 5 6 
#
# 1 199.6753 86.1423 45.3452 0.0000 37.8546 0.0000
# 2 86.1423 134.3528 37.6457 -0.0001 34.0818 0.0001
# 3 45.3452 37.6457 91.7911 -0.0001 16.1154 0.0000
# 4 0.0000 -0.0001 -0.0001 10.4352 0.0000 16.0120
# 5 37.8546 34.0818 16.1154 0.0000 63.7714 0.0000
# 6 0.0000 0.0001 0.0000 16.0120 0.0000 32.3537
#
#
#
# Elastic Compliance Matrix: (Units=1/GPa)
#
#
# Indices 1 2 3 4 5 6 
#
# 1 0.007398 -0.003755 -0.001775 0.000000 -0.001936 0.000000
# 2 -0.003755 0.011293 -0.002206 0.000001 -0.003249 0.000000
# 3 -0.001775 -0.002206 0.012854 0.000000 -0.001016 0.000000
# 4 0.000000 0.000001 0.000000 0.398279 0.000000 -0.197110
# 5 -0.001936 -0.003249 -0.001016 0.000000 0.018823 0.000000
# 6 0.000000 0.000000 0.000000 -0.197110 0.000000 0.128459
#
#
# Mechanical properties :
#
#
# Convention : Reuss Voigt Hill
#
# Bulk Modulus (GPa) = 62.21413 84.89842 73.55627
# Shear Modulus (GPa) = 8.36210 38.42446 23.39328
#
# Velocity S-wave (km/s) = 1.89155 4.05474 3.16377
# Velocity P-wave (km/s) = 5.60273 7.63200 6.69470
#
# Compressibility (1/GPa) = 0.01607352
#
# Stress axis : x y z
#
# Youngs Moduli (GPa) = 135.16794 88.55053 77.79568
#
# Poissons Ratio (x) = 0.33251 0.13807
# Poissons Ratio (y) = 0.50755 0.17163
# Poissons Ratio (z) = 0.23990 0.19536
#
# Static dielectric constant tensor:
#      x y z
#    x 1.891510 0.000000 -0.018710 
#    y 0.000000 1.808940 0.000000 
#    z -0.018710 0.000000 1.986080 
# 
# From -- ./inp_files/294742.got.cif
#   From: 2010.05.17/outbox.cif.g08.bks.cpg/sg12_148_cif.got.tgz:294742.got - 2010.06.03 13:09:07.
