data_PCOD9195005
_publ_section_title
;
Structure prediction by ZEFSAII (Michael W. Deem and Ramdas Pophale) SiO2 
 PCOD9195005
Probable space group: C 2/M
;
_chemical_formula_sum "Si O2"
_cell_formula_units_Z 64
_cell_length_a 12.370550
_cell_length_b 20.318502
_cell_length_c 11.946005
_cell_angle_alpha 90.000000
_cell_angle_beta 106.276135
_cell_angle_gamma 90.000000
_cell_volume 2882.301338
_symmetry_space_group_name_H-M "C 2/M"
_symmetry_group_IT_number 12
_symmetry_cell_setting 'monoclinic'
loop_
_space_group_symop_operation_xyz
x,y,z
-x,y,-z
-x,-y,-z
x,-y,z
1/2+x,1/2+y,z
1/2-x,1/2+y,-z
1/2-x,1/2-y,-z
1/2+x,1/2-y,z
loop_
_atom_site_type_symbol
_atom_site_label
_atom_site_fract_x
_atom_site_fract_y
_atom_site_fract_z
Si Si1 0.112549 0.426242 0.683467
Si Si2 0.894429 0.359365 0.692020
Si Si3 0.952679 0.119894 0.876267
Si Si4 0.984438 0.074276 0.335340
Si Si5 0.476858 0.236705 0.123216
Si Si6 0.223717 0.080012 0.476540
Si Si7 0.752222 0.578135 0.830303
Si Si8 0.219271 0.637131 0.915211
O O1 0.073360 0.500000 0.649796
O O2 0.210628 0.411652 0.622669
O O3 0.159104 0.418690 0.822978
O O4 0.003532 0.380413 0.652459
O O5 0.929077 0.292135 0.764745
O O6 0.790961 0.372461 0.579490
O O7 0.861794 0.406612 0.787197
O O8 0.958084 0.074750 0.771163
O O9 0.024547 0.185049 0.869621
O O10 0.833968 0.148008 0.881682
O O11 0.000000 0.084931 0.000000
O O12 0.091507 0.099872 0.437127
O O13 0.859370 0.100814 0.272039
O O14 0.965418 0.000000 0.367725
O O15 0.359554 0.200957 0.114723
O O16 0.500000 0.219780 0.000000
O O17 0.231420 0.000000 0.504495
O O18 0.740289 0.500000 0.844990
O O19 0.761593 0.613723 0.952657
#
# Coordination Sequence:
#
# PCOD9195005 Si02
#       8
#     8   8   8   8   8   8   8   8
#     4  10  20  34  59  90 121 155 196 243 296 352
#     4  11  22  38  57  86 123 162 199 241 291 352
#     4  11  22  38  63  87 115 159 196 244 299 352
#     4  10  22  38  58  90 121 151 199 247 296 353
#     4  10  23  40  58  86 117 155 199 242 294 353
#     4  10  20  37  61  87 120 158 201 246 291 348
#     4  11  22  35  57  89 124 158 194 243 302 358
#     4  11  21  37  59  89 119 153 194 249 298 354
#
# _framework density 22.204478999999999
#
# number of rings (size 3 to 8) (size 9 to 14) (size 15 to 20)
#    0.000    1.500    3.750    1.875    0.000    5.250 
#    0.000    4.375    0.000    0.000    3.250    0.000 
#    0.000    0.000    0.000    0.000    0.000    0.000 
#
# Total GULP energy -178483.090910 kJ/mol
# GULP energy per Si atom -5577.596591 kJ/mol
# Density = 2.215394 g / cm^3
# Si number density = 22.204479 Si / 1000 Ang^3
#
#
#
# Elastic Constant Matrix: (Units=GPa)
#
#
# Indices 1 2 3 4 5 6 
#
# 1 104.6754 12.7725 16.2604 0.0000 -8.8045 0.0000
# 2 12.7725 42.1012 18.0866 0.0000 0.3959 0.0000
# 3 16.2604 18.0866 105.4026 0.0000 16.3211 0.0000
# 4 0.0000 0.0000 0.0000 9.8953 0.0000 2.9434
# 5 -8.8045 0.3959 16.3211 0.0000 41.1932 0.0000
# 6 0.0000 0.0000 0.0000 2.9434 0.0000 18.3333
#
#
#
# Elastic Compliance Matrix: (Units=1/GPa)
#
#
# Indices 1 2 3 4 5 6 
#
# 1 0.010348 -0.002471 -0.001618 0.000000 0.002876 0.000000
# 2 -0.002471 0.026332 -0.004279 0.000000 0.000914 0.000000
# 3 -0.001618 -0.004279 0.011206 0.000000 -0.004745 0.000000
# 4 0.000000 0.000000 0.000000 0.106127 0.000000 -0.017038
# 5 0.002876 0.000914 -0.004745 0.000000 0.026762 0.000000
# 6 0.000000 0.000000 0.000000 -0.017038 0.000000 0.057281
#
#
# Mechanical properties :
#
#
# Convention : Reuss Voigt Hill
#
# Bulk Modulus (GPa) = 32.10279 38.49092 35.29685
# Shear Modulus (GPa) = 18.85556 27.55500 23.20528
#
# Velocity S-wave (km/s) = 2.91723 3.52656 3.23626
# Velocity P-wave (km/s) = 5.08293 5.82705 5.46766
#
# Compressibility (1/GPa) = 0.03114994
#
# Stress axis : x y z
#
# Youngs Moduli (GPa) = 96.63559 37.97728 89.23905
#
# Poissons Ratio (x) = 0.09386 0.14436
# Poissons Ratio (y) = 0.23883 0.38182
# Poissons Ratio (z) = 0.15633 0.16249
#
# Static dielectric constant tensor:
#      x y z
#    x 1.873750 0.000000 0.051790 
#    y 0.000000 1.755060 0.000000 
#    z 0.051790 0.000000 1.881630 
# 
# From -- ./inp_files/135979.got.cif
#   From: 2010.05.17/outbox.cif.g08.bks.cpg/sg12_68_cif.got.tgz:135979.got - 2010.06.03 13:09:07.
