data_PCOD9195281
_publ_section_title
;
Structure prediction by ZEFSAII (Michael W. Deem and Ramdas Pophale) SiO2 
 PCOD9195281
Probable space group: C 2/M
;
_chemical_formula_sum "Si O2"
_cell_formula_units_Z 64
_cell_length_a 11.766466
_cell_length_b 17.357993
_cell_length_c 20.803699
_cell_angle_alpha 90.000000
_cell_angle_beta 127.335659
_cell_angle_gamma 90.000000
_cell_volume 3378.358872
_symmetry_space_group_name_H-M "C 2/M"
_symmetry_group_IT_number 12
_symmetry_cell_setting 'monoclinic'
loop_
_space_group_symop_operation_xyz
x,y,z
-x,y,-z
-x,-y,-z
x,-y,z
1/2+x,1/2+y,z
1/2-x,1/2+y,-z
1/2-x,1/2-y,-z
1/2+x,1/2-y,z
loop_
_atom_site_type_symbol
_atom_site_label
_atom_site_fract_x
_atom_site_fract_y
_atom_site_fract_z
Si Si1 0.485784 0.679881 0.329395
Si Si2 0.350940 0.194368 0.988878
Si Si3 0.998534 0.588005 0.856340
Si Si4 0.704062 0.588863 0.831632
Si Si5 0.962396 0.647704 0.703468
Si Si6 0.444309 0.088794 0.389052
Si Si7 0.643581 0.663635 0.578620
Si Si8 0.701514 0.167583 0.551243
O O1 0.424928 0.623126 0.254622
O O2 0.515998 0.762965 0.307955
O O3 0.384299 0.685788 0.356465
O O4 0.636420 0.652646 0.409741
O O5 0.251394 0.148942 0.903363
O O6 0.500000 0.221805 0.000000
O O7 0.250000 0.250000 0.000000
O O8 0.410712 0.131485 0.059036
O O9 0.045929 0.500000 0.863870
O O10 0.837999 0.586770 0.828783
O O11 0.999868 0.631661 0.789372
O O12 0.680473 0.500000 0.845453
O O13 0.061066 0.601097 0.688263
O O14 0.797657 0.623286 0.632942
O O15 0.588422 0.129157 0.465091
O O16 0.322269 0.131315 0.386699
O O17 0.446387 0.000000 0.406702
O O18 0.500000 0.625817 0.500000
O O19 0.665882 0.742410 0.545784
#
# Coordination Sequence:
#
# PCOD9195281 Si02
#       8
#     8   8   8   8   8   8   8   8
#     4  11  21  35  57  81 112 146 188 249 290 337
#     4  10  21  40  67  97 121 156 196 240 290 350
#     4  10  20  37  60  86 119 154 191 235 284 348
#     4  10  21  38  60  87 120 153 191 235 287 351
#     4  11  21  34  56  84 109 147 195 241 294 335
#     4  11  21  36  53  75 112 151 197 242 287 356
#     4  11  19  34  54  77 107 140 192 246 291 334
#     4  10  20  35  53  76 106 152 200 236 292 350
#
# _framework density 18.944109000000001
#
# number of rings (size 3 to 8) (size 9 to 14) (size 15 to 20)
#    0.000    1.500    3.750    3.000    0.000    4.500 
#    0.000    0.000    0.000    4.875    0.000    0.000 
#    0.000    0.000    0.000    0.000    0.000    0.000 
#
# Total GULP energy -178427.917693 kJ/mol
# GULP energy per Si atom -5575.872428 kJ/mol
# Density = 1.890099 g / cm^3
# Si number density = 18.944109 Si / 1000 Ang^3
#
#
#
# Elastic Constant Matrix: (Units=GPa)
#
#
# Indices 1 2 3 4 5 6 
#
# 1 88.1846 19.8692 22.6652 0.0000 -15.3517 0.0000
# 2 19.8692 53.4454 9.4212 0.0000 -1.1522 0.0000
# 3 22.6652 9.4212 60.2752 0.0000 -14.9388 0.0000
# 4 0.0000 0.0000 0.0000 12.7764 0.0000 9.4354
# 5 -15.3517 -1.1522 -14.9388 0.0000 34.2984 0.0000
# 6 0.0000 0.0000 0.0000 9.4354 0.0000 -7.1301
#
#
#
# Elastic Compliance Matrix: (Units=1/GPa)
#
#
# Indices 1 2 3 4 5 6 
#
# 1 0.014046 -0.004518 -0.003425 0.000000 0.004644 0.000000
# 2 -0.004518 0.020711 -0.002093 0.000000 -0.002238 0.000000
# 3 -0.003425 -0.002093 0.019963 0.000000 0.007092 0.000000
# 4 0.000000 0.000000 0.000000 0.039585 0.000000 0.052383
# 5 0.004644 -0.002238 0.007092 0.000000 0.034248 0.000000
# 6 0.000000 0.000000 0.000000 0.052383 0.000000 -0.070931
#
#
# Mechanical properties :
#
#
# Convention : Reuss Voigt Hill
#
# Bulk Modulus (GPa) = 28.86091 33.97960 31.42025
# Shear Modulus (GPa) = 56.02640 17.98558 37.00599
#
# Velocity S-wave (km/s) = 5.44415 3.08458 4.42456
# Velocity P-wave (km/s) = 7.40177 5.53732 6.53636
#
# Compressibility (1/GPa) = 0.03464894
#
# Stress axis : x y z
#
# Youngs Moduli (GPa) = 71.19222 48.28339 50.09217
#
# Poissons Ratio (x) = 0.21815 0.17156
# Poissons Ratio (y) = 0.32166 0.10484
# Poissons Ratio (z) = 0.24382 0.10105
#
# Static dielectric constant tensor:
#      x y z
#    x 1.695430 0.000000 -0.002390 
#    y 0.000000 1.660710 0.000000 
#    z -0.002390 0.000000 1.654520 
# 
# From -- ./inp_files/306212.got.cif
#   From: 2010.05.17/outbox.cif.g08.bks.cpg/sg12_154_cif.got.tgz:306212.got - 2010.06.03 13:09:07.
