data_PCOD9195694
_publ_section_title
;
Structure prediction by ZEFSAII (Michael W. Deem and Ramdas Pophale) SiO2 
 PCOD9195694
Probable space group: C 2/M
;
_chemical_formula_sum "Si O2"
_cell_formula_units_Z 48
_cell_length_a 18.964313
_cell_length_b 8.553444
_cell_length_c 15.969476
_cell_angle_alpha 90.000000
_cell_angle_beta 90.025475
_cell_angle_gamma 90.000000
_cell_volume 2590.411468
_symmetry_space_group_name_H-M "C 2/M"
_symmetry_group_IT_number 12
_symmetry_cell_setting 'monoclinic'
loop_
_space_group_symop_operation_xyz
x,y,z
-x,y,-z
-x,-y,-z
x,-y,z
1/2+x,1/2+y,z
1/2-x,1/2+y,-z
1/2-x,1/2-y,-z
1/2+x,1/2-y,z
loop_
_atom_site_type_symbol
_atom_site_label
_atom_site_fract_x
_atom_site_fract_y
_atom_site_fract_z
Si Si1 0.455315 0.690933 0.919152
Si Si2 0.792462 0.187661 0.920044
Si Si3 0.044070 0.688253 0.579768
Si Si4 0.708371 0.187205 0.579715
Si Si5 0.044498 0.188358 0.759297
Si Si6 0.791511 0.812492 0.239249
O O1 0.455370 0.500000 0.919007
O O2 0.374046 0.740740 0.922878
O O3 0.495290 0.742402 0.835081
O O4 0.500000 0.740937 0.000000
O O5 0.755050 0.244453 0.835322
O O6 0.791896 0.000000 0.922349
O O7 0.750000 0.250000 0.000000
O O8 0.039908 0.500000 0.582568
O O9 0.126077 0.732003 0.570395
O O10 0.019424 0.753035 0.668953
O O11 0.000000 0.744025 0.500000
O O12 0.750000 0.250000 0.500000
O O13 0.732488 0.255953 0.668973
O O14 0.713256 0.000000 0.582912
O O15 0.126288 0.237960 0.771136
O O16 0.044339 0.000000 0.758933
O O17 0.789443 0.000000 0.235928
#
# Coordination Sequence:
#
# PCOD9195694 Si02
#       6
#     8   8   8   8   8   8
#     4   9  18  34  55  78 104 135 172 213 257 308
#     4  11  22  36  56  81 109 140 175 217 264 315
#     4   9  19  35  53  75 105 139 172 213 267 315
#     4  10  20  35  55  79 109 143 179 219 263 314
#     4   9  18  34  56  78 100 134 178 218 257 305
#     4  10  20  36  57  79 106 140 178 220 265 314
#
# _framework density 18.529876000000002
#
# number of rings (size 3 to 8) (size 9 to 14) (size 15 to 20)
#    0.000    2.333    0.000    2.500    0.000    5.667 
#    0.000    5.000    0.000    3.500    0.000    0.000 
#    0.000    0.000    0.000    0.000    0.000    0.000 
#
# Total GULP energy -133977.186617 kJ/mol
# GULP energy per Si atom -5582.382776 kJ/mol
# Density = 1.848770 g / cm^3
# Si number density = 18.529876 Si / 1000 Ang^3
#
#
#
# Elastic Constant Matrix: (Units=GPa)
#
#
# Indices 1 2 3 4 5 6 
#
# 1 117.4266 26.7913 119.1838 0.0000 0.1365 0.0000
# 2 26.7913 24.8858 36.3791 0.0000 0.1895 0.0000
# 3 119.1838 36.3791 224.6724 0.0000 -0.5284 0.0000
# 4 0.0000 0.0000 0.0000 34.6573 0.0000 3.2450
# 5 0.1365 0.1895 -0.5284 0.0000 42.5531 0.0000
# 6 0.0000 0.0000 0.0000 3.2450 0.0000 17.3915
#
#
#
# Elastic Compliance Matrix: (Units=1/GPa)
#
#
# Indices 1 2 3 4 5 6 
#
# 1 0.019514 -0.007696 -0.009106 0.000000 -0.000141 0.000000
# 2 -0.007696 0.055684 -0.004935 0.000000 -0.000285 0.000000
# 3 -0.009106 -0.004935 0.010081 0.000000 0.000176 0.000000
# 4 0.000000 0.000000 0.000000 0.029367 0.000000 -0.005479
# 5 -0.000141 -0.000285 0.000176 0.000000 0.023504 0.000000
# 6 0.000000 0.000000 0.000000 -0.005479 0.000000 0.058522
#
#
# Mechanical properties :
#
#
# Convention : Reuss Voigt Hill
#
# Bulk Modulus (GPa) = 23.91970 81.29925 52.60947
# Shear Modulus (GPa) = 19.67875 31.22909 25.45392
#
# Velocity S-wave (km/s) = 3.26237 4.10974 3.71033
# Velocity P-wave (km/s) = 5.20841 8.15413 6.84169
#
# Compressibility (1/GPa) = 0.04180655
#
# Stress axis : x y z
#
# Youngs Moduli (GPa) = 51.24430 17.95837 99.19639
#
# Poissons Ratio (x) = 0.13820 0.90330
# Poissons Ratio (y) = 0.39436 0.48951
# Poissons Ratio (z) = 0.46664 0.08862
#
# Static dielectric constant tensor:
#      x y z
#    x 1.632390 0.000000 -0.000350 
#    y 0.000000 1.636310 0.000000 
#    z -0.000350 0.000000 1.609620 
# 
# From -- ./inp_files/221543.got.cif
#   From: 2010.05.17/outbox.cif.g08.bks.cpg/sg12_111_cif.got.tgz:221543.got - 2010.06.03 13:09:07.
