data_PCOD9195633
_publ_section_title
;
Structure prediction by ZEFSAII (Michael W. Deem and Ramdas Pophale) SiO2 
 PCOD9195633
Probable space group: C 2/M
;
_chemical_formula_sum "Si O2"
_cell_formula_units_Z 64
_cell_length_a 20.413587
_cell_length_b 8.921285
_cell_length_c 20.340581
_cell_angle_alpha 90.000000
_cell_angle_beta 89.800756
_cell_angle_gamma 90.000000
_cell_volume 3704.311207
_symmetry_space_group_name_H-M "C 2/M"
_symmetry_group_IT_number 12
_symmetry_cell_setting 'monoclinic'
loop_
_space_group_symop_operation_xyz
x,y,z
-x,y,-z
-x,-y,-z
x,-y,z
1/2+x,1/2+y,z
1/2-x,1/2+y,-z
1/2-x,1/2-y,-z
1/2+x,1/2-y,z
loop_
_atom_site_type_symbol
_atom_site_label
_atom_site_fract_x
_atom_site_fract_y
_atom_site_fract_z
Si Si1 0.701806 0.679413 0.196927
Si Si2 0.442789 0.820420 0.450659
Si Si3 0.554996 0.178975 0.702306
Si Si4 0.803178 0.820304 0.298117
Si Si5 0.549944 0.820390 0.057405
Si Si6 0.548821 0.678609 0.199143
Si Si7 0.197618 0.178667 0.548754
Si Si8 0.202495 0.679275 0.054105
O O1 0.709591 0.500000 0.193818
O O2 0.749584 0.748836 0.250730
O O3 0.625440 0.712434 0.212621
O O4 0.716001 0.750446 0.125581
O O5 0.500000 0.774539 0.500000
O O6 0.459783 0.788588 0.374470
O O7 0.374589 0.740463 0.466247
O O8 0.433694 0.000000 0.456632
O O9 0.624956 0.254414 0.717288
O O10 0.498961 0.243013 0.749198
O O11 0.560305 0.000000 0.709989
O O12 0.788828 0.783438 0.374694
O O13 0.804001 0.000000 0.291211
O O14 0.535146 0.738276 0.125772
O O15 0.625769 0.788976 0.039143
O O16 0.544323 0.000000 0.067629
O O17 0.500000 0.777131 0.000000
O O18 0.540114 0.500000 0.201662
O O19 0.250000 0.250000 0.500000
O O20 0.198638 0.000000 0.542597
O O21 0.210758 0.500000 0.056369
O O22 0.250000 0.750000 0.000000
#
# Coordination Sequence:
#
# PCOD9195633 Si02
#       8
#     8   8   8   8   8   8   8   8
#     4  10  21  37  56  79 108 142 180 222 269 319
#     4   9  19  36  56  79 107 139 177 220 265 314
#     4  10  20  35  56  79 107 142 177 217 265 317
#     4  10  21  37  56  79 107 139 178 223 268 316
#     4   9  19  36  56  77 102 135 176 218 260 309
#     4  10  21  36  54  78 109 141 176 219 262 311
#     4  10  21  36  55  79 108 141 177 219 266 318
#     4  10  20  35  55  78 107 141 177 221 269 317
#
# _framework density 17.277166000000001
#
# number of rings (size 3 to 8) (size 9 to 14) (size 15 to 20)
#    0.000    2.250    0.000    2.250    0.000    6.500 
#    0.000    7.500    0.000    0.000    0.000    0.000 
#    0.000    0.000    0.000    0.000    0.000    0.000 
#
# Total GULP energy -178650.950380 kJ/mol
# GULP energy per Si atom -5582.842199 kJ/mol
# Density = 1.723784 g / cm^3
# Si number density = 17.277166 Si / 1000 Ang^3
#
#
#
# Elastic Constant Matrix: (Units=GPa)
#
#
# Indices 1 2 3 4 5 6 
#
# 1 149.0473 79.8539 132.9958 0.0000 0.7096 0.0000
# 2 79.8539 71.8684 76.1150 0.0000 -3.4440 0.0000
# 3 132.9958 76.1150 137.5455 0.0000 0.3952 0.0000
# 4 0.0000 0.0000 0.0000 30.2032 0.0000 -3.9324
# 5 0.7096 -3.4440 0.3952 0.0000 44.8552 0.0000
# 6 0.0000 0.0000 0.0000 -3.9324 0.0000 34.2708
#
#
#
# Elastic Compliance Matrix: (Units=1/GPa)
#
#
# Indices 1 2 3 4 5 6 
#
# 1 0.052335 -0.011167 -0.044421 0.000000 -0.001294 0.000000
# 2 -0.011167 0.036340 -0.009321 0.000000 0.003049 0.000000
# 3 -0.044421 -0.009321 0.055381 0.000000 -0.000501 0.000000
# 4 0.000000 0.000000 0.000000 0.033611 0.000000 0.003857
# 5 -0.001294 0.003049 -0.000501 0.000000 0.022553 0.000000
# 6 0.000000 0.000000 0.000000 0.003857 0.000000 0.029622
#
#
# Mechanical properties :
#
#
# Convention : Reuss Voigt Hill
#
# Bulk Modulus (GPa) = 70.22997 104.04340 87.13669
# Shear Modulus (GPa) = 13.72096 26.49893 20.10995
#
# Velocity S-wave (km/s) = 2.82115 3.92057 3.41539
# Velocity P-wave (km/s) = 7.16583 8.99141 8.13002
#
# Compressibility (1/GPa) = 0.01423893
#
# Stress axis : x y z
#
# Youngs Moduli (GPa) = 19.10770 27.51798 18.05660
#
# Poissons Ratio (x) = 0.30728 0.80209
# Poissons Ratio (y) = 0.21337 0.16831
# Poissons Ratio (z) = 0.84878 0.25651
#
# Static dielectric constant tensor:
#      x y z
#    x 1.559060 0.000000 0.005310 
#    y 0.000000 1.573780 0.000000 
#    z 0.005310 0.000000 1.559470 
# 
# From -- ./inp_files/314120.got.cif
#   From: 2010.05.17/outbox.cif.g08.bks.cpg/sg12_158_cif.got.tgz:314120.got - 2010.06.03 13:09:07.
