data_PCOD9195580
_publ_section_title
;
Structure prediction by ZEFSAII (Michael W. Deem and Ramdas Pophale) SiO2 
 PCOD9195580
Probable space group: C 2/M
;
_chemical_formula_sum "Si O2"
_cell_formula_units_Z 56
_cell_length_a 14.474490
_cell_length_b 8.981275
_cell_length_c 28.489811
_cell_angle_alpha 90.000000
_cell_angle_beta 122.813393
_cell_angle_gamma 90.000000
_cell_volume 3112.701852
_symmetry_space_group_name_H-M "C 2/M"
_symmetry_group_IT_number 12
_symmetry_cell_setting 'monoclinic'
loop_
_space_group_symop_operation_xyz
x,y,z
-x,y,-z
-x,-y,-z
x,-y,z
1/2+x,1/2+y,z
1/2-x,1/2+y,-z
1/2-x,1/2-y,-z
1/2+x,1/2-y,z
loop_
_atom_site_type_symbol
_atom_site_label
_atom_site_fract_x
_atom_site_fract_y
_atom_site_fract_z
Si Si1 0.921448 0.677153 0.046051
Si Si2 0.751534 0.323278 0.260494
Si Si3 0.502733 0.821677 0.356790
Si Si4 0.065500 0.822459 0.566167
Si Si5 0.767528 0.175874 0.929911
Si Si6 0.699845 0.679111 0.352504
Si Si7 0.166828 0.322269 0.143097
O O1 0.922022 0.500000 0.036088
O O2 0.837646 0.703531 0.065970
O O3 0.042625 0.723051 0.094971
O O4 0.870934 0.759679 0.987372
O O5 0.738464 0.500000 0.249377
O O6 0.881901 0.292822 0.301573
O O7 0.698046 0.286177 0.296223
O O8 0.700301 0.237193 0.202981
O O9 0.497573 0.750137 0.407125
O O10 0.598130 0.749461 0.352036
O O11 0.516741 0.000000 0.363945
O O12 0.185466 0.747093 0.597542
O O13 0.000000 0.798020 0.500000
O O14 0.077026 0.000000 0.576762
O O15 0.758483 0.254879 0.877503
O O16 0.779788 0.000000 0.926896
O O17 0.701425 0.500000 0.357863
O O18 0.172408 0.500000 0.143980
#
# Coordination Sequence:
#
# PCOD9195580 Si02
#       7
#     8   8   8   8   8   8   8
#     4   9  20  37  53  74 105 137 171 212 263 323
#     4   9  21  39  55  77 108 140 180 227 270 318
#     4  10  21  38  60  83 111 149 187 228 278 327
#     4  10  21  37  58  86 118 150 187 230 273 322
#     4  10  20  35  55  77 103 136 173 216 265 318
#     4  10  21  38  60  84 112 148 187 229 277 328
#     4  11  22  35  54  78 105 139 175 216 268 322
#
# _framework density 17.9908
#
# number of rings (size 3 to 8) (size 9 to 14) (size 15 to 20)
#    0.000    2.143    0.000    3.429    0.000    9.714 
#    0.000    4.286    0.000    0.000    0.000    0.000 
#    0.000    0.000    0.000    0.000    0.000    0.000 
#
# Total GULP energy -156371.079943 kJ/mol
# GULP energy per Si atom -5584.681427 kJ/mol
# Density = 1.794985 g / cm^3
# Si number density = 17.990800 Si / 1000 Ang^3
#
#
#
# Elastic Constant Matrix: (Units=GPa)
#
#
# Indices 1 2 3 4 5 6 
#
# 1 124.7960 58.6323 57.5148 0.0000 -20.4502 0.0000
# 2 58.6323 68.9907 64.5317 0.0000 -11.4874 0.0000
# 3 57.5148 64.5317 113.4624 0.0000 -17.2902 0.0000
# 4 0.0000 0.0000 0.0000 37.2230 0.0000 -1.0188
# 5 -20.4502 -11.4874 -17.2902 0.0000 11.0882 0.0000
# 6 0.0000 0.0000 0.0000 -1.0188 0.0000 29.1846
#
#
#
# Elastic Compliance Matrix: (Units=1/GPa)
#
#
# Indices 1 2 3 4 5 6 
#
# 1 0.016126 -0.011924 0.001649 0.000000 0.019960 0.000000
# 2 -0.011924 0.040101 -0.018080 0.000000 -0.008639 0.000000
# 3 0.001649 -0.018080 0.020816 0.000000 0.016769 0.000000
# 4 0.000000 0.000000 0.000000 0.026891 0.000000 0.000939
# 5 0.019960 -0.008639 0.016769 0.000000 0.144198 0.000000
# 6 0.000000 0.000000 0.000000 0.000939 0.000000 0.034297
#
#
# Mechanical properties :
#
#
# Convention : Reuss Voigt Hill
#
# Bulk Modulus (GPa) = 49.17902 74.28964 61.73433
# Shear Modulus (GPa) = 14.45438 23.93716 19.19577
#
# Velocity S-wave (km/s) = 2.83756 3.65159 3.27001
# Velocity P-wave (km/s) = 6.17500 7.69166 6.97468
#
# Compressibility (1/GPa) = 0.02033387
#
# Stress axis : x y z
#
# Youngs Moduli (GPa) = 62.01166 24.93719 48.04019
#
# Poissons Ratio (x) = 0.29734 -0.07921
# Poissons Ratio (y) = 0.73940 0.86855
# Poissons Ratio (z) = -0.10224 0.45085
#
# Static dielectric constant tensor:
#      x y z
#    x 1.614300 0.000000 -0.004670 
#    y 0.000000 1.599240 0.000000 
#    z -0.004670 0.000000 1.586280 
# 
# From -- ./inp_files/339081.got.cif
#   From: 2010.05.17/outbox.cif.g08.bks.cpg/sg12_170_cif.got.tgz:339081.got - 2010.06.03 13:09:07.
