data_PCOD9195523
_publ_section_title
;
Structure prediction by ZEFSAII (Michael W. Deem and Ramdas Pophale) SiO2 
 PCOD9195523
Probable space group: C 2/M
;
_chemical_formula_sum "Si O2"
_cell_formula_units_Z 56
_cell_length_a 32.990120
_cell_length_b 7.551390
_cell_length_c 20.735931
_cell_angle_alpha 90.000000
_cell_angle_beta 150.182780
_cell_angle_gamma 90.000000
_cell_volume 2568.595988
_symmetry_space_group_name_H-M "C 2/M"
_symmetry_group_IT_number 12
_symmetry_cell_setting 'monoclinic'
loop_
_space_group_symop_operation_xyz
x,y,z
-x,y,-z
-x,-y,-z
x,-y,z
1/2+x,1/2+y,z
1/2-x,1/2+y,-z
1/2-x,1/2-y,-z
1/2+x,1/2-y,z
loop_
_atom_site_type_symbol
_atom_site_label
_atom_site_fract_x
_atom_site_fract_y
_atom_site_fract_z
Si Si1 0.987711 0.286933 0.657623
Si Si2 0.573915 0.289152 0.645675
Si Si3 0.423889 0.781902 0.091517
Si Si4 0.743426 0.708337 0.826350
Si Si5 0.298576 0.289009 0.632688
Si Si6 0.302641 0.785405 0.382074
Si Si7 0.515153 0.205965 0.091651
O O1 0.983287 0.500000 0.653982
O O2 0.048795 0.238837 0.684550
O O3 0.021539 0.225118 0.772856
O O4 0.896317 0.223006 0.516418
O O5 0.500000 0.216272 0.500000
O O6 0.577067 0.500000 0.637688
O O7 0.661692 0.215848 0.745972
O O8 0.462373 0.719226 0.077384
O O9 0.424667 0.000000 0.092252
O O10 0.330742 0.720667 0.968676
O O11 0.745233 0.500000 0.844538
O O12 0.734717 0.727141 0.737309
O O13 0.306183 0.500000 0.648592
O O14 0.250000 0.250000 0.500000
O O15 0.248608 0.225572 0.626487
O O16 0.389769 0.214599 0.759159
O O17 0.303058 0.000000 0.383030
O O18 0.490424 0.000000 0.052978
O O19 0.500000 0.285679 0.000000
#
# Coordination Sequence:
#
# PCOD9195523 Si02
#       7
#     8   8   8   8   8   8   8
#     4  10  20  35  56  78 107 146 183 222 271 327
#     4  10  20  35  54  82 114 140 175 229 279 322
#     4   9  19  36  56  81 111 145 186 228 271 325
#     4  10  20  36  59  81 107 144 184 223 270 329
#     4  11  23  38  57  83 115 149 188 237 287 336
#     4  10  21  36  55  80 109 141 180 229 275 322
#     4  10  20  37  61  85 113 151 194 236 282 339
#
# _framework density 21.801794999999998
#
# number of rings (size 3 to 8) (size 9 to 14) (size 15 to 20)
#    0.000    2.000    1.429    2.143    0.000    6.286 
#    0.000    3.571    0.000    0.000    0.000    0.000 
#    0.000    0.000    0.000    0.000    0.000    0.000 
#
# Total GULP energy -156501.989150 kJ/mol
# GULP energy per Si atom -5589.356755 kJ/mol
# Density = 2.175217 g / cm^3
# Si number density = 21.801795 Si / 1000 Ang^3
#
#
#
# Elastic Constant Matrix: (Units=GPa)
#
#
# Indices 1 2 3 4 5 6 
#
# 1 77.3342 -10.3504 -8.8313 0.0000 11.2241 0.0000
# 2 -10.3504 45.3185 -14.7224 0.0000 3.6105 0.0000
# 3 -8.8313 -14.7224 74.6828 0.0000 0.9719 0.0000
# 4 0.0000 0.0000 0.0000 15.6117 0.0000 -8.0526
# 5 11.2241 3.6105 0.9719 0.0000 39.2343 0.0000
# 6 0.0000 0.0000 0.0000 -8.0526 0.0000 30.2157
#
#
#
# Elastic Compliance Matrix: (Units=1/GPa)
#
#
# Indices 1 2 3 4 5 6 
#
# 1 0.014519 0.004555 0.002675 0.000000 -0.004639 0.000000
# 2 0.004555 0.025211 0.005558 0.000000 -0.003761 0.000000
# 3 0.002675 0.005558 0.014823 0.000000 -0.001644 0.000000
# 4 0.000000 0.000000 0.000000 0.074263 0.000000 0.019791
# 5 -0.004639 -0.003761 -0.001644 0.000000 0.027202 0.000000
# 6 0.000000 0.000000 0.000000 0.019791 0.000000 0.038370
#
#
# Mechanical properties :
#
#
# Convention : Reuss Voigt Hill
#
# Bulk Modulus (GPa) = 12.47986 14.39190 13.43588
# Shear Modulus (GPa) = 25.57236 32.42832 29.00034
#
# Velocity S-wave (km/s) = 3.42855 3.86089 3.65112
# Velocity P-wave (km/s) = 4.62709 5.14692 4.89391
#
# Compressibility (1/GPa) = 0.08012909
#
# Stress axis : x y z
#
# Youngs Moduli (GPa) = 68.87376 39.66460 67.46143
#
# Poissons Ratio (x) = -0.18066 -0.18047
# Poissons Ratio (y) = -0.31371 -0.37492
# Poissons Ratio (z) = -0.18425 -0.22044
#
# Static dielectric constant tensor:
#      x y z
#    x 1.768490 0.000000 0.015480 
#    y 0.000000 3.552620 0.000000 
#    z 0.015480 0.000000 1.766040 
# 
# From -- ./inp_files/275571.got.cif
#   From: 2010.05.17/outbox.cif.g08.bks.cpg/sg12_138_cif.got.tgz:275571.got - 2010.06.03 13:09:07.
