data_PCOD9195120
_publ_section_title
;
Structure prediction by ZEFSAII (Michael W. Deem and Ramdas Pophale) SiO2 
 PCOD9195120
Probable space group: C 2/M
;
_chemical_formula_sum "Si O2"
_cell_formula_units_Z 48
_cell_length_a 15.110861
_cell_length_b 18.041952
_cell_length_c 17.902936
_cell_angle_alpha 90.000000
_cell_angle_beta 29.026913
_cell_angle_gamma 90.000000
_cell_volume 2368.296311
_symmetry_space_group_name_H-M "C 2/M"
_symmetry_group_IT_number 12
_symmetry_cell_setting 'monoclinic'
loop_
_space_group_symop_operation_xyz
x,y,z
-x,y,-z
-x,-y,-z
x,-y,z
1/2+x,1/2+y,z
1/2-x,1/2+y,-z
1/2-x,1/2-y,-z
1/2+x,1/2-y,z
loop_
_atom_site_type_symbol
_atom_site_label
_atom_site_fract_x
_atom_site_fract_y
_atom_site_fract_z
Si Si1 0.943665 0.000000 0.956351
Si Si2 0.791670 0.862666 0.429471
Si Si3 0.449103 0.797026 0.623530
Si Si4 0.687314 0.000000 0.407222
Si Si5 0.104428 0.145530 0.486951
Si Si6 0.788610 0.836655 0.069316
Si Si7 0.021846 0.261490 0.800762
O O1 0.841543 0.077749 0.015777
O O2 0.000000 0.000000 0.000000
O O3 0.136019 0.000000 0.773794
O O4 0.615461 0.810017 0.558471
O O5 0.711863 0.929255 0.440776
O O6 0.853396 0.889625 0.464469
O O7 0.938262 0.812206 0.278631
O O8 0.500000 0.822240 0.500000
O O9 0.451696 0.708892 0.615133
O O10 0.279885 0.830046 0.793812
O O11 0.500000 0.000000 0.500000
O O12 0.292652 0.190214 0.328039
O O13 0.000000 0.099953 0.500000
O O14 0.628963 0.811279 0.129606
O O15 0.945233 0.776534 0.932976
#
# Coordination Sequence:
#
# PCOD9195120 Si02
#       7
#     4   8   8   4   8   8   8
#     4  12  30  40  56 100 145 171 214 268 334 427
#     4  11  20  41  61  90 126 170 227 270 320 399
#     4  10  20  34  63  90 123 169 218 268 323 392
#     4  12  28  44  65  92 134 189 215 250 349 416
#     4  10  20  37  62  95 121 160 223 280 326 384
#     4  11  22  41  61  90 135 178 218 271 341 391
#     4  10  20  40  68  89 125 176 225 280 328 381
#
# _framework density 20.267734999999998
#
# number of rings (size 3 to 8) (size 9 to 14) (size 15 to 20)
#    0.000    1.333    5.000    1.500    4.667    2.000 
#    0.000    0.833    0.000    0.000    0.000    1.167 
#    0.000    0.000    0.000    0.000    0.000    0.000 
#
# Total GULP energy -133668.243667 kJ/mol
# GULP energy per Si atom -5569.510153 kJ/mol
# Density = 2.022160 g / cm^3
# Si number density = 20.267735 Si / 1000 Ang^3
#
#
#
# Elastic Constant Matrix: (Units=GPa)
#
#
# Indices 1 2 3 4 5 6 
#
# 1 177.1237 44.2702 41.9657 -0.0072 -6.1511 0.0036
# 2 44.2702 91.2137 30.2227 -0.0040 -9.8178 0.0023
# 3 41.9657 30.2227 109.2990 -0.0066 13.6536 0.0062
# 4 -0.0072 -0.0040 -0.0066 17.1384 0.0021 -4.2586
# 5 -6.1511 -9.8178 13.6536 0.0021 34.6554 -0.0013
# 6 0.0036 0.0023 0.0062 -4.2586 -0.0013 26.5123
#
#
#
# Elastic Compliance Matrix: (Units=1/GPa)
#
#
# Indices 1 2 3 4 5 6 
#
# 1 0.006805 -0.002464 -0.002099 0.000001 0.001337 0.000000
# 2 -0.002464 0.013837 -0.003487 0.000000 0.004857 0.000000
# 3 -0.002099 -0.003487 0.011663 0.000003 -0.005955 -0.000002
# 4 0.000001 0.000000 0.000003 0.060774 -0.000004 0.009762
# 5 0.001337 0.004857 -0.005955 -0.000004 0.032815 0.000002
# 6 0.000000 0.000000 -0.000002 0.009762 0.000002 0.039286
#
#
# Mechanical properties :
#
#
# Convention : Reuss Voigt Hill
#
# Bulk Modulus (GPa) = 61.70157 67.83928 64.77043
# Shear Modulus (GPa) = 26.78358 33.07309 29.92833
#
# Velocity S-wave (km/s) = 3.63917 4.04395 3.84689
# Velocity P-wave (km/s) = 6.94028 7.43969 7.19432
#
# Compressibility (1/GPa) = 0.01620704
#
# Stress axis : x y z
#
# Youngs Moduli (GPa) = 146.94701 72.26970 85.74041
#
# Poissons Ratio (x) = 0.17805 0.17994
# Poissons Ratio (y) = 0.36202 0.29897
# Poissons Ratio (z) = 0.30839 0.25200
#
# Static dielectric constant tensor:
#      x y z
#    x 1.795310 -0.000020 0.046440 
#    y -0.000020 1.827870 0.000070 
#    z 0.046440 0.000070 1.807760 
# 
# From -- ./inp_files/271632.got.cif
#   From: 2010.05.17/outbox.cif.g08.bks.cpg/sg12_136_cif.got.tgz:271632.got - 2010.06.03 13:09:07.
