data_PCOD9195088
_publ_section_title
;
Structure prediction by ZEFSAII (Michael W. Deem and Ramdas Pophale) SiO2 
 PCOD9195088
Probable space group: C 2/M
;
_chemical_formula_sum "Si O2"
_cell_formula_units_Z 52
_cell_length_a 7.226451
_cell_length_b 24.150222
_cell_length_c 15.984562
_cell_angle_alpha 90.000000
_cell_angle_beta 125.459789
_cell_angle_gamma 90.000000
_cell_volume 2272.219117
_symmetry_space_group_name_H-M "C 2/M"
_symmetry_group_IT_number 12
_symmetry_cell_setting 'monoclinic'
loop_
_space_group_symop_operation_xyz
x,y,z
-x,y,-z
-x,-y,-z
x,-y,z
1/2+x,1/2+y,z
1/2-x,1/2+y,-z
1/2-x,1/2-y,-z
1/2+x,1/2-y,z
loop_
_atom_site_type_symbol
_atom_site_label
_atom_site_fract_x
_atom_site_fract_y
_atom_site_fract_z
Si Si1 0.166295 0.000000 0.961517
Si Si2 0.238874 0.000000 0.615421
Si Si3 0.247247 0.878793 0.017522
Si Si4 0.525088 0.310861 0.820767
Si Si5 0.341920 0.619670 0.634094
Si Si6 0.854768 0.620989 0.588991
Si Si7 0.958129 0.682159 0.216222
Si Si8 0.483143 0.500000 0.271418
O O1 0.061568 0.000000 0.839882
O O2 0.292031 0.941596 0.002695
O O3 0.000000 0.000000 0.000000
O O4 0.355888 0.942626 0.620118
O O5 0.215145 0.000000 0.710054
O O6 0.000000 0.000000 0.500000
O O7 0.435392 0.857028 0.130293
O O8 0.000000 0.878750 0.000000
O O9 0.212553 0.837210 0.930785
O O10 0.515426 0.341538 0.729335
O O11 0.285361 0.323756 0.802024
O O12 0.531129 0.245410 0.809782
O O13 0.334770 0.626535 0.532544
O O14 0.387794 0.556189 0.670458
O O15 0.092058 0.632242 0.604061
O O16 0.857341 0.661926 0.668444
#
# Coordination Sequence:
#
# PCOD9195088 Si02
#       8
#     4   4   8   8   8   8   8   4
#     4  10  20  34  61  95 116 150 199 250 297 346
#     4  12  23  38  60  90 129 161 189 243 315 372
#     4   9  18  35  59  88 115 148 198 246 295 350
#     4  10  20  37  58  86 116 157 204 248 293 349
#     4  10  20  37  63  87 118 157 209 248 283 359
#     4  10  22  39  57  89 123 158 198 244 302 359
#     4  10  22  37  59  85 117 158 199 248 298 352
#     4  12  21  36  62  94 118 156 197 247 301 361
#
# _framework density 22.885116
#
# number of rings (size 3 to 8) (size 9 to 14) (size 15 to 20)
#    0.000    1.846    3.077    0.923    2.154    3.692 
#    0.000    0.000    0.000    0.923    0.000    0.000 
#    0.000    0.000    0.000    0.000    0.000    0.000 
#
# Total GULP energy -145295.158571 kJ/mol
# GULP energy per Si atom -5588.275330 kJ/mol
# Density = 2.283303 g / cm^3
# Si number density = 22.885116 Si / 1000 Ang^3
#
#
#
# Elastic Constant Matrix: (Units=GPa)
#
#
# Indices 1 2 3 4 5 6 
#
# 1 80.7656 -12.5829 35.8483 0.0000 -20.3511 0.0000
# 2 -12.5829 161.5661 111.2845 0.0000 -15.9355 0.0000
# 3 35.8483 111.2845 207.6295 0.0000 -46.1543 0.0000
# 4 0.0000 0.0000 0.0000 29.1568 0.0000 -10.5606
# 5 -20.3511 -15.9355 -46.1543 0.0000 28.6674 0.0000
# 6 0.0000 0.0000 0.0000 -10.5606 0.0000 2.7875
#
#
#
# Elastic Compliance Matrix: (Units=1/GPa)
#
#
# Indices 1 2 3 4 5 6 
#
# 1 0.016837 0.004459 -0.003253 0.000000 0.009193 0.000000
# 2 0.004459 0.011415 -0.007435 0.000000 -0.002459 0.000000
# 3 -0.003253 -0.007435 0.012351 0.000000 0.013443 0.000000
# 4 0.000000 0.000000 0.000000 -0.092142 0.000000 -0.349085
# 5 0.009193 -0.002459 0.013443 0.000000 0.061685 0.000000
# 6 0.000000 0.000000 0.000000 -0.349085 0.000000 -0.963792
#
#
# Mechanical properties :
#
#
# Convention : Reuss Voigt Hill
#
# Bulk Modulus (GPa) = 35.53090 79.89565 57.71328
# Shear Modulus (GPa) = -5.36592 33.14976 13.89192
#
# Velocity S-wave (km/s) = -1.53291 3.81008 2.46647
# Velocity P-wave (km/s) = 3.52511 7.37177 5.77795
#
# Compressibility (1/GPa) = 0.02814451
#
# Stress axis : x y z
#
# Youngs Moduli (GPa) = 59.39452 87.60423 80.96555
#
# Poissons Ratio (x) = -0.39060 0.26338
# Poissons Ratio (y) = -0.26482 0.60195
# Poissons Ratio (z) = 0.19321 0.65130
#
# Static dielectric constant tensor:
#      x y z
#    x 1.954720 0.000000 -0.013680 
#    y 0.000000 1.787850 0.000000 
#    z -0.013680 0.000000 1.870340 
# 
# From -- ./inp_files/258575.got.cif
#   From: 2010.05.17/outbox.cif.g08.bks.cpg/sg12_130_cif.got.tgz:258575.got - 2010.06.03 13:09:07.
