data_PCOD9195353
_publ_section_title
;
Structure prediction by ZEFSAII (Michael W. Deem and Ramdas Pophale) SiO2 
 PCOD9195353
Probable space group: C 2/M
;
_chemical_formula_sum "Si O2"
_cell_formula_units_Z 40
_cell_length_a 22.193410
_cell_length_b 13.025040
_cell_length_c 8.557351
_cell_angle_alpha 90.000000
_cell_angle_beta 116.900071
_cell_angle_gamma 90.000000
_cell_volume 2206.014892
_symmetry_space_group_name_H-M "C 2/M"
_symmetry_group_IT_number 12
_symmetry_cell_setting 'monoclinic'
loop_
_space_group_symop_operation_xyz
x,y,z
-x,y,-z
-x,-y,-z
x,-y,z
1/2+x,1/2+y,z
1/2-x,1/2+y,-z
1/2-x,1/2-y,-z
1/2+x,1/2-y,z
loop_
_atom_site_type_symbol
_atom_site_label
_atom_site_fract_x
_atom_site_fract_y
_atom_site_fract_z
Si Si1 0.951986 0.235120 0.581503
Si Si2 0.063898 0.116231 0.911089
Si Si3 0.836025 0.190279 0.217478
Si Si4 0.073605 0.682806 0.128073
Si Si5 0.813756 0.617557 0.977158
O O1 0.887272 0.186618 0.421783
O O2 0.925033 0.311000 0.683730
O O3 0.000000 0.280011 0.500000
O O4 0.001780 0.155593 0.729577
O O5 0.130048 0.124058 0.880173
O O6 0.055132 0.000000 0.952552
O O7 0.072941 0.200267 0.057657
O O8 0.760782 0.153194 0.163070
O O9 0.834031 0.304948 0.140773
O O10 0.133330 0.630046 0.102817
O O11 0.000000 0.638340 0.000000
O O12 0.812464 0.500000 0.026858
#
# Coordination Sequence:
#
# PCOD9195353 Si02
#       5
#     8   8   8   8   8
#     4   9  18  32  51  74 104 132 161 205 254 294
#     4   9  17  31  53  79 106 134 162 198 251 307
#     4   9  19  34  53  77 104 130 163 208 249 295
#     4   9  19  34  51  73 102 134 168 206 247 294
#     4  10  20  35  54  73  98 135 171 204 248 298
#
# _framework density 18.132244
#
# number of rings (size 3 to 8) (size 9 to 14) (size 15 to 20)
#    0.000    2.800    0.000    1.800    0.000    9.200 
#    0.000    1.000    0.000   21.600    0.000    0.000 
#    0.000    0.000    0.000    0.000    0.000    0.000 
#
# Total GULP energy -111405.668444 kJ/mol
# GULP energy per Si atom -5570.283422 kJ/mol
# Density = 1.809097 g / cm^3
# Si number density = 18.132244 Si / 1000 Ang^3
#
#
#
# Elastic Constant Matrix: (Units=GPa)
#
#
# Indices 1 2 3 4 5 6 
#
# 1 145.4113 18.1938 27.6533 0.0000 2.5231 0.0000
# 2 18.1938 95.2767 9.9548 0.0000 -1.3967 0.0000
# 3 27.6533 9.9548 54.4939 0.0000 -6.6921 0.0000
# 4 0.0000 0.0000 0.0000 3.6262 0.0000 3.6669
# 5 2.5231 -1.3967 -6.6921 0.0000 25.7031 0.0000
# 6 0.0000 0.0000 0.0000 3.6669 0.0000 -0.4126
#
#
#
# Elastic Compliance Matrix: (Units=1/GPa)
#
#
# Indices 1 2 3 4 5 6 
#
# 1 0.007806 -0.001101 -0.003989 0.000000 -0.001865 0.000000
# 2 -0.001101 0.010855 -0.001383 0.000000 0.000338 0.000000
# 3 -0.003989 -0.001383 0.021349 0.000000 0.005875 0.000000
# 4 0.000000 0.000000 0.000000 0.027614 0.000000 0.245404
# 5 -0.001865 0.000338 0.005875 0.000000 0.040637 0.000000
# 6 0.000000 0.000000 0.000000 0.245404 0.000000 -0.242686
#
#
# Mechanical properties :
#
#
# Convention : Reuss Voigt Hill
#
# Bulk Modulus (GPa) = 36.94874 45.19841 41.07358
# Shear Modulus (GPa) = -44.46131 21.74203 -11.35964
#
# Velocity S-wave (km/s) = -4.95720 3.46653 -2.50569
# Velocity P-wave (km/s) = 3.51333 6.40341 3.78551
#
# Compressibility (1/GPa) = 0.02706452
#
# Stress axis : x y z
#
# Youngs Moduli (GPa) = 128.11065 92.11972 46.84077
#
# Poissons Ratio (x) = 0.10144 0.18684
# Poissons Ratio (y) = 0.14107 0.06477
# Poissons Ratio (z) = 0.51102 0.12738
#
# Static dielectric constant tensor:
#      x y z
#    x 1.656280 0.000000 -0.012790 
#    y 0.000000 1.612990 0.000000 
#    z -0.012790 0.000000 1.617470 
# 
# From -- ./inp_files/83469.got.cif
#   From: 2010.05.17/outbox.cif.g08.bks.cpg/sg12_42_cif.got.tgz:83469.got - 2010.06.03 13:09:07.
