data_PCOD9195566
_publ_section_title
;
Structure prediction by ZEFSAII (Michael W. Deem and Ramdas Pophale) SiO2 
 PCOD9195566
Probable space group: C 2/M
;
_chemical_formula_sum "Si O2"
_cell_formula_units_Z 60
_cell_length_a 22.630547
_cell_length_b 14.740856
_cell_length_c 11.061527
_cell_angle_alpha 90.000000
_cell_angle_beta 114.444437
_cell_angle_gamma 90.000000
_cell_volume 3359.289516
_symmetry_space_group_name_H-M "C 2/M"
_symmetry_group_IT_number 12
_symmetry_cell_setting 'monoclinic'
loop_
_space_group_symop_operation_xyz
x,y,z
-x,y,-z
-x,-y,-z
x,-y,z
1/2+x,1/2+y,z
1/2-x,1/2+y,-z
1/2-x,1/2-y,-z
1/2+x,1/2-y,z
loop_
_atom_site_type_symbol
_atom_site_label
_atom_site_fract_x
_atom_site_fract_y
_atom_site_fract_z
Si Si1 0.210893 0.609517 0.634268
Si Si2 0.686521 0.394098 0.933303
Si Si3 0.420072 0.738829 0.228726
Si Si4 0.592757 0.894797 0.372999
Si Si5 0.465049 0.743809 0.846924
Si Si6 0.500000 0.171283 0.500000
Si Si7 0.170683 0.392232 0.876980
Si Si8 0.851308 0.892776 0.815229
O O1 0.212340 0.500000 0.629891
O O2 0.160569 0.638560 0.489357
O O3 0.184634 0.628864 0.747108
O O4 0.285527 0.639128 0.692011
O O5 0.681006 0.500000 0.896674
O O6 0.638711 0.331833 0.816411
O O7 0.762920 0.369735 0.995778
O O8 0.664395 0.384759 0.054839
O O9 0.479290 0.706331 0.195721
O O10 0.450351 0.767407 0.381765
O O11 0.389435 0.829222 0.141189
O O12 0.568520 0.828535 0.247985
O O13 0.540274 0.886763 0.437361
O O14 0.598374 0.000000 0.341281
O O15 0.412024 0.667523 0.831036
O O16 0.500000 0.771210 0.000000
O O17 0.158727 0.500000 0.877645
O O18 0.861803 0.000000 0.800277
#
# Coordination Sequence:
#
# PCOD9195566 Si02
#       8
#     8   8   8   8   8   4   8   8
#     4   8  15  31  56  82  99 126 176 225 264 300
#     4   9  18  33  56  80 102 136 175 220 268 306
#     4  11  20  33  53  78 111 139 170 220 257 308
#     4  10  20  35  55  76 105 140 174 219 259 304
#     4  11  23  35  48  78 112 143 181 204 252 322
#     4  10  21  32  51  80 106 140 181 206 257 316
#     4   9  17  31  54  83 105 128 173 221 266 308
#     4   9  18  35  57  77 103 135 178 227 258 297
#
# _framework density 17.860918999999999
#
# number of rings (size 3 to 8) (size 9 to 14) (size 15 to 20)
#    0.000    2.400    2.667    2.200    0.000    3.733 
#    0.000    0.333    0.000    0.800    0.000    0.000 
#    0.000    0.000    0.000    0.000    0.000    0.000 
#
# Total GULP energy -167258.249214 kJ/mol
# GULP energy per Si atom -5575.274974 kJ/mol
# Density = 1.782027 g / cm^3
# Si number density = 17.860919 Si / 1000 Ang^3
#
#
#
# Elastic Constant Matrix: (Units=GPa)
#
#
# Indices 1 2 3 4 5 6 
#
# 1 66.5784 24.5269 20.2782 0.0000 21.7998 0.0000
# 2 24.5269 54.5399 36.2037 0.0000 18.8863 0.0000
# 3 20.2782 36.2037 85.6137 0.0000 34.4121 0.0000
# 4 0.0000 0.0000 0.0000 13.3217 0.0000 9.3912
# 5 21.7998 18.8863 34.4121 0.0000 31.2537 0.0000
# 6 0.0000 0.0000 0.0000 9.3912 0.0000 27.0382
#
#
#
# Elastic Compliance Matrix: (Units=1/GPa)
#
#
# Indices 1 2 3 4 5 6 
#
# 1 0.021299 -0.007010 0.003926 0.000000 -0.014943 0.000000
# 2 -0.007010 0.028518 -0.009755 0.000000 -0.001603 0.000000
# 3 0.003926 -0.009755 0.024410 0.000000 -0.023720 0.000000
# 4 0.000000 0.000000 0.000000 0.099404 0.000000 -0.034526
# 5 -0.014943 -0.001603 -0.023720 0.000000 0.069505 0.000000
# 6 0.000000 0.000000 0.000000 -0.034526 0.000000 0.048977
#
#
# Mechanical properties :
#
#
# Convention : Reuss Voigt Hill
#
# Bulk Modulus (GPa) = 20.59771 40.97219 30.78495
# Shear Modulus (GPa) = 14.97125 22.70428 18.83776
#
# Velocity S-wave (km/s) = 2.89833 3.56922 3.25113
# Velocity P-wave (km/s) = 4.77051 6.32259 5.60057
#
# Compressibility (1/GPa) = 0.04854910
#
# Stress axis : x y z
#
# Youngs Moduli (GPa) = 46.94989 35.06569 40.96723
#
# Poissons Ratio (x) = 0.24580 -0.16082
# Poissons Ratio (y) = 0.32911 0.39962
# Poissons Ratio (z) = -0.18430 0.34206
#
# Static dielectric constant tensor:
#      x y z
#    x 1.629650 0.000000 0.019270 
#    y 0.000000 1.596120 0.000000 
#    z 0.019270 0.000000 1.621010 
# 
# From -- ./inp_files/176192.got.cif
#   From: 2010.05.17/outbox.cif.g08.bks.cpg/sg12_89_cif.got.tgz:176192.got - 2010.06.03 13:09:07.
