data_PCOD9195984
_publ_section_title
;
Structure prediction by ZEFSAII (Michael W. Deem and Ramdas Pophale) SiO2 
 PCOD9195984
Probable space group: C 2/M
;
_chemical_formula_sum "Si O2"
_cell_formula_units_Z 58
_cell_length_a 29.061556
_cell_length_b 7.528877
_cell_length_c 11.827972
_cell_angle_alpha 90.000000
_cell_angle_beta 79.430121
_cell_angle_gamma 90.000000
_cell_volume 2544.057791
_symmetry_space_group_name_H-M "C 2/M"
_symmetry_group_IT_number 12
_symmetry_cell_setting 'monoclinic'
loop_
_space_group_symop_operation_xyz
x,y,z
-x,y,-z
-x,-y,-z
x,-y,z
1/2+x,1/2+y,z
1/2-x,1/2+y,-z
1/2-x,1/2-y,-z
1/2+x,1/2-y,z
loop_
_atom_site_type_symbol
_atom_site_label
_atom_site_fract_x
_atom_site_fract_y
_atom_site_fract_z
Si Si1 0.057016 0.296876 0.683158
Si Si2 0.850881 0.284956 0.490067
Si Si3 0.113792 0.210957 0.869867
Si Si4 0.878758 0.783489 0.877750
Si Si5 0.542531 0.301343 0.337779
Si Si6 0.707770 0.213902 0.691455
Si Si7 0.194691 0.792487 0.259270
Si Si8 0.500000 0.000000 0.500000
O O1 0.044035 0.500000 0.650318
O O2 0.100793 0.228379 0.590478
O O3 0.077038 0.298510 0.800828
O O4 0.009131 0.193972 0.694489
O O5 0.851479 0.500000 0.489538
O O6 0.809032 0.224155 0.424975
O O7 0.841312 0.221308 0.619968
O O8 0.165130 0.242864 0.794376
O O9 0.104440 0.000000 0.872710
O O10 0.113015 0.277140 0.998566
O O11 0.920997 0.741734 0.774055
O O12 0.831047 0.718746 0.839588
O O13 0.876467 0.000000 0.883187
O O14 0.554601 0.500000 0.371851
O O15 0.463677 0.157747 0.562567
O O16 0.756556 0.285441 0.717579
O O17 0.711380 0.000000 0.681881
O O18 0.203546 0.000000 0.232380
#
# Coordination Sequence:
#
# PCOD9195984 Si02
#       8
#     8   8   8   8   8   8   8   2
#     4  10  21  40  61  91 121 156 205 255 307 369
#     4   9  19  33  53  81 118 149 188 249 303 361
#     4  10  20  38  62  84 116 154 202 257 307 366
#     4   9  22  41  58  85 119 158 203 254 307 366
#     4  11  24  43  66  93 130 169 208 253 310 364
#     4   9  19  36  55  82 114 152 194 247 309 366
#     4  10  20  35  56  79 114 155 197 244 303 370
#     4  12  26  44  64  96 132 168 210 256 298 382
#
# _framework density 22.798224000000001
#
# number of rings (size 3 to 8) (size 9 to 14) (size 15 to 20)
#    0.000    2.207    0.690    2.276    1.931    4.414 
#    2.483    2.759    0.000    0.000    0.000    0.000 
#    0.000    0.000    0.000    0.000    0.000    0.000 
#
# Total GULP energy -161959.643809 kJ/mol
# GULP energy per Si atom -5584.815304 kJ/mol
# Density = 2.274633 g / cm^3
# Si number density = 22.798224 Si / 1000 Ang^3
#
#
#
# Elastic Constant Matrix: (Units=GPa)
#
#
# Indices 1 2 3 4 5 6 
#
# 1 104.5333 2.9113 25.0485 0.0000 28.1622 0.0000
# 2 2.9113 67.7254 12.0634 0.0000 10.2284 0.0000
# 3 25.0485 12.0634 118.4208 0.0000 21.7323 0.0000
# 4 0.0000 0.0000 0.0000 34.2050 0.0000 -16.6800
# 5 28.1622 10.2284 21.7323 0.0000 22.9655 0.0000
# 6 0.0000 0.0000 0.0000 -16.6800 0.0000 43.1482
#
#
#
# Elastic Compliance Matrix: (Units=1/GPa)
#
#
# Indices 1 2 3 4 5 6 
#
# 1 0.014595 0.002218 0.000185 0.000000 -0.019061 0.000000
# 2 0.002218 0.016182 -0.000358 0.000000 -0.009589 0.000000
# 3 0.000185 -0.000358 0.010231 0.000000 -0.009749 0.000000
# 4 0.000000 0.000000 0.000000 0.036027 0.000000 0.013927
# 5 -0.019061 -0.009589 -0.009749 0.000000 0.080414 0.000000
# 6 0.000000 0.000000 0.000000 0.013927 0.000000 0.028560
#
#
# Mechanical properties :
#
#
# Convention : Reuss Voigt Hill
#
# Bulk Modulus (GPa) = 22.17348 41.19178 31.68263
# Shear Modulus (GPa) = 25.38698 36.77417 31.08058
#
# Velocity S-wave (km/s) = 3.34061 4.02061 3.69628
# Velocity P-wave (km/s) = 4.96253 6.29769 5.66955
#
# Compressibility (1/GPa) = 0.04509892
#
# Stress axis : x y z
#
# Youngs Moduli (GPa) = 68.51447 61.79668 97.74321
#
# Poissons Ratio (x) = -0.13709 -0.01806
# Poissons Ratio (y) = -0.15199 0.03499
# Poissons Ratio (z) = -0.01266 0.02212
#
# Static dielectric constant tensor:
#      x y z
#    x 1.820400 0.000000 -0.002530 
#    y 0.000000 1.857390 0.000000 
#    z -0.002530 0.000000 1.731220 
# 
# From -- ./inp_files/180959.got.cif
#   From: 2010.05.17/outbox.cif.g08.bks.cpg/sg12_91_cif.got.tgz:180959.got - 2010.06.03 13:09:07.
