data_PCOD9195684
_publ_section_title
;
Structure prediction by ZEFSAII (Michael W. Deem and Ramdas Pophale) SiO2 
 PCOD9195684
Probable space group: C 2/M
;
_chemical_formula_sum "Si O2"
_cell_formula_units_Z 40
_cell_length_a 27.265249
_cell_length_b 8.976049
_cell_length_c 19.068751
_cell_angle_alpha 90.000000
_cell_angle_beta 29.243871
_cell_angle_gamma 90.000000
_cell_volume 2279.850179
_symmetry_space_group_name_H-M "C 2/M"
_symmetry_group_IT_number 12
_symmetry_cell_setting 'monoclinic'
loop_
_space_group_symop_operation_xyz
x,y,z
-x,y,-z
-x,-y,-z
x,-y,z
1/2+x,1/2+y,z
1/2-x,1/2+y,-z
1/2-x,1/2-y,-z
1/2+x,1/2-y,z
loop_
_atom_site_type_symbol
_atom_site_label
_atom_site_fract_x
_atom_site_fract_y
_atom_site_fract_z
Si Si1 0.743767 0.678288 0.838901
Si Si2 0.157252 0.822637 0.575601
Si Si3 0.556389 0.177652 0.148053
Si Si4 0.144517 0.823636 0.425623
Si Si5 0.432690 0.822578 0.700748
O O1 0.734024 0.500000 0.850002
O O2 0.778501 0.739417 0.720585
O O3 0.834470 0.717578 0.779265
O O4 0.642157 0.751855 0.993235
O O5 0.250000 0.750000 0.500000
O O6 0.166031 0.796173 0.480925
O O7 0.052181 0.749567 0.729816
O O8 0.154474 0.000000 0.590380
O O9 0.581659 0.207869 0.198628
O O10 0.551884 0.000000 0.144446
O O11 0.032165 0.762907 0.552279
O O12 0.148472 0.000000 0.407725
O O13 0.450374 0.000000 0.670350
#
# Coordination Sequence:
#
# PCOD9195684 Si02
#       5
#     8   8   8   8   8
#     4  11  21  33  51  78 113 146 177 216 259 305
#     4  10  21  39  61  81 102 132 173 219 267 319
#     4  10  20  35  55  79 108 141 178 218 261 310
#     4  10  21  35  53  79 108 139 177 218 260 311
#     4   9  19  34  52  76 108 147 183 214 254 306
#
# _framework density 17.545010999999999
#
# number of rings (size 3 to 8) (size 9 to 14) (size 15 to 20)
#    0.000    2.000    0.000    3.600    0.000    7.200 
#    0.000    1.000    0.000    6.000    0.000    0.000 
#    0.000    0.000    0.000    0.000    0.000    0.000 
#
# Total GULP energy -111734.413093 kJ/mol
# GULP energy per Si atom -5586.720655 kJ/mol
# Density = 1.750508 g / cm^3
# Si number density = 17.545011 Si / 1000 Ang^3
#
#
#
# Elastic Constant Matrix: (Units=GPa)
#
#
# Indices 1 2 3 4 5 6 
#
# 1 85.2975 60.0935 74.5976 0.0000 -24.2065 -0.0001
# 2 60.0935 83.2331 94.4934 -0.0011 -5.5578 0.0009
# 3 74.5976 94.4934 174.9588 0.0000 -1.2487 0.0001
# 4 0.0000 -0.0011 0.0000 39.8442 -0.0001 -2.6435
# 5 -24.2065 -5.5578 -1.2487 -0.0001 17.0600 0.0001
# 6 -0.0001 0.0009 0.0001 -2.6435 0.0001 26.3877
#
#
#
# Elastic Compliance Matrix: (Units=1/GPa)
#
#
# Indices 1 2 3 4 5 6 
#
# 1 0.066163 -0.027978 -0.012501 0.000000 0.083850 0.000001
# 2 -0.027978 0.044299 -0.012183 0.000001 -0.026158 -0.000001
# 3 -0.012501 -0.012183 0.017480 0.000000 -0.020428 0.000000
# 4 0.000000 0.000001 0.000000 0.025266 0.000000 0.002531
# 5 0.083850 -0.026158 -0.020428 0.000000 0.167574 0.000001
# 6 0.000001 -0.000001 0.000000 0.002531 0.000001 0.038150
#
#
# Mechanical properties :
#
#
# Convention : Reuss Voigt Hill
#
# Bulk Modulus (GPa) = 44.21300 89.09540 66.65420
# Shear Modulus (GPa) = 10.59784 24.27871 17.43827
#
# Velocity S-wave (km/s) = 2.46038 3.72398 3.15606
# Velocity P-wave (km/s) = 5.77285 8.32958 7.16616
#
# Compressibility (1/GPa) = 0.02261778
#
# Stress axis : x y z
#
# Youngs Moduli (GPa) = 15.11418 22.57411 57.20857
#
# Poissons Ratio (x) = 0.63157 0.71518
# Poissons Ratio (y) = 0.42286 0.69697
# Poissons Ratio (z) = 0.18895 0.27502
#
# Static dielectric constant tensor:
#      x y z
#    x 1.582960 0.000000 0.015210 
#    y 0.000000 1.580720 0.000000 
#    z 0.015210 0.000000 1.565810 
# 
# From -- ./inp_files/151619.got.cif
#   From: 2010.05.17/outbox.cif.g08.bks.cpg/sg12_76_cif.got.tgz:151619.got - 2010.06.03 13:09:07.
