data_PCOD9195361
_publ_section_title
;
Structure prediction by ZEFSAII (Michael W. Deem and Ramdas Pophale) SiO2 
 PCOD9195361
Probable space group: C 2/M
;
_chemical_formula_sum "Si O2"
_cell_formula_units_Z 64
_cell_length_a 15.869956
_cell_length_b 7.587124
_cell_length_c 19.489009
_cell_angle_alpha 90.000000
_cell_angle_beta 95.224877
_cell_angle_gamma 90.000000
_cell_volume 2336.869109
_symmetry_space_group_name_H-M "C 2/M"
_symmetry_group_IT_number 12
_symmetry_cell_setting 'monoclinic'
loop_
_space_group_symop_operation_xyz
x,y,z
-x,y,-z
-x,-y,-z
x,-y,z
1/2+x,1/2+y,z
1/2-x,1/2+y,-z
1/2-x,1/2-y,-z
1/2+x,1/2-y,z
loop_
_atom_site_type_symbol
_atom_site_label
_atom_site_fract_x
_atom_site_fract_y
_atom_site_fract_z
Si Si1 0.422995 0.285372 0.418503
Si Si2 0.847667 0.712673 0.209549
Si Si3 0.661640 0.288139 0.454473
Si Si4 0.976739 0.793484 0.699403
Si Si5 0.320575 0.197870 0.950537
Si Si6 0.753715 0.790189 0.673237
Si Si7 0.569383 0.292919 0.920362
Si Si8 0.092566 0.794545 0.170665
O O1 0.428546 0.500000 0.420790
O O2 0.591732 0.225862 0.504263
O O3 0.497328 0.220119 0.373387
O O4 0.335679 0.235240 0.373363
O O5 0.847674 0.500000 0.210459
O O6 0.770827 0.776578 0.252453
O O7 0.857453 0.772069 0.131921
O O8 0.934035 0.778255 0.252572
O O9 0.652683 0.500000 0.449550
O O10 0.750000 0.250000 0.500000
O O11 0.677554 0.223469 0.377605
O O12 0.910676 0.722305 0.751852
O O13 0.958852 0.000000 0.685817
O O14 0.333072 0.294967 0.879570
O O15 0.307004 0.000000 0.928840
O O16 0.250000 0.250000 0.000000
O O17 0.402740 0.215196 0.005530
O O18 0.768772 0.000000 0.682298
O O19 0.556169 0.500000 0.931560
O O20 0.486542 0.215295 0.877474
O O21 0.073346 0.000000 0.180426
#
# Coordination Sequence:
#
# PCOD9195361 Si02
#       8
#     8   8   8   8   8   8   8   8
#     4   8  12  18  29  45  67 100 142 180 215 259
#     4   9  15  23  37  58  83 111 147 188 227 267
#     4   8  12  17  25  39  63  98 139 178 214 255
#     4   8  14  24  38  57  82 112 145 185 229 267
#     4  12  25  39  55  74  97 123 152 186 228 278
#     4   8  13  19  27  43  70 103 138 179 222 258
#     4  10  20  35  54  74  97 124 155 192 233 274
#     4   9  18  33  52  73  98 126 156 192 233 274
#
# _framework density 27.387072
#
# number of rings (size 3 to 8) (size 9 to 14) (size 15 to 20)
#    0.000    3.000    0.000    3.000    0.000    4.500 
#    0.000    0.000    0.000    0.000    0.000    0.000 
#    0.000    0.000    0.000    1.125    0.000   27.750 
#
# Total GULP energy -178818.687008 kJ/mol
# GULP energy per Si atom -5588.083969 kJ/mol
# Density = 2.732474 g / cm^3
# Si number density = 27.387072 Si / 1000 Ang^3
#
#
#
# Elastic Constant Matrix: (Units=GPa)
#
#
# Indices 1 2 3 4 5 6 
#
# 1 137.5569 -0.7124 74.9444 0.0000 -48.5641 0.0000
# 2 -0.7124 83.9617 -2.2603 0.0000 1.1019 0.0000
# 3 74.9444 -2.2603 293.0501 0.0000 -49.8289 0.0000
# 4 0.0000 0.0000 0.0000 -1.2940 0.0000 -18.4577
# 5 -48.5641 1.1019 -49.8289 0.0000 72.0732 0.0000
# 6 0.0000 0.0000 0.0000 -18.4577 0.0000 -0.5000
#
#
#
# Elastic Compliance Matrix: (Units=1/GPa)
#
#
# Indices 1 2 3 4 5 6 
#
# 1 0.010182 -0.000033 -0.001629 0.000000 0.005735 0.000000
# 2 -0.000033 0.011914 0.000074 0.000000 -0.000153 0.000000
# 3 -0.001629 0.000074 0.004128 0.000000 0.001755 0.000000
# 4 0.000000 0.000000 0.000000 0.001470 0.000000 -0.054281
# 5 0.005735 -0.000153 0.001755 0.000000 0.018955 0.000000
# 6 0.000000 0.000000 0.000000 -0.054281 0.000000 0.003805
#
#
# Mechanical properties :
#
#
# Convention : Reuss Voigt Hill
#
# Bulk Modulus (GPa) = 43.38621 73.16799 58.27710
# Shear Modulus (GPa) = 81.54983 43.56231 62.55607
#
# Velocity S-wave (km/s) = 5.46273 3.99258 4.78446
# Velocity P-wave (km/s) = 7.46088 6.93026 7.20046
#
# Compressibility (1/GPa) = 0.02304880
#
# Stress axis : x y z
#
# Youngs Moduli (GPa) = 98.21494 83.93538 242.24815
#
# Poissons Ratio (x) = 0.00275 0.39462
# Poissons Ratio (y) = 0.00321 -0.01799
# Poissons Ratio (z) = 0.15999 -0.00623
#
# Static dielectric constant tensor:
#      x y z
#    x 2.277130 0.000000 0.029560 
#    y 0.000000 2.129460 0.000000 
#    z 0.029560 0.000000 2.058480 
# 
# From -- ./inp_files/338675.got.cif
#   From: 2010.05.17/outbox.cif.g08.bks.cpg/sg12_170_cif.got.tgz:338675.got - 2010.06.03 13:09:07.
