data_PCOD9195431
_publ_section_title
;
Structure prediction by ZEFSAII (Michael W. Deem and Ramdas Pophale) SiO2 
 PCOD9195431
Probable space group: C 2/M
;
_chemical_formula_sum "Si O2"
_cell_formula_units_Z 56
_cell_length_a 19.603026
_cell_length_b 8.861336
_cell_length_c 22.056237
_cell_angle_alpha 90.000000
_cell_angle_beta 123.242608
_cell_angle_gamma 90.000000
_cell_volume 3204.390070
_symmetry_space_group_name_H-M "C 2/M"
_symmetry_group_IT_number 12
_symmetry_cell_setting 'monoclinic'
loop_
_space_group_symop_operation_xyz
x,y,z
-x,y,-z
-x,-y,-z
x,-y,z
1/2+x,1/2+y,z
1/2-x,1/2+y,-z
1/2-x,1/2-y,-z
1/2+x,1/2-y,z
loop_
_atom_site_type_symbol
_atom_site_label
_atom_site_fract_x
_atom_site_fract_y
_atom_site_fract_z
Si Si1 0.046202 0.822056 0.302817
Si Si2 0.365114 0.823551 0.438258
Si Si3 0.927586 0.817213 0.010513
Si Si4 0.067506 0.681322 0.851828
Si Si5 0.282026 0.822667 0.578123
Si Si6 0.991721 0.676364 0.394346
Si Si7 0.747617 0.181308 0.931615
O O1 0.134378 0.751495 0.359555
O O2 0.994455 0.780477 0.337487
O O3 0.003103 0.747809 0.224213
O O4 0.052760 0.000000 0.298120
O O5 0.288855 0.715935 0.408830
O O6 0.428981 0.798523 0.524467
O O7 0.415086 0.800961 0.400982
O O8 0.340132 0.000000 0.429326
O O9 0.937436 0.746873 0.082346
O O10 0.931178 0.000000 0.017428
O O11 0.834649 0.776015 0.944117
O O12 0.000000 0.770833 0.000000
O O13 0.062498 0.500000 0.851885
O O14 0.156401 0.723288 0.865822
O O15 0.250000 0.750000 0.500000
O O16 0.293210 0.000000 0.574973
O O17 0.993297 0.500000 0.376381
O O18 0.748219 0.000000 0.935626
O O19 0.750000 0.250000 0.000000
#
# Coordination Sequence:
#
# PCOD9195431 Si02
#       7
#     8   8   8   8   8   8   8
#     4  12  24  37  55  79 108 145 188 234 284 335
#     4   9  18  34  56  80 105 135 175 223 275 327
#     4   9  17  32  56  85 114 143 178 219 264 322
#     4  10  20  35  54  77 108 145 183 226 274 325
#     4  12  23  36  55  80 109 143 185 232 281 336
#     4   9  18  34  56  79 105 137 174 221 274 328
#     4   8  15  29  51  77 103 135 174 211 253 306
#
# _framework density 17.476023999999999
#
# number of rings (size 3 to 8) (size 9 to 14) (size 15 to 20)
#    0.000    2.143    1.429    3.857    0.000    1.429 
#    0.000    2.857    0.000    6.857    0.000    0.000 
#    0.000    0.000    0.000    0.000    0.000    0.000 
#
# Total GULP energy -156101.013619 kJ/mol
# GULP energy per Si atom -5575.036201 kJ/mol
# Density = 1.743625 g / cm^3
# Si number density = 17.476024 Si / 1000 Ang^3
#
#
#
# Elastic Constant Matrix: (Units=GPa)
#
#
# Indices 1 2 3 4 5 6 
#
# 1 119.6538 45.8925 48.7451 0.0000 16.2339 0.0000
# 2 45.8925 67.0202 45.6703 0.0000 6.3864 0.0000
# 3 48.7451 45.6703 95.2984 0.0000 19.6874 0.0000
# 4 0.0000 0.0000 0.0000 24.8020 0.0000 -2.9712
# 5 16.2339 6.3864 19.6874 0.0000 23.2068 0.0000
# 6 0.0000 0.0000 0.0000 -2.9712 0.0000 26.1659
#
#
#
# Elastic Compliance Matrix: (Units=1/GPa)
#
#
# Indices 1 2 3 4 5 6 
#
# 1 0.012445 -0.006554 -0.002181 0.000000 -0.005052 0.000000
# 2 -0.006554 0.025849 -0.010322 0.000000 0.006228 0.000000
# 3 -0.002181 -0.010322 0.018980 0.000000 -0.011735 0.000000
# 4 0.000000 0.000000 0.000000 0.040875 0.000000 0.004642
# 5 -0.005052 0.006228 -0.011735 0.000000 0.054866 0.000000
# 6 0.000000 0.000000 0.000000 0.004642 0.000000 0.038745
#
#
# Mechanical properties :
#
#
# Convention : Reuss Voigt Hill
#
# Bulk Modulus (GPa) = 52.19238 62.50981 57.35110
# Shear Modulus (GPa) = 21.16289 24.27921 22.72105
#
# Velocity S-wave (km/s) = 3.48367 3.73136 3.60964
# Velocity P-wave (km/s) = 6.79053 7.37635 7.08949
#
# Compressibility (1/GPa) = 0.01915988
#
# Stress axis : x y z
#
# Youngs Moduli (GPa) = 80.35197 38.68569 52.68718
#
# Poissons Ratio (x) = 0.25356 0.11491
# Poissons Ratio (y) = 0.52665 0.54384
# Poissons Ratio (z) = 0.17525 0.39931
#
# Static dielectric constant tensor:
#      x y z
#    x 1.635040 0.000000 0.022920 
#    y 0.000000 1.584390 0.000000 
#    z 0.022920 0.000000 1.573700 
# 
# From -- ./inp_files/342025.got.cif
#   From: 2010.05.17/outbox.cif.g08.bks.cpg/sg12_172_cif.got.tgz:342025.got - 2010.06.03 13:09:07.
