data_PCOD9195089
_publ_section_title
;
Structure prediction by ZEFSAII (Michael W. Deem and Ramdas Pophale) SiO2 
 PCOD9195089
Probable space group: C 2/M
;
_chemical_formula_sum "Si O2"
_cell_formula_units_Z 64
_cell_length_a 10.795150
_cell_length_b 24.473316
_cell_length_c 18.785272
_cell_angle_alpha 90.000000
_cell_angle_beta 148.245857
_cell_angle_gamma 90.000000
_cell_volume 2611.873058
_symmetry_space_group_name_H-M "C 2/M"
_symmetry_group_IT_number 12
_symmetry_cell_setting 'monoclinic'
loop_
_space_group_symop_operation_xyz
x,y,z
-x,y,-z
-x,-y,-z
x,-y,z
1/2+x,1/2+y,z
1/2-x,1/2+y,-z
1/2-x,1/2-y,-z
1/2+x,1/2-y,z
loop_
_atom_site_type_symbol
_atom_site_label
_atom_site_fract_x
_atom_site_fract_y
_atom_site_fract_z
Si Si1 0.167167 0.634631 0.020929
Si Si2 0.599682 0.562654 0.263570
Si Si3 0.749624 0.325514 0.662294
Si Si4 0.659437 0.061074 0.226016
Si Si5 0.741658 0.317607 0.090497
Si Si6 0.714428 0.440116 0.472945
Si Si7 0.497184 0.234110 0.410905
Si Si8 0.125253 0.378718 0.718382
O O1 0.239589 0.669581 0.985171
O O2 0.019349 0.581608 0.921284
O O3 0.401004 0.609035 0.168497
O O4 0.000000 0.660428 0.000000
O O5 0.511051 0.500000 0.219901
O O6 0.758178 0.568181 0.411130
O O7 0.747367 0.575717 0.265722
O O8 0.500000 0.331252 0.500000
O O9 0.834230 0.385632 0.722060
O O10 0.667016 0.286396 0.685920
O O11 0.995323 0.295860 0.758823
O O12 0.933312 0.059584 0.338782
O O13 0.599099 0.000000 0.222460
O O14 0.744591 0.370957 0.143667
O O15 0.500000 0.289687 0.000000
O O16 0.793004 0.500000 0.535405
O O17 0.851030 0.395392 0.584200
O O18 0.500000 0.228264 0.500000
O O19 0.750000 0.250000 0.500000
O O20 0.380789 0.179127 0.325217
#
# Coordination Sequence:
#
# PCOD9195089 Si02
#       8
#     8   8   8   8   8   8   8   8
#     4  11  22  42  69  98 134 190 241 281 345 436
#     4  11  22  37  63  97 140 184 231 287 349 418
#     4  10  22  42  69 100 138 182 233 290 350 415
#     4  10  20  34  61  95 131 175 226 279 341 412
#     4  11  24  46  71 100 144 188 229 295 364 419
#     4  10  20  35  59  97 137 176 221 287 354 408
#     4  11  23  43  73 107 140 184 241 297 359 424
#     4  12  23  41  67  96 140 178 234 289 356 424
#
# _framework density 24.503487
#
# number of rings (size 3 to 8) (size 9 to 14) (size 15 to 20)
#    0.000    1.250    2.500    4.875    0.000    1.750 
#    0.000    8.750    0.000    0.000    0.000    0.000 
#    0.000    0.000    0.000    0.000    0.000    0.000 
#
# Total GULP energy -178301.344969 kJ/mol
# GULP energy per Si atom -5571.917030 kJ/mol
# Density = 2.444772 g / cm^3
# Si number density = 24.503487 Si / 1000 Ang^3
#
#
#
# Elastic Constant Matrix: (Units=GPa)
#
#
# Indices 1 2 3 4 5 6 
#
# 1 143.2198 18.5032 27.4423 0.0060 11.3247 0.0024
# 2 18.5032 88.5969 22.1794 -0.0087 -6.7313 0.0073
# 3 27.4423 22.1794 97.9558 0.0022 16.3550 0.0156
# 4 0.0060 -0.0087 0.0022 9.7393 0.0017 -6.9424
# 5 11.3247 -6.7313 16.3550 0.0017 52.0167 -0.0032
# 6 0.0024 0.0073 0.0156 -6.9424 -0.0032 -1.6977
#
#
#
# Elastic Compliance Matrix: (Units=1/GPa)
#
#
# Indices 1 2 3 4 5 6 
#
# 1 0.007559 -0.001274 -0.001611 -0.000003 -0.001304 0.000004
# 2 -0.001274 0.012505 -0.002946 0.000007 0.002822 -0.000008
# 3 -0.001611 -0.002946 0.011960 0.000018 -0.003791 0.000030
# 4 -0.000003 0.000007 0.000018 0.026227 -0.000012 -0.107250
# 5 -0.001304 0.002822 -0.003791 -0.000012 0.021066 -0.000017
# 6 0.000004 -0.000008 0.000030 -0.107250 -0.000017 -0.150459
#
#
# Mechanical properties :
#
#
# Convention : Reuss Voigt Hill
#
# Bulk Modulus (GPa) = 49.11278 51.78027 50.44652
# Shear Modulus (GPa) = -94.88810 29.45484 -32.71663
#
# Velocity S-wave (km/s) = -6.22964 3.47085 -3.65798
# Velocity P-wave (km/s) = 5.62653 6.10246 1.67066
#
# Compressibility (1/GPa) = 0.02036130
#
# Stress axis : x y z
#
# Youngs Moduli (GPa) = 132.29685 79.96808 83.61227
#
# Poissons Ratio (x) = 0.10190 0.13473
# Poissons Ratio (y) = 0.16859 0.24628
# Poissons Ratio (z) = 0.21318 0.23555
#
# Static dielectric constant tensor:
#      x y z
#    x 2.129660 0.000000 0.001300 
#    y 0.000000 1.924920 -0.000010 
#    z 0.001300 -0.000010 2.014680 
# 
# From -- ./inp_files/307512.got.cif
#   From: 2010.05.17/outbox.cif.g08.bks.cpg/sg12_154_cif.got.tgz:307512.got - 2010.06.03 13:09:07.
