data_PCOD9195657
_publ_section_title
;
Structure prediction by ZEFSAII (Michael W. Deem and Ramdas Pophale) SiO2 
 PCOD9195657
Probable space group: C 2/M
;
_chemical_formula_sum "Si O2"
_cell_formula_units_Z 64
_cell_length_a 24.339825
_cell_length_b 8.599926
_cell_length_c 20.181079
_cell_angle_alpha 90.000000
_cell_angle_beta 59.234967
_cell_angle_gamma 90.000000
_cell_volume 3629.838688
_symmetry_space_group_name_H-M "C 2/M"
_symmetry_group_IT_number 12
_symmetry_cell_setting 'monoclinic'
loop_
_space_group_symop_operation_xyz
x,y,z
-x,y,-z
-x,-y,-z
x,-y,z
1/2+x,1/2+y,z
1/2-x,1/2+y,-z
1/2-x,1/2-y,-z
1/2+x,1/2-y,z
loop_
_atom_site_type_symbol
_atom_site_label
_atom_site_fract_x
_atom_site_fract_y
_atom_site_fract_z
Si Si1 0.576280 0.812240 0.584427
Si Si2 0.563059 0.184894 0.328428
Si Si3 0.202141 0.313512 0.229246
Si Si4 0.426390 0.187173 0.257115
Si Si5 0.801319 0.184927 0.917436
Si Si6 0.442199 0.684551 0.815784
Si Si7 0.790935 0.687678 0.284242
Si Si8 0.210231 0.813900 0.462123
O O1 0.505953 0.757300 0.603268
O O2 0.582182 0.772952 0.659354
O O3 0.637457 0.743558 0.510422
O O4 0.578463 0.000000 0.578236
O O5 0.633913 0.243766 0.302934
O O6 0.559784 0.220334 0.251865
O O7 0.562886 0.000000 0.339908
O O8 0.200472 0.500000 0.229243
O O9 0.206618 0.253439 0.151385
O O10 0.260534 0.255057 0.236923
O O11 0.491744 0.264453 0.191894
O O12 0.363268 0.235216 0.256571
O O13 0.432433 0.000000 0.250340
O O14 0.875025 0.218399 0.892733
O O15 0.794416 0.000000 0.917621
O O16 0.750000 0.250000 0.000000
O O17 0.443925 0.500000 0.800075
O O18 0.790029 0.500000 0.281720
O O19 0.746200 0.736720 0.373289
O O20 0.250000 0.750000 0.500000
O O21 0.211719 0.000000 0.464141
#
# Coordination Sequence:
#
# PCOD9195657 Si02
#       8
#     8   8   8   8   8   8   8   8
#     4   9  16  30  49  70  95 127 169 218 262 303
#     4   8  16  31  49  68  97 132 165 206 256 307
#     4  10  20  35  55  79 103 134 174 210 251 307
#     4   9  17  31  49  69  99 138 173 208 256 307
#     4  10  20  35  57  84 112 138 164 202 249 298
#     4   9  17  28  47  78 106 127 163 211 249 286
#     4  10  21  36  50  69 102 141 174 212 261 309
#     4  11  21  33  48  69  99 133 173 220 265 307
#
# _framework density 17.631637000000001
#
# number of rings (size 3 to 8) (size 9 to 14) (size 15 to 20)
#    0.000    2.500    1.250    2.250    0.000    5.500 
#    0.000    0.625    0.000    4.500    0.000    5.250 
#    0.000    0.000    0.000    0.000    0.000    0.000 
#
# Total GULP energy -178311.518048 kJ/mol
# GULP energy per Si atom -5572.234939 kJ/mol
# Density = 1.759151 g / cm^3
# Si number density = 17.631637 Si / 1000 Ang^3
#
#
#
# Elastic Constant Matrix: (Units=GPa)
#
#
# Indices 1 2 3 4 5 6 
#
# 1 125.0090 23.5640 53.1599 0.0000 -22.3260 0.0001
# 2 23.5640 12.6821 19.7916 0.0003 -4.9399 -0.0003
# 3 53.1599 19.7916 76.2894 0.0000 -23.8915 0.0000
# 4 0.0000 0.0003 0.0000 25.0008 0.0000 -4.7750
# 5 -22.3260 -4.9399 -23.8915 0.0000 26.7954 0.0000
# 6 0.0001 -0.0003 0.0000 -4.7750 0.0000 25.2523
#
#
#
# Elastic Compliance Matrix: (Units=1/GPa)
#
#
# Indices 1 2 3 4 5 6 
#
# 1 0.013790 -0.018735 -0.003097 0.000000 0.005275 0.000000
# 2 -0.018735 0.159400 -0.033275 -0.000002 -0.015893 0.000002
# 3 -0.003097 -0.033275 0.029370 0.000000 0.017473 0.000000
# 4 0.000000 -0.000002 0.000000 0.041497 0.000000 0.007847
# 5 0.005275 -0.015893 0.017473 0.000000 0.054364 0.000000
# 6 0.000000 0.000002 0.000000 0.007847 0.000000 0.041084
#
#
# Mechanical properties :
#
#
# Convention : Reuss Voigt Hill
#
# Bulk Modulus (GPa) = 10.82873 45.22349 28.02611
# Shear Modulus (GPa) = 10.40578 23.24068 16.82323
#
# Velocity S-wave (km/s) = 2.43199 3.63454 3.09228
# Velocity P-wave (km/s) = 3.74714 6.58163 5.35532
#
# Compressibility (1/GPa) = 0.09234695
#
# Stress axis : x y z
#
# Youngs Moduli (GPa) = 72.51704 6.27351 34.04797
#
# Poissons Ratio (x) = 0.11753 0.10544
# Poissons Ratio (y) = 1.35859 1.13295
# Poissons Ratio (z) = 0.22458 0.20875
#
# Static dielectric constant tensor:
#      x y z
#    x 1.636270 0.000000 -0.035580 
#    y 0.000000 1.592770 0.000000 
#    z -0.035580 0.000000 1.585260 
# 
# From -- ./inp_files/323604.got.cif
#   From: 2010.05.17/outbox.cif.g08.bks.cpg/sg12_162_cif.got.tgz:323604.got - 2010.06.03 13:09:07.
