data_PCOD9195286
_publ_section_title
;
Structure prediction by ZEFSAII (Michael W. Deem and Ramdas Pophale) SiO2 
 PCOD9195286
Probable space group: C 2/M
;
_chemical_formula_sum "Si O2"
_cell_formula_units_Z 64
_cell_length_a 28.565196
_cell_length_b 8.720917
_cell_length_c 14.607416
_cell_angle_alpha 90.000000
_cell_angle_beta 105.782248
_cell_angle_gamma 90.000000
_cell_volume 3501.743140
_symmetry_space_group_name_H-M "C 2/M"
_symmetry_group_IT_number 12
_symmetry_cell_setting 'monoclinic'
loop_
_space_group_symop_operation_xyz
x,y,z
-x,y,-z
-x,-y,-z
x,-y,z
1/2+x,1/2+y,z
1/2-x,1/2+y,-z
1/2-x,1/2-y,-z
1/2+x,1/2-y,z
loop_
_atom_site_type_symbol
_atom_site_label
_atom_site_fract_x
_atom_site_fract_y
_atom_site_fract_z
Si Si1 0.038836 0.182533 0.862857
Si Si2 0.865785 0.816267 0.609778
Si Si3 0.626381 0.314590 0.782740
Si Si4 0.164853 0.814140 0.610006
Si Si5 0.066827 0.681415 0.213818
Si Si6 0.616801 0.683089 0.063765
Si Si7 0.304060 0.182897 0.024189
Si Si8 0.767600 0.315775 0.606930
O O1 0.073058 0.219788 0.794236
O O2 0.988541 0.271159 0.835138
O O3 0.028555 0.000000 0.857631
O O4 0.072757 0.215232 0.968731
O O5 0.856017 0.763398 0.499707
O O6 0.914238 0.751587 0.680821
O O7 0.820376 0.756761 0.646650
O O8 0.865968 0.000000 0.610843
O O9 0.632175 0.500000 0.791489
O O10 0.635881 0.263978 0.684040
O O11 0.665469 0.240371 0.871619
O O12 0.222268 0.774047 0.647913
O O13 0.163069 0.000000 0.606575
O O14 0.072007 0.500000 0.218122
O O15 0.100223 0.750918 0.151408
O O16 0.622685 0.500000 0.071554
O O17 0.665245 0.756133 0.046576
O O18 0.302343 0.000000 0.021011
O O19 0.250000 0.250000 0.000000
O O20 0.771600 0.500000 0.605897
O O21 0.750000 0.250000 0.500000
#
# Coordination Sequence:
#
# PCOD9195286 Si02
#       8
#     8   8   8   8   8   8   8   8
#     4   9  19  36  58  80 104 136 175 223 276 330
#     4  10  20  35  53  76 108 143 183 229 272 317
#     4   9  18  36  59  81 106 140 184 229 274 323
#     4   8  16  32  56  80 103 139 183 223 263 315
#     4  12  24  36  54  80 110 143 177 221 277 332
#     4  10  21  39  61  83 107 139 181 225 271 324
#     4  11  22  37  56  83 118 151 183 220 266 317
#     4   9  16  29  49  74 104 137 175 217 264 316
#
# _framework density 18.276610999999999
#
# number of rings (size 3 to 8) (size 9 to 14) (size 15 to 20)
#    0.000    2.250    0.000    5.250    0.000    5.000 
#    0.000    8.125    0.000    3.750    0.000    0.000 
#    0.000    0.000    0.000    0.000    0.000    0.000 
#
# Total GULP energy -178543.447783 kJ/mol
# GULP energy per Si atom -5579.482743 kJ/mol
# Density = 1.823501 g / cm^3
# Si number density = 18.276611 Si / 1000 Ang^3
#
#
#
# Elastic Constant Matrix: (Units=GPa)
#
#
# Indices 1 2 3 4 5 6 
#
# 1 107.6267 50.5132 55.9027 0.0000 -2.8979 0.0000
# 2 50.5132 74.5733 34.2361 0.0000 4.3898 0.0000
# 3 55.9027 34.2361 69.1571 0.0000 -15.6761 0.0000
# 4 0.0000 0.0000 0.0000 22.6011 0.0000 4.6909
# 5 -2.8979 4.3898 -15.6761 0.0000 28.2465 0.0000
# 6 0.0000 0.0000 0.0000 4.6909 0.0000 31.6651
#
#
#
# Elastic Compliance Matrix: (Units=1/GPa)
#
#
# Indices 1 2 3 4 5 6 
#
# 1 0.019129 -0.006678 -0.013129 0.000000 -0.004286 0.000000
# 2 -0.006678 0.021694 -0.007162 0.000000 -0.008031 0.000000
# 3 -0.013129 -0.007162 0.032675 0.000000 0.017900 0.000000
# 4 0.000000 0.000000 0.000000 0.045649 0.000000 -0.006763
# 5 -0.004286 -0.008031 0.017900 0.000000 0.046145 0.000000
# 6 0.000000 0.000000 0.000000 -0.006763 0.000000 0.032582
#
#
# Mechanical properties :
#
#
# Convention : Reuss Voigt Hill
#
# Bulk Modulus (GPa) = 51.12096 59.18458 55.15277
# Shear Modulus (GPa) = 19.35490 23.88286 21.61888
#
# Velocity S-wave (km/s) = 3.25776 3.61881 3.44302
# Velocity P-wave (km/s) = 6.49477 7.06499 6.78587
#
# Compressibility (1/GPa) = 0.01956145
#
# Stress axis : x y z
#
# Youngs Moduli (GPa) = 52.27551 46.09630 30.60425
#
# Poissons Ratio (x) = 0.30783 0.40179
# Poissons Ratio (y) = 0.34909 0.21918
# Poissons Ratio (z) = 0.68631 0.33013
#
# Static dielectric constant tensor:
#      x y z
#    x 1.626540 0.000000 -0.017050 
#    y 0.000000 1.610660 0.000000 
#    z -0.017050 0.000000 1.617830 
# 
# From -- ./inp_files/244143.got.cif
#   From: 2010.05.17/outbox.cif.g08.bks.cpg/sg12_123_cif.got.tgz:244143.got - 2010.06.03 13:09:07.
