data_PCOD9195564
_publ_section_title
;
Structure prediction by ZEFSAII (Michael W. Deem and Ramdas Pophale) SiO2 
 PCOD9195564
Probable space group: C 2/M
;
_chemical_formula_sum "Si O2"
_cell_formula_units_Z 56
_cell_length_a 32.393239
_cell_length_b 9.039399
_cell_length_c 13.835556
_cell_angle_alpha 90.000000
_cell_angle_beta 50.598365
_cell_angle_gamma 90.000000
_cell_volume 3130.474353
_symmetry_space_group_name_H-M "C 2/M"
_symmetry_group_IT_number 12
_symmetry_cell_setting 'monoclinic'
loop_
_space_group_symop_operation_xyz
x,y,z
-x,y,-z
-x,-y,-z
x,-y,z
1/2+x,1/2+y,z
1/2-x,1/2+y,-z
1/2-x,1/2-y,-z
1/2+x,1/2-y,z
loop_
_atom_site_type_symbol
_atom_site_label
_atom_site_fract_x
_atom_site_fract_y
_atom_site_fract_z
Si Si1 0.914226 0.323201 0.174098
Si Si2 0.029293 0.176173 0.727573
Si Si3 0.193699 0.675604 0.565128
Si Si4 0.809655 0.677559 0.017121
Si Si5 0.375382 0.821698 0.520243
Si Si6 0.698912 0.822445 0.195145
Si Si7 0.423252 0.177632 0.936630
O O1 0.922388 0.500000 0.178649
O O2 0.947463 0.235253 0.204455
O O3 0.851739 0.291562 0.287498
O O4 0.928698 0.289892 0.042644
O O5 0.069365 0.243002 0.588181
O O6 0.969764 0.240482 0.809903
O O7 0.029699 0.000000 0.724356
O O8 0.201692 0.500000 0.552414
O O9 0.250000 0.750000 0.500000
O O10 0.166251 0.716445 0.503919
O O11 0.804263 0.500000 0.032121
O O12 0.755829 0.751271 0.136784
O O13 0.813303 0.717203 0.897896
O O14 0.864109 0.720128 0.989511
O O15 0.347792 0.779283 0.661752
O O16 0.383141 0.000000 0.505946
O O17 0.704055 0.000000 0.192930
O O18 0.428809 0.000000 0.916378
#
# Coordination Sequence:
#
# PCOD9195564 Si02
#       7
#     8   8   8   8   8   8   8
#     4   9  19  35  52  71 102 143 177 205 252 313
#     4  11  22  35  52  78 105 133 175 224 263 302
#     4   9  18  30  45  70 101 132 169 208 246 297
#     4   9  19  34  55  83 108 134 172 214 257 309
#     4   9  19  36  55  72 100 143 177 205 256 317
#     4   9  18  35  57  80 107 137 171 213 261 309
#     4  10  20  35  55  76 104 142 177 210 254 312
#
# _framework density 17.888663000000001
#
# number of rings (size 3 to 8) (size 9 to 14) (size 15 to 20)
#    0.000    2.571    0.000    2.571    2.000    5.714 
#    0.000    0.714    0.000    4.286    0.000    0.000 
#    0.000    0.000    0.000    0.000    0.000    0.000 
#
# Total GULP energy -156218.114521 kJ/mol
# GULP energy per Si atom -5579.218376 kJ/mol
# Density = 1.784795 g / cm^3
# Si number density = 17.888663 Si / 1000 Ang^3
#
#
#
# Elastic Constant Matrix: (Units=GPa)
#
#
# Indices 1 2 3 4 5 6 
#
# 1 50.0136 21.9900 27.2194 0.0000 -15.6009 0.0000
# 2 21.9900 27.0045 37.1499 0.0000 -6.9207 0.0000
# 3 27.2194 37.1499 118.0237 0.0000 -14.2761 0.0000
# 4 0.0000 0.0000 0.0000 19.9604 0.0000 -9.1903
# 5 -15.6009 -6.9207 -14.2761 0.0000 15.7922 0.0000
# 6 0.0000 0.0000 0.0000 -9.1903 0.0000 27.7359
#
#
#
# Elastic Compliance Matrix: (Units=1/GPa)
#
#
# Indices 1 2 3 4 5 6 
#
# 1 0.040995 -0.031102 0.004025 0.000000 0.030507 0.000000
# 2 -0.031102 0.090746 -0.022789 0.000000 -0.011558 0.000000
# 3 0.004025 -0.022789 0.015708 0.000000 0.008190 0.000000
# 4 0.000000 0.000000 0.000000 0.059119 0.000000 0.019589
# 5 0.030507 -0.011558 0.008190 0.000000 0.095799 0.000000
# 6 0.000000 0.000000 0.000000 0.019589 0.000000 0.042545
#
#
# Mechanical properties :
#
#
# Convention : Reuss Voigt Hill
#
# Bulk Modulus (GPa) = 20.95621 40.86224 30.90922
# Shear Modulus (GPa) = 10.85662 19.94319 15.39991
#
# Velocity S-wave (km/s) = 2.46621 3.34256 2.93725
# Velocity P-wave (km/s) = 4.45531 6.14728 5.36837
#
# Compressibility (1/GPa) = 0.04771856
#
# Stress axis : x y z
#
# Youngs Moduli (GPa) = 24.39333 11.01979 63.66057
#
# Poissons Ratio (x) = 0.34274 -0.25626
# Poissons Ratio (y) = 0.75868 1.45075
# Poissons Ratio (z) = -0.09819 0.25113
#
# Static dielectric constant tensor:
#      x y z
#    x 1.598100 0.000000 0.002010 
#    y 0.000000 1.596590 0.000000 
#    z 0.002010 0.000000 1.623120 
# 
# From -- ./inp_files/187212.got.cif
#   From: 2010.05.17/outbox.cif.g08.bks.cpg/sg12_94_cif.got.tgz:187212.got - 2010.06.03 13:09:07.
