data_PCOD9195087
_publ_section_title
;
Structure prediction by ZEFSAII (Michael W. Deem and Ramdas Pophale) SiO2 
 PCOD9195087
Probable space group: C 2/M
;
_chemical_formula_sum "Si O2"
_cell_formula_units_Z 50
_cell_length_a 8.122733
_cell_length_b 12.680904
_cell_length_c 20.837115
_cell_angle_alpha 90.000000
_cell_angle_beta 78.178730
_cell_angle_gamma 90.000000
_cell_volume 2100.777845
_symmetry_space_group_name_H-M "C 2/M"
_symmetry_group_IT_number 12
_symmetry_cell_setting 'monoclinic'
loop_
_space_group_symop_operation_xyz
x,y,z
-x,y,-z
-x,-y,-z
x,-y,z
1/2+x,1/2+y,z
1/2-x,1/2+y,-z
1/2-x,1/2-y,-z
1/2+x,1/2-y,z
loop_
_atom_site_type_symbol
_atom_site_label
_atom_site_fract_x
_atom_site_fract_y
_atom_site_fract_z
Si Si1 0.269483 0.658447 0.598318
Si Si2 0.757459 0.322809 0.894770
Si Si3 0.500000 0.500000 0.500000
Si Si4 0.299524 0.112643 0.026959
Si Si5 0.087435 0.119259 0.273096
Si Si6 0.913389 0.615696 0.576609
Si Si7 0.919674 0.722065 0.198886
O O1 0.367087 0.592585 0.535930
O O2 0.362512 0.627189 0.656572
O O3 0.072388 0.629344 0.611593
O O4 0.292137 0.784307 0.589346
O O5 0.768529 0.206280 0.925265
O O6 0.621211 0.311859 0.850577
O O7 0.929229 0.344969 0.843483
O O8 0.724125 0.387753 0.961253
O O9 0.275327 0.000000 0.060202
O O10 0.500000 0.129931 0.000000
O O11 0.259229 0.149470 0.222382
O O12 0.964597 0.212207 0.258991
O O13 0.030415 0.000000 0.263804
O O14 0.831944 0.500000 0.592571
O O15 0.000000 0.617093 0.500000
#
# Coordination Sequence:
#
# PCOD9195087 Si02
#       7
#     8   8   2   8   8   8   8
#     4  12  24  44  68  99 136 172 222 277 343 412
#     4  10  20  39  60  91 132 161 215 274 321 385
#     4  12  24  40  76 100 136 176 214 282 360 404
#     4  10  20  34  61  94 124 170 212 268 330 389
#     4  11  24  45  67  92 127 172 223 275 327 393
#     4  11  24  41  64  98 131 169 211 262 330 408
#     4  10  23  41  64  90 126 177 219 270 327 388
#
# _framework density 23.800708
#
# number of rings (size 3 to 8) (size 9 to 14) (size 15 to 20)
#    0.000    1.280    4.000    1.440    0.000    3.840 
#    0.000    4.000    0.000    0.000    0.000    0.000 
#    0.000    0.000    0.000    0.000    0.000    0.000 
#
# Total GULP energy -139546.735703 kJ/mol
# GULP energy per Si atom -5581.869428 kJ/mol
# Density = 2.374654 g / cm^3
# Si number density = 23.800708 Si / 1000 Ang^3
#
#
#
# Elastic Constant Matrix: (Units=GPa)
#
#
# Indices 1 2 3 4 5 6 
#
# 1 27.3700 -8.3529 5.6981 0.0000 2.9924 0.0000
# 2 -8.3529 152.7481 11.6235 0.0000 -14.6763 0.0000
# 3 5.6981 11.6235 55.9183 0.0000 21.2012 0.0000
# 4 0.0000 0.0000 0.0000 48.3561 0.0000 3.9739
# 5 2.9924 -14.6763 21.2012 0.0000 38.7170 0.0000
# 6 0.0000 0.0000 0.0000 3.9739 0.0000 15.3015
#
#
#
# Elastic Compliance Matrix: (Units=1/GPa)
#
#
# Indices 1 2 3 4 5 6 
#
# 1 0.038198 0.002488 -0.004604 0.000000 0.000512 0.000000
# 2 0.002488 0.007384 -0.003504 0.000000 0.004526 0.000000
# 3 -0.004604 -0.003504 0.024546 0.000000 -0.014414 0.000000
# 4 0.000000 0.000000 0.000000 0.021131 0.000000 -0.005488
# 5 0.000512 0.004526 -0.014414 0.000000 0.035397 0.000000
# 6 0.000000 0.000000 0.000000 -0.005488 0.000000 0.066778
#
#
# Mechanical properties :
#
#
# Convention : Reuss Voigt Hill
#
# Bulk Modulus (GPa) = 16.98125 28.21931 22.60028
# Shear Modulus (GPa) = 22.29116 35.61277 28.95196
#
# Velocity S-wave (km/s) = 3.06367 3.87239 3.49152
# Velocity P-wave (km/s) = 4.43453 5.64589 5.07647
#
# Compressibility (1/GPa) = 0.05888847
#
# Stress axis : x y z
#
# Youngs Moduli (GPa) = 26.17920 135.42196 40.74034
#
# Poissons Ratio (x) = -0.33698 0.18756
# Poissons Ratio (y) = -0.06514 0.14277
# Poissons Ratio (z) = 0.12052 0.47458
#
# Static dielectric constant tensor:
#      x y z
#    x 1.931970 0.000000 0.061370 
#    y 0.000000 1.869810 0.000000 
#    z 0.061370 0.000000 1.920620 
# 
# From -- ./inp_files/299826.got.cif
#   From: 2010.05.17/outbox.cif.g08.bks.cpg/sg12_150_cif.got.tgz:299826.got - 2010.06.03 13:09:07.
