data_PCOD9195239
_publ_section_title
;
Structure prediction by ZEFSAII (Michael W. Deem and Ramdas Pophale) SiO2 
 PCOD9195239
Probable space group: C 2/M
;
_chemical_formula_sum "Si O2"
_cell_formula_units_Z 56
_cell_length_a 29.035104
_cell_length_b 7.181179
_cell_length_c 11.293570
_cell_angle_alpha 90.000000
_cell_angle_beta 80.104498
_cell_angle_gamma 90.000000
_cell_volume 2319.747770
_symmetry_space_group_name_H-M "C 2/M"
_symmetry_group_IT_number 12
_symmetry_cell_setting 'monoclinic'
loop_
_space_group_symop_operation_xyz
x,y,z
-x,y,-z
-x,-y,-z
x,-y,z
1/2+x,1/2+y,z
1/2-x,1/2+y,-z
1/2-x,1/2-y,-z
1/2+x,1/2-y,z
loop_
_atom_site_type_symbol
_atom_site_label
_atom_site_fract_x
_atom_site_fract_y
_atom_site_fract_z
Si Si1 0.946992 0.774938 0.033150
Si Si2 0.555639 0.275434 0.225422
Si Si3 0.194875 0.220526 0.030294
Si Si4 0.854851 0.773292 0.188323
Si Si5 0.149545 0.773786 0.295737
Si Si6 0.031083 0.225954 0.600686
Si Si7 0.139400 0.773252 0.556473
O O1 0.927039 0.727165 0.912534
O O2 0.949806 0.000000 0.043461
O O3 0.909075 0.717052 0.145287
O O4 0.000000 0.708688 0.000000
O O5 0.553884 0.500000 0.229361
O O6 0.595211 0.220421 0.300108
O O7 0.503094 0.214911 0.277337
O O8 0.172780 0.289982 0.916291
O O9 0.184234 0.000000 0.036111
O O10 0.250000 0.250000 0.000000
O O11 0.176419 0.290348 0.166058
O O12 0.839535 0.714901 0.326383
O O13 0.853376 0.000000 0.188140
O O14 0.162937 0.714243 0.422385
O O15 0.151750 0.000000 0.294376
O O16 0.084640 0.285419 0.578393
O O17 0.000000 0.276861 0.500000
O O18 0.033326 0.000000 0.600782
O O19 0.139509 0.000000 0.555964
#
# Coordination Sequence:
#
# PCOD9195239 Si02
#       7
#     8   8   8   8   8   8   8
#     4   9  14  19  29  48  79 117 150 176 211 263
#     4   9  13  18  28  45  73 112 152 179 203 250
#     4  10  20  35  53  70  89 117 154 195 239 280
#     4   9  16  26  39  59  87 118 151 188 227 269
#     4   9  15  25  40  57  81 114 149 182 220 269
#     4   9  13  16  25  46  79 119 156 179 201 252
#     4   9  15  22  34  55  85 121 154 181 217 267
#
# _framework density 24.140556
#
# number of rings (size 3 to 8) (size 9 to 14) (size 15 to 20)
#    0.000    2.857    2.857    0.857    0.000    3.429 
#    0.000    0.714    0.000    0.000    0.000    0.000 
#    0.000    0.571    0.000    2.571    0.000    3.000 
#
# Total GULP energy -156266.904832 kJ/mol
# GULP energy per Si atom -5580.960887 kJ/mol
# Density = 2.408561 g / cm^3
# Si number density = 24.140556 Si / 1000 Ang^3
#
#
#
# Elastic Constant Matrix: (Units=GPa)
#
#
# Indices 1 2 3 4 5 6 
#
# 1 88.1013 -4.5475 74.1360 0.0000 7.0621 0.0000
# 2 -4.5475 122.8945 6.5963 0.0000 3.3758 0.0000
# 3 74.1360 6.5963 229.1035 0.0000 22.7741 0.0000
# 4 0.0000 0.0000 0.0000 -70.4451 0.0000 67.8771
# 5 7.0621 3.3758 22.7741 0.0000 27.6968 0.0000
# 6 0.0000 0.0000 0.0000 67.8771 0.0000 -174.8266
#
#
#
# Elastic Compliance Matrix: (Units=1/GPa)
#
#
# Indices 1 2 3 4 5 6 
#
# 1 0.015687 0.000852 -0.005111 0.000000 0.000098 0.000000
# 2 0.000852 0.008215 -0.000426 0.000000 -0.000868 0.000000
# 3 -0.005111 -0.000426 0.006421 0.000000 -0.003925 0.000000
# 4 0.000000 0.000000 0.000000 -0.022680 0.000000 -0.008806
# 5 0.000098 -0.000868 -0.003925 0.000000 0.039413 0.000000
# 6 0.000000 0.000000 0.000000 -0.008806 0.000000 -0.009139
#
#
# Mechanical properties :
#
#
# Convention : Reuss Voigt Hill
#
# Bulk Modulus (GPa) = 47.72232 65.82990 56.77611
# Shear Modulus (GPa) = 92.12958 -19.25401 36.43778
#
# Velocity S-wave (km/s) = 6.18439 -2.82721 3.88932
# Velocity P-wave (km/s) = 8.41469 4.08303 6.61355
#
# Compressibility (1/GPa) = 0.02095455
#
# Stress axis : x y z
#
# Youngs Moduli (GPa) = 63.74663 121.72409 155.73960
#
# Poissons Ratio (x) = -0.10372 0.79591
# Poissons Ratio (y) = -0.05432 0.06634
# Poissons Ratio (z) = 0.32578 0.05185
#
# Static dielectric constant tensor:
#      x y z
#    x 1.866100 0.000000 0.045370 
#    y 0.000000 2.013220 0.000000 
#    z 0.045370 0.000000 1.972880 
# 
# From -- ./inp_files/188010.got.cif
#   From: 2010.05.17/outbox.cif.g08.bks.cpg/sg12_95_cif.got.tgz:188010.got - 2010.06.03 13:09:07.
