data_PCOD9195698
_publ_section_title
;
Structure prediction by ZEFSAII (Michael W. Deem and Ramdas Pophale) SiO2 
 PCOD9195698
Probable space group: C 2/M
;
_chemical_formula_sum "Si O2"
_cell_formula_units_Z 48
_cell_length_a 19.014893
_cell_length_b 8.974696
_cell_length_c 15.625336
_cell_angle_alpha 90.000000
_cell_angle_beta 89.924223
_cell_angle_gamma 90.000000
_cell_volume 2666.506322
_symmetry_space_group_name_H-M "C 2/M"
_symmetry_group_IT_number 12
_symmetry_cell_setting 'monoclinic'
loop_
_space_group_symop_operation_xyz
x,y,z
-x,y,-z
-x,-y,-z
x,-y,z
1/2+x,1/2+y,z
1/2-x,1/2+y,-z
1/2-x,1/2-y,-z
1/2+x,1/2-y,z
loop_
_atom_site_type_symbol
_atom_site_label
_atom_site_fract_x
_atom_site_fract_y
_atom_site_fract_z
Si Si1 0.954106 0.677246 0.771806
Si Si2 0.795783 0.823532 0.573262
Si Si3 0.445117 0.176053 0.575181
Si Si4 0.698675 0.678615 0.233455
Si Si5 0.451615 0.321884 0.082936
Si Si6 0.202225 0.321480 0.926287
O O1 0.955197 0.500000 0.787071
O O2 0.972210 0.703862 0.671628
O O3 0.874988 0.739453 0.785147
O O4 0.007666 0.757777 0.835022
O O5 0.750000 0.750000 0.500000
O O6 0.876001 0.773052 0.562363
O O7 0.776852 0.779128 0.670912
O O8 0.788921 0.000000 0.567094
O O9 0.500000 0.205853 0.500000
O O10 0.426325 0.000000 0.571484
O O11 0.685063 0.500000 0.232858
O O12 0.757460 0.710062 0.162866
O O13 0.443748 0.500000 0.089721
O O14 0.375467 0.247236 0.073154
O O15 0.500000 0.290061 0.000000
O O16 0.198389 0.500000 0.937150
O O17 0.250000 0.250000 0.000000
#
# Coordination Sequence:
#
# PCOD9195698 Si02
#       6
#     8   8   8   8   8   8
#     4  10  20  35  58  84 108 140 182 225 267 315
#     4  10  20  35  55  79 109 144 182 223 267 317
#     4   9  19  36  56  79 110 145 179 219 270 323
#     4   9  20  38  57  78 109 146 178 217 272 325
#     4  11  24  40  57  79 110 146 180 218 268 321
#     4  11  23  39  59  83 110 141 179 221 268 321
#
# _framework density 18.001083000000001
#
# number of rings (size 3 to 8) (size 9 to 14) (size 15 to 20)
#    0.000    2.000    0.000    3.000    0.000    9.667 
#    0.000    6.667    0.000    0.000    0.000    0.000 
#    0.000    0.000    0.000    0.000    0.000    0.000 
#
# Total GULP energy -134031.694491 kJ/mol
# GULP energy per Si atom -5584.653937 kJ/mol
# Density = 1.796011 g / cm^3
# Si number density = 18.001083 Si / 1000 Ang^3
#
#
#
# Elastic Constant Matrix: (Units=GPa)
#
#
# Indices 1 2 3 4 5 6 
#
# 1 135.9509 75.7173 108.4167 0.0000 8.6186 0.0000
# 2 75.7173 71.7115 81.7836 0.0000 1.6681 0.0000
# 3 108.4167 81.7836 141.8715 0.0000 9.7724 0.0000
# 4 0.0000 0.0000 0.0000 31.4104 0.0000 5.0171
# 5 8.6186 1.6681 9.7724 0.0000 37.8486 0.0000
# 6 0.0000 0.0000 0.0000 5.0171 0.0000 38.4446
#
#
#
# Elastic Compliance Matrix: (Units=1/GPa)
#
#
# Indices 1 2 3 4 5 6 
#
# 1 0.021886 -0.012094 -0.009618 0.000000 -0.001967 0.000000
# 2 -0.012094 0.048103 -0.018866 0.000000 0.005505 0.000000
# 3 -0.009618 -0.018866 0.025520 0.000000 -0.003568 0.000000
# 4 0.000000 0.000000 0.000000 0.032514 0.000000 -0.004243
# 5 -0.001967 0.005505 -0.003568 0.000000 0.027548 0.000000
# 6 0.000000 0.000000 0.000000 -0.004243 0.000000 0.026565
#
#
# Mechanical properties :
#
#
# Convention : Reuss Voigt Hill
#
# Bulk Modulus (GPa) = 69.67645 97.92990 83.80317
# Shear Modulus (GPa) = 18.65146 27.11514 22.88330
#
# Velocity S-wave (km/s) = 3.22239 3.88533 3.56928
# Velocity P-wave (km/s) = 7.25506 8.63991 7.97759
#
# Compressibility (1/GPa) = 0.01435205
#
# Stress axis : x y z
#
# Youngs Moduli (GPa) = 45.69151 20.78887 39.18547
#
# Poissons Ratio (x) = 0.25143 0.37687
# Poissons Ratio (y) = 0.55261 0.73928
# Poissons Ratio (z) = 0.43944 0.39221
#
# Static dielectric constant tensor:
#      x y z
#    x 1.567630 0.000000 -0.008390 
#    y 0.000000 1.602960 0.000000 
#    z -0.008390 0.000000 1.621970 
# 
# From -- ./inp_files/221630.got.cif
#   From: 2010.05.17/outbox.cif.g08.bks.cpg/sg12_111_cif.got.tgz:221630.got - 2010.06.03 13:09:07.
