data_PCOD9195369
_publ_section_title
;
Structure prediction by ZEFSAII (Michael W. Deem and Ramdas Pophale) SiO2 
 PCOD9195369
Probable space group: C 2/M
;
_chemical_formula_sum "Si O2"
_cell_formula_units_Z 56
_cell_length_a 19.417907
_cell_length_b 7.764103
_cell_length_c 19.841346
_cell_angle_alpha 90.000000
_cell_angle_beta 59.280972
_cell_angle_gamma 90.000000
_cell_volume 2571.597582
_symmetry_space_group_name_H-M "C 2/M"
_symmetry_group_IT_number 12
_symmetry_cell_setting 'monoclinic'
loop_
_space_group_symop_operation_xyz
x,y,z
-x,y,-z
-x,-y,-z
x,-y,z
1/2+x,1/2+y,z
1/2-x,1/2+y,-z
1/2-x,1/2-y,-z
1/2+x,1/2-y,z
loop_
_atom_site_type_symbol
_atom_site_label
_atom_site_fract_x
_atom_site_fract_y
_atom_site_fract_z
Si Si1 0.004150 0.699631 0.421796
Si Si2 0.243248 0.704716 0.673353
Si Si3 0.254860 0.791340 0.174633
Si Si4 0.430649 0.705753 0.083166
Si Si5 0.933145 0.209081 0.236744
Si Si6 0.829110 0.793638 0.502552
Si Si7 0.082117 0.202680 0.247807
O O1 0.026122 0.500000 0.416378
O O2 0.062534 0.780679 0.337140
O O3 0.000000 0.774715 0.500000
O O4 0.913660 0.716933 0.438816
O O5 0.255164 0.500000 0.671375
O O6 0.245859 0.774339 0.747588
O O7 0.308182 0.771353 0.588461
O O8 0.153362 0.737101 0.692099
O O9 0.340607 0.739977 0.102395
O O10 0.170643 0.729145 0.186705
O O11 0.253597 0.000000 0.176321
O O12 0.440528 0.500000 0.082199
O O13 0.437250 0.770404 0.156925
O O14 0.500000 0.774643 0.000000
O O15 0.008049 0.275166 0.242325
O O16 0.933661 0.000000 0.237147
O O17 0.750000 0.750000 0.500000
O O18 0.838418 0.000000 0.497382
O O19 0.084158 0.000000 0.231461
#
# Coordination Sequence:
#
# PCOD9195369 Si02
#       7
#     8   8   8   8   8   8   8
#     4  11  24  38  52  74 105 141 181 224 268 316
#     4   9  18  32  49  69  94 127 167 209 252 302
#     4   9  18  33  53  75  98 127 165 206 249 299
#     4   9  18  34  55  78 105 135 165 199 245 304
#     4   9  18  32  52  76 100 131 169 208 251 301
#     4  11  22  35  52  74 102 136 176 223 272 318
#     4  10  20  35  54  75 101 134 173 216 261 309
#
# _framework density 21.776347000000001
#
# number of rings (size 3 to 8) (size 9 to 14) (size 15 to 20)
#    0.000    2.286    0.000    2.571    0.000    7.143 
#    0.000    3.571    0.000    0.000    0.000    0.000 
#    0.000    0.000    0.000    0.000    0.000    0.000 
#
# Total GULP energy -156333.292216 kJ/mol
# GULP energy per Si atom -5583.331865 kJ/mol
# Density = 2.172678 g / cm^3
# Si number density = 21.776347 Si / 1000 Ang^3
#
#
#
# Elastic Constant Matrix: (Units=GPa)
#
#
# Indices 1 2 3 4 5 6 
#
# 1 97.9138 -10.1464 22.8838 -0.0001 -25.2758 -0.0033
# 2 -10.1464 32.5938 -4.7612 -0.0006 2.7552 -0.0065
# 3 22.8838 -4.7612 87.9268 0.0002 -33.5748 -0.0004
# 4 -0.0001 -0.0006 0.0002 11.9396 0.0001 -1.3892
# 5 -25.2758 2.7552 -33.5748 0.0001 34.5655 -0.0001
# 6 -0.0033 -0.0065 -0.0004 -1.3892 -0.0001 18.5435
#
#
#
# Elastic Compliance Matrix: (Units=1/GPa)
#
#
# Indices 1 2 3 4 5 6 
#
# 1 0.012936 0.003282 0.000514 0.000001 0.009697 0.000004
# 2 0.003282 0.031797 0.001297 0.000003 0.001126 0.000012
# 3 0.000514 0.001297 0.018143 0.000000 0.017895 0.000001
# 4 0.000001 0.000003 0.000000 0.084492 0.000000 0.006330
# 5 0.009697 0.001126 0.017895 0.000000 0.053314 0.000003
# 6 0.000004 0.000012 0.000001 0.006330 0.000003 0.054402
#
#
# Mechanical properties :
#
#
# Convention : Reuss Voigt Hill
#
# Bulk Modulus (GPa) = 13.68680 26.04298 19.86489
# Shear Modulus (GPa) = 18.57008 27.04026 22.80517
#
# Velocity S-wave (km/s) = 2.92338 3.52764 3.23963
# Velocity P-wave (km/s) = 4.20639 5.34580 4.80995
#
# Compressibility (1/GPa) = 0.07306309
#
# Stress axis : x y z
#
# Youngs Moduli (GPa) = 77.30157 31.44968 55.11802
#
# Poissons Ratio (x) = -0.10323 -0.02831
# Poissons Ratio (y) = -0.25373 -0.07151
# Poissons Ratio (z) = -0.03971 -0.04080
#
# Static dielectric constant tensor:
#      x y z
#    x 1.847380 0.000000 0.016780 
#    y 0.000000 1.794330 0.000000 
#    z 0.016780 0.000000 1.793950 
# 
# From -- ./inp_files/313796.got.cif
#   From: 2010.05.17/outbox.cif.g08.bks.cpg/sg12_157_cif.got.tgz:313796.got - 2010.06.03 13:09:07.
