data_PCOD9195985
_publ_section_title
;
Structure prediction by ZEFSAII (Michael W. Deem and Ramdas Pophale) SiO2 
 PCOD9195985
Probable space group: C 2/M
;
_chemical_formula_sum "Si O2"
_cell_formula_units_Z 64
_cell_length_a 9.822515
_cell_length_b 21.010019
_cell_length_c 24.261168
_cell_angle_alpha 90.000000
_cell_angle_beta 133.081218
_cell_angle_gamma 90.000000
_cell_volume 3656.902840
_symmetry_space_group_name_H-M "C 2/M"
_symmetry_group_IT_number 12
_symmetry_cell_setting 'monoclinic'
loop_
_space_group_symop_operation_xyz
x,y,z
-x,y,-z
-x,-y,-z
x,-y,z
1/2+x,1/2+y,z
1/2-x,1/2+y,-z
1/2-x,1/2-y,-z
1/2+x,1/2-y,z
loop_
_atom_site_type_symbol
_atom_site_label
_atom_site_fract_x
_atom_site_fract_y
_atom_site_fract_z
Si Si1 0.632405 0.073505 0.281881
Si Si2 0.803379 0.805205 0.472580
Si Si3 0.958633 0.670777 0.150073
Si Si4 0.441196 0.855351 0.323730
Si Si5 0.351860 0.074460 0.411032
Si Si6 0.065324 0.073926 0.423212
Si Si7 0.680225 0.710844 0.168581
Si Si8 0.358432 0.312332 0.010086
O O1 0.569298 0.117366 0.213855
O O2 0.500833 0.090106 0.297180
O O3 0.845373 0.085648 0.359176
O O4 0.618161 0.000000 0.263024
O O5 0.750000 0.750000 0.500000
O O6 0.628292 0.813721 0.383738
O O7 0.839434 0.874055 0.511223
O O8 0.000000 0.787654 0.500000
O O9 0.835585 0.707396 0.163102
O O10 0.097931 0.719735 0.158873
O O11 0.804622 0.646090 0.063123
O O12 0.381531 0.883040 0.365974
O O13 0.277591 0.816161 0.249737
O O14 0.500000 0.090559 0.500000
O O15 0.154667 0.081071 0.387296
O O16 0.380407 0.000000 0.404799
O O17 0.099454 0.000000 0.450101
O O18 0.501484 0.669246 0.098209
O O19 0.500000 0.295406 0.000000
O O20 0.250000 0.250000 0.000000
#
# Coordination Sequence:
#
# PCOD9195985 Si02
#       8
#     8   8   8   8   8   8   8   8
#     4  10  21  37  56  79 106 142 188 229 263 314
#     4  12  27  40  55  80 113 147 181 229 288 332
#     4   9  18  33  54  80 109 141 171 217 267 321
#     4  11  22  36  55  78 108 144 175 227 274 327
#     4  10  20  35  56  79  99 133 182 227 271 316
#     4  10  22  40  59  78 103 142 194 232 266 327
#     4   9  19  31  52  81 109 140 174 213 269 324
#     4   8  14  29  50  75 107 136 170 210 254 318
#
# _framework density 17.501149000000002
#
# number of rings (size 3 to 8) (size 9 to 14) (size 15 to 20)
#    0.000    2.125    2.500    0.375    3.500    1.750 
#    0.000    0.000    0.000   10.125    0.000    0.000 
#    0.000   48.000    0.000    0.000    0.000    0.000 
#
# Total GULP energy -178314.427364 kJ/mol
# GULP energy per Si atom -5572.325855 kJ/mol
# Density = 1.746132 g / cm^3
# Si number density = 17.501149 Si / 1000 Ang^3
#
#
#
# Elastic Constant Matrix: (Units=GPa)
#
#
# Indices 1 2 3 4 5 6 
#
# 1 54.0188 18.7082 19.7401 0.0000 10.6711 0.0000
# 2 18.7082 50.8305 43.0359 0.0000 6.9413 0.0000
# 3 19.7401 43.0359 125.7474 -0.0001 8.3181 -0.0001
# 4 0.0000 0.0000 -0.0001 18.4719 0.0000 2.5662
# 5 10.6711 6.9413 8.3181 0.0000 21.6269 0.0000
# 6 0.0000 0.0000 -0.0001 2.5662 0.0000 17.9629
#
#
#
# Elastic Compliance Matrix: (Units=1/GPa)
#
#
# Indices 1 2 3 4 5 6 
#
# 1 0.022805 -0.006545 -0.000754 0.000000 -0.008862 0.000000
# 2 -0.006545 0.030202 -0.009113 0.000000 -0.002959 0.000000
# 3 -0.000754 -0.009113 0.011258 0.000000 -0.001033 0.000000
# 4 0.000000 0.000000 0.000000 0.055233 0.000000 -0.007891
# 5 -0.008862 -0.002959 -0.001033 0.000000 0.051958 0.000000
# 6 0.000000 0.000000 0.000000 -0.007891 0.000000 0.056798
#
#
# Mechanical properties :
#
#
# Convention : Reuss Voigt Hill
#
# Bulk Modulus (GPa) = 31.80570 43.72945 37.76757
# Shear Modulus (GPa) = 18.41231 21.55317 19.98274
#
# Velocity S-wave (km/s) = 3.24707 3.51312 3.38271
# Velocity P-wave (km/s) = 5.68075 6.44181 6.07321
#
# Compressibility (1/GPa) = 0.03144091
#
# Stress axis : x y z
#
# Youngs Moduli (GPa) = 43.85040 33.11053 88.82560
#
# Poissons Ratio (x) = 0.21671 0.06696
# Poissons Ratio (y) = 0.28700 0.80948
# Poissons Ratio (z) = 0.03305 0.30174
#
# Static dielectric constant tensor:
#      x y z
#    x 1.613360 0.000000 0.004480 
#    y 0.000000 1.586900 0.000000 
#    z 0.004480 0.000000 1.640740 
# 
# From -- ./inp_files/333773.got.cif
#   From: 2010.05.17/outbox.cif.g08.bks.cpg/sg12_167_cif.got.tgz:333773.got - 2010.06.03 13:09:07.
