data_PCOD9195137
_publ_section_title
;
Structure prediction by ZEFSAII (Michael W. Deem and Ramdas Pophale) SiO2 
 PCOD9195137
Probable space group: C 2/M
;
_chemical_formula_sum "Si O2"
_cell_formula_units_Z 46
_cell_length_a 15.552707
_cell_length_b 19.920271
_cell_length_c 24.702502
_cell_angle_alpha 90.000000
_cell_angle_beta 16.639839
_cell_angle_gamma 90.000000
_cell_volume 2191.524861
_symmetry_space_group_name_H-M "C 2/M"
_symmetry_group_IT_number 12
_symmetry_cell_setting 'monoclinic'
loop_
_space_group_symop_operation_xyz
x,y,z
-x,y,-z
-x,-y,-z
x,-y,z
1/2+x,1/2+y,z
1/2-x,1/2+y,-z
1/2-x,1/2-y,-z
1/2+x,1/2-y,z
loop_
_atom_site_type_symbol
_atom_site_label
_atom_site_fract_x
_atom_site_fract_y
_atom_site_fract_z
Si Si1 0.500000 0.742795 0.500000
Si Si2 0.073526 0.354890 0.827034
Si Si3 0.888974 0.078119 0.439750
Si Si4 0.892426 0.396497 0.828186
Si Si5 0.500000 0.500000 0.000000
Si Si6 0.403567 0.804351 0.447708
Si Si7 0.430494 0.259948 0.982572
O O1 0.714488 0.693021 0.337311
O O2 0.349866 0.786911 0.543004
O O3 0.286009 0.392398 0.741484
O O4 0.859679 0.302048 0.986201
O O5 0.928292 0.403767 0.870836
O O6 0.688862 0.085296 0.615253
O O7 0.723904 0.124535 0.495172
O O8 0.895465 0.000000 0.420993
O O9 0.633821 0.441896 0.959581
O O10 0.810258 0.318678 0.867950
O O11 0.250000 0.750000 0.500000
O O12 0.761233 0.795799 0.223201
O O13 0.500000 0.232389 0.000000
#
# Coordination Sequence:
#
# PCOD9195137 Si02
#       7
#     4   8   8   8   2   8   8
#     4  10  20  34  66  92 124 164 212 270 306 360
#     4  11  23  39  62  98 122 164 217 265 314 374
#     4  12  23  39  66  93 130 170 207 266 322 376
#     4  12  22  39  56  95 130 161 205 250 330 387
#     4  12  24  36  62  84 142 166 180 272 336 390
#     4  11  20  41  62  93 131 163 219 262 309 381
#     4  11  22  37  63  92 126 162 205 264 319 366
#
# _framework density 20.989951999999999
#
# number of rings (size 3 to 8) (size 9 to 14) (size 15 to 20)
#    0.000    0.696    8.696    0.522    1.217    0.696 
#    0.000    0.435    0.000    0.522   13.565    0.000 
#    0.000    0.000    0.000    0.000    0.000    0.000 
#
# Total GULP energy -128332.121741 kJ/mol
# GULP energy per Si atom -5579.657467 kJ/mol
# Density = 2.094218 g / cm^3
# Si number density = 20.989952 Si / 1000 Ang^3
#
#
#
# Elastic Constant Matrix: (Units=GPa)
#
#
# Indices 1 2 3 4 5 6 
#
# 1 114.9842 58.4728 2.4376 -0.1666 -17.3791 -0.4143
# 2 58.4728 144.1564 21.8531 0.2387 -9.5282 -0.2215
# 3 2.4376 21.8531 22.7249 -0.3444 -2.9824 -0.7895
# 4 -0.1666 0.2387 -0.3444 -5.2340 -0.6172 11.4878
# 5 -17.3791 -9.5282 -2.9824 -0.6172 26.5951 -0.2177
# 6 -0.4143 -0.2215 -0.7895 11.4878 -0.2177 15.1006
#
#
#
# Elastic Compliance Matrix: (Units=1/GPa)
#
#
# Indices 1 2 3 4 5 6 
#
# 1 0.012271 -0.005235 0.004615 -0.000153 0.006663 0.000713
# 2 -0.005235 0.010468 -0.009622 0.000097 -0.000752 -0.000578
# 3 0.004615 -0.009622 0.053593 0.000570 0.005611 0.002435
# 4 -0.000153 0.000097 0.000570 -0.071514 -0.001215 0.054414
# 5 0.006663 -0.000752 0.005611 -0.001215 0.042303 0.002000
# 6 0.000713 -0.000578 0.002435 0.054414 0.002000 0.024994
#
#
# Mechanical properties :
#
#
# Convention : Reuss Voigt Hill
#
# Bulk Modulus (GPa) = 17.90634 49.71028 33.80831
# Shear Modulus (GPa) = 44.95780 20.56580 32.76180
#
# Velocity S-wave (km/s) = 4.63306 3.13356 3.95502
# Velocity P-wave (km/s) = 6.09670 6.06849 6.08261
#
# Compressibility (1/GPa) = 0.05584615
#
# Stress axis : x y z
#
# Youngs Moduli (GPa) = 81.49587 95.52659 18.65931
#
# Poissons Ratio (x) = 0.50009 -0.08611
# Poissons Ratio (y) = 0.42663 0.17955
# Poissons Ratio (z) = -0.37609 0.91920
#
# Static dielectric constant tensor:
#      x y z
#    x 1.812530 0.000080 -0.028060 
#    y 0.000080 1.734900 -0.000090 
#    z -0.028060 -0.000090 1.810890 
# 
# From -- ./inp_files/341200.got.cif
#   From: 2010.05.17/outbox.cif.g08.bks.cpg/sg12_171_cif.got.tgz:341200.got - 2010.06.03 13:09:07.
