data_PCOD9195359
_publ_section_title
;
Structure prediction by ZEFSAII (Michael W. Deem and Ramdas Pophale) SiO2 
 PCOD9195359
Probable space group: C 2/M
;
_chemical_formula_sum "Si O2"
_cell_formula_units_Z 56
_cell_length_a 14.649161
_cell_length_b 9.679873
_cell_length_c 20.687669
_cell_angle_alpha 90.000000
_cell_angle_beta 52.696806
_cell_angle_gamma 90.000000
_cell_volume 2333.464682
_symmetry_space_group_name_H-M "C 2/M"
_symmetry_group_IT_number 12
_symmetry_cell_setting 'monoclinic'
loop_
_space_group_symop_operation_xyz
x,y,z
-x,y,-z
-x,-y,-z
x,-y,z
1/2+x,1/2+y,z
1/2-x,1/2+y,-z
1/2-x,1/2-y,-z
1/2+x,1/2-y,z
loop_
_atom_site_type_symbol
_atom_site_label
_atom_site_fract_x
_atom_site_fract_y
_atom_site_fract_z
Si Si1 0.827808 0.654945 0.783501
Si Si2 0.617309 0.161623 0.871631
Si Si3 0.145296 0.339628 0.016125
Si Si4 0.274115 0.842431 0.361208
Si Si5 0.075164 0.347276 0.397552
Si Si6 0.380352 0.345779 0.461781
Si Si7 0.475785 0.344040 0.272478
O O1 0.813550 0.500000 0.818092
O O2 0.709490 0.723856 0.811662
O O3 0.906856 0.637858 0.686727
O O4 0.900634 0.772577 0.789171
O O5 0.634333 0.167946 0.942672
O O6 0.640616 0.000000 0.843917
O O7 0.486476 0.195797 0.907642
O O8 0.165103 0.500000 0.024692
O O9 0.250000 0.250000 0.000000
O O10 0.164851 0.768724 0.378490
O O11 0.247118 0.836749 0.450781
O O12 0.382712 0.762818 0.287270
O O13 0.283760 0.000000 0.339452
O O14 0.098250 0.500000 0.414950
O O15 0.949618 0.284360 0.460218
O O16 0.416429 0.500000 0.471574
O O17 0.424488 0.354759 0.368651
O O18 0.474996 0.500000 0.247331
#
# Coordination Sequence:
#
# PCOD9195359 Si02
#       7
#     8   8   8   8   8   8   8
#     4  10  21  38  57  79 107 144 188 226 269 328
#     4   9  19  38  62  87 121 162 194 230 284 340
#     4   9  19  37  62  94 126 155 193 235 279 332
#     4  11  21  33  50  75 104 133 176 231 282 335
#     4  10  21  35  51  73 103 138 180 228 276 332
#     4   9  19  34  52  73  98 133 175 225 285 340
#     4  10  20  35  54  74 102 139 178 224 280 336
#
# _framework density 23.998650000000001
#
# number of rings (size 3 to 8) (size 9 to 14) (size 15 to 20)
#    0.000    2.286    0.000    3.429    0.000    6.286 
#    2.571    1.429    0.000    0.000    0.000    0.000 
#    0.000    0.000    0.000    0.000    0.000    0.000 
#
# Total GULP energy -156093.473892 kJ/mol
# GULP energy per Si atom -5574.766925 kJ/mol
# Density = 2.394403 g / cm^3
# Si number density = 23.998650 Si / 1000 Ang^3
#
#
#
# Elastic Constant Matrix: (Units=GPa)
#
#
# Indices 1 2 3 4 5 6 
#
# 1 75.3939 45.2088 22.7179 0.0000 -29.1727 0.0000
# 2 45.2088 207.3357 45.1801 0.0000 -47.6399 0.0000
# 3 22.7179 45.1801 87.9795 0.0000 -27.8817 0.0000
# 4 0.0000 0.0000 0.0000 13.4176 0.0000 -11.7347
# 5 -29.1727 -47.6399 -27.8817 0.0000 51.6288 0.0000
# 6 0.0000 0.0000 0.0000 -11.7347 0.0000 29.8159
#
#
#
# Elastic Compliance Matrix: (Units=1/GPa)
#
#
# Indices 1 2 3 4 5 6 
#
# 1 0.017687 -0.001837 -0.001199 0.000000 0.007651 0.000000
# 2 -0.001837 0.006512 -0.001562 0.000000 0.004128 0.000000
# 3 -0.001199 -0.001562 0.014244 0.000000 0.005574 0.000000
# 4 0.000000 0.000000 0.000000 0.113648 0.000000 0.044729
# 5 0.007651 0.004128 0.005574 0.000000 0.030511 0.000000
# 6 0.000000 0.000000 0.000000 0.044729 0.000000 0.051143
#
#
# Mechanical properties :
#
#
# Convention : Reuss Voigt Hill
#
# Bulk Modulus (GPa) = 34.19028 66.32473 50.25751
# Shear Modulus (GPa) = 19.78696 36.14596 27.96646
#
# Velocity S-wave (km/s) = 2.87453 3.88515 3.41740
# Velocity P-wave (km/s) = 5.02941 6.91539 6.04639
#
# Compressibility (1/GPa) = 0.02924808
#
# Stress axis : x y z
#
# Youngs Moduli (GPa) = 56.53803 153.55144 70.20331
#
# Poissons Ratio (x) = 0.28213 0.08416
# Poissons Ratio (y) = 0.10388 0.10964
# Poissons Ratio (z) = 0.06778 0.23982
#
# Static dielectric constant tensor:
#      x y z
#    x 2.033360 0.000000 0.106340 
#    y 0.000000 1.914030 0.000000 
#    z 0.106340 0.000000 1.991680 
# 
# From -- ./inp_files/377631.got.cif
#   From: 2010.05.17/outbox.cif.g08.bks.cpg/sg12_189_cif.got.tgz:377631.got - 2010.06.03 13:09:07.
