data_PCOD9195020
_publ_section_title
;
Structure prediction by ZEFSAII (Michael W. Deem and Ramdas Pophale) SiO2 
 PCOD9195020
Probable space group: C 2/M
;
_chemical_formula_sum "Si O2"
_cell_formula_units_Z 40
_cell_length_a 11.506740
_cell_length_b 14.466385
_cell_length_c 10.771591
_cell_angle_alpha 90.000000
_cell_angle_beta 98.923928
_cell_angle_gamma 90.000000
_cell_volume 1771.344510
_symmetry_space_group_name_H-M "C 2/M"
_symmetry_group_IT_number 12
_symmetry_cell_setting 'monoclinic'
loop_
_space_group_symop_operation_xyz
x,y,z
-x,y,-z
-x,-y,-z
x,-y,z
1/2+x,1/2+y,z
1/2-x,1/2+y,-z
1/2-x,1/2-y,-z
1/2+x,1/2-y,z
loop_
_atom_site_type_symbol
_atom_site_label
_atom_site_fract_x
_atom_site_fract_y
_atom_site_fract_z
Si Si1 0.684380 0.847140 0.005385
Si Si2 0.932938 0.900670 0.122121
Si Si3 0.580764 0.761123 0.218085
Si Si4 0.123155 0.299391 0.488153
Si Si5 0.787720 0.394408 0.259758
O O1 0.405752 0.823862 0.900621
O O2 0.648672 0.883049 0.863543
O O3 0.750000 0.750000 0.000000
O O4 0.794479 0.904771 0.074962
O O5 0.967163 0.806286 0.198242
O O6 0.968622 0.000000 0.184399
O O7 0.000000 0.893157 0.000000
O O8 0.599359 0.824282 0.341253
O O9 0.683008 0.681414 0.236832
O O10 0.250000 0.250000 0.500000
O O11 0.139934 0.371449 0.603203
O O12 0.000000 0.246178 0.500000
O O13 0.745707 0.500000 0.259211
#
# Coordination Sequence:
#
# PCOD9195020 Si02
#       5
#     8   8   8   8   8
#     4  10  20  34  59  96 124 163 210 265 317 389
#     4  11  20  33  61  96 128 165 212 270 333 386
#     4  10  22  37  64  92 125 167 220 264 324 388
#     4  10  24  42  67  92 125 173 223 265 320 391
#     4  10  20  39  62  90 128 171 212 263 326 391
#
# _framework density 22.581717999999999
#
# number of rings (size 3 to 8) (size 9 to 14) (size 15 to 20)
#    0.000    1.800    4.000    1.200    8.400    0.400 
#    0.000    2.000    0.000    4.200    0.000    0.000 
#    0.000    0.000    0.000    0.000    0.000    0.000 
#
# Total GULP energy -111361.521080 kJ/mol
# GULP energy per Si atom -5568.076054 kJ/mol
# Density = 2.253032 g / cm^3
# Si number density = 22.581718 Si / 1000 Ang^3
#
#
#
# Elastic Constant Matrix: (Units=GPa)
#
#
# Indices 1 2 3 4 5 6 
#
# 1 112.2063 26.9151 39.0756 0.0000 4.2232 0.0000
# 2 26.9151 88.2971 46.8052 0.0000 6.7065 0.0000
# 3 39.0756 46.8052 211.6285 0.0000 -4.0722 0.0000
# 4 0.0000 0.0000 0.0000 23.5414 0.0000 -9.0222
# 5 4.2232 6.7065 -4.0722 0.0000 23.5129 0.0000
# 6 0.0000 0.0000 0.0000 -9.0222 0.0000 62.6531
#
#
#
# Elastic Compliance Matrix: (Units=1/GPa)
#
#
# Indices 1 2 3 4 5 6 
#
# 1 0.009974 -0.002201 -0.001382 0.000000 -0.001403 0.000000
# 2 -0.002201 0.013735 -0.002708 0.000000 -0.003991 0.000000
# 3 -0.001382 -0.002708 0.005618 0.000000 0.001994 0.000000
# 4 0.000000 0.000000 0.000000 0.044960 0.000000 0.006474
# 5 -0.001403 -0.003991 0.001994 0.000000 0.044265 0.000000
# 6 0.000000 0.000000 0.000000 0.006474 0.000000 0.016893
#
#
# Mechanical properties :
#
#
# Convention : Reuss Voigt Hill
#
# Bulk Modulus (GPa) = 59.72097 70.85821 65.28959
# Shear Modulus (GPa) = 32.55013 41.89722 37.22368
#
# Velocity S-wave (km/s) = 3.80075 4.31206 4.06445
# Velocity P-wave (km/s) = 6.76498 7.49924 7.14155
#
# Compressibility (1/GPa) = 0.01674454
#
# Stress axis : x y z
#
# Youngs Moduli (GPa) = 100.25858 72.80625 178.00889
#
# Poissons Ratio (x) = 0.16027 0.24597
# Poissons Ratio (y) = 0.22070 0.48206
# Poissons Ratio (z) = 0.13854 0.19717
#
# Static dielectric constant tensor:
#      x y z
#    x 1.999340 0.000000 0.046790 
#    y 0.000000 1.898400 0.000000 
#    z 0.046790 0.000000 1.890690 
# 
# From -- ./inp_files/129593.got.cif
#   From: 2010.05.17/outbox.cif.g08.bks.cpg/sg12_65_cif.got.tgz:129593.got - 2010.06.03 13:09:07.
