data_PCOD9195099
_publ_section_title
;
Structure prediction by ZEFSAII (Michael W. Deem and Ramdas Pophale) SiO2 
 PCOD9195099
Probable space group: C 2/M
;
_chemical_formula_sum "Si O2"
_cell_formula_units_Z 64
_cell_length_a 10.172392
_cell_length_b 28.455611
_cell_length_c 14.945323
_cell_angle_alpha 90.000000
_cell_angle_beta 128.002000
_cell_angle_gamma 90.000000
_cell_volume 3408.918419
_symmetry_space_group_name_H-M "C 2/M"
_symmetry_group_IT_number 12
_symmetry_cell_setting 'monoclinic'
loop_
_space_group_symop_operation_xyz
x,y,z
-x,y,-z
-x,-y,-z
x,-y,z
1/2+x,1/2+y,z
1/2-x,1/2+y,-z
1/2-x,1/2-y,-z
1/2+x,1/2-y,z
loop_
_atom_site_type_symbol
_atom_site_label
_atom_site_fract_x
_atom_site_fract_y
_atom_site_fract_z
Si Si1 0.399006 0.727109 0.119671
Si Si2 0.383358 0.879072 0.814315
Si Si3 0.972954 0.349099 0.594185
Si Si4 0.727023 0.869435 0.039141
Si Si5 0.785009 0.729084 0.255624
Si Si6 0.994009 0.445050 0.704456
Si Si7 0.190440 0.189189 0.599645
Si Si8 0.691905 0.549727 0.060058
O O1 0.354075 0.672516 0.102933
O O2 0.585300 0.732058 0.159141
O O3 0.379989 0.747199 0.211963
O O4 0.250000 0.750000 0.000000
O O5 0.305535 0.890813 0.876996
O O6 0.421369 0.923900 0.767643
O O7 0.271454 0.843538 0.710659
O O8 0.554738 0.853450 0.917926
O O9 0.953254 0.403416 0.617521
O O10 0.813518 0.320101 0.566904
O O11 0.000000 0.347098 0.500000
O O12 0.135448 0.322770 0.703471
O O13 0.788237 0.908889 0.999556
O O14 0.814813 0.758802 0.359288
O O15 0.946901 0.500000 0.667698
O O16 0.192874 0.443655 0.804874
O O17 0.000000 0.175446 0.500000
O O18 0.751054 0.500000 0.045039
O O19 0.500000 0.546894 0.000000
#
# Coordination Sequence:
#
# PCOD9195099 Si02
#       8
#     8   8   8   8   8   8   8   8
#     4  12  26  38  61  92 130 171 204 246 307 370
#     4   9  19  37  60  92 117 154 205 248 301 372
#     4  11  26  42  63  94 118 158 221 264 310 376
#     4  10  20  34  62  85 124 158 201 249 295 362
#     4  12  25  42  61  90 129 167 211 249 305 372
#     4   9  20  40  64  87 121 159 195 257 319 370
#     4  11  23  42  64  82 123 166 203 259 316 362
#     4   9  19  34  54  85 122 155 190 237 303 370
#
# _framework density 18.774283
#
# number of rings (size 3 to 8) (size 9 to 14) (size 15 to 20)
#    0.000    1.625    2.500    1.500    8.750    1.750 
#    0.000    2.500    0.000    6.000    0.000    0.000 
#    0.000    0.000    0.000    0.000    0.000    0.000 
#
# Total GULP energy -178374.598978 kJ/mol
# GULP energy per Si atom -5574.206218 kJ/mol
# Density = 1.873155 g / cm^3
# Si number density = 18.774283 Si / 1000 Ang^3
#
#
#
# Elastic Constant Matrix: (Units=GPa)
#
#
# Indices 1 2 3 4 5 6 
#
# 1 74.3485 9.2834 27.8898 0.0000 4.7265 0.0000
# 2 9.2834 87.5713 15.3906 0.0000 -4.9344 0.0000
# 3 27.8898 15.3906 61.0625 0.0000 0.1443 0.0000
# 4 0.0000 0.0000 0.0000 21.2396 0.0000 1.6276
# 5 4.7265 -4.9344 0.1443 0.0000 33.8675 0.0000
# 6 0.0000 0.0000 0.0000 1.6276 0.0000 -0.4640
#
#
#
# Elastic Compliance Matrix: (Units=1/GPa)
#
#
# Indices 1 2 3 4 5 6 
#
# 1 0.016430 -0.000582 -0.007352 0.000000 -0.002346 0.000000
# 2 -0.000582 0.012074 -0.002782 0.000000 0.001852 0.000000
# 3 -0.007352 -0.002782 0.020435 0.000000 0.000534 0.000000
# 4 0.000000 0.000000 0.000000 0.037109 0.000000 0.130152
# 5 -0.002346 0.001852 0.000534 0.000000 0.030122 0.000000
# 6 0.000000 0.000000 0.000000 0.130152 0.000000 -1.698463
#
#
# Mechanical properties :
#
#
# Convention : Reuss Voigt Hill
#
# Bulk Modulus (GPa) = 36.35416 36.45665 36.40540
# Shear Modulus (GPa) = -3.22229 22.28983 9.53377
#
# Velocity S-wave (km/s) = -1.31151 3.44939 2.25591
# Velocity P-wave (km/s) = 4.13672 5.94348 5.12042
#
# Compressibility (1/GPa) = 0.02750717
#
# Stress axis : x y z
#
# Youngs Moduli (GPa) = 60.86458 82.82098 48.93667
#
# Poissons Ratio (x) = 0.04819 0.35979
# Poissons Ratio (y) = 0.03541 0.13614
# Poissons Ratio (z) = 0.44748 0.23040
#
# Static dielectric constant tensor:
#      x y z
#    x 1.655730 0.000000 -0.002010 
#    y 0.000000 1.688440 0.000000 
#    z -0.002010 0.000000 1.583250 
# 
# From -- ./inp_files/201343.got.cif
#   From: 2010.05.17/outbox.cif.g08.bks.cpg/sg12_101_cif.got.tgz:201343.got - 2010.06.03 13:09:07.
