data_PCOD9195481
_publ_section_title
;
Structure prediction by ZEFSAII (Michael W. Deem and Ramdas Pophale) SiO2 
 PCOD9195481
Probable space group: C 2/M
;
_chemical_formula_sum "Si O2"
_cell_formula_units_Z 56
_cell_length_a 17.814231
_cell_length_b 18.103197
_cell_length_c 10.090727
_cell_angle_alpha 90.000000
_cell_angle_beta 101.736730
_cell_angle_gamma 90.000000
_cell_volume 3186.167377
_symmetry_space_group_name_H-M "C 2/M"
_symmetry_group_IT_number 12
_symmetry_cell_setting 'monoclinic'
loop_
_space_group_symop_operation_xyz
x,y,z
-x,y,-z
-x,-y,-z
x,-y,z
1/2+x,1/2+y,z
1/2-x,1/2+y,-z
1/2-x,1/2-y,-z
1/2+x,1/2-y,z
loop_
_atom_site_type_symbol
_atom_site_label
_atom_site_fract_x
_atom_site_fract_y
_atom_site_fract_z
Si Si1 0.922248 0.084663 0.548866
Si Si2 0.460700 0.158389 0.849640
Si Si3 0.762632 0.086471 0.352989
Si Si4 0.679256 0.085466 0.074849
Si Si5 0.609698 0.089927 0.776848
Si Si6 0.637399 0.722034 0.343868
Si Si7 0.806464 0.675065 0.424907
O O1 0.851540 0.090068 0.421091
O O2 0.904612 0.143971 0.655414
O O3 0.000000 0.100719 0.500000
O O4 0.924333 0.000000 0.598599
O O5 0.401015 0.095850 0.876336
O O6 0.525966 0.123497 0.779616
O O7 0.410637 0.222045 0.763019
O O8 0.500000 0.185670 0.000000
O O9 0.741105 0.117021 0.200276
O O10 0.718348 0.127786 0.454684
O O11 0.740154 0.000000 0.348290
O O12 0.698268 0.000000 0.062936
O O13 0.662989 0.113780 0.921557
O O14 0.646426 0.125667 0.659889
O O15 0.606297 0.000000 0.769419
O O16 0.726215 0.706194 0.337167
O O17 0.644900 0.758626 0.493357
#
# Coordination Sequence:
#
# PCOD9195481 Si02
#       7
#     8   8   8   8   8   8   8
#     4   9  19  34  54  77  99 132 181 234 281 324
#     4  10  20  36  54  79 116 153 185 216 270 335
#     4   9  16  31  55  78 105 144 182 218 263 323
#     4   9  17  33  54  77 113 155 187 214 257 330
#     4  10  21  35  55  86 117 148 184 227 273 317
#     4  10  21  36  55  75 110 143 180 223 283 326
#     4  10  20  35  54  79 110 142 181 229 269 322
#
# _framework density 17.575975
#
# number of rings (size 3 to 8) (size 9 to 14) (size 15 to 20)
#    0.000    2.429    1.429    0.857    2.000    2.286 
#    0.000    5.000    0.000    0.429    0.000    0.000 
#    0.000    0.000    0.000    0.000    0.000    0.000 
#
# Total GULP energy -155922.152447 kJ/mol
# GULP energy per Si atom -5568.648302 kJ/mol
# Density = 1.753597 g / cm^3
# Si number density = 17.575975 Si / 1000 Ang^3
#
#
#
# Elastic Constant Matrix: (Units=GPa)
#
#
# Indices 1 2 3 4 5 6 
#
# 1 47.8835 22.5379 26.1304 0.0000 -5.8302 0.0000
# 2 22.5379 60.9364 14.2597 0.0000 -2.0064 0.0000
# 3 26.1304 14.2597 43.1960 0.0000 -0.7854 0.0000
# 4 0.0000 0.0000 0.0000 22.0231 0.0000 3.9862
# 5 -5.8302 -2.0064 -0.7854 0.0000 18.7490 0.0000
# 6 0.0000 0.0000 0.0000 3.9862 0.0000 26.2022
#
#
#
# Elastic Compliance Matrix: (Units=1/GPa)
#
#
# Indices 1 2 3 4 5 6 
#
# 1 0.036580 -0.008751 -0.019064 0.000000 0.009640 0.000000
# 2 -0.008751 0.019930 -0.001297 0.000000 -0.000643 0.000000
# 3 -0.019064 -0.001297 0.035027 0.000000 -0.004600 0.000000
# 4 0.000000 0.000000 0.000000 0.046693 0.000000 -0.007103
# 5 0.009640 -0.000643 -0.004600 0.000000 0.056072 0.000000
# 6 0.000000 0.000000 0.000000 -0.007103 0.000000 0.039245
#
#
# Mechanical properties :
#
#
# Convention : Reuss Voigt Hill
#
# Bulk Modulus (GPa) = 30.01873 30.87467 30.44670
# Shear Modulus (GPa) = 16.50843 19.33405 17.92124
#
# Velocity S-wave (km/s) = 3.06806 3.32026 3.19665
# Velocity P-wave (km/s) = 5.44676 5.68361 5.56644
#
# Compressibility (1/GPa) = 0.03331254
#
# Stress axis : x y z
#
# Youngs Moduli (GPa) = 27.33729 50.17679 28.54919
#
# Poissons Ratio (x) = 0.43909 0.54427
# Poissons Ratio (y) = 0.23923 0.03703
# Poissons Ratio (z) = 0.52116 0.06508
#
# Static dielectric constant tensor:
#      x y z
#    x 1.600360 0.000000 0.036090 
#    y 0.000000 1.630610 0.000000 
#    z 0.036090 0.000000 1.608580 
# 
# From -- ./inp_files/76877.got.cif
#   From: 2010.05.17/outbox.cif.g08.bks.cpg/sg12_39_cif.got.tgz:76877.got - 2010.06.03 13:09:07.
