data_PCOD9195722
_publ_section_title
;
Structure prediction by ZEFSAII (Michael W. Deem and Ramdas Pophale) SiO2 
 PCOD9195722
Probable space group: C 2/M
;
_chemical_formula_sum "Si O2"
_cell_formula_units_Z 56
_cell_length_a 19.579225
_cell_length_b 17.601005
_cell_length_c 9.480408
_cell_angle_alpha 90.000000
_cell_angle_beta 55.642034
_cell_angle_gamma 90.000000
_cell_volume 2697.066596
_symmetry_space_group_name_H-M "C 2/M"
_symmetry_group_IT_number 12
_symmetry_cell_setting 'monoclinic'
loop_
_space_group_symop_operation_xyz
x,y,z
-x,y,-z
-x,-y,-z
x,-y,z
1/2+x,1/2+y,z
1/2-x,1/2+y,-z
1/2-x,1/2-y,-z
1/2+x,1/2-y,z
loop_
_atom_site_type_symbol
_atom_site_label
_atom_site_fract_x
_atom_site_fract_y
_atom_site_fract_z
Si Si1 0.611503 0.415471 0.008003
Si Si2 0.468222 0.909461 0.375938
Si Si3 0.991242 0.832109 0.342653
Si Si4 0.200924 0.682704 0.471093
Si Si5 0.220861 0.229024 0.883041
Si Si6 0.358834 0.587451 0.341158
Si Si7 0.945641 0.308060 0.922416
O O1 0.643339 0.500000 0.985325
O O2 0.543580 0.399197 0.205935
O O3 0.680282 0.352932 0.946910
O O4 0.590266 0.406161 0.866132
O O5 0.500000 0.893842 0.500000
O O6 0.389713 0.856773 0.417095
O O7 0.540139 0.884595 0.182481
O O8 0.449728 0.000000 0.389116
O O9 0.898838 0.854348 0.404514
O O10 0.000000 0.826593 0.500000
O O11 0.023859 0.758388 0.220502
O O12 0.250000 0.750000 0.500000
O O13 0.205409 0.719100 0.310788
O O14 0.266154 0.613639 0.413940
O O15 0.250000 0.250000 0.000000
O O16 0.147647 0.286438 0.923768
O O17 0.361938 0.500000 0.383781
O O18 0.000000 0.306729 0.000000
#
# Coordination Sequence:
#
# PCOD9195722 Si02
#       7
#     8   8   8   8   8   8   8
#     4   9  19  35  54  77 110 152 196 242 300 373
#     4  11  24  42  66  97 133 170 211 264 323 380
#     4  11  21  33  54  85 119 154 198 252 308 367
#     4  11  22  39  62  89 120 159 207 259 314 369
#     4  10  21  37  59  85 114 151 202 257 308 367
#     4  10  20  35  55  79 112 154 197 243 300 370
#     4  11  22  41  63  86 118 163 212 250 301 372
#
# _framework density 20.763297999999999
#
# number of rings (size 3 to 8) (size 9 to 14) (size 15 to 20)
#    0.000    1.571    0.000    6.857    0.000    6.571 
#    0.000    0.714    0.000    0.857    0.000    0.000 
#    0.000    0.000    0.000    0.000    0.000    0.000 
#
# Total GULP energy -156056.998994 kJ/mol
# GULP energy per Si atom -5573.464250 kJ/mol
# Density = 2.071604 g / cm^3
# Si number density = 20.763298 Si / 1000 Ang^3
#
#
#
# Elastic Constant Matrix: (Units=GPa)
#
#
# Indices 1 2 3 4 5 6 
#
# 1 56.1930 26.4110 6.6507 0.0000 10.6102 0.0000
# 2 26.4110 90.1051 26.5722 0.0000 0.6174 0.0000
# 3 6.6507 26.5722 64.9085 0.0000 16.0337 0.0000
# 4 0.0000 0.0000 0.0000 3.9498 0.0000 48.0641
# 5 10.6102 0.6174 16.0337 0.0000 41.3811 0.0000
# 6 0.0000 0.0000 0.0000 48.0641 0.0000 -59.8123
#
#
#
# Elastic Compliance Matrix: (Units=1/GPa)
#
#
# Indices 1 2 3 4 5 6 
#
# 1 0.022072 -0.007081 0.002222 0.000000 -0.006414 0.000000
# 2 -0.007081 0.015046 -0.006444 0.000000 0.004088 0.000000
# 3 0.002222 -0.006444 0.019832 0.000000 -0.008158 0.000000
# 4 0.000000 0.000000 0.000000 0.023489 0.000000 0.018875
# 5 -0.006414 0.004088 -0.008158 0.000000 0.028910 0.000000
# 6 0.000000 0.000000 0.000000 0.018875 0.000000 -0.001551
#
#
# Mechanical properties :
#
#
# Convention : Reuss Voigt Hill
#
# Bulk Modulus (GPa) = 29.11727 36.71938 32.91833
# Shear Modulus (GPa) = 35.24820 7.20855 21.22838
#
# Velocity S-wave (km/s) = 4.12469 1.86529 3.20097
# Velocity P-wave (km/s) = 6.06118 4.72887 5.43600
#
# Compressibility (1/GPa) = 0.03434388
#
# Stress axis : x y z
#
# Youngs Moduli (GPa) = 45.30616 66.46326 50.42445
#
# Poissons Ratio (x) = 0.47062 -0.11203
# Poissons Ratio (y) = 0.32081 0.32492
# Poissons Ratio (z) = -0.10066 0.42827
#
# Static dielectric constant tensor:
#      x y z
#    x 1.426090 0.000000 -0.096430 
#    y 0.000000 1.768270 0.000000 
#    z -0.096430 0.000000 1.761580 
# 
# From -- ./inp_files/87802.got.cif
#   From: 2010.05.17/outbox.cif.g08.bks.cpg/sg12_44_cif.got.tgz:87802.got - 2010.06.03 13:09:07.
