data_PCOD9195750
_publ_section_title
;
Structure prediction by ZEFSAII (Michael W. Deem and Ramdas Pophale) SiO2 
 PCOD9195750
Probable space group: C 2/M
;
_chemical_formula_sum "Si O2"
_cell_formula_units_Z 40
_cell_length_a 14.546660
_cell_length_b 8.658828
_cell_length_c 22.688658
_cell_angle_alpha 90.000000
_cell_angle_beta 132.259349
_cell_angle_gamma 90.000000
_cell_volume 2115.078776
_symmetry_space_group_name_H-M "C 2/M"
_symmetry_group_IT_number 12
_symmetry_cell_setting 'monoclinic'
loop_
_space_group_symop_operation_xyz
x,y,z
-x,y,-z
-x,-y,-z
x,-y,z
1/2+x,1/2+y,z
1/2-x,1/2+y,-z
1/2-x,1/2-y,-z
1/2+x,1/2-y,z
loop_
_atom_site_type_symbol
_atom_site_label
_atom_site_fract_x
_atom_site_fract_y
_atom_site_fract_z
Si Si1 0.874472 0.816019 0.879939
Si Si2 0.772834 0.816528 0.292814
Si Si3 0.849202 0.314902 0.996420
Si Si4 0.765975 0.817947 0.602559
Si Si5 0.058849 0.815646 0.433259
O O1 0.789520 0.769306 0.788507
O O2 0.012419 0.747054 0.929985
O O3 0.883287 0.000000 0.889766
O O4 0.823671 0.744779 0.919084
O O5 0.708696 0.773593 0.326845
O O6 0.916616 0.769912 0.363779
O O7 0.768197 0.000000 0.280517
O O8 0.849045 0.500000 0.997237
O O9 0.750000 0.250000 0.000000
O O10 0.866971 0.785904 0.595357
O O11 0.634756 0.767489 0.517534
O O12 0.765608 0.000000 0.614657
O O13 0.063369 0.000000 0.446999
#
# Coordination Sequence:
#
# PCOD9195750 Si02
#       5
#     8   8   8   8   8
#     4  11  23  40  60  88 120 150 191 239 285 340
#     4  11  22  37  56  80 113 151 188 231 286 342
#     4  11  22  41  66  90 117 152 189 229 283 343
#     4  10  20  35  55  80 109 144 190 239 284 335
#     4   9  20  37  55  76 108 149 189 230 282 341
#
# _framework density 18.911825
#
# number of rings (size 3 to 8) (size 9 to 14) (size 15 to 20)
#    0.000    1.600    0.000    6.600    0.000    6.400 
#    0.000    6.000    0.000    0.000    0.000    0.000 
#    0.000    0.000    0.000    0.000    0.000    0.000 
#
# Total GULP energy -111805.393542 kJ/mol
# GULP energy per Si atom -5590.269677 kJ/mol
# Density = 1.886878 g / cm^3
# Si number density = 18.911825 Si / 1000 Ang^3
#
#
#
# Elastic Constant Matrix: (Units=GPa)
#
#
# Indices 1 2 3 4 5 6 
#
# 1 100.3576 47.6474 39.8850 0.0000 -16.5697 0.0000
# 2 47.6474 120.3226 44.2557 0.0000 -10.9177 0.0000
# 3 39.8850 44.2557 93.0175 0.0000 -17.7507 0.0000
# 4 0.0000 0.0000 0.0000 36.9477 0.0000 -3.9413
# 5 -16.5697 -10.9177 -17.7507 0.0000 12.9550 0.0000
# 6 0.0000 0.0000 0.0000 -3.9413 0.0000 29.4621
#
#
#
# Elastic Compliance Matrix: (Units=1/GPa)
#
#
# Indices 1 2 3 4 5 6 
#
# 1 0.014744 -0.003940 -0.002007 0.000000 0.012787 0.000000
# 2 -0.003940 0.011192 -0.003788 0.000000 -0.000797 0.000000
# 3 -0.002007 -0.003788 0.016674 0.000000 0.017087 0.000000
# 4 0.000000 0.000000 0.000000 0.027457 0.000000 0.003673
# 5 0.012787 -0.000797 0.017087 0.000000 0.116286 0.000000
# 6 0.000000 0.000000 0.000000 0.003673 0.000000 0.034433
#
#
# Mechanical properties :
#
#
# Convention : Reuss Voigt Hill
#
# Bulk Modulus (GPa) = 43.21443 64.14154 53.67798
# Shear Modulus (GPa) = 20.16371 28.00028 24.08199
#
# Velocity S-wave (km/s) = 3.26881 3.85199 3.57232
# Velocity P-wave (km/s) = 6.09483 7.33304 6.74242
#
# Compressibility (1/GPa) = 0.02314042
#
# Stress axis : x y z
#
# Youngs Moduli (GPa) = 67.82426 89.34958 59.97262
#
# Poissons Ratio (x) = 0.35204 0.12039
# Poissons Ratio (y) = 0.26723 0.22715
# Poissons Ratio (z) = 0.13615 0.33842
#
# Static dielectric constant tensor:
#      x y z
#    x 1.656410 0.000000 -0.002960 
#    y 0.000000 1.635740 0.000000 
#    z -0.002960 0.000000 1.624700 
# 
# From -- ./inp_files/308683.got.cif
#   From: 2010.05.17/outbox.cif.g08.bks.cpg/sg12_155_cif.got.tgz:308683.got - 2010.06.03 13:09:07.
