data_PCOD9195083
_publ_section_title
;
Structure prediction by ZEFSAII (Michael W. Deem and Ramdas Pophale) SiO2 
 PCOD9195083
Probable space group: C 2/M
;
_chemical_formula_sum "Si O2"
_cell_formula_units_Z 44
_cell_length_a 23.394450
_cell_length_b 12.076375
_cell_length_c 6.809919
_cell_angle_alpha 90.000000
_cell_angle_beta 66.604829
_cell_angle_gamma 90.000000
_cell_volume 1765.768626
_symmetry_space_group_name_H-M "C 2/M"
_symmetry_group_IT_number 12
_symmetry_cell_setting 'monoclinic'
loop_
_space_group_symop_operation_xyz
x,y,z
-x,y,-z
-x,-y,-z
x,-y,z
1/2+x,1/2+y,z
1/2-x,1/2+y,-z
1/2-x,1/2-y,-z
1/2+x,1/2-y,z
loop_
_atom_site_type_symbol
_atom_site_label
_atom_site_fract_x
_atom_site_fract_y
_atom_site_fract_z
Si Si1 0.392148 0.741067 0.907887
Si Si2 0.282143 0.500000 0.723119
Si Si3 0.024988 0.767138 0.692960
Si Si4 0.910838 0.000000 0.306761
Si Si5 0.142158 0.368899 0.430721
Si Si6 0.870193 0.000000 0.911557
Si Si7 0.763158 0.738648 0.216002
O O1 0.460749 0.761759 0.892229
O O2 0.372848 0.833099 0.775266
O O3 0.394792 0.618636 0.804053
O O4 0.335115 0.729207 0.137390
O O5 0.348716 0.500000 0.523945
O O6 0.246654 0.610767 0.723230
O O7 0.298940 0.500000 0.934073
O O8 0.083538 0.684517 0.623631
O O9 0.000000 0.761326 0.500000
O O10 0.048547 0.890380 0.710175
O O11 0.887638 0.000000 0.114677
O O12 0.145702 0.500000 0.448109
O O13 0.208245 0.310264 0.386932
O O14 0.750000 0.750000 0.000000
#
# Coordination Sequence:
#
# PCOD9195083 Si02
#       7
#     8   4   8   4   8   4   8
#     4  10  22  34  58  93 126 167 215 268 323 390
#     4  12  20  44  68  99 134 170 219 284 331 391
#     4  10  20  39  59  93 135 167 217 277 324 389
#     4  12  24  41  70 100 132 174 222 275 339 398
#     4  10  20  34  61  93 127 173 219 265 324 395
#     4  12  23  41  67 104 131 174 218 278 343 383
#     4  10  20  34  64  93 124 168 219 266 330 387
#
# _framework density 24.918326
#
# number of rings (size 3 to 8) (size 9 to 14) (size 15 to 20)
#    0.000    1.455    5.455    1.909    6.364    4.727 
#    0.000    0.909    0.000    1.091    0.000    6.364 
#    0.000    0.000    0.000    0.000    0.000    0.000 
#
# Total GULP energy -123134.033228 kJ/mol
# GULP energy per Si atom -5597.001510 kJ/mol
# Density = 2.486161 g / cm^3
# Si number density = 24.918326 Si / 1000 Ang^3
#
#
#
# Elastic Constant Matrix: (Units=GPa)
#
#
# Indices 1 2 3 4 5 6 
#
# 1 160.2744 72.9969 69.1616 0.0000 -41.8095 0.0000
# 2 72.9969 221.7656 50.7211 0.0000 -40.9264 0.0000
# 3 69.1616 50.7211 106.4727 0.0000 -43.7310 0.0000
# 4 0.0000 0.0000 0.0000 15.9825 0.0000 -10.8933
# 5 -41.8095 -40.9264 -43.7310 0.0000 79.7933 0.0000
# 6 0.0000 0.0000 0.0000 -10.8933 0.0000 35.7453
#
#
#
# Elastic Compliance Matrix: (Units=1/GPa)
#
#
# Indices 1 2 3 4 5 6 
#
# 1 0.009454 -0.001766 -0.004694 0.000000 0.001475 0.000000
# 2 -0.001766 0.005564 -0.000918 0.000000 0.001425 0.000000
# 3 -0.004694 -0.000918 0.015066 0.000000 0.005327 0.000000
# 4 0.000000 0.000000 0.000000 0.078971 0.000000 0.024066
# 5 0.001475 0.001425 0.005327 0.000000 0.016956 0.000000
# 6 0.000000 0.000000 0.000000 0.024066 0.000000 0.035310
#
#
# Mechanical properties :
#
#
# Convention : Reuss Voigt Hill
#
# Bulk Modulus (GPa) = 65.23837 97.14132 81.18984
# Shear Modulus (GPa) = 27.59606 46.01309 36.80458
#
# Velocity S-wave (km/s) = 3.33146 4.30182 3.84736
# Velocity P-wave (km/s) = 6.40593 7.98390 7.23805
#
# Compressibility (1/GPa) = 0.01532840
#
# Stress axis : x y z
#
# Youngs Moduli (GPa) = 105.77562 179.74236 66.37417
#
# Poissons Ratio (x) = 0.31744 0.31154
# Poissons Ratio (y) = 0.18681 0.06092
# Poissons Ratio (z) = 0.49648 0.16496
#
# Static dielectric constant tensor:
#      x y z
#    x 1.976680 0.000000 0.007040 
#    y 0.000000 1.890930 0.000000 
#    z 0.007040 0.000000 2.118020 
# 
# From -- ./inp_files/94842.got.cif
#   From: 2010.05.17/outbox.cif.g08.bks.cpg/sg12_48_cif.got.tgz:94842.got - 2010.06.03 13:09:07.
