data_PCOD9195848
_publ_section_title
;
Structure prediction by ZEFSAII (Michael W. Deem and Ramdas Pophale) SiO2 
 PCOD9195848
Probable space group: C 2/M
;
_chemical_formula_sum "Si O2"
_cell_formula_units_Z 64
_cell_length_a 17.561834
_cell_length_b 15.150456
_cell_length_c 23.907410
_cell_angle_alpha 90.000000
_cell_angle_beta 29.613228
_cell_angle_gamma 90.000000
_cell_volume 3143.260637
_symmetry_space_group_name_H-M "C 2/M"
_symmetry_group_IT_number 12
_symmetry_cell_setting 'monoclinic'
loop_
_space_group_symop_operation_xyz
x,y,z
-x,y,-z
-x,-y,-z
x,-y,z
1/2+x,1/2+y,z
1/2-x,1/2+y,-z
1/2-x,1/2-y,-z
1/2+x,1/2-y,z
loop_
_atom_site_type_symbol
_atom_site_label
_atom_site_fract_x
_atom_site_fract_y
_atom_site_fract_z
Si Si1 0.847701 0.105207 0.943599
Si Si2 0.906465 0.780687 0.369737
Si Si3 0.203217 0.402471 0.427410
Si Si4 0.442570 0.791113 0.825911
Si Si5 0.220754 0.158469 0.350554
Si Si6 0.994949 0.098180 0.410771
Si Si7 0.636478 0.842315 0.352120
Si Si8 0.591557 0.602584 0.888466
O O1 0.888894 0.190425 0.877298
O O2 0.979669 0.105883 0.906538
O O3 0.838065 0.000000 0.930313
O O4 0.689649 0.139167 0.073408
O O5 0.750000 0.750000 0.500000
O O6 0.837988 0.842207 0.364142
O O7 0.009460 0.711315 0.270130
O O8 0.999586 0.835087 0.356336
O O9 0.223713 0.500000 0.436630
O O10 0.193482 0.405055 0.366303
O O11 0.037190 0.365666 0.552139
O O12 0.599068 0.822953 0.757341
O O13 0.153012 0.096458 0.345409
O O14 0.148411 0.249840 0.375524
O O15 0.139839 0.128397 0.459872
O O16 0.958536 0.000000 0.414106
O O17 0.752987 0.848190 0.226999
O O18 0.630008 0.500000 0.875492
O O19 0.500000 0.638893 0.000000
#
# Coordination Sequence:
#
# PCOD9195848 Si02
#       8
#     8   8   8   8   8   8   8   8
#     4  10  23  43  65  91 120 161 219 269 317 379
#     4  12  22  41  59  91 129 163 205 255 323 385
#     4  11  21  32  55  87 121 155 197 248 307 379
#     4  11  23  42  68  92 123 171 214 267 326 375
#     4  11  20  40  63  86 121 167 215 247 310 382
#     4  11  24  39  61  93 132 170 210 260 314 386
#     4  11  19  35  57  86 117 162 199 243 307 375
#     4  10  20  35  55  82 118 154 196 252 309 369
#
# _framework density 20.361021999999998
#
# number of rings (size 3 to 8) (size 9 to 14) (size 15 to 20)
#    0.000    1.125    3.750    4.875    0.000    5.000 
#    0.000    1.250    0.000    0.000    0.000    2.625 
#    0.000    0.000    0.000    0.000    0.000    0.000 
#
# Total GULP energy -178523.850970 kJ/mol
# GULP energy per Si atom -5578.870343 kJ/mol
# Density = 2.031468 g / cm^3
# Si number density = 20.361022 Si / 1000 Ang^3
#
#
#
# Elastic Constant Matrix: (Units=GPa)
#
#
# Indices 1 2 3 4 5 6 
#
# 1 60.9834 1.4188 23.0892 0.0016 -5.8377 -0.0028
# 2 1.4188 84.9650 19.3335 0.0036 -5.3016 -0.0040
# 3 23.0892 19.3335 138.6463 0.0080 -4.4036 -0.0115
# 4 0.0016 0.0036 0.0080 32.2867 -0.0023 -28.7514
# 5 -5.8377 -5.3016 -4.4036 -0.0023 28.1373 0.0035
# 6 -0.0028 -0.0040 -0.0115 -28.7514 0.0035 58.3125
#
#
#
# Elastic Compliance Matrix: (Units=1/GPa)
#
#
# Indices 1 2 3 4 5 6 
#
# 1 0.017819 0.000581 -0.002942 0.000000 0.003346 0.000000
# 2 0.000581 0.012291 -0.001742 -0.000001 0.002164 0.000000
# 3 -0.002942 -0.001742 0.007955 -0.000001 0.000306 0.000001
# 4 0.000000 -0.000001 -0.000001 0.055216 0.000001 0.027225
# 5 0.003346 0.002164 0.000306 0.000001 0.036690 -0.000001
# 6 0.000000 0.000000 0.000001 0.027225 -0.000001 0.030572
#
#
# Mechanical properties :
#
#
# Convention : Reuss Voigt Hill
#
# Bulk Modulus (GPa) = 33.49143 41.36418 37.42781
# Shear Modulus (GPa) = 27.97942 39.79752 33.88847
#
# Velocity S-wave (km/s) = 3.71100 4.42587 4.08411
# Velocity P-wave (km/s) = 5.90309 6.81743 6.37667
#
# Compressibility (1/GPa) = 0.02985838
#
# Stress axis : x y z
#
# Youngs Moduli (GPa) = 56.12111 81.35869 125.70408
#
# Poissons Ratio (x) = -0.04724 0.36983
# Poissons Ratio (y) = -0.03259 0.21897
# Poissons Ratio (z) = 0.16511 0.14172
#
# Static dielectric constant tensor:
#      x y z
#    x 1.742360 0.000000 0.017790 
#    y 0.000000 1.857730 0.000000 
#    z 0.017790 0.000000 1.754730 
# 
# From -- ./inp_files/344047.got.cif
#   From: 2010.05.17/outbox.cif.g08.bks.cpg/sg12_173_cif.got.tgz:344047.got - 2010.06.03 13:09:07.
