data_PCOD9195489
_publ_section_title
;
Structure prediction by ZEFSAII (Michael W. Deem and Ramdas Pophale) SiO2 
 PCOD9195489
Probable space group: C 2/M
;
_chemical_formula_sum "Si O2"
_cell_formula_units_Z 64
_cell_length_a 15.044625
_cell_length_b 7.975075
_cell_length_c 30.703873
_cell_angle_alpha 90.000000
_cell_angle_beta 60.080780
_cell_angle_gamma 90.000000
_cell_volume 3192.955554
_symmetry_space_group_name_H-M "C 2/M"
_symmetry_group_IT_number 12
_symmetry_cell_setting 'monoclinic'
loop_
_space_group_symop_operation_xyz
x,y,z
-x,y,-z
-x,-y,-z
x,-y,z
1/2+x,1/2+y,z
1/2-x,1/2+y,-z
1/2-x,1/2-y,-z
1/2+x,1/2-y,z
loop_
_atom_site_type_symbol
_atom_site_label
_atom_site_fract_x
_atom_site_fract_y
_atom_site_fract_z
Si Si1 0.635057 0.797076 0.728231
Si Si2 0.500150 0.695683 0.368721
Si Si3 0.427993 0.195395 0.556044
Si Si4 0.593499 0.700451 0.189809
Si Si5 0.324527 0.294777 0.740218
Si Si6 0.206207 0.695288 0.615072
Si Si7 0.600272 0.201471 0.001619
Si Si8 0.170389 0.796776 0.077888
O O1 0.523621 0.735587 0.769017
O O2 0.720813 0.742093 0.741797
O O3 0.669444 0.741099 0.671617
O O4 0.632567 0.000000 0.728030
O O5 0.482274 0.500000 0.364376
O O6 0.551200 0.716363 0.403161
O O7 0.578840 0.760297 0.312750
O O8 0.391184 0.784872 0.392167
O O9 0.500000 0.262582 0.500000
O O10 0.308310 0.213794 0.574578
O O11 0.453234 0.000000 0.556026
O O12 0.607413 0.500000 0.184825
O O13 0.661291 0.763233 0.213836
O O14 0.624652 0.765252 0.134740
O O15 0.325570 0.500000 0.739499
O O16 0.232677 0.500000 0.613293
O O17 0.604912 0.242765 0.051806
O O18 0.599998 0.000000 0.997330
O O19 0.500000 0.264602 0.000000
O O20 0.711275 0.261332 0.956668
O O21 0.171414 0.000000 0.077614
#
# Coordination Sequence:
#
# PCOD9195489 Si02
#       8
#     8   8   8   8   8   8   8   8
#     4  10  20  35  55  82 111 144 187 231 274 326
#     4  11  21  38  63  88 115 151 191 234 289 344
#     4  11  25  43  62  87 117 150 191 241 294 346
#     4  10  20  35  54  79 114 150 184 224 277 338
#     4   9  18  34  55  80 109 145 184 224 275 331
#     4  11  22  38  61  89 117 149 192 237 285 345
#     4   9  18  34  57  81 104 141 191 232 276 331
#     4   9  19  34  52  79 113 146 181 229 282 331
#
# _framework density 20.044124
#
# number of rings (size 3 to 8) (size 9 to 14) (size 15 to 20)
#    0.000    2.000    2.500    1.125    0.000    3.750 
#    0.000    3.125    0.000    0.000    0.000    0.000 
#    0.000    0.000    0.000    0.000    0.000    0.000 
#
# Total GULP energy -178679.996996 kJ/mol
# GULP energy per Si atom -5583.749906 kJ/mol
# Density = 1.999850 g / cm^3
# Si number density = 20.044124 Si / 1000 Ang^3
#
#
#
# Elastic Constant Matrix: (Units=GPa)
#
#
# Indices 1 2 3 4 5 6 
#
# 1 78.6997 1.0694 -28.2697 0.0000 0.4785 0.0000
# 2 1.0694 17.2301 7.3214 0.0000 3.4540 0.0000
# 3 -28.2697 7.3214 35.1894 0.0000 -1.6747 0.0000
# 4 0.0000 0.0000 0.0000 20.4819 0.0000 0.7205
# 5 0.4785 3.4540 -1.6747 0.0000 17.5695 0.0000
# 6 0.0000 0.0000 0.0000 0.7205 0.0000 13.2667
#
#
#
# Elastic Compliance Matrix: (Units=1/GPa)
#
#
# Indices 1 2 3 4 5 6 
#
# 1 0.019040 -0.009136 0.017336 0.000000 0.002930 0.000000
# 2 -0.009136 0.071587 -0.022996 0.000000 -0.016016 0.000000
# 3 0.017336 -0.022996 0.047538 0.000000 0.008580 0.000000
# 4 0.000000 0.000000 0.000000 0.048917 0.000000 -0.002657
# 5 0.002930 -0.016016 0.008580 0.000000 0.060803 0.000000
# 6 0.000000 0.000000 0.000000 -0.002657 0.000000 0.075521
#
#
# Mechanical properties :
#
#
# Convention : Reuss Voigt Hill
#
# Bulk Modulus (GPa) = 9.21023 10.15127 9.68075
# Shear Modulus (GPa) = 12.84725 20.33015 16.58870
#
# Velocity S-wave (km/s) = 2.53444 3.18822 2.87994
# Velocity P-wave (km/s) = 3.62898 4.31607 3.98735
#
# Compressibility (1/GPa) = 0.10857492
#
# Stress axis : x y z
#
# Youngs Moduli (GPa) = 52.52031 13.96900 21.03592
#
# Poissons Ratio (x) = 0.12762 -0.36469
# Poissons Ratio (y) = 0.47981 0.48374
# Poissons Ratio (z) = -0.91051 0.32123
#
# Static dielectric constant tensor:
#      x y z
#    x 1.681830 0.000000 0.006680 
#    y 0.000000 1.719340 0.000000 
#    z 0.006680 0.000000 1.695750 
# 
# From -- ./inp_files/375004.got.cif
#   From: 2010.05.17/outbox.cif.g08.bks.cpg/sg12_188_cif.got.tgz:375004.got - 2010.06.03 13:09:07.
