data_PCOD9195504
_publ_section_title
;
Structure prediction by ZEFSAII (Michael W. Deem and Ramdas Pophale) SiO2 
 PCOD9195504
Probable space group: C 2/M
;
_chemical_formula_sum "Si O2"
_cell_formula_units_Z 42
_cell_length_a 15.419503
_cell_length_b 7.550199
_cell_length_c 16.098031
_cell_angle_alpha 90.000000
_cell_angle_beta 91.359531
_cell_angle_gamma 90.000000
_cell_volume 1873.610283
_symmetry_space_group_name_H-M "C 2/M"
_symmetry_group_IT_number 12
_symmetry_cell_setting 'monoclinic'
loop_
_space_group_symop_operation_xyz
x,y,z
-x,y,-z
-x,-y,-z
x,-y,z
1/2+x,1/2+y,z
1/2-x,1/2+y,-z
1/2-x,1/2-y,-z
1/2+x,1/2-y,z
loop_
_atom_site_type_symbol
_atom_site_label
_atom_site_fract_x
_atom_site_fract_y
_atom_site_fract_z
Si Si1 0.618204 0.802675 0.564698
Si Si2 0.777058 0.712536 0.094881
Si Si3 0.500000 0.500000 0.500000
Si Si4 0.030589 0.287645 0.909958
Si Si5 0.690387 0.713213 0.388513
Si Si6 0.872778 0.787548 0.787868
O O1 0.544796 0.655368 0.560069
O O2 0.656447 0.801297 0.471396
O O3 0.705924 0.761361 0.618775
O O4 0.587554 0.000000 0.585545
O O5 0.778558 0.500000 0.105274
O O6 0.704987 0.782384 0.156083
O O7 0.874118 0.780937 0.109501
O O8 0.750000 0.750000 0.000000
O O9 0.037046 0.500000 0.918075
O O10 0.961358 0.250298 0.837255
O O11 0.000000 0.220302 0.000000
O O12 0.675205 0.500000 0.401510
O O13 0.639947 0.775275 0.306221
O O14 0.864070 0.000000 0.782516
#
# Coordination Sequence:
#
# PCOD9195504 Si02
#       6
#     8   8   2   8   8   8
#     4  10  21  39  67  92 127 169 205 251 320 371
#     4  10  20  35  55  78 111 151 196 246 305 362
#     4  12  22  40  64 102 128 154 210 268 294 378
#     4  10  20  35  54  80 115 153 198 250 304 368
#     4   9  19  40  61  86 121 165 210 257 310 381
#     4  10  21  37  59  85 115 156 202 254 307 365
#
# _framework density 22.416613999999999
#
# number of rings (size 3 to 8) (size 9 to 14) (size 15 to 20)
#    0.000    2.095    2.857    0.286    1.333    1.905 
#    3.429    0.000    0.000    0.000    0.000    0.000 
#    0.000    0.000    0.000    0.000    0.000    0.000 
#
# Total GULP energy -117104.798602 kJ/mol
# GULP energy per Si atom -5576.418981 kJ/mol
# Density = 2.236559 g / cm^3
# Si number density = 22.416614 Si / 1000 Ang^3
#
#
#
# Elastic Constant Matrix: (Units=GPa)
#
#
# Indices 1 2 3 4 5 6 
#
# 1 97.6936 12.5463 42.7473 0.0000 32.0762 0.0000
# 2 12.5463 83.8827 -14.2447 0.0000 12.1176 0.0000
# 3 42.7473 -14.2447 113.0578 0.0000 39.6726 0.0000
# 4 0.0000 0.0000 0.0000 15.2077 0.0000 12.0797
# 5 32.0762 12.1176 39.6726 0.0000 33.7189 0.0000
# 6 0.0000 0.0000 0.0000 12.0797 0.0000 23.3558
#
#
#
# Elastic Compliance Matrix: (Units=1/GPa)
#
#
# Indices 1 2 3 4 5 6 
#
# 1 0.015003 -0.000707 -0.001435 0.000000 -0.012330 0.000000
# 2 -0.000707 0.014894 0.006448 0.000000 -0.012267 0.000000
# 3 -0.001435 0.006448 0.017942 0.000000 -0.022062 0.000000
# 4 0.000000 0.000000 0.000000 0.111607 0.000000 -0.057724
# 5 -0.012330 -0.012267 -0.022062 0.000000 0.071752 0.000000
# 6 0.000000 0.000000 0.000000 -0.057724 0.000000 0.072671
#
#
# Mechanical properties :
#
#
# Convention : Reuss Voigt Hill
#
# Bulk Modulus (GPa) = 17.71399 41.85911 29.78655
# Shear Modulus (GPa) = 15.91986 31.36215 23.64101
#
# Velocity S-wave (km/s) = 2.66781 3.74446 3.25101
# Velocity P-wave (km/s) = 4.17241 6.11624 5.23533
#
# Compressibility (1/GPa) = 0.05645255
#
# Stress axis : x y z
#
# Youngs Moduli (GPa) = 66.65311 67.13979 55.73589
#
# Poissons Ratio (x) = 0.04744 0.07999
# Poissons Ratio (y) = 0.04710 -0.35941
# Poissons Ratio (z) = 0.09566 -0.43295
#
# Static dielectric constant tensor:
#      x y z
#    x 1.885660 0.000000 -0.005100 
#    y 0.000000 1.874230 0.000000 
#    z -0.005100 0.000000 1.813310 
# 
# From -- ./inp_files/267049.got.cif
#   From: 2010.05.17/outbox.cif.g08.bks.cpg/sg12_134_cif.got.tgz:267049.got - 2010.06.03 13:09:07.
