data_PCOD9195178
_publ_section_title
;
Structure prediction by ZEFSAII (Michael W. Deem and Ramdas Pophale) SiO2 
 PCOD9195178
Probable space group: C 2/M
;
_chemical_formula_sum "Si O2"
_cell_formula_units_Z 64
_cell_length_a 20.069969
_cell_length_b 19.417076
_cell_length_c 16.557109
_cell_angle_alpha 90.000000
_cell_angle_beta 144.938693
_cell_angle_gamma 90.000000
_cell_volume 3706.544729
_symmetry_space_group_name_H-M "C 2/M"
_symmetry_group_IT_number 12
_symmetry_cell_setting 'monoclinic'
loop_
_space_group_symop_operation_xyz
x,y,z
-x,y,-z
-x,-y,-z
x,-y,z
1/2+x,1/2+y,z
1/2-x,1/2+y,-z
1/2-x,1/2-y,-z
1/2+x,1/2-y,z
loop_
_atom_site_type_symbol
_atom_site_label
_atom_site_fract_x
_atom_site_fract_y
_atom_site_fract_z
Si Si1 0.966159 0.814366 0.831587
Si Si2 0.073373 0.300988 0.828645
Si Si3 0.815277 0.189873 0.840957
Si Si4 0.357526 0.418515 0.595795
Si Si5 0.466630 0.420057 0.373672
Si Si6 0.295798 0.299473 0.160512
Si Si7 0.132107 0.420568 0.607393
Si Si8 0.396528 0.919823 0.611765
O O1 0.877561 0.800792 0.816695
O O2 0.918428 0.873877 0.726025
O O3 0.992136 0.747758 0.802965
O O4 0.087873 0.831441 0.996797
O O5 0.118623 0.254779 0.798991
O O6 0.001408 0.368103 0.732901
O O7 0.189451 0.316377 0.994998
O O8 0.757510 0.259719 0.815908
O O9 0.719733 0.131083 0.736434
O O10 0.364606 0.500000 0.622679
O O11 0.425617 0.407053 0.579843
O O12 0.220836 0.401641 0.456111
O O13 0.500000 0.410405 0.500000
O O14 0.432233 0.500000 0.328396
O O15 0.366014 0.367337 0.251349
O O16 0.156619 0.500000 0.653806
O O17 0.139205 0.414353 0.517738
O O18 0.000000 0.405268 0.500000
O O19 0.427171 0.000000 0.657519
#
# Coordination Sequence:
#
# PCOD9195178 Si02
#       8
#     8   8   8   8   8   8   8   8
#     4  10  20  37  57  83 112 149 187 233 282 333
#     4  10  21  37  57  80 113 149 189 233 279 328
#     4  10  21  35  56  84 116 146 187 230 281 337
#     4  10  20  38  59  83 115 148 189 235 279 335
#     4  10  22  40  61  85 112 145 190 240 286 331
#     4  10  21  38  57  82 115 147 187 236 280 331
#     4  10  20  35  51  76 116 152 183 223 273 333
#     4  10  21  36  55  80 111 149 189 229 275 334
#
# _framework density 17.266756000000001
#
# number of rings (size 3 to 8) (size 9 to 14) (size 15 to 20)
#    0.000    2.000    2.500    0.750    0.000    4.000 
#    0.000    1.250    0.000    0.000    0.000    7.000 
#    0.000    0.000    0.000    0.000    0.000    0.000 
#
# Total GULP energy -178563.240171 kJ/mol
# GULP energy per Si atom -5580.101255 kJ/mol
# Density = 1.722746 g / cm^3
# Si number density = 17.266756 Si / 1000 Ang^3
#
#
#
# Elastic Constant Matrix: (Units=GPa)
#
#
# Indices 1 2 3 4 5 6 
#
# 1 102.2641 48.7658 44.7708 0.0000 -0.5837 0.0000
# 2 48.7658 92.7486 74.8728 0.0000 10.9292 0.0000
# 3 44.7708 74.8728 72.3289 0.0000 9.5714 0.0000
# 4 0.0000 0.0000 0.0000 44.0801 0.0000 16.0645
# 5 -0.5837 10.9292 9.5714 0.0000 22.5835 0.0000
# 6 0.0000 0.0000 0.0000 16.0645 0.0000 28.1017
#
#
#
# Elastic Compliance Matrix: (Units=1/GPa)
#
#
# Indices 1 2 3 4 5 6 
#
# 1 0.013875 -0.002495 -0.006582 0.000000 0.004356 0.000000
# 2 -0.002495 0.066266 -0.066531 0.000000 -0.003936 0.000000
# 3 -0.006582 -0.066531 0.087436 0.000000 -0.005030 0.000000
# 4 0.000000 0.000000 0.000000 0.028656 0.000000 -0.016381
# 5 0.004356 -0.003936 -0.005030 0.000000 0.048430 0.000000
# 6 0.000000 0.000000 0.000000 -0.016381 0.000000 0.044949
#
#
# Mechanical properties :
#
#
# Convention : Reuss Voigt Hill
#
# Bulk Modulus (GPa) = 61.12105 67.12894 64.12500
# Shear Modulus (GPa) = 11.20370 25.54855 18.37612
#
# Velocity S-wave (km/s) = 2.55004 3.85078 3.26582
# Velocity P-wave (km/s) = 6.64419 7.66377 7.17212
#
# Compressibility (1/GPa) = 0.01636098
#
# Stress axis : x y z
#
# Youngs Moduli (GPa) = 72.07310 15.09080 11.43688
#
# Poissons Ratio (x) = 0.03765 0.07528
# Poissons Ratio (y) = 0.17982 0.76091
# Poissons Ratio (z) = 0.47439 1.00400
#
# Static dielectric constant tensor:
#      x y z
#    x 1.611550 0.000000 0.004390 
#    y 0.000000 1.559000 0.000000 
#    z 0.004390 0.000000 1.557490 
# 
# From -- ./inp_files/226874.got.cif
#   From: 2010.05.17/outbox.cif.g08.bks.cpg/sg12_114_cif.got.tgz:226874.got - 2010.06.03 13:09:07.
