data_PCOD9195123
_publ_section_title
;
Structure prediction by ZEFSAII (Michael W. Deem and Ramdas Pophale) SiO2 
 PCOD9195123
Probable space group: C 2/M
;
_chemical_formula_sum "Si O2"
_cell_formula_units_Z 48
_cell_length_a 14.024015
_cell_length_b 25.744695
_cell_length_c 10.910469
_cell_angle_alpha 90.000000
_cell_angle_beta 31.811263
_cell_angle_gamma 90.000000
_cell_volume 2076.420866
_symmetry_space_group_name_H-M "C 2/M"
_symmetry_group_IT_number 12
_symmetry_cell_setting 'monoclinic'
loop_
_space_group_symop_operation_xyz
x,y,z
-x,y,-z
-x,-y,-z
x,-y,z
1/2+x,1/2+y,z
1/2-x,1/2+y,-z
1/2-x,1/2-y,-z
1/2+x,1/2-y,z
loop_
_atom_site_type_symbol
_atom_site_label
_atom_site_fract_x
_atom_site_fract_y
_atom_site_fract_z
Si Si1 0.500000 0.809203 0.500000
Si Si2 0.000000 0.292137 0.000000
Si Si3 0.966424 0.062189 0.278984
Si Si4 0.865308 0.441762 0.814672
Si Si5 0.778978 0.600268 0.658445
Si Si6 0.035873 0.759199 0.222484
Si Si7 0.857620 0.148503 0.548429
O O1 0.677372 0.846686 0.315477
O O2 0.525180 0.775227 0.593916
O O3 0.175050 0.328059 0.799823
O O4 0.008316 0.259379 0.865813
O O5 0.895502 0.088437 0.230680
O O6 0.845632 0.090125 0.512643
O O7 0.949652 0.000000 0.289364
O O8 0.176241 0.075041 0.081161
O O9 0.912108 0.500000 0.802759
O O10 0.805673 0.441827 0.736245
O O11 0.044073 0.406530 0.623625
O O12 0.942874 0.814719 0.348670
O O13 0.250000 0.750000 0.000000
O O14 0.000000 0.151287 0.500000
#
# Coordination Sequence:
#
# PCOD9195123 Si02
#       7
#     4   4   8   8   8   8   8
#     4  10  22  40  67 106 137 184 226 290 360 432
#     4  12  26  48  77 108 147 188 240 298 364 434
#     4  11  24  41  64  98 137 185 242 294 350 422
#     4   9  18  34  57  88 130 175 220 283 348 407
#     4  10  20  34  63  94 135 174 230 286 358 422
#     4  12  24  46  75 105 144 186 238 296 364 433
#     4  12  27  47  71 101 140 190 242 296 354 428
#
# _framework density 23.116700000000002
#
# number of rings (size 3 to 8) (size 9 to 14) (size 15 to 20)
#    0.000    1.333    2.500    4.000    4.667    4.333 
#    0.000    0.417    0.000    0.000    0.000    0.000 
#    0.000    0.000    0.000    0.000    0.000    0.000 
#
# Total GULP energy -133984.021519 kJ/mol
# GULP energy per Si atom -5582.667563 kJ/mol
# Density = 2.306409 g / cm^3
# Si number density = 23.116700 Si / 1000 Ang^3
#
#
#
# Elastic Constant Matrix: (Units=GPa)
#
#
# Indices 1 2 3 4 5 6 
#
# 1 95.4856 21.8171 36.1019 0.0000 7.8735 0.0000
# 2 21.8171 89.2229 24.7485 0.0000 12.5281 0.0000
# 3 36.1019 24.7485 59.6932 -0.0001 0.1277 -0.0001
# 4 0.0000 0.0000 -0.0001 35.7901 0.0000 -0.1367
# 5 7.8735 12.5281 0.1277 0.0000 37.7577 0.0000
# 6 0.0000 0.0000 -0.0001 -0.1367 0.0000 17.0785
#
#
#
# Elastic Compliance Matrix: (Units=1/GPa)
#
#
# Indices 1 2 3 4 5 6 
#
# 1 0.013928 -0.000795 -0.008088 0.000000 -0.002613 0.000000
# 2 -0.000795 0.013407 -0.005068 0.000000 -0.004266 0.000000
# 3 -0.008088 -0.005068 0.023738 0.000000 0.003288 0.000000
# 4 0.000000 0.000000 0.000000 0.027942 0.000000 0.000224
# 5 -0.002613 -0.004266 0.003288 0.000000 0.028434 0.000000
# 6 0.000000 0.000000 0.000000 0.000224 0.000000 0.058555
#
#
# Mechanical properties :
#
#
# Convention : Reuss Voigt Hill
#
# Bulk Modulus (GPa) = 43.16000 45.52631 44.34315
# Shear Modulus (GPa) = 24.79779 28.90754 26.85267
#
# Velocity S-wave (km/s) = 3.27880 3.54008 3.41194
# Velocity P-wave (km/s) = 5.74848 6.03709 5.89455
#
# Compressibility (1/GPa) = 0.02316960
#
# Stress axis : x y z
#
# Youngs Moduli (GPa) = 71.79777 74.58690 42.12603
#
# Poissons Ratio (x) = 0.05932 0.34072
# Poissons Ratio (y) = 0.05710 0.21351
# Poissons Ratio (z) = 0.58071 0.37804
#
# Static dielectric constant tensor:
#      x y z
#    x 1.913740 0.000000 0.031140 
#    y 0.000000 1.900580 0.000000 
#    z 0.031140 0.000000 1.809960 
# 
# From -- ./inp_files/149680.got.cif
#   From: 2010.05.17/outbox.cif.g08.bks.cpg/sg12_75_cif.got.tgz:149680.got - 2010.06.03 13:09:07.
