data_PCOD9195400
_publ_section_title
;
Structure prediction by ZEFSAII (Michael W. Deem and Ramdas Pophale) SiO2 
 PCOD9195400
Probable space group: C 2/M
;
_chemical_formula_sum "Si O2"
_cell_formula_units_Z 48
_cell_length_a 12.604233
_cell_length_b 13.114688
_cell_length_c 18.852886
_cell_angle_alpha 90.000000
_cell_angle_beta 142.863730
_cell_angle_gamma 90.000000
_cell_volume 1881.406257
_symmetry_space_group_name_H-M "C 2/M"
_symmetry_group_IT_number 12
_symmetry_cell_setting 'monoclinic'
loop_
_space_group_symop_operation_xyz
x,y,z
-x,y,-z
-x,-y,-z
x,-y,z
1/2+x,1/2+y,z
1/2-x,1/2+y,-z
1/2-x,1/2-y,-z
1/2+x,1/2-y,z
loop_
_atom_site_type_symbol
_atom_site_label
_atom_site_fract_x
_atom_site_fract_y
_atom_site_fract_z
Si Si1 0.171407 0.887177 0.389253
Si Si2 0.263962 0.828868 0.288534
Si Si3 0.776459 0.392683 0.715298
Si Si4 0.446473 0.836575 0.659629
Si Si5 0.095812 0.166863 0.982596
Si Si6 0.368443 0.891492 0.015055
O O1 0.275629 0.883141 0.370012
O O2 0.302961 0.867078 0.524207
O O3 0.052476 0.785655 0.325575
O O4 0.090791 0.000000 0.351648
O O5 0.328144 0.712232 0.334689
O O6 0.372117 0.869942 0.279603
O O7 0.059098 0.826819 0.158392
O O8 0.677651 0.500000 0.664122
O O9 0.884064 0.385038 0.699313
O O10 0.926117 0.393011 0.855361
O O11 0.160293 0.281919 0.036185
O O12 0.255964 0.114446 0.027911
O O13 0.000000 0.122060 0.000000
O O14 0.323139 0.000000 0.956022
#
# Coordination Sequence:
#
# PCOD9195400 Si02
#       6
#     8   8   8   8   8   8
#     4  10  22  38  55  78 107 138 172 212 260 311
#     4  10  21  35  53  79 106 135 174 217 260 306
#     4   9  18  34  55  78 105 137 173 213 257 306
#     4  10  20  36  57  79 105 137 173 212 257 311
#     4  10  20  35  54  76 105 139 175 216 259 305
#     4   9  19  35  53  76 107 139 172 213 259 307
#
# _framework density 25.512830000000001
#
# number of rings (size 3 to 8) (size 9 to 14) (size 15 to 20)
#    0.000    2.333    0.000    2.000    0.000    5.333 
#    0.000    0.000    0.000    6.000    0.000    0.000 
#    0.000    0.000    0.000    0.000    0.000    0.000 
#
# Total GULP energy -134145.932350 kJ/mol
# GULP energy per Si atom -5589.413848 kJ/mol
# Density = 2.545476 g / cm^3
# Si number density = 25.512830 Si / 1000 Ang^3
#
#
#
# Elastic Constant Matrix: (Units=GPa)
#
#
# Indices 1 2 3 4 5 6 
#
# 1 149.0090 11.7022 -10.3374 0.0000 2.1562 0.0000
# 2 11.7022 163.4541 -4.5191 0.0000 -7.9713 0.0000
# 3 -10.3374 -4.5191 49.1748 0.0001 -8.2855 0.0000
# 4 0.0000 0.0000 0.0001 1.8416 0.0000 -6.5239
# 5 2.1562 -7.9713 -8.2855 0.0000 19.4013 0.0000
# 6 0.0000 0.0000 0.0000 -6.5239 0.0000 -12.4288
#
#
#
# Elastic Compliance Matrix: (Units=1/GPa)
#
#
# Indices 1 2 3 4 5 6 
#
# 1 0.006846 -0.000472 0.001331 0.000000 -0.000387 0.000000
# 2 -0.000472 0.006330 0.001002 0.000000 0.003081 0.000000
# 3 0.001331 0.001002 0.022361 0.000000 0.009813 0.000000
# 4 0.000000 0.000000 0.000000 0.189894 0.000000 -0.099676
# 5 -0.000387 0.003081 0.009813 0.000000 0.057042 0.000000
# 6 0.000000 0.000000 0.000000 -0.099676 0.000000 -0.028138
#
#
# Mechanical properties :
#
#
# Convention : Reuss Voigt Hill
#
# Bulk Modulus (GPa) = 25.47362 39.48102 32.47732
# Shear Modulus (GPa) = 18.96093 26.08233 22.52163
#
# Velocity S-wave (km/s) = 2.72911 3.20085 2.97435
# Velocity P-wave (km/s) = 4.46509 5.40084 4.95511
#
# Compressibility (1/GPa) = 0.03925630
#
# Stress axis : x y z
#
# Youngs Moduli (GPa) = 146.07086 157.98623 44.72119
#
# Poissons Ratio (x) = 0.07460 -0.05951
# Poissons Ratio (y) = 0.06897 -0.04479
# Poissons Ratio (z) = -0.19436 -0.15823
#
# Static dielectric constant tensor:
#      x y z
#    x 1.974460 0.000000 0.012880 
#    y 0.000000 2.069270 0.000000 
#    z 0.012880 0.000000 1.971400 
# 
# From -- ./inp_files/142969.got.cif
#   From: 2010.05.17/outbox.cif.g08.bks.cpg/sg12_72_cif.got.tgz:142969.got - 2010.06.03 13:09:07.
