data_PCOD9195124
_publ_section_title
;
Structure prediction by ZEFSAII (Michael W. Deem and Ramdas Pophale) SiO2 
 PCOD9195124
Probable space group: C 2/M
;
_chemical_formula_sum "Si O2"
_cell_formula_units_Z 44
_cell_length_a 22.053698
_cell_length_b 14.062249
_cell_length_c 15.384009
_cell_angle_alpha 90.000000
_cell_angle_beta 20.206039
_cell_angle_gamma 90.000000
_cell_volume 1647.875654
_symmetry_space_group_name_H-M "C 2/M"
_symmetry_group_IT_number 12
_symmetry_cell_setting 'monoclinic'
loop_
_space_group_symop_operation_xyz
x,y,z
-x,y,-z
-x,-y,-z
x,-y,z
1/2+x,1/2+y,z
1/2-x,1/2+y,-z
1/2-x,1/2-y,-z
1/2+x,1/2-y,z
loop_
_atom_site_type_symbol
_atom_site_label
_atom_site_fract_x
_atom_site_fract_y
_atom_site_fract_z
Si Si1 0.818975 0.696810 0.578865
Si Si2 0.500000 0.167919 0.000000
Si Si3 0.049820 0.500000 0.048400
Si Si4 0.833214 0.315508 0.813714
Si Si5 0.671384 0.000000 0.066703
Si Si6 0.293855 0.500000 0.349384
Si Si7 0.464871 0.347559 0.258508
Si Si8 0.561704 0.500000 0.554265
O O1 0.764309 0.587453 0.639665
O O2 0.891991 0.744415 0.388718
O O3 0.963221 0.714785 0.461187
O O4 0.655327 0.764392 0.816660
O O5 0.461286 0.093504 0.129130
O O6 0.252560 0.500000 0.745215
O O7 0.033227 0.500000 0.173503
O O8 0.853536 0.412979 0.837958
O O9 0.750000 0.250000 0.000000
O O10 0.673791 0.332488 0.961779
O O11 0.872817 0.000000 0.760182
O O12 0.378672 0.414073 0.300879
O O13 0.445799 0.409495 0.372514
#
# Coordination Sequence:
#
# PCOD9195124 Si02
#       8
#     8   4   4   8   4   4   8   4
#     4  11  22  40  59  87 121 158 209 243 303 358
#     4  11  26  39  60  82 124 173 192 243 306 374
#     4  11  22  40  59  89 124 155 198 240 309 357
#     4   9  20  38  61  86 121 156 193 248 299 354
#     4  10  20  34  63  95 111 148 204 252 295 352
#     4  11  23  33  64  93 120 152 198 262 296 358
#     4   9  19  38  63  89 120 155 201 247 314 349
#     4   9  16  36  60  88 121 154 182 246 310 363
#
# _framework density 26.701044
#
# number of rings (size 3 to 8) (size 9 to 14) (size 15 to 20)
#    0.000    2.000    1.818    1.909    0.000    6.182 
#    0.000    0.000    0.000    1.091    0.000    0.000 
#    0.000    0.000    0.000    0.000    0.000    0.000 
#
# Total GULP energy -122518.699745 kJ/mol
# GULP energy per Si atom -5569.031807 kJ/mol
# Density = 2.664027 g / cm^3
# Si number density = 26.701044 Si / 1000 Ang^3
#
#
#
# Elastic Constant Matrix: (Units=GPa)
#
#
# Indices 1 2 3 4 5 6 
#
# 1 109.7467 39.8092 21.2499 0.0003 -39.5251 -0.0002
# 2 39.8092 215.3204 51.1230 -0.0011 -29.0273 -0.0007
# 3 21.2499 51.1230 78.8931 -0.0019 -5.9322 -0.0012
# 4 0.0003 -0.0011 -0.0019 29.6895 -0.0001 -20.2795
# 5 -39.5251 -29.0273 -5.9322 -0.0001 34.0475 0.0004
# 6 -0.0002 -0.0007 -0.0012 -20.2795 0.0004 21.9432
#
#
#
# Elastic Compliance Matrix: (Units=1/GPa)
#
#
# Indices 1 2 3 4 5 6 
#
# 1 0.016346 0.000239 -0.003157 -0.000001 0.018629 -0.000002
# 2 0.000239 0.006126 -0.003669 0.000000 0.004861 0.000000
# 3 -0.003157 -0.003669 0.015597 0.000004 -0.004075 0.000004
# 4 -0.000001 0.000000 0.000004 0.091345 -0.000002 0.084419
# 5 0.018629 0.004861 -0.004075 -0.000002 0.054431 -0.000003
# 6 -0.000002 0.000000 0.000004 0.084419 -0.000003 0.123591
#
#
# Mechanical properties :
#
#
# Convention : Reuss Voigt Hill
#
# Bulk Modulus (GPa) = 40.16794 69.81381 54.99088
# Shear Modulus (GPa) = 15.20181 36.58790 25.89486
#
# Velocity S-wave (km/s) = 2.38866 3.70575 3.11755
# Velocity P-wave (km/s) = 4.76276 6.67183 5.79643
#
# Compressibility (1/GPa) = 0.02489547
#
# Stress axis : x y z
#
# Youngs Moduli (GPa) = 61.17810 163.22544 64.11642
#
# Poissons Ratio (x) = -0.03898 0.20240
# Poissons Ratio (y) = -0.01461 0.23523
# Poissons Ratio (z) = 0.19312 0.59884
#
# Static dielectric constant tensor:
#      x y z
#    x 2.145160 0.000000 -0.031260 
#    y 0.000000 1.977930 0.000000 
#    z -0.031260 0.000000 2.490710 
# 
# From -- ./inp_files/290050.got.cif
#   From: 2010.05.17/outbox.cif.g08.bks.cpg/sg12_146_cif.got.tgz:290050.got - 2010.06.03 13:09:07.
