data_PCOD9195513
_publ_section_title
;
Structure prediction by ZEFSAII (Michael W. Deem and Ramdas Pophale) SiO2 
 PCOD9195513
Probable space group: C 2/M
;
_chemical_formula_sum "Si O2"
_cell_formula_units_Z 56
_cell_length_a 16.708783
_cell_length_b 15.255201
_cell_length_c 11.209755
_cell_angle_alpha 90.000000
_cell_angle_beta 124.794271
_cell_angle_gamma 90.000000
_cell_volume 2346.449062
_symmetry_space_group_name_H-M "C 2/M"
_symmetry_group_IT_number 12
_symmetry_cell_setting 'monoclinic'
loop_
_space_group_symop_operation_xyz
x,y,z
-x,y,-z
-x,-y,-z
x,-y,z
1/2+x,1/2+y,z
1/2-x,1/2+y,-z
1/2-x,1/2-y,-z
1/2+x,1/2-y,z
loop_
_atom_site_type_symbol
_atom_site_label
_atom_site_fract_x
_atom_site_fract_y
_atom_site_fract_z
Si Si1 0.009994 0.714554 0.703931
Si Si2 0.818399 0.396507 0.547746
Si Si3 0.966621 0.904367 0.303050
Si Si4 0.272014 0.601736 0.287401
Si Si5 0.340170 0.100246 0.298368
Si Si6 0.865750 0.904705 0.957897
Si Si7 0.099498 0.714165 0.034331
O O1 0.977814 0.812887 0.646016
O O2 0.074928 0.667120 0.659422
O O3 0.916124 0.657549 0.655045
O O4 0.082400 0.717558 0.878730
O O5 0.839790 0.500000 0.574306
O O6 0.739961 0.376741 0.582816
O O7 0.793886 0.380280 0.388624
O O8 0.878944 0.892792 0.322878
O O9 0.014755 0.000000 0.363260
O O10 0.917422 0.907801 0.129814
O O11 0.241890 0.500000 0.245226
O O12 0.195806 0.663576 0.154157
O O13 0.251014 0.103221 0.129936
O O14 0.378035 0.000000 0.331357
O O15 0.895782 0.815506 0.918177
O O16 0.883749 0.000000 0.912946
O O17 0.000000 0.672927 0.000000
#
# Coordination Sequence:
#
# PCOD9195513 Si02
#       7
#     8   8   8   8   8   8   8
#     4  11  20  34  56  82 112 146 179 227 278 330
#     4  10  21  36  56  83 115 148 180 224 279 331
#     4   9  19  36  59  84 109 143 186 231 275 323
#     4  10  20  35  54  81 116 146 180 225 280 332
#     4  10  20  35  57  82 109 143 186 226 269 328
#     4   9  19  36  57  81 107 143 189 230 271 322
#     4  11  21  34  53  81 115 144 180 227 284 333
#
# _framework density 23.865850999999999
#
# number of rings (size 3 to 8) (size 9 to 14) (size 15 to 20)
#    0.000    2.000    1.429    2.571    0.000    6.286 
#    0.000    2.857    0.000    1.714    0.000    0.000 
#    0.000    0.000    0.000    0.000    0.000    0.000 
#
# Total GULP energy -156544.735960 kJ/mol
# GULP energy per Si atom -5590.883427 kJ/mol
# Density = 2.381153 g / cm^3
# Si number density = 23.865851 Si / 1000 Ang^3
#
#
#
# Elastic Constant Matrix: (Units=GPa)
#
#
# Indices 1 2 3 4 5 6 
#
# 1 55.4868 33.4217 -0.1665 0.0000 -3.1629 0.0000
# 2 33.4217 74.3766 47.0683 0.0000 1.9995 0.0000
# 3 -0.1665 47.0683 57.9946 0.0000 2.0727 0.0000
# 4 0.0000 0.0000 0.0000 18.6652 0.0000 4.2411
# 5 -3.1629 1.9995 2.0727 0.0000 24.0588 0.0000
# 6 0.0000 0.0000 0.0000 4.2411 0.0000 21.7905
#
#
#
# Elastic Compliance Matrix: (Units=1/GPa)
#
#
# Indices 1 2 3 4 5 6 
#
# 1 0.041907 -0.038926 0.031497 0.000000 0.006031 0.000000
# 2 -0.038926 0.063803 -0.051681 0.000000 -0.005968 0.000000
# 3 0.031497 -0.051681 0.059158 0.000000 0.003339 0.000000
# 4 0.000000 0.000000 0.000000 0.056054 0.000000 -0.010910
# 5 0.006031 -0.005968 0.003339 0.000000 0.042566 0.000000
# 6 0.000000 0.000000 0.000000 -0.010910 0.000000 0.048015
#
#
# Mechanical properties :
#
#
# Convention : Reuss Voigt Hill
#
# Bulk Modulus (GPa) = 21.43683 38.72276 30.07979
# Shear Modulus (GPa) = 11.22909 20.07187 15.65048
#
# Velocity S-wave (km/s) = 2.17147 2.90320 2.56358
# Velocity P-wave (km/s) = 3.91009 5.24390 4.62532
#
# Compressibility (1/GPa) = 0.04664870
#
# Stress axis : x y z
#
# Youngs Moduli (GPa) = 23.86232 15.67331 16.90385
#
# Poissons Ratio (x) = 0.61010 -0.53242
# Poissons Ratio (y) = 0.92886 0.87360
# Poissons Ratio (z) = -0.75159 0.81001
#
# Static dielectric constant tensor:
#      x y z
#    x 1.870780 0.000000 -0.037080 
#    y 0.000000 1.921840 0.000000 
#    z -0.037080 0.000000 1.936410 
# 
# From -- ./inp_files/155960.got.cif
#   From: 2010.05.17/outbox.cif.g08.bks.cpg/sg12_78_cif.got.tgz:155960.got - 2010.06.03 13:09:07.
