data_PCOD9195805
_publ_section_title
;
Structure prediction by ZEFSAII (Michael W. Deem and Ramdas Pophale) SiO2 
 PCOD9195805
Probable space group: C 2/M
;
_chemical_formula_sum "Si O2"
_cell_formula_units_Z 56
_cell_length_a 20.735465
_cell_length_b 7.462672
_cell_length_c 18.062075
_cell_angle_alpha 90.000000
_cell_angle_beta 118.024802
_cell_angle_gamma 90.000000
_cell_volume 2467.235979
_symmetry_space_group_name_H-M "C 2/M"
_symmetry_group_IT_number 12
_symmetry_cell_setting 'monoclinic'
loop_
_space_group_symop_operation_xyz
x,y,z
-x,y,-z
-x,-y,-z
x,-y,z
1/2+x,1/2+y,z
1/2-x,1/2+y,-z
1/2-x,1/2-y,-z
1/2+x,1/2-y,z
loop_
_atom_site_type_symbol
_atom_site_label
_atom_site_fract_x
_atom_site_fract_y
_atom_site_fract_z
Si Si1 0.334573 0.719663 0.287321
Si Si2 0.438999 0.704400 0.214379
Si Si3 0.678209 0.209467 0.144934
Si Si4 0.665979 0.213181 0.974583
Si Si5 0.331233 0.713800 0.571366
Si Si6 0.594284 0.282949 0.243747
Si Si7 0.918386 0.781231 0.477726
O O1 0.333445 0.500000 0.285954
O O2 0.394220 0.781477 0.259154
O O3 0.254528 0.782794 0.218812
O O4 0.361329 0.772965 0.383025
O O5 0.456068 0.500000 0.246432
O O6 0.385458 0.703592 0.115236
O O7 0.515707 0.782800 0.229624
O O8 0.617589 0.224103 0.175139
O O9 0.692847 0.000000 0.138565
O O10 0.655313 0.282055 0.052570
O O11 0.652396 0.000000 0.963879
O O12 0.750000 0.250000 0.000000
O O13 0.340200 0.500000 0.578814
O O14 0.250000 0.750000 0.500000
O O15 0.347769 0.778624 0.662983
O O16 0.389258 0.780231 0.541673
O O17 0.593031 0.500000 0.240162
O O18 0.000000 0.723701 0.500000
O O19 0.919557 0.000000 0.479588
#
# Coordination Sequence:
#
# PCOD9195805 Si02
#       7
#     8   8   8   8   8   8   8
#     4   9  16  30  52  76 103 140 182 224 271 322
#     4  10  20  37  58  81 114 149 185 232 282 331
#     4  10  21  37  57  80 108 144 185 229 275 333
#     4  11  22  38  60  86 112 143 185 230 279 335
#     4  10  20  35  55  81 112 149 188 228 278 329
#     4  10  22  37  55  82 115 150 187 232 282 330
#     4   9  16  27  49  79 105 134 180 230 268 313
#
# _framework density 22.697464
#
# number of rings (size 3 to 8) (size 9 to 14) (size 15 to 20)
#    0.000    2.143    1.429    2.143    0.000    7.429 
#    0.000    2.857    0.000    0.429    0.000    0.000 
#    0.000    0.000    0.000    0.000    0.000    0.000 
#
# Total GULP energy -156492.507353 kJ/mol
# GULP energy per Si atom -5589.018120 kJ/mol
# Density = 2.264580 g / cm^3
# Si number density = 22.697464 Si / 1000 Ang^3
#
#
#
# Elastic Constant Matrix: (Units=GPa)
#
#
# Indices 1 2 3 4 5 6 
#
# 1 67.3082 -13.4724 -11.7815 0.0000 -15.2198 0.0000
# 2 -13.4724 66.7831 -9.6373 0.0000 -3.0570 0.0000
# 3 -11.7815 -9.6373 75.0328 0.0000 -22.4548 0.0000
# 4 0.0000 0.0000 0.0000 10.5055 0.0000 1.5912
# 5 -15.2198 -3.0570 -22.4548 0.0000 44.2276 0.0000
# 6 0.0000 0.0000 0.0000 1.5912 0.0000 11.9241
#
#
#
# Elastic Compliance Matrix: (Units=1/GPa)
#
#
# Indices 1 2 3 4 5 6 
#
# 1 0.019570 0.005439 0.006956 0.000000 0.010642 0.000000
# 2 0.005439 0.016990 0.004655 0.000000 0.005409 0.000000
# 3 0.006956 0.004655 0.018667 0.000000 0.012193 0.000000
# 4 0.000000 0.000000 0.000000 0.097152 0.000000 -0.012965
# 5 0.010642 0.005409 0.012193 0.000000 0.032837 0.000000
# 6 0.000000 0.000000 0.000000 -0.012965 0.000000 0.085594
#
#
# Mechanical properties :
#
#
# Convention : Reuss Voigt Hill
#
# Bulk Modulus (GPa) = 11.19485 15.48242 13.33864
# Shear Modulus (GPa) = 18.76280 29.59912 24.18096
#
# Velocity S-wave (km/s) = 2.87827 3.61511 3.26753
# Velocity P-wave (km/s) = 3.99860 4.92559 4.48610
#
# Compressibility (1/GPa) = 0.08932676
#
# Stress axis : x y z
#
# Youngs Moduli (GPa) = 51.09953 58.85668 53.57185
#
# Poissons Ratio (x) = -0.32011 -0.37265
# Poissons Ratio (y) = -0.27792 -0.24938
# Poissons Ratio (z) = -0.35546 -0.27398
#
# Static dielectric constant tensor:
#      x y z
#    x 1.799930 0.000000 -0.012130 
#    y 0.000000 1.922540 0.000000 
#    z -0.012130 0.000000 1.735280 
# 
# From -- ./inp_files/275637.got.cif
#   From: 2010.05.17/outbox.cif.g08.bks.cpg/sg12_138_cif.got.tgz:275637.got - 2010.06.03 13:09:07.
