data_PCOD9195808
_publ_section_title
;
Structure prediction by ZEFSAII (Michael W. Deem and Ramdas Pophale) SiO2 
 PCOD9195808
Probable space group: C 2/M
;
_chemical_formula_sum "Si O2"
_cell_formula_units_Z 64
_cell_length_a 15.748575
_cell_length_b 7.574055
_cell_length_c 24.774236
_cell_angle_alpha 90.000000
_cell_angle_beta 93.067665
_cell_angle_gamma 90.000000
_cell_volume 2950.850525
_symmetry_space_group_name_H-M "C 2/M"
_symmetry_group_IT_number 12
_symmetry_cell_setting 'monoclinic'
loop_
_space_group_symop_operation_xyz
x,y,z
-x,y,-z
-x,-y,-z
x,-y,z
1/2+x,1/2+y,z
1/2-x,1/2+y,-z
1/2-x,1/2-y,-z
1/2+x,1/2-y,z
loop_
_atom_site_type_symbol
_atom_site_label
_atom_site_fract_x
_atom_site_fract_y
_atom_site_fract_z
Si Si1 0.464989 0.783747 0.939918
Si Si2 0.771153 0.289667 0.938460
Si Si3 0.608182 0.205730 0.862982
Si Si4 0.983691 0.787197 0.672231
Si Si5 0.146936 0.705691 0.747099
Si Si6 0.797146 0.782500 0.676891
Si Si7 0.264575 0.197285 0.438840
Si Si8 0.041185 0.213758 0.557783
O O1 0.367171 0.727092 0.929294
O O2 0.531043 0.721033 0.896573
O O3 0.465201 0.000000 0.939966
O O4 0.500000 0.730330 0.000000
O O5 0.770046 0.500000 0.930993
O O6 0.695656 0.214543 0.899455
O O7 0.750000 0.250000 0.000000
O O8 0.624425 0.285374 0.804495
O O9 0.585744 0.000000 0.854019
O O10 0.893437 0.732861 0.693420
O O11 0.064680 0.715468 0.706287
O O12 0.988369 0.738499 0.609127
O O13 0.988953 0.000000 0.674783
O O14 0.168159 0.500000 0.757485
O O15 0.226703 0.780865 0.716724
O O16 0.776033 0.716057 0.615554
O O17 0.792412 0.000000 0.675920
O O18 0.250000 0.250000 0.500000
O O19 0.365212 0.208192 0.433168
O O20 0.230105 0.000000 0.436182
O O21 0.000000 0.270240 0.500000
O O22 0.049282 0.000000 0.556441
#
# Coordination Sequence:
#
# PCOD9195808 Si02
#       8
#     8   8   8   8   8   8   8   8
#     4   9  17  33  56  80 112 152 184 220 282 341
#     4  11  21  35  58  85 116 151 190 234 281 338
#     4  10  21  38  59  83 113 152 192 231 279 337
#     4  10  20  36  59  81 109 149 189 228 280 342
#     4  10  21  39  60  82 113 150 192 235 278 332
#     4   9  19  37  58  80 111 152 184 226 290 341
#     4  11  21  35  56  81 114 147 187 234 288 350
#     4  10  20  35  55  81 113 147 187 234 288 346
#
# _framework density 21.688662999999998
#
# number of rings (size 3 to 8) (size 9 to 14) (size 15 to 20)
#    0.000    2.000    2.500    1.500    0.000    3.750 
#    0.000    5.000    0.000    0.000    0.000    0.000 
#    0.000    0.000    0.000    0.000    0.000    0.000 
#
# Total GULP energy -178697.007037 kJ/mol
# GULP energy per Si atom -5584.281470 kJ/mol
# Density = 2.163930 g / cm^3
# Si number density = 21.688663 Si / 1000 Ang^3
#
#
#
# Elastic Constant Matrix: (Units=GPa)
#
#
# Indices 1 2 3 4 5 6 
#
# 1 146.5434 -10.3117 56.7645 0.0000 -37.6227 0.0000
# 2 -10.3117 44.3670 1.8457 0.0000 -11.1644 0.0000
# 3 56.7645 1.8457 142.8448 0.0000 -35.1156 0.0000
# 4 0.0000 0.0000 0.0000 -2.6708 0.0000 14.1991
# 5 -37.6227 -11.1644 -35.1156 0.0000 36.1321 0.0000
# 6 0.0000 0.0000 0.0000 14.1991 0.0000 14.4182
#
#
#
# Elastic Compliance Matrix: (Units=1/GPa)
#
#
# Indices 1 2 3 4 5 6 
#
# 1 0.010707 0.005401 -0.001542 0.000000 0.011319 0.000000
# 2 0.005401 0.027618 0.001284 0.000000 0.015405 0.000000
# 3 -0.001542 0.001284 0.009591 0.000000 0.008112 0.000000
# 4 0.000000 0.000000 0.000000 -0.060045 0.000000 0.059133
# 5 0.011319 0.015405 0.008112 0.000000 0.052106 0.000000
# 6 0.000000 0.000000 0.000000 0.059133 0.000000 0.011123
#
#
# Mechanical properties :
#
#
# Convention : Reuss Voigt Hill
#
# Bulk Modulus (GPa) = 17.18156 47.81691 32.49923
# Shear Modulus (GPa) = 83.03528 28.60634 55.82081
#
# Velocity S-wave (km/s) = 6.19421 3.63568 5.07870
# Velocity P-wave (km/s) = 7.68744 6.30231 7.02907
#
# Compressibility (1/GPa) = 0.05820194
#
# Stress axis : x y z
#
# Youngs Moduli (GPa) = 93.39375 36.20858 104.26367
#
# Poissons Ratio (x) = -0.19557 0.16079
# Poissons Ratio (y) = -0.50443 -0.13387
# Poissons Ratio (z) = 0.14403 -0.04649
#
# Static dielectric constant tensor:
#      x y z
#    x 1.708650 0.000000 -0.050050 
#    y 0.000000 1.837840 0.000000 
#    z -0.050050 0.000000 1.774500 
# 
# From -- ./inp_files/338908.got.cif
#   From: 2010.05.17/outbox.cif.g08.bks.cpg/sg12_170_cif.got.tgz:338908.got - 2010.06.03 13:09:07.
