data_PCOD9195404
_publ_section_title
;
Structure prediction by ZEFSAII (Michael W. Deem and Ramdas Pophale) SiO2 
 PCOD9195404
Probable space group: C 2/M
;
_chemical_formula_sum "Si O2"
_cell_formula_units_Z 48
_cell_length_a 15.502924
_cell_length_b 7.494836
_cell_length_c 26.313033
_cell_angle_alpha 90.000000
_cell_angle_beta 37.631356
_cell_angle_gamma 90.000000
_cell_volume 1866.759146
_symmetry_space_group_name_H-M "C 2/M"
_symmetry_group_IT_number 12
_symmetry_cell_setting 'monoclinic'
loop_
_space_group_symop_operation_xyz
x,y,z
-x,y,-z
-x,-y,-z
x,-y,z
1/2+x,1/2+y,z
1/2-x,1/2+y,-z
1/2-x,1/2-y,-z
1/2+x,1/2-y,z
loop_
_atom_site_type_symbol
_atom_site_label
_atom_site_fract_x
_atom_site_fract_y
_atom_site_fract_z
Si Si1 0.859614 0.294686 0.532187
Si Si2 0.029969 0.718596 0.359172
Si Si3 0.411268 0.702249 0.878507
Si Si4 0.066788 0.297051 0.706488
Si Si5 0.676882 0.285165 0.809536
Si Si6 0.342453 0.212424 0.067071
O O1 0.814431 0.500000 0.545741
O O2 0.734528 0.203768 0.620901
O O3 0.000000 0.295625 0.500000
O O4 0.914554 0.217018 0.453264
O O5 0.027797 0.500000 0.363714
O O6 0.194240 0.773216 0.286979
O O7 0.985091 0.770583 0.323747
O O8 0.380881 0.500000 0.909242
O O9 0.507002 0.695966 0.782707
O O10 0.521318 0.786336 0.867218
O O11 0.263268 0.782220 0.927307
O O12 0.015863 0.500000 0.736479
O O13 0.668890 0.500000 0.809520
O O14 0.717426 0.239606 0.848309
O O15 0.352873 0.000000 0.053540
O O16 0.500000 0.288355 0.000000
#
# Coordination Sequence:
#
# PCOD9195404 Si02
#       6
#     8   8   8   8   8   8
#     4  10  20  35  54  76 108 152 197 236 282 340
#     4   9  18  33  53  78 109 145 188 238 282 329
#     4  10  21  38  61  85 114 156 197 232 284 352
#     4  11  21  34  54  81 114 148 190 245 291 330
#     4  10  20  38  62  86 113 151 198 238 278 340
#     4  10  22  40  60  87 122 152 184 235 294 348
#
# _framework density 25.713011000000002
#
# number of rings (size 3 to 8) (size 9 to 14) (size 15 to 20)
#    0.000    2.000    1.667    2.000    0.000    4.667 
#    0.000    1.667    0.000    0.000    0.000    0.000 
#    0.000    0.000    0.000    0.000    0.000    0.000 
#
# Total GULP energy -134161.056951 kJ/mol
# GULP energy per Si atom -5590.044040 kJ/mol
# Density = 2.565449 g / cm^3
# Si number density = 25.713011 Si / 1000 Ang^3
#
#
#
# Elastic Constant Matrix: (Units=GPa)
#
#
# Indices 1 2 3 4 5 6 
#
# 1 112.7262 11.6998 -0.2967 0.0000 -26.1491 0.0008
# 2 11.6998 81.6594 5.4386 -0.0001 -0.6322 0.0036
# 3 -0.2967 5.4386 98.4801 0.0000 -16.2810 -0.0002
# 4 0.0000 -0.0001 0.0000 5.5154 -0.0001 15.9808
# 5 -26.1491 -0.6322 -16.2810 -0.0001 53.6143 0.0001
# 6 0.0008 0.0036 -0.0002 15.9808 0.0001 -1.5746
#
#
#
# Elastic Compliance Matrix: (Units=1/GPa)
#
#
# Indices 1 2 3 4 5 6 
#
# 1 0.010254 -0.001494 0.000987 0.000000 0.005283 0.000000
# 2 -0.001494 0.012509 -0.000833 -0.000003 -0.000834 0.000001
# 3 0.000987 -0.000833 0.010825 0.000000 0.003759 0.000000
# 4 0.000000 -0.000003 0.000000 0.005963 0.000000 0.060517
# 5 0.005283 -0.000834 0.003759 0.000000 0.022360 0.000000
# 6 0.000000 0.000001 0.000000 0.060517 0.000000 -0.020886
#
#
# Mechanical properties :
#
#
# Convention : Reuss Voigt Hill
#
# Bulk Modulus (GPa) = 32.35479 36.28323 34.31901
# Shear Modulus (GPa) = 92.57855 29.91262 61.24558
#
# Velocity S-wave (km/s) = 6.00689 3.41446 4.88576
# Velocity P-wave (km/s) = 7.79235 5.44850 6.72335
#
# Compressibility (1/GPa) = 0.03090733
#
# Stress axis : x y z
#
# Youngs Moduli (GPa) = 97.52011 79.94194 92.38118
#
# Poissons Ratio (x) = 0.11943 -0.09117
# Poissons Ratio (y) = 0.14570 0.07697
# Poissons Ratio (z) = -0.09624 0.06661
#
# Static dielectric constant tensor:
#      x y z
#    x 2.047040 0.000000 -0.025380 
#    y 0.000000 2.003490 0.000000 
#    z -0.025380 0.000000 2.078720 
# 
# From -- ./inp_files/313591.got.cif
#   From: 2010.05.17/outbox.cif.g08.bks.cpg/sg12_157_cif.got.tgz:313591.got - 2010.06.03 13:09:07.
