data_PCOD9195637
_publ_section_title
;
Structure prediction by ZEFSAII (Michael W. Deem and Ramdas Pophale) SiO2 
 PCOD9195637
Probable space group: C 2/M
;
_chemical_formula_sum "Si O2"
_cell_formula_units_Z 56
_cell_length_a 18.343908
_cell_length_b 7.796461
_cell_length_c 19.188274
_cell_angle_alpha 90.000000
_cell_angle_beta 76.100857
_cell_angle_gamma 90.000000
_cell_volume 2663.908458
_symmetry_space_group_name_H-M "C 2/M"
_symmetry_group_IT_number 12
_symmetry_cell_setting 'monoclinic'
loop_
_space_group_symop_operation_xyz
x,y,z
-x,y,-z
-x,-y,-z
x,-y,z
1/2+x,1/2+y,z
1/2-x,1/2+y,-z
1/2-x,1/2-y,-z
1/2+x,1/2-y,z
loop_
_atom_site_type_symbol
_atom_site_label
_atom_site_fract_x
_atom_site_fract_y
_atom_site_fract_z
Si Si1 0.551899 0.701713 0.139921
Si Si2 0.759498 0.710152 0.284697
Si Si3 0.408424 0.707697 0.715495
Si Si4 0.616128 0.798871 0.853763
Si Si5 0.334167 0.294413 0.003559
Si Si6 0.808836 0.706493 0.426405
Si Si7 0.973090 0.705464 0.431176
O O1 0.570072 0.500000 0.140032
O O2 0.566360 0.771988 0.214085
O O3 0.465590 0.718814 0.137889
O O4 0.607164 0.772717 0.067886
O O5 0.759102 0.500000 0.283881
O O6 0.675999 0.765331 0.282687
O O7 0.821981 0.767821 0.214955
O O8 0.781224 0.767814 0.357248
O O9 0.408308 0.500000 0.716534
O O10 0.466082 0.760724 0.642367
O O11 0.645859 0.775855 0.925070
O O12 0.606547 0.000000 0.841746
O O13 0.341193 0.500000 0.006310
O O14 0.250000 0.250000 0.000000
O O15 0.813229 0.500000 0.420557
O O16 0.750000 0.750000 0.500000
O O17 0.891478 0.772719 0.427285
O O18 0.965499 0.500000 0.440039
O O19 0.000000 0.773500 0.500000
#
# Coordination Sequence:
#
# PCOD9195637 Si02
#       7
#     8   8   8   8   8   8   8
#     4  10  22  39  57  81 115 150 184 232 290 338
#     4   9  19  36  56  79 109 145 183 227 280 332
#     4  10  20  36  58  80 105 142 187 229 272 330
#     4  11  22  38  61  86 114 150 191 232 278 337
#     4  11  23  40  61  85 117 153 189 233 284 335
#     4  10  20  35  55  78 107 143 182 225 274 329
#     4  10  21  36  53  78 113 146 177 224 285 336
#
# _framework density 21.021744000000002
#
# number of rings (size 3 to 8) (size 9 to 14) (size 15 to 20)
#    0.000    1.857    0.000    3.857    0.000    7.714 
#    0.000    4.286    0.000    0.000    0.000    0.000 
#    0.000    0.000    0.000    0.000    0.000    0.000 
#
# Total GULP energy -156531.480912 kJ/mol
# GULP energy per Si atom -5590.410033 kJ/mol
# Density = 2.097390 g / cm^3
# Si number density = 21.021744 Si / 1000 Ang^3
#
#
#
# Elastic Constant Matrix: (Units=GPa)
#
#
# Indices 1 2 3 4 5 6 
#
# 1 183.1468 -20.5898 107.8922 0.0000 -2.2733 0.0000
# 2 -20.5898 20.2642 -16.5697 0.0000 1.8082 0.0000
# 3 107.8922 -16.5697 214.2135 0.0000 -0.9847 0.0000
# 4 0.0000 0.0000 0.0000 21.9998 0.0000 -4.7010
# 5 -2.2733 1.8082 -0.9847 0.0000 46.6532 0.0000
# 6 0.0000 0.0000 0.0000 -4.7010 0.0000 12.8452
#
#
#
# Elastic Compliance Matrix: (Units=1/GPa)
#
#
# Indices 1 2 3 4 5 6 
#
# 1 0.008271 0.005325 -0.003754 0.000000 0.000117 0.000000
# 2 0.005325 0.056287 0.001663 0.000000 -0.001887 0.000000
# 3 -0.003754 0.001663 0.006687 0.000000 -0.000106 0.000000
# 4 0.000000 0.000000 0.000000 0.049311 0.000000 0.018047
# 5 0.000117 -0.001887 -0.000106 0.000000 0.021511 0.000000
# 6 0.000000 0.000000 0.000000 0.018047 0.000000 0.084455
#
#
# Mechanical properties :
#
#
# Convention : Reuss Voigt Hill
#
# Bulk Modulus (GPa) = 12.86773 62.12111 37.49442
# Shear Modulus (GPa) = 20.32862 39.42574 29.87718
#
# Velocity S-wave (km/s) = 3.11308 4.33537 3.77404
# Velocity P-wave (km/s) = 4.36533 7.39430 6.07173
#
# Compressibility (1/GPa) = 0.07771381
#
# Stress axis : x y z
#
# Youngs Moduli (GPa) = 120.89788 17.76616 149.54381
#
# Poissons Ratio (x) = -0.09460 0.56134
# Poissons Ratio (y) = -0.64373 -0.24875
# Poissons Ratio (z) = 0.45381 -0.02955
#
# Static dielectric constant tensor:
#      x y z
#    x 1.747370 0.000000 0.041510 
#    y 0.000000 1.743180 0.000000 
#    z 0.041510 0.000000 1.751110 
# 
# From -- ./inp_files/275202.got.cif
#   From: 2010.05.17/outbox.cif.g08.bks.cpg/sg12_138_cif.got.tgz:275202.got - 2010.06.03 13:09:07.
