data_PCOD9195614
_publ_section_title
;
Structure prediction by ZEFSAII (Michael W. Deem and Ramdas Pophale) SiO2 
 PCOD9195614
Probable space group: C 2/M
;
_chemical_formula_sum "Si O2"
_cell_formula_units_Z 48
_cell_length_a 15.945549
_cell_length_b 8.962824
_cell_length_c 22.796376
_cell_angle_alpha 90.000000
_cell_angle_beta 142.016935
_cell_angle_gamma 90.000000
_cell_volume 2005.061903
_symmetry_space_group_name_H-M "C 2/M"
_symmetry_group_IT_number 12
_symmetry_cell_setting 'monoclinic'
loop_
_space_group_symop_operation_xyz
x,y,z
-x,y,-z
-x,-y,-z
x,-y,z
1/2+x,1/2+y,z
1/2-x,1/2+y,-z
1/2-x,1/2-y,-z
1/2+x,1/2-y,z
loop_
_atom_site_type_symbol
_atom_site_label
_atom_site_fract_x
_atom_site_fract_y
_atom_site_fract_z
Si Si1 0.410432 0.678502 0.217020
Si Si2 0.288353 0.670276 0.595656
Si Si3 0.964582 0.323975 0.121012
Si Si4 0.514183 0.331036 0.436556
Si Si5 0.851842 0.827605 0.947627
Si Si6 0.240418 0.169012 0.277519
O O1 0.396040 0.500000 0.210618
O O2 0.554539 0.716414 0.327210
O O3 0.430652 0.735559 0.161523
O O4 0.271158 0.759577 0.158134
O O5 0.267454 0.500000 0.564121
O O6 0.166375 0.774978 0.507255
O O7 0.271498 0.666138 0.657627
O O8 0.954208 0.500000 0.124165
O O9 0.119961 0.278152 0.191773
O O10 0.869888 0.268519 0.016332
O O11 0.500000 0.332559 0.500000
O O12 0.492184 0.500000 0.403936
O O13 0.391719 0.226369 0.348037
O O14 0.821376 0.000000 0.944533
O O15 0.000000 0.822050 0.000000
O O16 0.215837 0.000000 0.242663
#
# Coordination Sequence:
#
# PCOD9195614 Si02
#       6
#     8   8   8   8   8   8
#     4  10  20  35  55  78 105 136 172 212 255 304
#     4   8  15  26  41  64  95 131 165 200 245 294
#     4  11  21  34  54  78 105 135 171 213 256 304
#     4   9  15  22  36  62  96 131 165 202 245 292
#     4  11  24  40  56  75 101 133 170 212 259 309
#     4   9  16  27  43  65  97 133 168 205 248 297
#
# _framework density 23.939411
#
# number of rings (size 3 to 8) (size 9 to 14) (size 15 to 20)
#    0.000    2.333    0.000    5.000    0.000    8.000 
#    0.000    0.000    0.000    0.000    0.000    1.167 
#    0.000    0.000    0.000    0.000    0.000    0.000 
#
# Total GULP energy -134375.471480 kJ/mol
# GULP energy per Si atom -5598.977978 kJ/mol
# Density = 2.388492 g / cm^3
# Si number density = 23.939411 Si / 1000 Ang^3
#
#
#
# Elastic Constant Matrix: (Units=GPa)
#
#
# Indices 1 2 3 4 5 6 
#
# 1 81.2954 16.9664 33.9532 0.0000 23.4962 0.0000
# 2 16.9664 103.9100 70.0004 0.0000 21.3687 0.0000
# 3 33.9532 70.0004 164.8398 0.0000 30.3555 0.0000
# 4 0.0000 0.0000 0.0000 41.1447 0.0000 10.5572
# 5 23.4962 21.3687 30.3555 0.0000 56.0945 0.0000
# 6 0.0000 0.0000 0.0000 10.5572 0.0000 19.0302
#
#
#
# Elastic Compliance Matrix: (Units=1/GPa)
#
#
# Indices 1 2 3 4 5 6 
#
# 1 0.014617 0.000070 -0.002119 0.000000 -0.005002 0.000000
# 2 0.000070 0.013744 -0.005422 0.000000 -0.002331 0.000000
# 3 -0.002119 -0.005422 0.009176 0.000000 -0.002013 0.000000
# 4 0.000000 0.000000 0.000000 0.028338 0.000000 -0.015721
# 5 -0.005002 -0.002331 -0.002013 0.000000 0.021899 0.000000
# 6 0.000000 0.000000 0.000000 -0.015721 0.000000 0.061270
#
#
# Mechanical properties :
#
#
# Convention : Reuss Voigt Hill
#
# Bulk Modulus (GPa) = 44.25781 65.76503 55.01142
# Shear Modulus (GPa) = 29.15142 38.52889 33.84015
#
# Velocity S-wave (km/s) = 3.49337 4.01613 3.76383
# Velocity P-wave (km/s) = 5.89907 7.00263 6.47440
#
# Compressibility (1/GPa) = 0.02259488
#
# Stress axis : x y z
#
# Youngs Moduli (GPa) = 68.41267 72.75896 108.98079
#
# Poissons Ratio (x) = -0.00507 0.23095
# Poissons Ratio (y) = -0.00476 0.59085
# Poissons Ratio (z) = 0.14498 0.39447
#
# Static dielectric constant tensor:
#      x y z
#    x 2.036920 0.000000 -0.007060 
#    y 0.000000 1.796510 0.000000 
#    z -0.007060 0.000000 1.894580 
# 
# From -- ./inp_files/274090.got.cif
#   From: 2010.05.17/outbox.cif.g08.bks.cpg/sg12_138_cif.got.tgz:274090.got - 2010.06.03 13:09:07.
