data_PCOD9195205
_publ_section_title
;
Structure prediction by ZEFSAII (Michael W. Deem and Ramdas Pophale) SiO2 
 PCOD9195205
Probable space group: C 2/M
;
_chemical_formula_sum "Si O2"
_cell_formula_units_Z 64
_cell_length_a 28.875570
_cell_length_b 8.786526
_cell_length_c 35.742898
_cell_angle_alpha 90.000000
_cell_angle_beta 156.869654
_cell_angle_gamma 90.000000
_cell_volume 3562.343532
_symmetry_space_group_name_H-M "C 2/M"
_symmetry_group_IT_number 12
_symmetry_cell_setting 'monoclinic'
loop_
_space_group_symop_operation_xyz
x,y,z
-x,y,-z
-x,-y,-z
x,-y,z
1/2+x,1/2+y,z
1/2-x,1/2+y,-z
1/2-x,1/2-y,-z
1/2+x,1/2-y,z
loop_
_atom_site_type_symbol
_atom_site_label
_atom_site_fract_x
_atom_site_fract_y
_atom_site_fract_z
Si Si1 0.466111 0.182746 0.387030
Si Si2 0.355578 0.682612 0.147725
Si Si3 0.347234 0.182465 0.221486
Si Si4 0.866251 0.173048 0.384399
Si Si5 0.968315 0.682580 0.782399
Si Si6 0.413164 0.184491 0.968940
Si Si7 0.580944 0.815911 0.942996
Si Si8 0.721752 0.181021 0.607787
O O1 0.428371 0.222412 0.317143
O O2 0.379573 0.257834 0.353184
O O3 0.600198 0.227209 0.496828
O O4 0.458573 0.000000 0.385880
O O5 0.362019 0.500000 0.151728
O O6 0.387991 0.743151 0.212959
O O7 0.439081 0.752376 0.178412
O O8 0.218286 0.727274 0.039690
O O9 0.215747 0.243964 0.131589
O O10 0.344706 0.000000 0.215690
O O11 0.793297 0.269210 0.360127
O O12 0.000000 0.171747 0.500000
O O13 0.821989 0.000000 0.350420
O O14 0.972057 0.500000 0.784356
O O15 0.836803 0.739661 0.676953
O O16 0.005561 0.737182 0.851745
O O17 0.401872 0.000000 0.960215
O O18 0.500000 0.228739 0.000000
O O19 0.456099 0.230447 0.042583
O O20 0.576684 0.000000 0.939389
O O21 0.733052 0.000000 0.613634
#
# Coordination Sequence:
#
# PCOD9195205 Si02
#       8
#     8   8   8   8   8   8   8   8
#     4   9  19  35  54  75 104 141 176 211 255 308
#     4  10  20  37  57  77 101 132 171 212 262 320
#     4  10  20  35  55  79 104 134 175 218 259 305
#     4   9  17  30  50  75 101 131 170 213 253 296
#     4  11  21  34  53  78 106 135 171 218 264 303
#     4   9  18  34  54  78 110 144 173 205 250 305
#     4   8  17  33  53  77 105 136 170 207 251 307
#     4  10  20  35  52  74 107 142 174 211 257 307
#
# _framework density 17.965700999999999
#
# number of rings (size 3 to 8) (size 9 to 14) (size 15 to 20)
#    0.000    2.500    0.000    3.000    0.000    4.250 
#    0.000    7.500    0.000    0.000    0.000    0.000 
#    0.000    0.000    0.000    0.000    0.000    0.000 
#
# Total GULP energy -178511.769077 kJ/mol
# GULP energy per Si atom -5578.492784 kJ/mol
# Density = 1.792481 g / cm^3
# Si number density = 17.965701 Si / 1000 Ang^3
#
#
#
# Elastic Constant Matrix: (Units=GPa)
#
#
# Indices 1 2 3 4 5 6 
#
# 1 128.1867 34.2121 59.8718 0.0002 -0.1972 -0.0004
# 2 34.2121 42.1677 26.0049 -0.0005 -2.9682 0.0028
# 3 59.8718 26.0049 70.7776 0.0004 -16.7401 0.0001
# 4 0.0002 -0.0005 0.0004 21.3311 -0.0001 3.3856
# 5 -0.1972 -2.9682 -16.7401 -0.0001 25.0946 0.0004
# 6 -0.0004 0.0028 0.0001 3.3856 0.0004 26.0437
#
#
#
# Elastic Compliance Matrix: (Units=1/GPa)
#
#
# Indices 1 2 3 4 5 6 
#
# 1 0.015353 -0.004831 -0.013439 0.000000 -0.009416 0.000001
# 2 -0.004831 0.032640 -0.008313 0.000002 -0.001723 -0.000004
# 3 -0.013439 -0.008313 0.033595 -0.000001 0.021322 0.000000
# 4 0.000000 0.000002 -0.000001 0.047867 0.000000 -0.006223
# 5 -0.009416 -0.001723 0.021322 0.000000 0.053795 -0.000001
# 6 0.000001 -0.000004 0.000000 -0.006223 -0.000001 0.039206
#
#
# Mechanical properties :
#
#
# Convention : Reuss Voigt Hill
#
# Bulk Modulus (GPa) = 35.18627 53.47884 44.33256
# Shear Modulus (GPa) = 17.53787 22.56342 20.05065
#
# Velocity S-wave (km/s) = 3.12779 3.54774 3.34436
# Velocity P-wave (km/s) = 5.71593 6.82742 6.29625
#
# Compressibility (1/GPa) = 0.02842018
#
# Stress axis : x y z
#
# Youngs Moduli (GPa) = 65.13303 30.63721 29.76654
#
# Poissons Ratio (x) = 0.14801 0.40005
# Poissons Ratio (y) = 0.31467 0.24746
# Poissons Ratio (z) = 0.87535 0.25469
#
# Static dielectric constant tensor:
#      x y z
#    x 1.599470 0.000000 -0.011870 
#    y 0.000000 1.602150 0.000000 
#    z -0.011870 0.000000 1.617210 
# 
# From -- ./inp_files/248278.got.cif
#   From: 2010.05.17/outbox.cif.g08.bks.cpg/sg12_125_cif.got.tgz:248278.got - 2010.06.03 13:09:07.
