data_PCOD9195683
_publ_section_title
;
Structure prediction by ZEFSAII (Michael W. Deem and Ramdas Pophale) SiO2 
 PCOD9195683
Probable space group: C 2/M
;
_chemical_formula_sum "Si O2"
_cell_formula_units_Z 64
_cell_length_a 14.386013
_cell_length_b 28.861973
_cell_length_c 16.913913
_cell_angle_alpha 90.000000
_cell_angle_beta 31.731383
_cell_angle_gamma 90.000000
_cell_volume 3693.556707
_symmetry_space_group_name_H-M "C 2/M"
_symmetry_group_IT_number 12
_symmetry_cell_setting 'monoclinic'
loop_
_space_group_symop_operation_xyz
x,y,z
-x,y,-z
-x,-y,-z
x,-y,z
1/2+x,1/2+y,z
1/2-x,1/2+y,-z
1/2-x,1/2-y,-z
1/2+x,1/2-y,z
loop_
_atom_site_type_symbol
_atom_site_label
_atom_site_fract_x
_atom_site_fract_y
_atom_site_fract_z
Si Si1 0.329060 0.946491 0.430625
Si Si2 0.829358 0.800601 0.430026
Si Si3 0.531787 0.873027 0.069767
Si Si4 0.827986 0.375166 0.570970
Si Si5 0.810602 0.199399 0.930027
Si Si6 0.328684 0.373035 0.569764
Si Si7 0.030045 0.875172 0.070998
Si Si8 0.309638 0.946493 0.930701
O O1 0.339205 0.919761 0.506045
O O2 0.199747 0.917217 0.467177
O O3 0.521176 0.944622 0.249961
O O4 0.276977 0.000000 0.476255
O O5 0.750000 0.750000 0.500000
O O6 0.704234 0.831388 0.463476
O O7 0.843595 0.828744 0.501528
O O8 0.020130 0.798103 0.249999
O O9 0.346145 0.868909 0.250002
O O10 0.634116 0.917214 0.032786
O O11 0.500000 0.877716 0.000000
O O12 0.653349 0.828741 0.001546
O O13 0.656583 0.379112 0.749986
O O14 0.000000 0.370074 0.500000
O O15 0.868844 0.168611 0.963463
O O16 0.750000 0.250000 0.000000
O O17 0.500000 0.377735 0.500000
O O18 0.148654 0.919766 0.006119
O O19 0.000000 0.870094 0.000000
O O20 0.270462 0.000000 0.976347
#
# Coordination Sequence:
#
# PCOD9195683 Si02
#       8
#     8   8   8   8   8   8   8   8
#     4   9  19  36  56  78 106 140 177 217 261 310
#     4  10  21  37  56  79 107 139 177 219 264 314
#     4  10  20  35  55  79 108 141 177 218 264 313
#     4  10  21  36  55  79 106 138 175 216 262 312
#     4  10  21  37  56  79 107 139 177 219 264 314
#     4  10  20  35  55  79 108 141 177 218 264 313
#     4  10  21  36  55  79 106 138 175 216 262 312
#     4   9  19  36  56  78 106 140 177 217 261 310
#
# _framework density 17.327472
#
# number of rings (size 3 to 8) (size 9 to 14) (size 15 to 20)
#    0.000    2.250    0.000    2.250    0.000    6.500 
#    0.000    2.500    0.000    0.000    0.000    0.000 
#    0.000    0.000    0.000    0.000    0.000    0.000 
#
# Total GULP energy -178649.178562 kJ/mol
# GULP energy per Si atom -5582.786830 kJ/mol
# Density = 1.728803 g / cm^3
# Si number density = 17.327472 Si / 1000 Ang^3
#
#
#
# Elastic Constant Matrix: (Units=GPa)
#
#
# Indices 1 2 3 4 5 6 
#
# 1 150.3827 64.4062 62.1681 -0.0057 0.5981 0.0031
# 2 64.4062 157.6328 58.0810 -0.0012 0.1894 0.0006
# 3 62.1681 58.0810 57.8534 -0.0223 2.1221 0.0175
# 4 -0.0057 -0.0012 -0.0223 28.1584 0.0099 -0.6601
# 5 0.5981 0.1894 2.1221 0.0099 33.9756 -0.0060
# 6 0.0031 0.0006 0.0175 -0.6601 -0.0060 6.2000
#
#
#
# Elastic Compliance Matrix: (Units=1/GPa)
#
#
# Indices 1 2 3 4 5 6 
#
# 1 0.011982 -0.000229 -0.012667 -0.000007 0.000582 0.000030
# 2 -0.000229 0.010084 -0.009898 -0.000007 0.000566 0.000027
# 3 -0.012667 -0.009898 0.040917 0.000028 -0.002278 -0.000107
# 4 -0.000007 -0.000007 0.000028 0.035602 -0.000011 0.003790
# 5 0.000582 0.000566 -0.002278 -0.000011 0.029562 0.000033
# 6 0.000030 0.000027 -0.000107 0.003790 0.000033 0.161694
#
#
# Mechanical properties :
#
#
# Convention : Reuss Voigt Hill
#
# Bulk Modulus (GPa) = 57.48816 81.68660 69.58738
# Shear Modulus (GPa) = 14.65299 25.74770 20.20035
#
# Velocity S-wave (km/s) = 2.91116 3.85898 3.41808
# Velocity P-wave (km/s) = 6.67453 8.19151 7.47162
#
# Compressibility (1/GPa) = 0.01739489
#
# Stress axis : x y z
#
# Youngs Moduli (GPa) = 83.45820 99.16909 24.43953
#
# Poissons Ratio (x) = 0.02272 0.30958
# Poissons Ratio (y) = 0.01912 0.24190
# Poissons Ratio (z) = 1.05716 0.98158
#
# Static dielectric constant tensor:
#      x y z
#    x 1.558170 0.000000 -0.000480 
#    y 0.000000 1.567390 0.000000 
#    z -0.000480 0.000000 1.574420 
# 
# From -- ./inp_files/209400.got.cif
#   From: 2010.05.17/outbox.cif.g08.bks.cpg/sg12_105_cif.got.tgz:209400.got - 2010.06.03 13:09:07.
