data_PCOD9195001
_publ_section_title
;
Structure prediction by ZEFSAII (Michael W. Deem and Ramdas Pophale) SiO2 
 PCOD9195001
Probable space group: C 2/M
;
_chemical_formula_sum "Si O2"
_cell_formula_units_Z 56
_cell_length_a 19.392866
_cell_length_b 8.929802
_cell_length_c 17.777472
_cell_angle_alpha 90.000000
_cell_angle_beta 118.771669
_cell_angle_gamma 90.000000
_cell_volume 2698.534282
_symmetry_space_group_name_H-M "C 2/M"
_symmetry_group_IT_number 12
_symmetry_cell_setting 'monoclinic'
loop_
_space_group_symop_operation_xyz
x,y,z
-x,y,-z
-x,-y,-z
x,-y,z
1/2+x,1/2+y,z
1/2-x,1/2+y,-z
1/2-x,1/2-y,-z
1/2+x,1/2-y,z
loop_
_atom_site_type_symbol
_atom_site_label
_atom_site_fract_x
_atom_site_fract_y
_atom_site_fract_z
Si Si1 0.585629 0.320789 0.877882
Si Si2 0.640327 0.822508 0.757186
Si Si3 0.498140 0.680010 0.588894
Si Si4 0.175615 0.178564 0.500521
Si Si5 0.246394 0.821608 0.695038
Si Si6 0.915930 0.324079 0.801505
Si Si7 0.905010 0.169200 0.948907
O O1 0.586035 0.500000 0.872556
O O2 0.634473 0.248060 0.836697
O O3 0.494932 0.265041 0.823769
O O4 0.616260 0.281909 0.977873
O O5 0.565504 0.761856 0.670604
O O6 0.716004 0.767315 0.750868
O O7 0.638112 0.000000 0.760659
O O8 0.500000 0.707184 0.500000
O O9 0.507335 0.500000 0.604011
O O10 0.411025 0.728014 0.569681
O O11 0.250000 0.250000 0.500000
O O12 0.187486 0.208132 0.595495
O O13 0.178925 0.000000 0.492413
O O14 0.335370 0.783950 0.716427
O O15 0.244969 0.000000 0.709975
O O16 0.932209 0.500000 0.801922
O O17 0.891509 0.283965 0.874582
O O18 0.874536 0.000000 0.917530
O O19 0.000000 0.156320 0.000000
#
# Coordination Sequence:
#
# PCOD9195001 Si02
#       7
#     8   8   8   8   8   8   8
#     4  10  21  38  60  84 115 154 193 232 280 343
#     4  12  25  38  58  87 116 147 191 245 287 331
#     4  10  20  40  64  81 107 154 195 225 278 343
#     4  10  22  39  60  84 113 149 189 233 279 333
#     4  10  22  42  59  79 117 157 189 228 286 346
#     4  10  20  34  59  90 118 149 187 238 288 333
#     4   8  16  33  56  82 113 151 190 230 279 338
#
# _framework density 20.752005
#
# number of rings (size 3 to 8) (size 9 to 14) (size 15 to 20)
#    0.000    2.000    1.429    3.000    2.000    5.714 
#    0.000    0.714    0.000    0.000    0.000    0.000 
#    0.000    0.000    0.000    0.000    0.000    0.000 
#
# Total GULP energy -156366.112081 kJ/mol
# GULP energy per Si atom -5584.504003 kJ/mol
# Density = 2.070477 g / cm^3
# Si number density = 20.752005 Si / 1000 Ang^3
#
#
#
# Elastic Constant Matrix: (Units=GPa)
#
#
# Indices 1 2 3 4 5 6 
#
# 1 75.0997 16.0607 -9.0393 0.0000 -12.2029 0.0000
# 2 16.0607 34.2936 0.7286 0.0000 -8.5581 0.0000
# 3 -9.0393 0.7286 8.7136 0.0000 -6.2083 0.0000
# 4 0.0000 0.0000 0.0000 23.5868 0.0000 -2.5433
# 5 -12.2029 -8.5581 -6.2083 0.0000 35.3106 0.0000
# 6 0.0000 0.0000 0.0000 -2.5433 0.0000 29.2835
#
#
#
# Elastic Compliance Matrix: (Units=1/GPa)
#
#
# Indices 1 2 3 4 5 6 
#
# 1 0.019994 -0.007443 0.028581 0.000000 0.010131 0.000000
# 2 -0.007443 0.033884 -0.007472 0.000000 0.004327 0.000000
# 3 0.028581 -0.007472 0.172377 0.000000 0.038373 0.000000
# 4 0.000000 0.000000 0.000000 0.042797 0.000000 0.003717
# 5 0.010131 0.004327 0.038373 0.000000 0.039616 0.000000
# 6 0.000000 0.000000 0.000000 0.003717 0.000000 0.034472
#
#
# Mechanical properties :
#
#
# Convention : Reuss Voigt Hill
#
# Bulk Modulus (GPa) = 3.94341 14.84524 9.39432
# Shear Modulus (GPa) = 12.48952 24.99329 18.74141
#
# Velocity S-wave (km/s) = 2.45592 3.47418 3.00844
# Velocity P-wave (km/s) = 3.15379 4.82311 4.07485
#
# Compressibility (1/GPa) = 0.25358756
#
# Stress axis : x y z
#
# Youngs Moduli (GPa) = 50.01616 29.51242 5.80125
#
# Poissons Ratio (x) = 0.21965 -0.16581
# Poissons Ratio (y) = 0.37225 0.04334
# Poissons Ratio (z) = -1.42951 0.22050
#
# Static dielectric constant tensor:
#      x y z
#    x 1.755160 0.000000 -0.003930 
#    y 0.000000 1.690220 0.000000 
#    z -0.003930 0.000000 1.770860 
# 
# From -- ./inp_files/281653.got.cif
#   From: 2010.05.17/outbox.cif.g08.bks.cpg/sg12_141_cif.got.tgz:281653.got - 2010.06.03 13:09:07.
