data_PCOD9195944
_publ_section_title
;
Structure prediction by ZEFSAII (Michael W. Deem and Ramdas Pophale) SiO2 
 PCOD9195944
Probable space group: C 2/M
;
_chemical_formula_sum "Si O2"
_cell_formula_units_Z 56
_cell_length_a 18.949813
_cell_length_b 8.644903
_cell_length_c 30.107277
_cell_angle_alpha 90.000000
_cell_angle_beta 37.975750
_cell_angle_gamma 90.000000
_cell_volume 3034.891290
_symmetry_space_group_name_H-M "C 2/M"
_symmetry_group_IT_number 12
_symmetry_cell_setting 'monoclinic'
loop_
_space_group_symop_operation_xyz
x,y,z
-x,y,-z
-x,-y,-z
x,-y,z
1/2+x,1/2+y,z
1/2-x,1/2+y,-z
1/2-x,1/2-y,-z
1/2+x,1/2-y,z
loop_
_atom_site_type_symbol
_atom_site_label
_atom_site_fract_x
_atom_site_fract_y
_atom_site_fract_z
Si Si1 0.034198 0.686309 0.707744
Si Si2 0.299566 0.185314 0.294226
Si Si3 0.077966 0.687089 0.002956
Si Si4 0.493941 0.314746 0.138102
Si Si5 0.840634 0.186259 0.863242
Si Si6 0.455017 0.186975 0.570760
Si Si7 0.121823 0.687159 0.567931
O O1 0.029279 0.500000 0.710511
O O2 0.131987 0.733811 0.694859
O O3 0.067201 0.737416 0.641987
O O4 0.914384 0.749588 0.785753
O O5 0.375140 0.248233 0.215985
O O6 0.171689 0.249432 0.358080
O O7 0.297700 0.000000 0.293792
O O8 0.077703 0.500000 0.005792
O O9 0.027735 0.752406 0.073424
O O10 0.209356 0.738241 0.930587
O O11 0.000000 0.733188 0.000000
O O12 0.488115 0.500000 0.140381
O O13 0.591184 0.267583 0.125849
O O14 0.841894 0.000000 0.860254
O O15 0.500000 0.236313 0.500000
O O16 0.542813 0.236242 0.565798
O O17 0.450105 0.000000 0.573588
O O18 0.126232 0.500000 0.565768
O O19 0.250000 0.750000 0.500000
#
# Coordination Sequence:
#
# PCOD9195944 Si02
#       7
#     8   8   8   8   8   8   8
#     4   9  19  35  54  77 104 134 172 218 262 307
#     4  10  20  35  56  79 104 136 174 217 264 313
#     4  10  21  36  53  77 110 141 173 217 263 309
#     4  10  20  35  56  79 104 137 177 217 259 312
#     4   9  19  35  55  78 103 136 176 215 259 312
#     4  10  21  36  54  78 109 142 175 216 265 314
#     4  10  21  36  54  78 107 139 176 217 260 308
#
# _framework density 18.452059999999999
#
# number of rings (size 3 to 8) (size 9 to 14) (size 15 to 20)
#    0.000    2.286    0.000    2.143    0.000    4.571 
#    0.000    2.857    0.000    0.000    0.000    0.000 
#    0.000    0.000    0.000    0.000    0.000    0.000 
#
# Total GULP energy -156351.791415 kJ/mol
# GULP energy per Si atom -5583.992551 kJ/mol
# Density = 1.841006 g / cm^3
# Si number density = 18.452060 Si / 1000 Ang^3
#
#
#
# Elastic Constant Matrix: (Units=GPa)
#
#
# Indices 1 2 3 4 5 6 
#
# 1 138.9771 33.1639 135.9372 0.0001 -2.8679 -0.0002
# 2 33.1639 10.3755 36.7803 0.0003 -0.4717 -0.0008
# 3 135.9372 36.7803 220.4640 0.0000 0.7995 -0.0001
# 4 0.0001 0.0003 0.0000 34.9298 0.0000 -2.1754
# 5 -2.8679 -0.4717 0.7995 0.0000 38.5135 0.0001
# 6 -0.0002 -0.0008 -0.0001 -2.1754 0.0001 15.2142
#
#
#
# Elastic Compliance Matrix: (Units=1/GPa)
#
#
# Indices 1 2 3 4 5 6 
#
# 1 0.034323 -0.084655 -0.007047 0.000000 0.001665 -0.000004
# 2 -0.084655 0.445208 -0.022075 -0.000002 -0.000392 0.000021
# 3 -0.007047 -0.022075 0.012567 0.000000 -0.001056 -0.000001
# 4 0.000000 -0.000002 0.000000 0.028886 0.000000 0.004130
# 5 0.001665 -0.000392 -0.001056 0.000000 0.026106 0.000000
# 6 -0.000004 0.000021 -0.000001 0.004130 0.000000 0.066319
#
#
# Mechanical properties :
#
#
# Convention : Reuss Voigt Hill
#
# Bulk Modulus (GPa) = 3.78007 86.84213 45.31110
# Shear Modulus (GPa) = 5.38130 28.66052 17.02091
#
# Velocity S-wave (km/s) = 1.70959 3.94540 3.04046
# Velocity P-wave (km/s) = 2.43926 8.24140 6.07744
#
# Compressibility (1/GPa) = 0.26454509
#
# Stress axis : x y z
#
# Youngs Moduli (GPa) = 29.13486 2.24614 79.57071
#
# Poissons Ratio (x) = 0.19015 0.56070
# Poissons Ratio (y) = 2.46640 1.75656
# Poissons Ratio (z) = 0.20530 0.04958
#
# Static dielectric constant tensor:
#      x y z
#    x 1.627480 0.000000 0.006080 
#    y 0.000000 1.621660 0.000000 
#    z 0.006080 0.000000 1.598300 
# 
# From -- ./inp_files/275328.got.cif
#   From: 2010.05.17/outbox.cif.g08.bks.cpg/sg12_138_cif.got.tgz:275328.got - 2010.06.03 13:09:07.
