data_PCOD9195383
_publ_section_title
;
Structure prediction by ZEFSAII (Michael W. Deem and Ramdas Pophale) SiO2 
 PCOD9195383
Probable space group: C 2/M
;
_chemical_formula_sum "Si O2"
_cell_formula_units_Z 44
_cell_length_a 17.775851
_cell_length_b 21.735364
_cell_length_c 21.388095
_cell_angle_alpha 90.000000
_cell_angle_beta 161.539369
_cell_angle_gamma 90.000000
_cell_volume 2616.694310
_symmetry_space_group_name_H-M "C 2/M"
_symmetry_group_IT_number 12
_symmetry_cell_setting 'monoclinic'
loop_
_space_group_symop_operation_xyz
x,y,z
-x,y,-z
-x,-y,-z
x,-y,z
1/2+x,1/2+y,z
1/2-x,1/2+y,-z
1/2-x,1/2-y,-z
1/2+x,1/2-y,z
loop_
_atom_site_type_symbol
_atom_site_label
_atom_site_fract_x
_atom_site_fract_y
_atom_site_fract_z
Si Si1 0.401689 0.129139 0.222678
Si Si2 0.595233 0.370843 0.237863
Si Si3 0.223863 0.248041 0.798625
Si Si4 0.334915 0.000000 0.232011
Si Si5 0.500000 0.785731 0.500000
Si Si6 0.633514 0.317891 0.407696
Si Si7 0.675113 0.500000 0.242083
O O1 0.332727 0.184524 0.216230
O O2 0.430133 0.064839 0.281481
O O3 0.657829 0.143443 0.394520
O O4 0.178700 0.130076 0.000311
O O5 0.770282 0.327205 0.335606
O O6 0.612109 0.347176 0.322053
O O7 0.679512 0.439499 0.287799
O O8 0.069579 0.246001 0.614332
O O9 0.121230 0.194902 0.762572
O O10 0.500000 0.243358 0.000000
O O11 0.345358 0.000000 0.315684
O O12 0.073480 0.000000 0.993219
O O13 0.750000 0.250000 0.500000
#
# Coordination Sequence:
#
# PCOD9195383 Si02
#       7
#     8   8   8   4   4   8   4
#     4  10  20  35  54  75 112 145 175 217 260 318
#     4  11  21  34  53  78 112 148 178 214 263 322
#     4  11  22  36  53  75 107 143 181 227 264 309
#     4   9  18  33  52  81 117 147 172 212 264 321
#     4  12  20  31  52  78 104 143 184 208 260 324
#     4  10  22  37  50  76 106 143 187 221 268 315
#     4   9  20  30  51  82 113 145 181 209 259 330
#
# _framework density 16.815107999999999
#
# number of rings (size 3 to 8) (size 9 to 14) (size 15 to 20)
#    0.000    1.636    5.455    1.091    2.545    5.455 
#    0.000    0.000    0.000    0.000    0.000    2.545 
#    0.000    7.273    0.000    0.000    0.000    0.000 
#
# Total GULP energy -122549.976982 kJ/mol
# GULP energy per Si atom -5570.453499 kJ/mol
# Density = 1.677684 g / cm^3
# Si number density = 16.815108 Si / 1000 Ang^3
#
#
#
# Elastic Constant Matrix: (Units=GPa)
#
#
# Indices 1 2 3 4 5 6 
#
# 1 71.7174 50.6852 35.2209 0.0144 3.1598 0.0128
# 2 50.6852 84.4640 40.7066 0.0423 4.8988 0.0373
# 3 35.2209 40.7066 85.1836 0.0328 2.8058 0.0356
# 4 0.0144 0.0423 0.0328 23.2748 0.0172 -3.1766
# 5 3.1598 4.8988 2.8058 0.0172 39.2118 -0.0017
# 6 0.0128 0.0373 0.0356 -3.1766 -0.0017 23.4302
#
#
#
# Elastic Compliance Matrix: (Units=1/GPa)
#
#
# Indices 1 2 3 4 5 6 
#
# 1 0.025301 -0.013170 -0.004164 0.000016 -0.000095 0.000016
# 2 -0.013170 0.022314 -0.005173 -0.000027 -0.001356 -0.000024
# 3 -0.004164 -0.005173 0.015939 -0.000012 -0.000159 -0.000015
# 4 0.000016 -0.000027 -0.000012 0.043775 -0.000016 0.005935
# 5 -0.000095 -0.001356 -0.000159 -0.000016 0.025691 0.000002
# 6 0.000016 -0.000024 -0.000015 0.005935 0.000002 0.043485
#
#
# Mechanical properties :
#
#
# Convention : Reuss Voigt Hill
#
# Bulk Modulus (GPa) = 53.94232 54.95450 54.44841
# Shear Modulus (GPa) = 21.95885 24.83351 23.39618
#
# Velocity S-wave (km/s) = 3.61764 3.84716 3.73417
# Velocity P-wave (km/s) = 7.04266 7.24477 7.14443
#
# Compressibility (1/GPa) = 0.01853832
#
# Stress axis : x y z
#
# Youngs Moduli (GPa) = 39.52477 44.81449 62.74079
#
# Poissons Ratio (x) = 0.59020 0.26128
# Poissons Ratio (y) = 0.52054 0.32457
# Poissons Ratio (z) = 0.16460 0.23184
#
# Static dielectric constant tensor:
#      x y z
#    x 1.575500 -0.000050 0.012160 
#    y -0.000050 1.568330 -0.000090 
#    z 0.012160 -0.000090 1.652590 
# 
# From -- ./inp_files/317859.got.cif
#   From: 2010.05.17/outbox.cif.g08.bks.cpg/sg12_159_cif.got.tgz:317859.got - 2010.06.03 13:09:07.
