data_PCOD9195249
_publ_section_title
;
Structure prediction by ZEFSAII (Michael W. Deem and Ramdas Pophale) SiO2 
 PCOD9195249
Probable space group: C 2/M
;
_chemical_formula_sum "Si O2"
_cell_formula_units_Z 58
_cell_length_a 20.331550
_cell_length_b 17.210868
_cell_length_c 26.132901
_cell_angle_alpha 90.000000
_cell_angle_beta 159.057461
_cell_angle_gamma 90.000000
_cell_volume 3268.539260
_symmetry_space_group_name_H-M "C 2/M"
_symmetry_group_IT_number 12
_symmetry_cell_setting 'monoclinic'
loop_
_space_group_symop_operation_xyz
x,y,z
-x,y,-z
-x,-y,-z
x,-y,z
1/2+x,1/2+y,z
1/2-x,1/2+y,-z
1/2-x,1/2-y,-z
1/2+x,1/2-y,z
loop_
_atom_site_type_symbol
_atom_site_label
_atom_site_fract_x
_atom_site_fract_y
_atom_site_fract_z
Si Si1 0.199871 0.780522 0.126692
Si Si2 0.900234 0.090381 0.609285
Si Si3 0.206829 0.910486 0.646629
Si Si4 0.787362 0.880768 0.234208
Si Si5 0.046946 0.654380 0.836708
Si Si6 0.329084 0.690179 0.123671
Si Si7 0.000000 0.500000 0.000000
Si Si8 0.527962 0.909317 0.711967
O O1 0.259217 0.710639 0.207381
O O2 0.205420 0.737303 0.075329
O O3 0.342590 0.851033 0.225572
O O4 0.000000 0.806678 0.000000
O O5 0.686743 0.113206 0.451082
O O6 0.004060 0.099909 0.630226
O O7 0.021660 0.141370 0.736249
O O8 0.906885 0.000000 0.628366
O O9 0.269316 0.909864 0.751139
O O10 0.348791 0.863730 0.716006
O O11 0.000000 0.878919 0.500000
O O12 0.199946 0.000000 0.623647
O O13 0.655505 0.931408 0.102081
O O14 0.068876 0.743545 0.835085
O O15 0.073850 0.603753 0.805249
O O16 0.199578 0.641730 0.991589
O O17 0.550516 0.000000 0.715200
#
# Coordination Sequence:
#
# PCOD9195249 Si02
#       8
#     8   8   8   8   8   8   2   8
#     4  10  20  35  56  79 105 134 174 226 269 308
#     4  10  20  35  55  77 107 140 176 223 263 309
#     4  11  22  32  47  74 108 140 167 197 247 315
#     4  11  21  32  53  79 109 136 174 207 259 315
#     4  10  20  35  53  73 109 141 172 214 258 313
#     4   9  21  35  53  80 103 134 177 215 260 320
#     4  12  20  32  50  84 110 136 170 216 246 324
#     4  10  22  38  54  77 105 140 183 223 267 312
#
# _framework density 17.744928999999999
#
# number of rings (size 3 to 8) (size 9 to 14) (size 15 to 20)
#    0.000    1.793    2.069    2.069    1.931    9.655 
#    0.000    0.000    0.000    0.000    0.000    0.000 
#    0.000   33.103    0.000    0.000    0.000    0.000 
#
# Total GULP energy -161522.496155 kJ/mol
# GULP energy per Si atom -5569.741247 kJ/mol
# Density = 1.770454 g / cm^3
# Si number density = 17.744929 Si / 1000 Ang^3
#
#
#
# Elastic Constant Matrix: (Units=GPa)
#
#
# Indices 1 2 3 4 5 6 
#
# 1 64.9362 31.6591 38.2526 0.0074 23.7063 0.0053
# 2 31.6591 76.2053 45.2410 0.0280 24.4566 0.0133
# 3 38.2526 45.2410 96.9825 0.0391 27.2830 0.0206
# 4 0.0074 0.0280 0.0391 30.3402 0.0108 9.2618
# 5 23.7063 24.4566 27.2830 0.0108 40.7720 0.0004
# 6 0.0053 0.0133 0.0206 9.2618 0.0004 23.9851
#
#
#
# Elastic Compliance Matrix: (Units=1/GPa)
#
#
# Indices 1 2 3 4 5 6 
#
# 1 0.023194 -0.004201 -0.005056 0.000008 -0.007583 -0.000001
# 2 -0.004201 0.020390 -0.006284 -0.000007 -0.005583 -0.000002
# 3 -0.005056 -0.006284 0.016445 -0.000011 -0.004295 -0.000005
# 4 0.000008 -0.000007 -0.000011 0.037364 -0.000003 -0.014428
# 5 -0.007583 -0.005583 -0.004295 -0.000003 0.035159 0.000009
# 6 -0.000001 -0.000002 -0.000005 -0.014428 0.000009 0.047264
#
#
# Mechanical properties :
#
#
# Convention : Reuss Voigt Hill
#
# Bulk Modulus (GPa) = 34.54421 52.04770 43.29595
# Shear Modulus (GPa) = 22.67084 27.21752 24.94418
#
# Velocity S-wave (km/s) = 3.57822 3.92065 3.75334
# Velocity P-wave (km/s) = 6.04822 7.06329 6.57537
#
# Compressibility (1/GPa) = 0.02894841
#
# Stress axis : x y z
#
# Youngs Moduli (GPa) = 43.11383 49.04306 60.80864
#
# Poissons Ratio (x) = 0.20603 0.30742
# Poissons Ratio (y) = 0.18112 0.38213
# Poissons Ratio (z) = 0.21796 0.30819
#
# Static dielectric constant tensor:
#      x y z
#    x 1.642230 0.000000 -0.045530 
#    y 0.000000 1.598470 -0.000010 
#    z -0.045530 -0.000010 1.669300 
# 
# From -- ./inp_files/366556.got.cif
#   From: 2010.05.17/outbox.cif.g08.bks.cpg/sg12_184_cif.got.tgz:366556.got - 2010.06.03 13:09:07.
