data_PCOD9195121
_publ_section_title
;
Structure prediction by ZEFSAII (Michael W. Deem and Ramdas Pophale) SiO2 
 PCOD9195121
Probable space group: C 2/M
;
_chemical_formula_sum "Si O2"
_cell_formula_units_Z 56
_cell_length_a 20.478605
_cell_length_b 20.383032
_cell_length_c 15.107708
_cell_angle_alpha 90.000000
_cell_angle_beta 153.706884
_cell_angle_gamma 90.000000
_cell_volume 2793.416258
_symmetry_space_group_name_H-M "C 2/M"
_symmetry_group_IT_number 12
_symmetry_cell_setting 'monoclinic'
loop_
_space_group_symop_operation_xyz
x,y,z
-x,y,-z
-x,-y,-z
x,-y,z
1/2+x,1/2+y,z
1/2-x,1/2+y,-z
1/2-x,1/2-y,-z
1/2+x,1/2-y,z
loop_
_atom_site_type_symbol
_atom_site_label
_atom_site_fract_x
_atom_site_fract_y
_atom_site_fract_z
Si Si1 0.935647 0.076638 0.829684
Si Si2 0.833187 0.298845 0.308831
Si Si3 0.583299 0.255527 0.329438
Si Si4 0.843980 0.575232 0.034130
Si Si5 0.604644 0.189470 0.046593
Si Si6 0.632182 0.365706 0.921094
Si Si7 0.120734 0.374566 0.469724
O O1 0.778911 0.109756 0.618607
O O2 0.056469 0.087105 0.901200
O O3 0.904961 0.000000 0.805568
O O4 0.000000 0.104463 0.000000
O O5 0.844991 0.364072 0.385180
O O6 0.000000 0.276346 0.500000
O O7 0.739497 0.238041 0.235279
O O8 0.754281 0.322140 0.122143
O O9 0.750000 0.250000 0.500000
O O10 0.493242 0.237787 0.132231
O O11 0.505472 0.319614 0.273344
O O12 0.563544 0.196769 0.373137
O O13 0.825088 0.500000 0.982019
O O14 0.855339 0.627383 0.967038
O O15 0.993455 0.579518 0.276083
O O16 0.712027 0.598441 0.937916
O O17 0.500000 0.168647 0.000000
#
# Coordination Sequence:
#
# PCOD9195121 Si02
#       7
#     8   8   8   8   8   8   8
#     4  11  22  35  55  86 126 169 209 240 287 372
#     4  11  22  37  63  94 130 155 196 261 321 376
#     4  10  20  34  63  91 121 149 201 262 311 360
#     4  11  25  44  62  87 128 171 210 251 303 374
#     4  10  24  41  64  92 117 160 211 262 322 364
#     4  11  22  38  60  91 127 166 204 248 312 368
#     4  11  21  37  60  91 120 164 201 254 310 363
#
# _framework density 20.047136999999999
#
# number of rings (size 3 to 8) (size 9 to 14) (size 15 to 20)
#    0.000    1.286    4.286    1.714    4.000    2.000 
#    0.000    0.714    0.000    0.429    0.000    0.000 
#    0.000    0.000    0.000    0.000    0.000    0.000 
#
# Total GULP energy -156155.456033 kJ/mol
# GULP energy per Si atom -5576.980573 kJ/mol
# Density = 2.000151 g / cm^3
# Si number density = 20.047137 Si / 1000 Ang^3
#
#
#
# Elastic Constant Matrix: (Units=GPa)
#
#
# Indices 1 2 3 4 5 6 
#
# 1 106.1900 17.9535 15.7575 0.0000 27.0026 0.0000
# 2 17.9535 68.5580 12.6984 0.0000 6.4688 0.0000
# 3 15.7575 12.6984 82.0977 0.0000 24.6758 0.0000
# 4 0.0000 0.0000 0.0000 24.1757 0.0000 3.2628
# 5 27.0026 6.4688 24.6758 0.0000 28.9393 0.0000
# 6 0.0000 0.0000 0.0000 3.2628 0.0000 19.8309
#
#
#
# Elastic Compliance Matrix: (Units=1/GPa)
#
#
# Indices 1 2 3 4 5 6 
#
# 1 0.012875 -0.002482 0.001824 0.000000 -0.013015 0.000000
# 2 -0.002482 0.015569 -0.002127 0.000000 0.000649 0.000000
# 3 0.001824 -0.002127 0.016845 0.000000 -0.015590 0.000000
# 4 0.000000 0.000000 0.000000 0.042303 0.000000 -0.006960
# 5 -0.013015 0.000649 -0.015590 0.000000 0.059847 0.000000
# 6 0.000000 0.000000 0.000000 -0.006960 0.000000 0.051572
#
#
# Mechanical properties :
#
#
# Convention : Reuss Voigt Hill
#
# Bulk Modulus (GPa) = 25.17545 38.85159 32.01352
# Shear Modulus (GPa) = 22.95472 28.61826 25.78649
#
# Velocity S-wave (km/s) = 3.38751 3.78239 3.59038
# Velocity P-wave (km/s) = 5.28069 6.20463 5.76121
#
# Compressibility (1/GPa) = 0.03972123
#
# Stress axis : x y z
#
# Youngs Moduli (GPa) = 77.66777 64.23119 59.36348
#
# Poissons Ratio (x) = 0.15940 -0.10830
# Poissons Ratio (y) = 0.19274 0.12626
# Poissons Ratio (z) = -0.14169 0.13661
#
# Static dielectric constant tensor:
#      x y z
#    x 1.762420 0.000000 -0.024730 
#    y 0.000000 1.757990 0.000000 
#    z -0.024730 0.000000 1.767200 
# 
# From -- ./inp_files/65465.got.cif
#   From: 2010.05.17/outbox.cif.g08.bks.cpg/sg12_33_cif.got.tgz:65465.got - 2010.06.03 13:09:07.
