data_PCOD9195529
_publ_section_title
;
Structure prediction by ZEFSAII (Michael W. Deem and Ramdas Pophale) SiO2 
 PCOD9195529
Probable space group: C 2/M
;
_chemical_formula_sum "Si O2"
_cell_formula_units_Z 56
_cell_length_a 8.067600
_cell_length_b 27.483043
_cell_length_c 13.125863
_cell_angle_alpha 90.000000
_cell_angle_beta 65.164474
_cell_angle_gamma 90.000000
_cell_volume 2641.143015
_symmetry_space_group_name_H-M "C 2/M"
_symmetry_group_IT_number 12
_symmetry_cell_setting 'monoclinic'
loop_
_space_group_symop_operation_xyz
x,y,z
-x,y,-z
-x,-y,-z
x,-y,z
1/2+x,1/2+y,z
1/2-x,1/2+y,-z
1/2-x,1/2-y,-z
1/2+x,1/2-y,z
loop_
_atom_site_type_symbol
_atom_site_label
_atom_site_fract_x
_atom_site_fract_y
_atom_site_fract_z
Si Si1 0.224328 0.500000 0.118681
Si Si2 0.790582 0.805364 0.515646
Si Si3 0.335907 0.141582 0.265214
Si Si4 0.915562 0.107407 0.832537
Si Si5 0.428829 0.500000 0.848050
Si Si6 0.846798 0.442370 0.410767
Si Si7 0.128992 0.400268 0.066062
Si Si8 0.731004 0.106459 0.377331
O O1 0.355366 0.500000 0.182187
O O2 0.120645 0.449688 0.133611
O O3 0.338856 0.500000 0.983476
O O4 0.750000 0.750000 0.500000
O O5 0.672535 0.819416 0.644663
O O6 0.737134 0.842308 0.437598
O O7 0.000000 0.812725 0.500000
O O8 0.188943 0.144950 0.212885
O O9 0.280676 0.090947 0.335580
O O10 0.531626 0.139111 0.160970
O O11 0.873034 0.050823 0.814970
O O12 0.128149 0.111072 0.752075
O O13 0.827884 0.111049 0.967916
O O14 0.866692 0.500000 0.389080
O O15 0.722582 0.431714 0.543026
O O16 0.040343 0.415474 0.386455
O O17 0.000000 0.407088 0.000000
#
# Coordination Sequence:
#
# PCOD9195529 Si02
#       8
#     4   8   8   8   4   8   8   8
#     4   9  17  32  44  77 116 163 217 239 269 324
#     4  11  24  43  67  89 111 142 190 252 312 366
#     4  10  22  38  57  85 116 153 200 240 292 360
#     4  10  20  35  54  82 117 163 199 240 279 346
#     4   9  20  28  48  77 119 164 205 248 270 316
#     4  10  23  36  55  83 123 167 200 248 293 345
#     4   9  19  33  54  79 117 162 204 241 288 337
#     4  10  21  39  57  82 118 147 201 239 300 357
#
# _framework density 21.202939000000001
#
# number of rings (size 3 to 8) (size 9 to 14) (size 15 to 20)
#    0.000    2.143    1.429    1.071   10.000    1.143 
#    0.000    0.714    0.000    0.857    0.000    0.000 
#    0.000    0.000    0.000    0.000    0.000    0.000 
#
# Total GULP energy -156102.185698 kJ/mol
# GULP energy per Si atom -5575.078061 kJ/mol
# Density = 2.115468 g / cm^3
# Si number density = 21.202939 Si / 1000 Ang^3
#
#
#
# Elastic Constant Matrix: (Units=GPa)
#
#
# Indices 1 2 3 4 5 6 
#
# 1 42.5502 12.9639 26.4836 0.0000 -1.6440 0.0000
# 2 12.9639 119.6085 31.0342 0.0000 5.4436 0.0000
# 3 26.4836 31.0342 116.9927 0.0000 -21.8174 0.0000
# 4 0.0000 0.0000 0.0000 26.9720 0.0000 6.6923
# 5 -1.6440 5.4436 -21.8174 0.0000 34.1319 0.0000
# 6 0.0000 0.0000 0.0000 6.6923 0.0000 21.7598
#
#
#
# Elastic Compliance Matrix: (Units=1/GPa)
#
#
# Indices 1 2 3 4 5 6 
#
# 1 0.027788 -0.001221 -0.006449 0.000000 -0.002589 0.000000
# 2 -0.001221 0.009384 -0.002842 0.000000 -0.003372 0.000000
# 3 -0.006449 -0.002842 0.012248 0.000000 0.007972 0.000000
# 4 0.000000 0.000000 0.000000 0.040138 0.000000 -0.012345
# 5 -0.002589 -0.003372 0.007972 0.000000 0.034807 0.000000
# 6 0.000000 0.000000 0.000000 -0.012345 0.000000 0.049753
#
#
# Mechanical properties :
#
#
# Convention : Reuss Voigt Hill
#
# Bulk Modulus (GPa) = 35.21631 46.67944 40.94787
# Shear Modulus (GPa) = 24.43725 30.48406 27.46066
#
# Velocity S-wave (km/s) = 3.39859 3.79585 3.60270
# Velocity P-wave (km/s) = 5.66090 6.42454 6.05477
#
# Compressibility (1/GPa) = 0.02839594
#
# Stress axis : x y z
#
# Youngs Moduli (GPa) = 35.98721 106.56814 81.64688
#
# Poissons Ratio (x) = 0.13007 0.52657
# Poissons Ratio (y) = 0.04392 0.23201
# Poissons Ratio (z) = 0.23210 0.30283
#
# Static dielectric constant tensor:
#      x y z
#    x 1.870530 0.000000 -0.048630 
#    y 0.000000 1.733770 0.000000 
#    z -0.048630 0.000000 1.838970 
# 
# From -- ./inp_files/199718.got.cif
#   From: 2010.05.17/outbox.cif.g08.bks.cpg/sg12_100_cif.got.tgz:199718.got - 2010.06.03 13:09:07.
