data_PCOD9195596
_publ_section_title
;
Structure prediction by ZEFSAII (Michael W. Deem and Ramdas Pophale) SiO2 
 PCOD9195596
Probable space group: C 2/M
;
_chemical_formula_sum "Si O2"
_cell_formula_units_Z 44
_cell_length_a 9.148722
_cell_length_b 22.777819
_cell_length_c 12.437429
_cell_angle_alpha 90.000000
_cell_angle_beta 52.796058
_cell_angle_gamma 90.000000
_cell_volume 2064.346495
_symmetry_space_group_name_H-M "C 2/M"
_symmetry_group_IT_number 12
_symmetry_cell_setting 'monoclinic'
loop_
_space_group_symop_operation_xyz
x,y,z
-x,y,-z
-x,-y,-z
x,-y,z
1/2+x,1/2+y,z
1/2-x,1/2+y,-z
1/2-x,1/2-y,-z
1/2+x,1/2-y,z
loop_
_atom_site_type_symbol
_atom_site_label
_atom_site_fract_x
_atom_site_fract_y
_atom_site_fract_z
Si Si1 0.000000 0.266489 0.000000
Si Si2 0.964363 0.361742 0.644389
Si Si3 0.395493 0.432681 0.220433
Si Si4 0.959354 0.233267 0.398228
Si Si5 0.818081 0.933171 0.512177
Si Si6 0.888301 0.175527 0.865553
O O1 0.027485 0.222564 0.088495
O O2 0.819344 0.307216 0.072133
O O3 0.786201 0.400750 0.745518
O O4 0.000000 0.361786 0.500000
O O5 0.936928 0.293186 0.683522
O O6 0.149969 0.389133 0.610028
O O7 0.414016 0.500000 0.177126
O O8 0.363282 0.433798 0.364552
O O9 0.567256 0.390458 0.118045
O O10 0.750000 0.250000 0.500000
O O11 0.000000 0.214444 0.500000
O O12 0.997536 0.184924 0.294194
O O13 0.000000 0.921212 0.500000
O O14 0.757426 0.000000 0.565414
#
# Coordination Sequence:
#
# PCOD9195596 Si02
#       6
#     4   8   8   8   8   8
#     4  10  24  42  64  82 110 156 198 240 284 342
#     4   9  17  30  48  75 112 153 187 219 275 348
#     4  10  20  35  55  77 107 147 191 237 282 337
#     4  11  21  33  56  90 121 146 179 236 297 343
#     4   9  17  28  44  73 114 154 186 218 269 342
#     4  11  22  41  61  86 115 150 196 238 287 345
#
# _framework density 21.314250999999999
#
# number of rings (size 3 to 8) (size 9 to 14) (size 15 to 20)
#    0.000    2.000    0.000    6.000    0.000    6.545 
#    0.000    0.909    0.000    0.000    0.000    0.000 
#    0.000    0.000    0.000    0.000    0.000    0.000 
#
# Total GULP energy -122925.916096 kJ/mol
# GULP energy per Si atom -5587.541641 kJ/mol
# Density = 2.126574 g / cm^3
# Si number density = 21.314251 Si / 1000 Ang^3
#
#
#
# Elastic Constant Matrix: (Units=GPa)
#
#
# Indices 1 2 3 4 5 6 
#
# 1 102.1010 20.8543 21.5457 0.0000 -17.3608 0.0000
# 2 20.8543 178.1801 18.5217 0.0000 -23.2639 0.0000
# 3 21.5457 18.5217 36.6635 0.0000 -11.8817 0.0000
# 4 0.0000 0.0000 0.0000 28.8492 0.0000 -1.4379
# 5 -17.3608 -23.2639 -11.8817 0.0000 31.7624 0.0000
# 6 0.0000 0.0000 0.0000 -1.4379 0.0000 37.7391
#
#
#
# Elastic Compliance Matrix: (Units=1/GPa)
#
#
# Indices 1 2 3 4 5 6 
#
# 1 0.011696 -0.000263 -0.005384 0.000000 0.004186 0.000000
# 2 -0.000263 0.006329 -0.001806 0.000000 0.003816 0.000000
# 3 -0.005384 -0.001806 0.034103 0.000000 0.008492 0.000000
# 4 0.000000 0.000000 0.000000 0.034729 0.000000 0.001323
# 5 0.004186 0.003816 0.008492 0.000000 0.039744 0.000000
# 6 0.000000 0.000000 0.000000 0.001323 0.000000 0.026548
#
#
# Mechanical properties :
#
#
# Convention : Reuss Voigt Hill
#
# Bulk Modulus (GPa) = 26.86508 48.75421 37.80965
# Shear Modulus (GPa) = 27.70666 36.73834 32.22250
#
# Velocity S-wave (km/s) = 3.60934 4.15619 3.89238
# Velocity P-wave (km/s) = 5.47736 6.77905 6.16267
#
# Compressibility (1/GPa) = 0.03722304
#
# Stress axis : x y z
#
# Youngs Moduli (GPa) = 85.50077 158.00082 29.32264
#
# Poissons Ratio (x) = 0.04150 0.15787
# Poissons Ratio (y) = 0.02246 0.05296
# Poissons Ratio (z) = 0.46032 0.28538
#
# Static dielectric constant tensor:
#      x y z
#    x 1.753610 0.000000 0.001800 
#    y 0.000000 1.815430 0.000000 
#    z 0.001800 0.000000 1.808610 
# 
# From -- ./inp_files/198245.got.cif
#   From: 2010.05.17/outbox.cif.g08.bks.cpg/sg12_100_cif.got.tgz:198245.got - 2010.06.03 13:09:07.
