data_PCOD9195534
_publ_section_title
;
Structure prediction by ZEFSAII (Michael W. Deem and Ramdas Pophale) SiO2 
 PCOD9195534
Probable space group: C 2/M
;
_chemical_formula_sum "Si O2"
_cell_formula_units_Z 64
_cell_length_a 20.678330
_cell_length_b 27.097642
_cell_length_c 10.203529
_cell_angle_alpha 90.000000
_cell_angle_beta 40.560749
_cell_angle_gamma 90.000000
_cell_volume 3717.751384
_symmetry_space_group_name_H-M "C 2/M"
_symmetry_group_IT_number 12
_symmetry_cell_setting 'monoclinic'
loop_
_space_group_symop_operation_xyz
x,y,z
-x,y,-z
-x,-y,-z
x,-y,z
1/2+x,1/2+y,z
1/2-x,1/2+y,-z
1/2-x,1/2-y,-z
1/2+x,1/2-y,z
loop_
_atom_site_type_symbol
_atom_site_label
_atom_site_fract_x
_atom_site_fract_y
_atom_site_fract_z
Si Si1 0.884443 0.225422 0.834998
Si Si2 0.111908 0.340862 0.104800
Si Si3 0.620880 0.165734 0.567019
Si Si4 0.730554 0.858512 0.662607
Si Si5 0.614721 0.277588 0.480880
Si Si6 0.251531 0.136550 0.867617
Si Si7 0.627997 0.558231 0.662775
Si Si8 0.399656 0.441914 0.982348
O O1 0.869053 0.224617 0.701326
O O2 0.998773 0.209801 0.681844
O O3 0.873180 0.281338 0.903983
O O4 0.810255 0.187129 0.016065
O O5 0.993827 0.348620 0.279011
O O6 0.165866 0.361246 0.893486
O O7 0.165242 0.364424 0.148200
O O8 0.658553 0.156561 0.654896
O O9 0.630199 0.223304 0.515356
O O10 0.692128 0.137452 0.356905
O O11 0.812489 0.816332 0.564437
O O12 0.790509 0.907457 0.529869
O O13 0.172727 0.092313 0.989808
O O14 0.646087 0.500000 0.613438
O O15 0.516381 0.569793 0.783934
O O16 0.623558 0.566039 0.827084
O O17 0.385737 0.500000 0.977225
#
# Coordination Sequence:
#
# PCOD9195534 Si02
#       8
#     8   8   8   8   8   8   8   8
#     4  10  20  35  55  82 116 154 185 220 280 345
#     4  11  23  37  55  77 119 157 187 226 274 324
#     4  11  23  36  54  81 113 153 195 233 263 317
#     4  12  21  37  57  85 112 146 189 234 279 327
#     4  10  20  35  54  83 118 149 186 227 278 333
#     4  12  19  36  60  82 106 148 196 225 270 333
#     4   9  19  38  61  87 115 142 174 225 293 348
#     4   9  19  37  62  89 113 138 179 230 283 342
#
# _framework density 17.214707000000001
#
# number of rings (size 3 to 8) (size 9 to 14) (size 15 to 20)
#    0.000    1.500    3.750    3.750    0.000    0.000 
#    0.000    1.875    0.000    6.000    0.000    0.000 
#    0.000    0.000    0.000    0.000    0.000    0.000 
#
# Total GULP energy -178708.232987 kJ/mol
# GULP energy per Si atom -5584.632281 kJ/mol
# Density = 1.717553 g / cm^3
# Si number density = 17.214707 Si / 1000 Ang^3
#
#
#
# Elastic Constant Matrix: (Units=GPa)
#
#
# Indices 1 2 3 4 5 6 
#
# 1 102.2439 40.7043 8.7281 0.0000 -9.4433 0.0000
# 2 40.7043 56.3859 13.1792 0.0000 -13.7340 0.0000
# 3 8.7281 13.1792 49.1955 0.0000 -10.1107 0.0000
# 4 0.0000 0.0000 0.0000 22.9171 0.0000 -4.3545
# 5 -9.4433 -13.7340 -10.1107 0.0000 31.3078 0.0000
# 6 0.0000 0.0000 0.0000 -4.3545 0.0000 22.9156
#
#
#
# Elastic Compliance Matrix: (Units=1/GPa)
#
#
# Indices 1 2 3 4 5 6 
#
# 1 0.013728 -0.010003 0.000207 0.000000 -0.000180 0.000000
# 2 -0.010003 0.027823 -0.004060 0.000000 0.007877 0.000000
# 3 0.000207 -0.004060 0.022519 0.000000 0.005554 0.000000
# 4 0.000000 0.000000 0.000000 0.045270 0.000000 0.008602
# 5 -0.000180 0.007877 0.005554 0.000000 0.037136 0.000000
# 6 0.000000 0.000000 0.000000 0.008602 0.000000 0.045273
#
#
# Mechanical properties :
#
#
# Convention : Reuss Voigt Hill
#
# Bulk Modulus (GPa) = 27.50309 37.00539 32.25424
# Shear Modulus (GPa) = 21.59067 25.10901 23.34984
#
# Velocity S-wave (km/s) = 3.54531 3.82328 3.68691
# Velocity P-wave (km/s) = 5.72452 6.40570 6.07467
#
# Compressibility (1/GPa) = 0.03635955
#
# Stress axis : x y z
#
# Youngs Moduli (GPa) = 72.84195 35.94101 44.40598
#
# Poissons Ratio (x) = 0.35950 -0.00919
# Poissons Ratio (y) = 0.72861 0.18030
# Poissons Ratio (z) = -0.01508 0.14593
#
# Static dielectric constant tensor:
#      x y z
#    x 1.583640 0.000000 -0.010060 
#    y 0.000000 1.556280 0.000000 
#    z -0.010060 0.000000 1.580660 
# 
# From -- ./inp_files/99662.got.cif
#   From: 2010.05.17/outbox.cif.g08.bks.cpg/sg12_50_cif.got.tgz:99662.got - 2010.06.03 13:09:07.
