data_PCOD9195820
_publ_section_title
;
Structure prediction by ZEFSAII (Michael W. Deem and Ramdas Pophale) SiO2 
 PCOD9195820
Probable space group: C 2/M
;
_chemical_formula_sum "Si O2"
_cell_formula_units_Z 32
_cell_length_a 13.911366
_cell_length_b 19.209392
_cell_length_c 11.102618
_cell_angle_alpha 90.000000
_cell_angle_beta 148.032116
_cell_angle_gamma 90.000000
_cell_volume 1570.828169
_symmetry_space_group_name_H-M "C 2/M"
_symmetry_group_IT_number 12
_symmetry_cell_setting 'monoclinic'
loop_
_space_group_symop_operation_xyz
x,y,z
-x,y,-z
-x,-y,-z
x,-y,z
1/2+x,1/2+y,z
1/2-x,1/2+y,-z
1/2-x,1/2-y,-z
1/2+x,1/2-y,z
loop_
_atom_site_type_symbol
_atom_site_label
_atom_site_fract_x
_atom_site_fract_y
_atom_site_fract_z
Si Si1 0.106318 0.148970 0.327497
Si Si2 0.722782 0.187547 0.881209
Si Si3 0.560334 0.076737 0.423475
Si Si4 0.809401 0.279676 0.746103
O O1 0.233304 0.094355 0.392558
O O2 0.127215 0.223200 0.284034
O O3 0.178849 0.164953 0.540272
O O4 0.893975 0.135645 0.079782
O O5 0.549960 0.143514 0.737647
O O6 0.717519 0.228528 0.748210
O O7 0.750000 0.250000 0.000000
O O8 0.500000 0.076026 0.500000
O O9 0.514614 0.000000 0.327011
O O10 0.000000 0.310005 0.000000
#
# Coordination Sequence:
#
# PCOD9195820 Si02
#       4
#     8   8   8   8
#     4  10  20  35  55  81 116 155 191 241 298 349
#     4  11  22  35  61  91 118 153 201 256 296 355
#     4  11  23  38  57  85 125 162 197 243 303 368
#     4   9  17  32  55  83 115 143 190 244 296 343
#
# _framework density 20.371420000000001
#
# number of rings (size 3 to 8) (size 9 to 14) (size 15 to 20)
#    0.000    1.750    2.500    4.500    0.000    1.000 
#    0.000    2.500    0.000    6.750    0.000    8.750 
#    0.000    0.000    0.000    0.000    0.000    0.000 
#
# Total GULP energy -89114.701890 kJ/mol
# GULP energy per Si atom -5569.668868 kJ/mol
# Density = 2.032505 g / cm^3
# Si number density = 20.371420 Si / 1000 Ang^3
#
#
#
# Elastic Constant Matrix: (Units=GPa)
#
#
# Indices 1 2 3 4 5 6 
#
# 1 61.5998 20.4493 32.3209 0.0000 6.9142 0.0000
# 2 20.4493 71.5452 3.1100 0.0000 2.4269 0.0000
# 3 32.3209 3.1100 57.2421 0.0000 0.3936 0.0000
# 4 0.0000 0.0000 0.0000 8.1097 0.0000 -6.1895
# 5 6.9142 2.4269 0.3936 0.0000 35.6284 0.0000
# 6 0.0000 0.0000 0.0000 -6.1895 0.0000 2.1126
#
#
#
# Elastic Compliance Matrix: (Units=1/GPa)
#
#
# Indices 1 2 3 4 5 6 
#
# 1 0.026723 -0.006845 -0.014686 0.000000 -0.004557 0.000000
# 2 -0.006845 0.015796 0.003005 0.000000 0.000219 0.000000
# 3 -0.014686 0.003005 0.025582 0.000000 0.002363 0.000000
# 4 0.000000 0.000000 0.000000 -0.099763 0.000000 -0.292278
# 5 -0.004557 0.000219 0.002363 0.000000 0.028911 0.000000
# 6 0.000000 0.000000 0.000000 -0.292278 0.000000 -0.382956
#
#
# Mechanical properties :
#
#
# Convention : Reuss Voigt Hill
#
# Bulk Modulus (GPa) = 32.20606 33.57194 32.88900
# Shear Modulus (GPa) = -14.77952 18.13727 1.67887
#
# Velocity S-wave (km/s) = -2.69644 2.98708 0.90880
# Velocity P-wave (km/s) = 2.47979 5.33034 4.15704
#
# Compressibility (1/GPa) = 0.03105006
#
# Stress axis : x y z
#
# Youngs Moduli (GPa) = 37.42070 63.30872 39.08980
#
# Poissons Ratio (x) = 0.43336 0.57406
# Poissons Ratio (y) = 0.25615 -0.11748
# Poissons Ratio (z) = 0.54955 -0.19026
#
# Static dielectric constant tensor:
#      x y z
#    x 1.821440 0.000000 -0.004640 
#    y 0.000000 1.723340 0.000000 
#    z -0.004640 0.000000 1.909280 
# 
# From -- ./inp_files/46418.got.cif
#   From: 2010.05.17/outbox.cif.g08.bks.cpg/sg12_24_cif.got.tgz:46418.got - 2010.06.03 13:09:07.
