data_PCOD9195472
_publ_section_title
;
Structure prediction by ZEFSAII (Michael W. Deem and Ramdas Pophale) SiO2 
 PCOD9195472
Probable space group: C 2/M
;
_chemical_formula_sum "Si O2"
_cell_formula_units_Z 48
_cell_length_a 9.657231
_cell_length_b 17.443083
_cell_length_c 20.247160
_cell_angle_alpha 90.000000
_cell_angle_beta 54.202607
_cell_angle_gamma 90.000000
_cell_volume 2766.363599
_symmetry_space_group_name_H-M "C 2/M"
_symmetry_group_IT_number 12
_symmetry_cell_setting 'monoclinic'
loop_
_space_group_symop_operation_xyz
x,y,z
-x,y,-z
-x,-y,-z
x,-y,z
1/2+x,1/2+y,z
1/2-x,1/2+y,-z
1/2-x,1/2-y,-z
1/2+x,1/2-y,z
loop_
_atom_site_type_symbol
_atom_site_label
_atom_site_fract_x
_atom_site_fract_y
_atom_site_fract_z
Si Si1 0.007029 0.198004 0.608223
Si Si2 0.123725 0.639307 0.519675
Si Si3 0.085425 0.411979 0.905227
Si Si4 0.782656 0.586936 0.363598
Si Si5 0.732488 0.725604 0.203620
Si Si6 0.465796 0.157968 0.812863
O O1 0.689280 0.343183 0.561592
O O2 0.872455 0.145787 0.605863
O O3 0.924104 0.213672 0.702667
O O4 0.039872 0.279020 0.563694
O O5 0.151799 0.595063 0.580162
O O6 0.000000 0.602996 0.500000
O O7 0.141843 0.500000 0.883862
O O8 0.233871 0.350081 0.849910
O O9 0.953553 0.392910 0.882213
O O10 0.000000 0.400408 0.000000
O O11 0.727523 0.500000 0.365655
O O12 0.932150 0.610712 0.271108
O O13 0.698212 0.800807 0.170668
O O14 0.903126 0.725712 0.200796
#
# Coordination Sequence:
#
# PCOD9195472 Si02
#       6
#     8   8   8   8   8   8
#     4  10  20  35  54  79 104 146 187 225 262 328
#     4  11  22  33  54  78 110 141 186 228 277 315
#     4   9  19  35  58  87 115 142 176 220 269 326
#     4  11  22  37  55  77 106 144 185 226 273 323
#     4   9  19  32  57  83 109 140 186 221 268 319
#     4   9  19  34  56  83 107 140 181 223 262 324
#
# _framework density 17.351298
#
# number of rings (size 3 to 8) (size 9 to 14) (size 15 to 20)
#    1.000    1.167    1.667    3.000    2.333    2.333 
#    0.000    0.000    0.000    4.000    0.000    2.333 
#    0.000    0.000    0.000    0.000    0.000    0.000 
#
# Total GULP energy -133653.767008 kJ/mol
# GULP energy per Si atom -5568.906959 kJ/mol
# Density = 1.731181 g / cm^3
# Si number density = 17.351298 Si / 1000 Ang^3
#
#
#
# Elastic Constant Matrix: (Units=GPa)
#
#
# Indices 1 2 3 4 5 6 
#
# 1 46.3068 9.6093 15.0967 0.0000 11.6949 0.0000
# 2 9.6093 60.4003 8.3637 0.0001 -2.3330 0.0000
# 3 15.0967 8.3637 66.5649 0.0001 10.9488 0.0001
# 4 0.0000 0.0001 0.0001 92.3295 0.0001 32.1957
# 5 11.6949 -2.3330 10.9488 0.0001 14.1311 0.0000
# 6 0.0000 0.0000 0.0001 32.1957 0.0000 31.1527
#
#
#
# Elastic Compliance Matrix: (Units=1/GPa)
#
#
# Indices 1 2 3 4 5 6 
#
# 1 0.029314 -0.005277 -0.002122 0.000000 -0.023487 0.000000
# 2 -0.005277 0.018122 -0.002625 0.000000 0.009393 0.000000
# 3 -0.002122 -0.002625 0.017897 0.000000 -0.012544 0.000000
# 4 0.000000 0.000000 0.000000 0.016933 0.000000 -0.017500
# 5 -0.023487 0.009393 -0.012544 0.000000 0.101474 0.000000
# 6 0.000000 0.000000 0.000000 -0.017500 0.000000 0.050186
#
#
# Mechanical properties :
#
#
# Convention : Reuss Voigt Hill
#
# Bulk Modulus (GPa) = 22.08249 26.60126 24.34187
# Shear Modulus (GPa) = 18.58261 36.86950 27.72605
#
# Velocity S-wave (km/s) = 3.27611 4.61465 4.00174
# Velocity P-wave (km/s) = 5.20239 6.61495 5.95073
#
# Compressibility (1/GPa) = 0.04528474
#
# Stress axis : x y z
#
# Youngs Moduli (GPa) = 34.11388 55.18130 55.87422
#
# Poissons Ratio (x) = 0.29119 0.11856
# Poissons Ratio (y) = 0.18002 0.14668
# Poissons Ratio (z) = 0.07239 0.14486
#
# Static dielectric constant tensor:
#      x y z
#    x 1.601150 0.000000 0.025750 
#    y 0.000000 1.583620 0.000000 
#    z 0.025750 0.000000 1.589240 
# 
# From -- ./inp_files/305756.got.cif
#   From: 2010.05.17/outbox.cif.g08.bks.cpg/sg12_153_cif.got.tgz:305756.got - 2010.06.03 13:09:07.
