data_PCOD9195571
_publ_section_title
;
Structure prediction by ZEFSAII (Michael W. Deem and Ramdas Pophale) SiO2 
 PCOD9195571
Probable space group: C 2/M
;
_chemical_formula_sum "Si O2"
_cell_formula_units_Z 58
_cell_length_a 14.399874
_cell_length_b 7.946351
_cell_length_c 23.472846
_cell_angle_alpha 90.000000
_cell_angle_beta 82.529928
_cell_angle_gamma 90.000000
_cell_volume 2663.118903
_symmetry_space_group_name_H-M "C 2/M"
_symmetry_group_IT_number 12
_symmetry_cell_setting 'monoclinic'
loop_
_space_group_symop_operation_xyz
x,y,z
-x,y,-z
-x,-y,-z
x,-y,z
1/2+x,1/2+y,z
1/2-x,1/2+y,-z
1/2-x,1/2-y,-z
1/2+x,1/2-y,z
loop_
_atom_site_type_symbol
_atom_site_label
_atom_site_fract_x
_atom_site_fract_y
_atom_site_fract_z
Si Si1 0.406778 0.192340 0.777908
Si Si2 0.859966 0.699533 0.556526
Si Si3 0.611287 0.690300 0.035956
Si Si4 0.500000 0.000000 0.000000
Si Si5 0.356501 0.704207 0.430085
Si Si6 0.253988 0.206060 0.878873
Si Si7 0.478176 0.307938 0.652825
Si Si8 0.949510 0.807523 0.145508
O O1 0.324695 0.270542 0.823423
O O2 0.424176 0.243909 0.712040
O O3 0.502832 0.213179 0.805726
O O4 0.379892 0.000000 0.777865
O O5 0.866395 0.500000 0.566771
O O6 0.751280 0.753733 0.568319
O O7 0.890222 0.734718 0.489306
O O8 0.917045 0.792113 0.600682
O O9 0.613393 0.500000 0.010125
O O10 0.580717 0.849413 0.001029
O O11 0.704712 0.724831 0.065267
O O12 0.527606 0.692869 0.089951
O O13 0.359577 0.500000 0.431008
O O14 0.422909 0.770657 0.374570
O O15 0.149087 0.256472 0.870279
O O16 0.257447 0.000000 0.882631
O O17 0.498692 0.500000 0.664817
O O18 0.934565 0.000000 0.165112
#
# Coordination Sequence:
#
# PCOD9195571 Si02
#       8
#     8   8   8   2   8   8   8   8
#     4  10  21  35  55  84 112 145 187 236 289 337
#     4  10  20  35  55  77 101 134 180 227 275 335
#     4  10  21  38  63  90 120 163 201 237 289 343
#     4  12  22  40  64  86 136 158 194 248 294 326
#     4   9  20  37  54  73 101 143 180 215 276 344
#     4   9  18  38  63  85 115 154 192 239 289 343
#     4  11  22  36  53  74 110 143 179 226 280 336
#     4   9  19  37  63  86 113 151 197 234 283 348
#
# _framework density 21.778974000000002
#
# number of rings (size 3 to 8) (size 9 to 14) (size 15 to 20)
#    0.000    2.207    0.690    1.862    0.966    5.517 
#    0.000    6.207    0.000    0.000    0.000    0.000 
#    0.000    0.000    0.000    0.000    0.000    0.000 
#
# Total GULP energy -161647.459265 kJ/mol
# GULP energy per Si atom -5574.050319 kJ/mol
# Density = 2.172940 g / cm^3
# Si number density = 21.778974 Si / 1000 Ang^3
#
#
#
# Elastic Constant Matrix: (Units=GPa)
#
#
# Indices 1 2 3 4 5 6 
#
# 1 93.8749 -9.1938 12.0546 0.0000 -7.7228 0.0000
# 2 -9.1938 54.9415 5.4598 0.0000 -5.1856 0.0000
# 3 12.0546 5.4598 72.3147 0.0000 -21.8807 0.0000
# 4 0.0000 0.0000 0.0000 21.8063 0.0000 13.6015
# 5 -7.7228 -5.1856 -21.8807 0.0000 18.6527 0.0000
# 6 0.0000 0.0000 0.0000 13.6015 0.0000 20.5126
#
#
#
# Elastic Compliance Matrix: (Units=1/GPa)
#
#
# Indices 1 2 3 4 5 6 
#
# 1 0.011351 0.002398 -0.000697 0.000000 0.004549 0.000000
# 2 0.002398 0.019201 0.000103 0.000000 0.006451 0.000000
# 3 -0.000697 0.000103 0.021483 0.000000 0.024941 0.000000
# 4 0.000000 0.000000 0.000000 0.078202 0.000000 -0.051854
# 5 0.004549 0.006451 0.024941 0.000000 0.086546 0.000000
# 6 0.000000 0.000000 0.000000 -0.051854 0.000000 0.083134
#
#
# Mechanical properties :
#
#
# Convention : Reuss Voigt Hill
#
# Bulk Modulus (GPa) = 17.97166 26.41912 22.19539
# Shear Modulus (GPa) = 15.88021 26.38169 21.13095
#
# Velocity S-wave (km/s) = 2.70321 3.48420 3.11826
# Velocity P-wave (km/s) = 4.24416 5.32383 4.81436
#
# Compressibility (1/GPa) = 0.05564317
#
# Stress axis : x y z
#
# Youngs Moduli (GPa) = 88.09765 52.08020 46.54735
#
# Poissons Ratio (x) = -0.12489 0.03244
# Poissons Ratio (y) = -0.21126 -0.00477
# Poissons Ratio (z) = 0.06139 -0.00534
#
# Static dielectric constant tensor:
#      x y z
#    x 1.835130 0.000000 -0.054360 
#    y 0.000000 1.809130 0.000000 
#    z -0.054360 0.000000 1.810850 
# 
# From -- ./inp_files/338010.got.cif
#   From: 2010.05.17/outbox.cif.g08.bks.cpg/sg12_170_cif.got.tgz:338010.got - 2010.06.03 13:09:07.
