data_PCOD9195847
_publ_section_title
;
Structure prediction by ZEFSAII (Michael W. Deem and Ramdas Pophale) SiO2 
 PCOD9195847
Probable space group: C 2/M
;
_chemical_formula_sum "Si O2"
_cell_formula_units_Z 56
_cell_length_a 25.581747
_cell_length_b 9.266505
_cell_length_c 18.085545
_cell_angle_alpha 90.000000
_cell_angle_beta 44.625416
_cell_angle_gamma 90.000000
_cell_volume 3011.652263
_symmetry_space_group_name_H-M "C 2/M"
_symmetry_group_IT_number 12
_symmetry_cell_setting 'monoclinic'
loop_
_space_group_symop_operation_xyz
x,y,z
-x,y,-z
-x,-y,-z
x,-y,z
1/2+x,1/2+y,z
1/2-x,1/2+y,-z
1/2-x,1/2-y,-z
1/2+x,1/2-y,z
loop_
_atom_site_type_symbol
_atom_site_label
_atom_site_fract_x
_atom_site_fract_y
_atom_site_fract_z
Si Si1 0.567230 0.659728 0.990782
Si Si2 0.665608 0.169303 0.784980
Si Si3 0.065301 0.159786 0.492445
Si Si4 0.521099 0.164283 0.297966
Si Si5 0.803245 0.326126 0.885024
Si Si6 0.799532 0.327874 0.715479
Si Si7 0.967483 0.663236 0.189082
O O1 0.601624 0.500000 0.964707
O O2 0.528227 0.721569 0.101918
O O3 0.500000 0.646846 0.000000
O O4 0.619295 0.780411 0.903436
O O5 0.737535 0.267060 0.721959
O O6 0.611838 0.198193 0.768805
O O7 0.683016 0.000000 0.768945
O O8 0.125516 0.258281 0.390985
O O9 0.000000 0.143003 0.500000
O O10 0.025097 0.234093 0.601856
O O11 0.096000 0.000000 0.479713
O O12 0.607772 0.206954 0.196119
O O13 0.474449 0.159823 0.269301
O O14 0.525160 0.000000 0.324373
O O15 0.794918 0.500000 0.901634
O O16 0.785339 0.287799 0.816649
O O17 0.750000 0.250000 0.000000
O O18 0.802730 0.500000 0.709961
O O19 0.985673 0.500000 0.142989
#
# Coordination Sequence:
#
# PCOD9195847 Si02
#       7
#     8   8   8   8   8   8   8
#     4   9  17  30  50  77 111 152 195 236 280 336
#     4  10  20  35  55  82 117 154 194 241 288 343
#     4  11  23  40  63  90 115 148 195 244 291 344
#     4  10  21  40  63  87 116 155 196 240 292 346
#     4  10  23  39  58  87 122 155 192 237 292 348
#     4  11  23  40  62  88 117 155 197 240 291 348
#     4   9  19  35  56  83 115 153 196 238 289 345
#
# _framework density 18.594445
#
# number of rings (size 3 to 8) (size 9 to 14) (size 15 to 20)
#    0.000    2.000    1.429    1.714    2.000    5.143 
#    0.000    0.714    0.000    0.000    0.000    0.000 
#    0.000    0.000    0.000    0.000    0.000    0.000 
#
# Total GULP energy -155990.898280 kJ/mol
# GULP energy per Si atom -5571.103510 kJ/mol
# Density = 1.855212 g / cm^3
# Si number density = 18.594445 Si / 1000 Ang^3
#
#
#
# Elastic Constant Matrix: (Units=GPa)
#
#
# Indices 1 2 3 4 5 6 
#
# 1 88.3813 34.5746 34.5502 -0.0028 1.1347 0.0001
# 2 34.5746 81.4688 49.9900 -0.0050 6.7823 -0.0003
# 3 34.5502 49.9900 101.2361 -0.0011 3.1353 0.0000
# 4 -0.0028 -0.0050 -0.0011 57.3146 0.0004 18.7254
# 5 1.1347 6.7823 3.1353 0.0004 24.3329 -0.0002
# 6 0.0001 -0.0003 0.0000 18.7254 -0.0002 38.9347
#
#
#
# Elastic Compliance Matrix: (Units=1/GPa)
#
#
# Indices 1 2 3 4 5 6 
#
# 1 0.014067 -0.004423 -0.002645 0.000000 0.000918 0.000000
# 2 -0.004423 0.019359 -0.007921 0.000002 -0.004169 -0.000001
# 3 -0.002645 -0.007921 0.014678 -0.000001 0.000440 0.000000
# 4 0.000000 0.000002 -0.000001 0.020700 -0.000001 -0.009956
# 5 0.000918 -0.004169 0.000440 -0.000001 0.042159 0.000001
# 6 0.000000 -0.000001 0.000000 -0.009956 0.000001 0.030472
#
#
# Mechanical properties :
#
#
# Convention : Reuss Voigt Hill
#
# Bulk Modulus (GPa) = 55.16858 56.59065 55.87961
# Shear Modulus (GPa) = 28.17587 34.24787 31.21187
#
# Velocity S-wave (km/s) = 3.89689 4.29631 4.10147
# Velocity P-wave (km/s) = 7.06976 7.42370 7.24889
#
# Compressibility (1/GPa) = 0.01812626
#
# Stress axis : x y z
#
# Youngs Moduli (GPa) = 71.08702 51.65495 68.12793
#
# Poissons Ratio (x) = 0.22849 0.18021
# Poissons Ratio (y) = 0.31444 0.53963
# Poissons Ratio (z) = 0.18803 0.40915
#
# Static dielectric constant tensor:
#      x y z
#    x 1.669740 0.000000 -0.030510 
#    y 0.000000 1.680090 0.000000 
#    z -0.030510 0.000000 1.636410 
# 
# From -- ./inp_files/288447.got.cif
#   From: 2010.05.17/outbox.cif.g08.bks.cpg/sg12_145_cif.got.tgz:288447.got - 2010.06.03 13:09:07.
