data_PCOD9195199
_publ_section_title
;
Structure prediction by ZEFSAII (Michael W. Deem and Ramdas Pophale) SiO2 
 PCOD9195199
Probable space group: C 2/M
;
_chemical_formula_sum "Si O2"
_cell_formula_units_Z 56
_cell_length_a 22.446196
_cell_length_b 8.861606
_cell_length_c 18.401408
_cell_angle_alpha 90.000000
_cell_angle_beta 58.961470
_cell_angle_gamma 90.000000
_cell_volume 3136.145628
_symmetry_space_group_name_H-M "C 2/M"
_symmetry_group_IT_number 12
_symmetry_cell_setting 'monoclinic'
loop_
_space_group_symop_operation_xyz
x,y,z
-x,y,-z
-x,-y,-z
x,-y,z
1/2+x,1/2+y,z
1/2-x,1/2+y,-z
1/2-x,1/2-y,-z
1/2+x,1/2-y,z
loop_
_atom_site_type_symbol
_atom_site_label
_atom_site_fract_x
_atom_site_fract_y
_atom_site_fract_z
Si Si1 0.798758 0.173396 0.261185
Si Si2 0.795012 0.674689 0.536222
Si Si3 0.816957 0.180298 0.918941
Si Si4 0.424588 0.822390 0.123703
Si Si5 0.418266 0.682242 0.551541
Si Si6 0.574544 0.321023 0.025949
Si Si7 0.323958 0.317899 0.748502
O O1 0.756891 0.178748 0.362363
O O2 0.868051 0.271665 0.217391
O O3 0.746355 0.242337 0.235492
O O4 0.816091 0.000000 0.233165
O O5 0.809603 0.500000 0.508641
O O6 0.750000 0.750000 0.500000
O O7 0.866779 0.750709 0.521349
O O8 0.881108 0.212712 0.931165
O O9 0.832965 0.229463 0.826437
O O10 0.806937 0.000000 0.922893
O O11 0.750000 0.250000 0.000000
O O12 0.496135 0.733056 0.087657
O O13 0.436833 0.000000 0.116364
O O14 0.397742 0.769301 0.061338
O O15 0.500000 0.728126 0.500000
O O16 0.416358 0.500000 0.545338
O O17 0.383421 0.721940 0.651806
O O18 0.576737 0.500000 0.009678
O O19 0.317492 0.500000 0.750086
#
# Coordination Sequence:
#
# PCOD9195199 Si02
#       7
#     8   8   8   8   8   8   8
#     4  10  20  35  55  79 104 138 177 216 265 320
#     4  10  21  37  58  83 113 144 183 231 280 334
#     4  10  21  34  51  75 104 139 175 217 263 309
#     4  11  21  34  53  76 102 137 178 221 268 316
#     4   9  18  35  59  84 112 148 186 225 278 338
#     4  10  20  35  52  73 105 141 178 219 262 314
#     4   9  18  34  54  78 107 138 176 219 262 317
#
# _framework density 17.856314999999999
#
# number of rings (size 3 to 8) (size 9 to 14) (size 15 to 20)
#    0.000    2.143    0.000    4.286    0.000    6.000 
#    2.571    0.000    0.000    0.000    0.000    0.000 
#    0.000    0.000    0.000    0.000    0.000    0.000 
#
# Total GULP energy -156119.734243 kJ/mol
# GULP energy per Si atom -5575.704794 kJ/mol
# Density = 1.781567 g / cm^3
# Si number density = 17.856315 Si / 1000 Ang^3
#
#
#
# Elastic Constant Matrix: (Units=GPa)
#
#
# Indices 1 2 3 4 5 6 
#
# 1 113.1500 38.0581 60.7913 0.0000 11.4197 0.0000
# 2 38.0581 31.5184 18.1959 -0.0001 4.9357 0.0000
# 3 60.7913 18.1959 63.5295 0.0000 0.2541 0.0000
# 4 0.0000 -0.0001 0.0000 24.8097 0.0000 -3.8366
# 5 11.4197 4.9357 0.2541 0.0000 29.8941 0.0000
# 6 0.0000 0.0000 0.0000 -3.8366 0.0000 26.2803
#
#
#
# Elastic Compliance Matrix: (Units=1/GPa)
#
#
# Indices 1 2 3 4 5 6 
#
# 1 0.027095 -0.019994 -0.020173 0.000000 -0.006878 0.000000
# 2 -0.019994 0.053945 0.003687 0.000000 -0.001300 0.000000
# 3 -0.020173 0.003687 0.033962 0.000000 0.006809 0.000000
# 4 0.000000 0.000000 0.000000 0.041238 0.000000 0.006020
# 5 -0.006878 -0.001300 0.006809 0.000000 0.036236 0.000000
# 6 0.000000 0.000000 0.000000 0.006020 0.000000 0.038930
#
#
# Mechanical properties :
#
#
# Convention : Reuss Voigt Hill
#
# Bulk Modulus (GPa) = 23.78656 49.14315 36.46485
# Shear Modulus (GPa) = 15.70446 22.27366 18.98906
#
# Velocity S-wave (km/s) = 2.96884 3.53566 3.26458
# Velocity P-wave (km/s) = 5.01019 6.65200 5.88859
#
# Compressibility (1/GPa) = 0.04204055
#
# Stress axis : x y z
#
# Youngs Moduli (GPa) = 36.90668 18.53732 29.44510
#
# Poissons Ratio (x) = 0.37063 0.59401
# Poissons Ratio (y) = 0.73791 -0.10855
# Poissons Ratio (z) = 0.74453 -0.06834
#
# Static dielectric constant tensor:
#      x y z
#    x 1.631390 0.000000 0.026640 
#    y 0.000000 1.617810 0.000000 
#    z 0.026640 0.000000 1.639910 
# 
# From -- ./inp_files/280946.got.cif
#   From: 2010.05.17/outbox.cif.g08.bks.cpg/sg12_141_cif.got.tgz:280946.got - 2010.06.03 13:09:07.
