data_PCOD9195463
_publ_section_title
;
Structure prediction by ZEFSAII (Michael W. Deem and Ramdas Pophale) SiO2 
 PCOD9195463
Probable space group: C 2/M
;
_chemical_formula_sum "Si O2"
_cell_formula_units_Z 56
_cell_length_a 20.610808
_cell_length_b 7.404232
_cell_length_c 14.525085
_cell_angle_alpha 90.000000
_cell_angle_beta 92.550165
_cell_angle_gamma 90.000000
_cell_volume 2214.437365
_symmetry_space_group_name_H-M "C 2/M"
_symmetry_group_IT_number 12
_symmetry_cell_setting 'monoclinic'
loop_
_space_group_symop_operation_xyz
x,y,z
-x,y,-z
-x,-y,-z
x,-y,z
1/2+x,1/2+y,z
1/2-x,1/2+y,-z
1/2-x,1/2-y,-z
1/2+x,1/2-y,z
loop_
_atom_site_type_symbol
_atom_site_label
_atom_site_fract_x
_atom_site_fract_y
_atom_site_fract_z
Si Si1 0.164037 0.211342 0.552246
Si Si2 0.591656 0.202064 0.060047
Si Si3 0.766301 0.213453 0.895073
Si Si4 0.207606 0.295737 0.354948
Si Si5 0.952481 0.717155 0.327791
Si Si6 0.918758 0.277315 0.747428
Si Si7 0.624833 0.779115 0.858417
O O1 0.175166 0.299121 0.454206
O O2 0.220760 0.284086 0.624212
O O3 0.093292 0.227731 0.591222
O O4 0.178743 0.000000 0.539887
O O5 0.664594 0.193195 0.106153
O O6 0.558269 0.282961 0.148686
O O7 0.565864 0.000000 0.046355
O O8 0.599126 0.282475 0.958054
O O9 0.699689 0.275761 0.844046
O O10 0.774890 0.000000 0.879993
O O11 0.750000 0.250000 0.000000
O O12 0.216737 0.500000 0.321490
O O13 0.152246 0.210385 0.287937
O O14 0.952411 0.500000 0.328745
O O15 0.917694 0.774884 0.230731
O O16 0.026888 0.776478 0.323576
O O17 0.918001 0.500000 0.748536
O O18 0.625887 0.000000 0.864866
#
# Coordination Sequence:
#
# PCOD9195463 Si02
#       7
#     8   8   8   8   8   8   8
#     4  10  21  37  58  83 107 134 172 219 272 321
#     4   9  17  31  50  74 106 140 178 220 260 304
#     4   9  16  28  45  70  99 131 173 218 263 307
#     4   9  19  38  60  81 105 135 176 218 264 321
#     4  10  20  35  54  78 110 145 180 216 260 314
#     4   9  19  34  55  81 106 141 184 220 258 311
#     4   8  16  29  47  74 106 138 175 217 257 302
#
# _framework density 25.288588000000001
#
# number of rings (size 3 to 8) (size 9 to 14) (size 15 to 20)
#    0.000    2.857    0.000    1.714    2.000    1.714 
#    0.000   10.714    0.000    0.000    0.000    5.000 
#    0.000    0.000    0.000    0.000    0.000    0.000 
#
# Total GULP energy -156265.225961 kJ/mol
# GULP energy per Si atom -5580.900927 kJ/mol
# Density = 2.523103 g / cm^3
# Si number density = 25.288588 Si / 1000 Ang^3
#
#
#
# Elastic Constant Matrix: (Units=GPa)
#
#
# Indices 1 2 3 4 5 6 
#
# 1 44.7928 9.0186 -9.0415 0.0000 -2.6529 0.0000
# 2 9.0186 99.6857 -1.3745 0.0000 1.7253 0.0000
# 3 -9.0415 -1.3745 86.0273 0.0000 -13.1822 0.0000
# 4 0.0000 0.0000 0.0000 3.2693 0.0000 -0.8973
# 5 -2.6529 1.7253 -13.1822 0.0000 43.0737 0.0000
# 6 0.0000 0.0000 0.0000 -0.8973 0.0000 1.4839
#
#
#
# Elastic Compliance Matrix: (Units=1/GPa)
#
#
# Indices 1 2 3 4 5 6 
#
# 1 0.023459 -0.002125 0.002797 0.000000 0.002386 0.000000
# 2 -0.002125 0.010232 -0.000150 0.000000 -0.000587 0.000000
# 3 0.002797 -0.000150 0.012531 0.000000 0.004013 0.000000
# 4 0.000000 0.000000 0.000000 0.366733 0.000000 0.221743
# 5 0.002386 -0.000587 0.004013 0.000000 0.024615 0.000000
# 6 0.000000 0.000000 0.000000 0.221743 0.000000 0.807961
#
#
# Mechanical properties :
#
#
# Convention : Reuss Voigt Hill
#
# Bulk Modulus (GPa) = 21.15678 25.30124 23.22901
# Shear Modulus (GPa) = 3.96750 25.02560 14.49655
#
# Velocity S-wave (km/s) = 1.25391 3.14920 2.39685
# Velocity P-wave (km/s) = 3.23739 4.82183 4.10675
#
# Compressibility (1/GPa) = 0.04726618
#
# Stress axis : x y z
#
# Youngs Moduli (GPa) = 42.62794 97.73381 79.80366
#
# Poissons Ratio (x) = 0.20769 -0.22323
# Poissons Ratio (y) = 0.09059 0.01195
# Poissons Ratio (z) = -0.11924 0.01464
#
# Static dielectric constant tensor:
#      x y z
#    x 2.009030 0.000000 0.007540 
#    y 0.000000 1.953280 0.000000 
#    z 0.007540 0.000000 1.964040 
# 
# From -- ./inp_files/230936.got.cif
#   From: 2010.05.17/outbox.cif.g08.bks.cpg/sg12_116_cif.got.tgz:230936.got - 2010.06.03 13:09:07.
