data_PCOD9195930
_publ_section_title
;
Structure prediction by ZEFSAII (Michael W. Deem and Ramdas Pophale) SiO2 
 PCOD9195930
Probable space group: C 2/M
;
_chemical_formula_sum "Si O2"
_cell_formula_units_Z 40
_cell_length_a 18.245342
_cell_length_b 22.301358
_cell_length_c 9.492982
_cell_angle_alpha 90.000000
_cell_angle_beta 150.089234
_cell_angle_gamma 90.000000
_cell_volume 1926.115566
_symmetry_space_group_name_H-M "C 2/M"
_symmetry_group_IT_number 12
_symmetry_cell_setting 'monoclinic'
loop_
_space_group_symop_operation_xyz
x,y,z
-x,y,-z
-x,-y,-z
x,-y,z
1/2+x,1/2+y,z
1/2-x,1/2+y,-z
1/2-x,1/2-y,-z
1/2+x,1/2-y,z
loop_
_atom_site_type_symbol
_atom_site_label
_atom_site_fract_x
_atom_site_fract_y
_atom_site_fract_z
Si Si1 0.846760 0.261813 0.797664
Si Si2 0.030894 0.570569 0.215201
Si Si3 0.270960 0.153458 0.272914
Si Si4 0.340617 0.067584 0.156335
Si Si5 0.650160 0.270279 0.703050
O O1 0.750000 0.250000 0.500000
O O2 0.862477 0.196067 0.899376
O O3 0.754075 0.298889 0.757696
O O4 0.000000 0.286102 0.000000
O O5 0.067932 0.500000 0.298234
O O6 0.888075 0.581301 0.076154
O O7 0.000000 0.579599 0.000000
O O8 0.162113 0.610978 0.496312
O O9 0.249004 0.115194 0.094487
O O10 0.390349 0.206180 0.439118
O O11 0.500000 0.067766 0.500000
O O12 0.280550 0.000000 0.065431
O O13 0.500000 0.300275 0.500000
O O14 0.750000 0.250000 0.000000
#
# Coordination Sequence:
#
# PCOD9195930 Si02
#       5
#     8   8   8   8   8
#     4  10  22  38  53  75 110 144 183 231 282 324
#     4   9  16  28  48  81 116 141 174 226 278 324
#     4   9  19  29  51  71 108 136 185 211 277 316
#     4   8  13  26  46  71 102 134 173 217 264 323
#     4  10  20  35  56  77 104 140 186 229 271 331
#
# _framework density 20.767185999999999
#
# number of rings (size 3 to 8) (size 9 to 14) (size 15 to 20)
#    1.200    1.600    0.000    4.800    0.000    0.800 
#    3.600    0.000    0.000    2.400    0.000    0.000 
#    0.000    8.000    0.000    0.000    0.000    0.000 
#
# Total GULP energy -111351.688931 kJ/mol
# GULP energy per Si atom -5567.584447 kJ/mol
# Density = 2.071992 g / cm^3
# Si number density = 20.767186 Si / 1000 Ang^3
#
#
#
# Elastic Constant Matrix: (Units=GPa)
#
#
# Indices 1 2 3 4 5 6 
#
# 1 156.4877 14.7158 35.7075 0.0000 -7.2467 0.0000
# 2 14.7158 109.3568 -2.2627 0.0000 -2.3386 0.0000
# 3 35.7075 -2.2627 50.4525 0.0000 -0.9076 0.0000
# 4 0.0000 0.0000 0.0000 24.4677 0.0000 -5.2126
# 5 -7.2467 -2.3386 -0.9076 0.0000 37.8555 0.0000
# 6 0.0000 0.0000 0.0000 -5.2126 0.0000 -3.0829
#
#
#
# Elastic Compliance Matrix: (Units=1/GPa)
#
#
# Indices 1 2 3 4 5 6 
#
# 1 0.007828 -0.001141 -0.005568 0.000000 0.001295 0.000000
# 2 -0.001141 0.009332 0.001233 0.000000 0.000388 0.000000
# 3 -0.005568 0.001233 0.023809 0.000000 -0.000419 0.000000
# 4 0.000000 0.000000 0.000000 0.030047 0.000000 -0.050803
# 5 0.001295 0.000388 -0.000419 0.000000 0.026678 0.000000
# 6 0.000000 0.000000 0.000000 -0.050803 0.000000 -0.238469
#
#
# Mechanical properties :
#
#
# Convention : Reuss Voigt Hill
#
# Bulk Modulus (GPa) = 33.31473 45.84648 39.58060
# Shear Modulus (GPa) = -41.73034 29.72380 -6.00327
#
# Velocity S-wave (km/s) = -4.48754 3.78734 -1.70206
# Velocity P-wave (km/s) = 3.28235 6.42258 3.90357
#
# Compressibility (1/GPa) = 0.03001676
#
# Stress axis : x y z
#
# Youngs Moduli (GPa) = 127.74552 107.16147 42.00057
#
# Poissons Ratio (x) = 0.12226 0.23387
# Poissons Ratio (y) = 0.14575 -0.05179
# Poissons Ratio (z) = 0.71131 -0.13213
#
# Static dielectric constant tensor:
#      x y z
#    x 1.900130 0.000000 0.028360 
#    y 0.000000 1.780560 0.000000 
#    z 0.028360 0.000000 1.793780 
# 
# From -- ./inp_files/79946.got.cif
#   From: 2010.05.17/outbox.cif.g08.bks.cpg/sg12_40_cif.got.tgz:79946.got - 2010.06.03 13:09:07.
