data_PCOD9195711
_publ_section_title
;
Structure prediction by ZEFSAII (Michael W. Deem and Ramdas Pophale) SiO2 
 PCOD9195711
Probable space group: C 2/M
;
_chemical_formula_sum "Si O2"
_cell_formula_units_Z 48
_cell_length_a 19.048872
_cell_length_b 8.598141
_cell_length_c 32.742795
_cell_angle_alpha 90.000000
_cell_angle_beta 150.861249
_cell_angle_gamma 90.000000
_cell_volume 2611.275807
_symmetry_space_group_name_H-M "C 2/M"
_symmetry_group_IT_number 12
_symmetry_cell_setting 'monoclinic'
loop_
_space_group_symop_operation_xyz
x,y,z
-x,y,-z
-x,-y,-z
x,-y,z
1/2+x,1/2+y,z
1/2-x,1/2+y,-z
1/2-x,1/2-y,-z
1/2+x,1/2-y,z
loop_
_atom_site_type_symbol
_atom_site_label
_atom_site_fract_x
_atom_site_fract_y
_atom_site_fract_z
Si Si1 0.321676 0.186634 0.077679
Si Si2 0.311474 0.688990 0.237225
Si Si3 0.667537 0.811667 0.080048
Si Si4 0.654206 0.187932 0.240969
Si Si5 0.070678 0.686471 0.578689
Si Si6 0.590810 0.686088 0.424425
O O1 0.236926 0.246086 0.074221
O O2 0.489719 0.235925 0.164332
O O3 0.318303 0.000000 0.074950
O O4 0.250000 0.250000 0.000000
O O5 0.308184 0.500000 0.234869
O O6 0.252587 0.742063 0.163791
O O7 0.211337 0.735787 0.224838
O O8 0.474573 0.736890 0.330995
O O9 0.674173 0.000000 0.081474
O O10 0.500000 0.768447 0.000000
O O11 0.766967 0.255239 0.330877
O O12 0.662011 0.000000 0.246513
O O13 0.068606 0.500000 0.580049
O O14 0.000000 0.734049 0.500000
O O15 0.976457 0.756461 0.567374
O O16 0.594822 0.500000 0.426151
O O17 0.750000 0.750000 0.500000
#
# Coordination Sequence:
#
# PCOD9195711 Si02
#       6
#     8   8   8   8   8   8
#     4  11  23  38  57  83 113 144 182 226 272 324
#     4   8  16  33  55  76 101 137 178 220 269 323
#     4  10  20  36  58  81 108 143 179 218 270 328
#     4   9  19  37  58  79 106 143 186 229 274 325
#     4  10  21  36  55  81 112 146 185 228 275 328
#     4  10  20  35  55  79 110 146 185 228 273 324
#
# _framework density 18.381820000000001
#
# number of rings (size 3 to 8) (size 9 to 14) (size 15 to 20)
#    0.000    2.333    0.000    3.500    0.000    7.000 
#    0.000    9.167    0.000    0.000    0.000    0.000 
#    0.000    0.000    0.000    0.000    0.000    0.000 
#
# Total GULP energy -133953.431197 kJ/mol
# GULP energy per Si atom -5581.392967 kJ/mol
# Density = 1.833998 g / cm^3
# Si number density = 18.381820 Si / 1000 Ang^3
#
#
#
# Elastic Constant Matrix: (Units=GPa)
#
#
# Indices 1 2 3 4 5 6 
#
# 1 129.0907 33.1513 128.3771 0.0000 3.2828 0.0000
# 2 33.1513 28.0222 48.1073 0.0000 1.9855 0.0000
# 3 128.3771 48.1073 221.3856 -0.0001 -0.4045 0.0000
# 4 0.0000 0.0000 -0.0001 27.4865 0.0000 1.0794
# 5 3.2828 1.9855 -0.4045 0.0000 42.3301 0.0000
# 6 0.0000 0.0000 0.0000 1.0794 0.0000 31.1800
#
#
#
# Elastic Compliance Matrix: (Units=1/GPa)
#
#
# Indices 1 2 3 4 5 6 
#
# 1 0.018912 -0.005503 -0.009773 0.000000 -0.001302 0.000000
# 2 -0.005503 0.058853 -0.009602 0.000000 -0.002425 0.000000
# 3 -0.009773 -0.009602 0.012273 0.000000 0.001326 0.000000
# 4 0.000000 0.000000 0.000000 0.036431 0.000000 -0.001261
# 5 -0.001302 -0.002425 0.001326 0.000000 0.023851 0.000000
# 6 0.000000 0.000000 0.000000 -0.001261 0.000000 0.032116
#
#
# Mechanical properties :
#
#
# Convention : Reuss Voigt Hill
#
# Bulk Modulus (GPa) = 24.82549 88.64112 56.73330
# Shear Modulus (GPa) = 20.35666 31.45684 25.90675
#
# Velocity S-wave (km/s) = 3.33142 4.14128 3.75823
# Velocity P-wave (km/s) = 5.32284 8.43764 7.05430
#
# Compressibility (1/GPa) = 0.04028118
#
# Stress axis : x y z
#
# Youngs Moduli (GPa) = 52.87608 16.99158 81.47754
#
# Poissons Ratio (x) = 0.09351 0.79631
# Poissons Ratio (y) = 0.29098 0.78235
# Poissons Ratio (z) = 0.51678 0.16315
#
# Static dielectric constant tensor:
#      x y z
#    x 1.597640 0.000000 0.001370 
#    y 0.000000 1.628550 0.000000 
#    z 0.001370 0.000000 1.637910 
# 
# From -- ./inp_files/274070.got.cif
#   From: 2010.05.17/outbox.cif.g08.bks.cpg/sg12_138_cif.got.tgz:274070.got - 2010.06.03 13:09:07.
