data_PCOD9195823
_publ_section_title
;
Structure prediction by ZEFSAII (Michael W. Deem and Ramdas Pophale) SiO2 
 PCOD9195823
Probable space group: C 2/M
;
_chemical_formula_sum "Si O2"
_cell_formula_units_Z 40
_cell_length_a 8.173517
_cell_length_b 14.750403
_cell_length_c 25.171424
_cell_angle_alpha 90.000000
_cell_angle_beta 144.270724
_cell_angle_gamma 90.000000
_cell_volume 1772.151414
_symmetry_space_group_name_H-M "C 2/M"
_symmetry_group_IT_number 12
_symmetry_cell_setting 'monoclinic'
loop_
_space_group_symop_operation_xyz
x,y,z
-x,y,-z
-x,-y,-z
x,-y,z
1/2+x,1/2+y,z
1/2-x,1/2+y,-z
1/2-x,1/2-y,-z
1/2+x,1/2-y,z
loop_
_atom_site_type_symbol
_atom_site_label
_atom_site_fract_x
_atom_site_fract_y
_atom_site_fract_z
Si Si1 0.299488 0.144970 0.097925
Si Si2 0.764822 0.888756 0.605928
Si Si3 0.190137 0.644969 0.097925
Si Si4 0.694935 0.104821 0.706448
Si Si5 0.337306 0.104821 0.706448
O O1 0.245807 0.250001 0.098322
O O2 0.516796 0.137088 0.106718
O O3 0.434320 0.104833 0.186320
O O4 0.000000 0.107632 0.000000
O O5 0.500000 0.865980 0.500000
O O6 0.724024 0.855276 0.655373
O O7 0.052845 0.855276 0.655373
O O8 0.784260 0.000000 0.613704
O O9 0.497280 0.604832 0.186320
O O10 0.000000 0.607631 0.000000
O O11 0.476420 0.146733 0.690568
O O12 0.611053 0.000000 0.676770
O O13 0.272803 0.000000 0.676772
#
# Coordination Sequence:
#
# PCOD9195823 Si02
#       5
#     8   8   8   8   8
#     4  11  21  35  54  79 110 145 186 221 263 323
#     4   9  18  34  56  81 108 140 179 224 272 320
#     4  11  21  35  54  79 110 145 186 221 263 323
#     4  10  20  35  55  82 112 142 180 223 270 319
#     4  10  20  35  55  82 112 142 180 223 270 319
#
# _framework density 22.571435999999999
#
# number of rings (size 3 to 8) (size 9 to 14) (size 15 to 20)
#    0.000    1.800    2.000    4.800    0.000    1.600 
#    0.000    4.000    0.000    1.200    0.000    0.000 
#    0.000    0.000    0.000    0.000    0.000    0.000 
#
# Total GULP energy -111776.293918 kJ/mol
# GULP energy per Si atom -5588.814696 kJ/mol
# Density = 2.252006 g / cm^3
# Si number density = 22.571436 Si / 1000 Ang^3
#
#
#
# Elastic Constant Matrix: (Units=GPa)
#
#
# Indices 1 2 3 4 5 6 
#
# 1 262.8760 14.1838 91.3584 0.0000 3.4699 0.0000
# 2 14.1838 50.0379 -4.0820 0.0000 0.5439 0.0000
# 3 91.3584 -4.0820 133.4164 0.0005 0.3835 0.0001
# 4 0.0000 0.0000 0.0005 36.1996 0.0001 -0.5999
# 5 3.4699 0.5439 0.3835 0.0001 27.5587 0.0000
# 6 0.0000 0.0000 0.0001 -0.5999 0.0000 16.0321
#
#
#
# Elastic Compliance Matrix: (Units=1/GPa)
#
#
# Indices 1 2 3 4 5 6 
#
# 1 0.005149 -0.001745 -0.003578 0.000000 -0.000564 0.000000
# 2 -0.001745 0.020631 0.001827 0.000000 -0.000213 0.000000
# 3 -0.003578 0.001827 0.010000 0.000000 0.000275 0.000000
# 4 0.000000 0.000000 0.000000 0.027642 0.000000 0.001034
# 5 -0.000564 -0.000213 0.000275 0.000000 0.036358 0.000000
# 6 0.000000 0.000000 0.000000 0.001034 0.000000 0.062413
#
#
# Mechanical properties :
#
#
# Convention : Reuss Voigt Hill
#
# Bulk Modulus (GPa) = 34.73636 72.13893 53.43765
# Shear Modulus (GPa) = 27.96717 38.94942 33.45829
#
# Velocity S-wave (km/s) = 3.52383 4.15855 3.85428
# Velocity P-wave (km/s) = 5.65504 7.42211 6.59800
#
# Compressibility (1/GPa) = 0.02878828
#
# Stress axis : x y z
#
# Youngs Moduli (GPa) = 194.21086 48.47091 99.99731
#
# Poissons Ratio (x) = 0.08460 0.35775
# Poissons Ratio (y) = 0.33895 -0.18269
# Poissons Ratio (z) = 0.69482 -0.08855
#
# Static dielectric constant tensor:
#      x y z
#    x 1.832390 0.000000 0.001390 
#    y 0.000000 1.818130 0.000000 
#    z 0.001390 0.000000 1.785860 
# 
# From -- ./inp_files/121693.got.cif
#   From: 2010.05.17/outbox.cif.g08.bks.cpg/sg12_61_cif.got.tgz:121693.got - 2010.06.03 13:09:07.
