data_PCOD9195799
_publ_section_title
;
Structure prediction by ZEFSAII (Michael W. Deem and Ramdas Pophale) SiO2 
 PCOD9195799
Probable space group: C 2/M
;
_chemical_formula_sum "Si O2"
_cell_formula_units_Z 32
_cell_length_a 12.566402
_cell_length_b 18.197269
_cell_length_c 8.379982
_cell_angle_alpha 90.000000
_cell_angle_beta 131.043804
_cell_angle_gamma 90.000000
_cell_volume 1445.277566
_symmetry_space_group_name_H-M "C 2/M"
_symmetry_group_IT_number 12
_symmetry_cell_setting 'monoclinic'
loop_
_space_group_symop_operation_xyz
x,y,z
-x,y,-z
-x,-y,-z
x,-y,z
1/2+x,1/2+y,z
1/2-x,1/2+y,-z
1/2-x,1/2-y,-z
1/2+x,1/2-y,z
loop_
_atom_site_type_symbol
_atom_site_label
_atom_site_fract_x
_atom_site_fract_y
_atom_site_fract_z
Si Si1 0.315102 0.580672 0.962539
Si Si2 0.839640 0.219605 0.786205
Si Si3 0.167161 0.385483 0.141606
Si Si4 0.413131 0.628909 0.577055
O O1 0.305806 0.500000 0.878952
O O2 0.215045 0.585188 0.018514
O O3 0.473692 0.591419 0.192001
O O4 0.274243 0.647950 0.806746
O O5 0.794027 0.298233 0.809475
O O6 0.858585 0.200609 0.618321
O O7 0.000000 0.218904 0.000000
O O8 0.273531 0.414728 0.383207
O O9 0.000000 0.395554 0.000000
O O10 0.500000 0.643354 0.500000
#
# Coordination Sequence:
#
# PCOD9195799 Si02
#       4
#     8   8   8   8
#     4  10  21  37  57  81 111 146 184 225 269 322
#     4   9  18  34  57  84 109 140 184 230 273 317
#     4  10  20  35  55  81 111 145 182 224 273 325
#     4   9  19  34  56  83 108 139 181 226 272 319
#
# _framework density 22.141076000000002
#
# number of rings (size 3 to 8) (size 9 to 14) (size 15 to 20)
#    0.000    2.500    0.000    1.500    0.000   11.500 
#    0.000    1.250    0.000    1.500    0.000    0.000 
#    0.000    0.000    0.000    0.000    0.000    0.000 
#
# Total GULP energy -89093.405412 kJ/mol
# GULP energy per Si atom -5568.337838 kJ/mol
# Density = 2.209068 g / cm^3
# Si number density = 22.141076 Si / 1000 Ang^3
#
#
#
# Elastic Constant Matrix: (Units=GPa)
#
#
# Indices 1 2 3 4 5 6 
#
# 1 61.3479 27.4084 30.5156 0.0000 20.7803 0.0000
# 2 27.4084 134.9629 -10.2926 0.0000 -4.7512 0.0000
# 3 30.5156 -10.2926 54.6698 0.0000 14.6920 0.0000
# 4 0.0000 0.0000 0.0000 8.9333 0.0000 15.5617
# 5 20.7803 -4.7512 14.6920 0.0000 42.6346 0.0000
# 6 0.0000 0.0000 0.0000 15.5617 0.0000 28.1076
#
#
#
# Elastic Compliance Matrix: (Units=1/GPa)
#
#
# Indices 1 2 3 4 5 6 
#
# 1 0.031616 -0.008039 -0.016287 0.000000 -0.010693 0.000000
# 2 -0.008039 0.009567 0.005454 0.000000 0.003105 0.000000
# 3 -0.016287 0.005454 0.028778 0.000000 -0.001371 0.000000
# 4 0.000000 0.000000 0.000000 3.148123 0.000000 -1.742942
# 5 -0.010693 0.003105 -0.001371 0.000000 0.029485 0.000000
# 6 0.000000 0.000000 0.000000 -1.742942 0.000000 1.000548
#
#
# Mechanical properties :
#
#
# Convention : Reuss Voigt Hill
#
# Bulk Modulus (GPa) = 31.03992 38.47150 34.75571
# Shear Modulus (GPa) = 1.16371 29.49172 15.32772
#
# Velocity S-wave (km/s) = 0.72576 3.65360 2.63397
# Velocity P-wave (km/s) = 3.84082 5.93395 4.99818
#
# Compressibility (1/GPa) = 0.03221658
#
# Stress axis : x y z
#
# Youngs Moduli (GPa) = 31.62997 104.52300 34.74881
#
# Poissons Ratio (x) = 0.84027 0.56596
# Poissons Ratio (y) = 0.25428 -0.18952
# Poissons Ratio (z) = 0.51516 -0.57007
#
# Static dielectric constant tensor:
#      x y z
#    x 1.799530 0.000000 -0.024340 
#    y 0.000000 1.921240 0.000000 
#    z -0.024340 0.000000 1.918980 
# 
# From -- ./inp_files/48115.got.cif
#   From: 2010.05.17/outbox.cif.g08.bks.cpg/sg12_25_cif.got.tgz:48115.got - 2010.06.03 13:09:07.
