data_PCOD9195339
_publ_section_title
;
Structure prediction by ZEFSAII (Michael W. Deem and Ramdas Pophale) SiO2 
 PCOD9195339
Probable space group: C 2/M
;
_chemical_formula_sum "Si O2"
_cell_formula_units_Z 56
_cell_length_a 29.579589
_cell_length_b 14.427687
_cell_length_c 10.430031
_cell_angle_alpha 90.000000
_cell_angle_beta 38.441479
_cell_angle_gamma 90.000000
_cell_volume 2767.360707
_symmetry_space_group_name_H-M "C 2/M"
_symmetry_group_IT_number 12
_symmetry_cell_setting 'monoclinic'
loop_
_space_group_symop_operation_xyz
x,y,z
-x,y,-z
-x,-y,-z
x,-y,z
1/2+x,1/2+y,z
1/2-x,1/2+y,-z
1/2-x,1/2-y,-z
1/2+x,1/2-y,z
loop_
_atom_site_type_symbol
_atom_site_label
_atom_site_fract_x
_atom_site_fract_y
_atom_site_fract_z
Si Si1 0.438302 0.000000 0.739662
Si Si2 0.301268 0.864712 0.295152
Si Si3 0.689538 0.862187 0.011616
Si Si4 0.947829 0.891519 0.510203
Si Si5 0.318166 0.642662 0.230664
Si Si6 0.798710 0.859713 0.984497
Si Si7 0.065947 0.500000 0.957607
Si Si8 0.487845 0.391823 0.889531
O O1 0.500000 0.000000 0.500000
O O2 0.388385 0.909835 0.824859
O O3 0.464047 0.000000 0.829856
O O4 0.315057 0.754434 0.254839
O O5 0.237226 0.889561 0.536081
O O6 0.376241 0.914107 0.172327
O O7 0.278396 0.889546 0.199448
O O8 0.692505 0.751446 0.019196
O O9 0.732207 0.891387 0.044090
O O10 0.868661 0.888415 0.746351
O O11 0.000000 0.846648 0.500000
O O12 0.969045 0.000000 0.451363
O O13 0.965157 0.850947 0.331989
O O14 0.401996 0.612943 0.054308
O O15 0.294462 0.610353 0.141434
O O16 0.000000 0.500000 0.000000
O O17 0.510153 0.500000 0.851255
O O18 0.500000 0.345817 0.000000
#
# Coordination Sequence:
#
# PCOD9195339 Si02
#       8
#     4   8   8   8   8   8   4   8
#     4  10  22  42  60  86 116 148 190 244 292 336
#     4   9  21  39  58  83 112 147 187 236 283 333
#     4   9  21  39  57  84 112 144 192 231 284 340
#     4  10  20  35  53  82 117 145 183 232 277 327
#     4  10  20  37  58  82 115 148 189 232 278 339
#     4  10  20  36  58  84 113 149 188 230 281 342
#     4  10  22  42  62  86 114 148 194 239 290 344
#     4  10  22  37  52  83 117 149 189 224 275 337
#
# _framework density 20.235887000000002
#
# number of rings (size 3 to 8) (size 9 to 14) (size 15 to 20)
#    0.000    2.286    1.429    0.000    4.000    2.286 
#    2.571    0.000    0.000    0.000    0.000    0.000 
#    0.000    0.000    0.000    0.000    0.000    0.000 
#
# Total GULP energy -155960.030163 kJ/mol
# GULP energy per Si atom -5570.001077 kJ/mol
# Density = 2.018983 g / cm^3
# Si number density = 20.235887 Si / 1000 Ang^3
#
#
#
# Elastic Constant Matrix: (Units=GPa)
#
#
# Indices 1 2 3 4 5 6 
#
# 1 158.1969 11.5762 63.4353 0.0000 39.1289 0.0000
# 2 11.5762 66.0795 2.6219 0.0000 9.7815 0.0000
# 3 63.4353 2.6219 164.0584 0.0000 46.1639 0.0000
# 4 0.0000 0.0000 0.0000 -24.2055 0.0000 19.9671
# 5 39.1289 9.7815 46.1639 0.0000 32.1113 0.0000
# 6 0.0000 0.0000 0.0000 19.9671 0.0000 -1.8714
#
#
#
# Elastic Compliance Matrix: (Units=1/GPa)
#
#
# Indices 1 2 3 4 5 6 
#
# 1 0.009092 -0.000073 -0.000677 0.000000 -0.010083 0.000000
# 2 -0.000073 0.016192 0.001902 0.000000 -0.007577 0.000000
# 3 -0.000677 0.001902 0.010509 0.000000 -0.014862 0.000000
# 4 0.000000 0.000000 0.000000 0.005295 0.000000 0.056502
# 5 -0.010083 -0.007577 -0.014862 0.000000 0.067102 0.000000
# 6 0.000000 0.000000 0.000000 0.056502 0.000000 0.068495
#
#
# Mechanical properties :
#
#
# Convention : Reuss Voigt Hill
#
# Bulk Modulus (GPa) = 26.24992 60.40018 43.32505
# Shear Modulus (GPa) = 26.72621 21.92032 24.32326
#
# Velocity S-wave (km/s) = 3.63813 3.29483 3.47073
# Velocity P-wave (km/s) = 5.53608 6.66239 6.12517
#
# Compressibility (1/GPa) = 0.03809536
#
# Stress axis : x y z
#
# Youngs Moduli (GPa) = 109.98456 61.75805 95.15932
#
# Poissons Ratio (x) = 0.00453 0.06443
# Poissons Ratio (y) = 0.00807 -0.18095
# Poissons Ratio (z) = 0.07447 -0.11744
#
# Static dielectric constant tensor:
#      x y z
#    x 1.737940 0.000000 0.014730 
#    y 0.000000 1.785120 0.000000 
#    z 0.014730 0.000000 1.864910 
# 
# From -- ./inp_files/105999.got.cif
#   From: 2010.05.17/outbox.cif.g08.bks.cpg/sg12_53_cif.got.tgz:105999.got - 2010.06.03 13:09:07.
