data_PCOD9195838
_publ_section_title
;
Structure prediction by ZEFSAII (Michael W. Deem and Ramdas Pophale) SiO2 
 PCOD9195838
Probable space group: C 2/M
;
_chemical_formula_sum "Si O2"
_cell_formula_units_Z 48
_cell_length_a 11.053981
_cell_length_b 17.599573
_cell_length_c 12.091882
_cell_angle_alpha 90.000000
_cell_angle_beta 83.715442
_cell_angle_gamma 90.000000
_cell_volume 2338.282484
_symmetry_space_group_name_H-M "C 2/M"
_symmetry_group_IT_number 12
_symmetry_cell_setting 'monoclinic'
loop_
_space_group_symop_operation_xyz
x,y,z
-x,y,-z
-x,-y,-z
x,-y,z
1/2+x,1/2+y,z
1/2-x,1/2+y,-z
1/2-x,1/2-y,-z
1/2+x,1/2-y,z
loop_
_atom_site_type_symbol
_atom_site_label
_atom_site_fract_x
_atom_site_fract_y
_atom_site_fract_z
Si Si1 0.428211 0.585868 0.162291
Si Si2 0.176858 0.754055 0.894107
Si Si3 0.188283 0.414968 0.323910
Si Si4 0.882505 0.830739 0.728088
Si Si5 0.222854 0.334930 0.549527
Si Si6 0.983726 0.685455 0.253636
O O1 0.424868 0.500000 0.114268
O O2 0.380212 0.660538 0.101685
O O3 0.327205 0.585140 0.269202
O O4 0.561401 0.605743 0.197373
O O5 0.276406 0.721519 0.794710
O O6 0.065515 0.699478 0.865660
O O7 0.250000 0.750000 0.000000
O O8 0.140859 0.500000 0.325940
O O9 0.189040 0.382534 0.446242
O O10 0.103206 0.365184 0.252633
O O11 0.837595 0.858307 0.613758
O O12 0.989965 0.770121 0.704512
O O13 0.250000 0.250000 0.500000
O O14 0.113901 0.343859 0.648586
#
# Coordination Sequence:
#
# PCOD9195838 Si02
#       6
#     8   8   8   8   8   8
#     4  10  22  40  60  86 125 157 193 251 304 349
#     4  10  21  40  65  88 112 151 203 252 303 366
#     4  11  22  37  55  84 124 163 195 241 302 353
#     4  10  20  37  58  86 114 157 203 243 295 357
#     4  11  20  32  55  83 115 158 201 242 285 354
#     4  10  20  35  55  82 115 151 199 248 292 352
#
# _framework density 20.527888000000001
#
# number of rings (size 3 to 8) (size 9 to 14) (size 15 to 20)
#    0.000    1.667    3.333    2.500    0.000    6.667 
#    0.000    6.667    0.000    2.000    0.000    0.000 
#    0.000    0.000    0.000    0.000    0.000    0.000 
#
# Total GULP energy -133604.203669 kJ/mol
# GULP energy per Si atom -5566.841820 kJ/mol
# Density = 2.048117 g / cm^3
# Si number density = 20.527888 Si / 1000 Ang^3
#
#
#
# Elastic Constant Matrix: (Units=GPa)
#
#
# Indices 1 2 3 4 5 6 
#
# 1 66.1635 27.4955 28.5278 0.0000 24.8798 0.0000
# 2 27.4955 118.1441 33.6722 0.0000 24.3865 0.0000
# 3 28.5278 33.6722 98.0007 0.0000 35.1528 0.0000
# 4 0.0000 0.0000 0.0000 10.5582 0.0000 6.7344
# 5 24.8798 24.3865 35.1528 0.0000 42.5683 0.0000
# 6 0.0000 0.0000 0.0000 6.7344 0.0000 25.9067
#
#
#
# Elastic Compliance Matrix: (Units=1/GPa)
#
#
# Indices 1 2 3 4 5 6 
#
# 1 0.020261 -0.002330 -0.001888 0.000000 -0.008948 0.000000
# 2 -0.002330 0.010119 -0.001716 0.000000 -0.003018 0.000000
# 3 -0.001888 -0.001716 0.015054 0.000000 -0.010345 0.000000
# 4 0.000000 0.000000 0.000000 0.113538 0.000000 -0.029514
# 5 -0.008948 -0.003018 -0.010345 0.000000 0.038994 0.000000
# 6 0.000000 0.000000 0.000000 -0.029514 0.000000 0.046272
#
#
# Mechanical properties :
#
#
# Convention : Reuss Voigt Hill
#
# Bulk Modulus (GPa) = 29.79194 51.29993 40.54594
# Shear Modulus (GPa) = 18.70603 28.64750 23.67676
#
# Velocity S-wave (km/s) = 3.02197 3.73975 3.39985
# Velocity P-wave (km/s) = 5.16922 6.61001 5.93351
#
# Compressibility (1/GPa) = 0.03356612
#
# Stress axis : x y z
#
# Youngs Moduli (GPa) = 49.35544 98.82886 66.42816
#
# Poissons Ratio (x) = 0.23031 0.12539
# Poissons Ratio (y) = 0.11502 0.11398
# Poissons Ratio (z) = 0.09316 0.16957
#
# Static dielectric constant tensor:
#      x y z
#    x 1.818630 0.000000 0.031860 
#    y 0.000000 1.755990 0.000000 
#    z 0.031860 0.000000 1.604510 
# 
# From -- ./inp_files/131025.got.cif
#   From: 2010.05.17/outbox.cif.g08.bks.cpg/sg12_66_cif.got.tgz:131025.got - 2010.06.03 13:09:07.
