data_PCOD9195931
_publ_section_title
;
Structure prediction by ZEFSAII (Michael W. Deem and Ramdas Pophale) SiO2 
 PCOD9195931
Probable space group: C 2/M
;
_chemical_formula_sum "Si O2"
_cell_formula_units_Z 56
_cell_length_a 12.177551
_cell_length_b 13.830439
_cell_length_c 15.414042
_cell_angle_alpha 90.000000
_cell_angle_beta 76.310901
_cell_angle_gamma 90.000000
_cell_volume 2522.303588
_symmetry_space_group_name_H-M "C 2/M"
_symmetry_group_IT_number 12
_symmetry_cell_setting 'monoclinic'
loop_
_space_group_symop_operation_xyz
x,y,z
-x,y,-z
-x,-y,-z
x,-y,z
1/2+x,1/2+y,z
1/2-x,1/2+y,-z
1/2-x,1/2-y,-z
1/2+x,1/2-y,z
loop_
_atom_site_type_symbol
_atom_site_label
_atom_site_fract_x
_atom_site_fract_y
_atom_site_fract_z
Si Si1 0.277726 0.386023 0.465293
Si Si2 0.778427 0.111309 0.744632
Si Si3 0.999047 0.819063 0.366806
Si Si4 0.853287 0.884288 0.103415
Si Si5 0.888856 0.117175 0.908842
Si Si6 0.308708 0.693403 0.283095
Si Si7 0.044409 0.607610 0.590533
O O1 0.290243 0.500000 0.447954
O O2 0.402926 0.342650 0.456920
O O3 0.239092 0.335715 0.382139
O O4 0.179578 0.374392 0.553554
O O5 0.826047 0.140522 0.831108
O O6 0.689579 0.192340 0.733595
O O7 0.884646 0.125174 0.659616
O O8 0.741644 0.000000 0.751462
O O9 0.928812 0.848460 0.293392
O O10 0.009149 0.703552 0.359525
O O11 0.776149 0.852055 0.197851
O O12 0.981253 0.849582 0.102315
O O13 0.855263 0.000000 0.102992
O O14 0.826727 0.853359 0.010096
O O15 0.894260 0.000000 0.907125
O O16 0.025839 0.500000 0.632127
O O17 0.000000 0.602630 0.500000
#
# Coordination Sequence:
#
# PCOD9195931 Si02
#       7
#     8   8   8   8   8   8   8
#     4   9  18  34  55  77 102 140 176 215 266 317
#     4  11  21  36  53  78 111 145 182 222 272 319
#     4  10  21  35  56  79 107 140 181 221 267 318
#     4   9  15  29  52  82 109 136 178 224 265 309
#     4   8  15  28  52  77 106 142 177 220 264 311
#     4  10  21  30  54  83 107 142 174 224 270 322
#     4  10  20  35  56  77 105 140 176 219 270 321
#
# _framework density 22.201927999999999
#
# number of rings (size 3 to 8) (size 9 to 14) (size 15 to 20)
#    0.857    1.571    1.429    3.000    0.000    1.143 
#    0.000    0.714    0.000    1.714    0.000    3.000 
#    0.000    0.000    0.000    0.000    0.000    0.000 
#
# Total GULP energy -155993.506358 kJ/mol
# GULP energy per Si atom -5571.196656 kJ/mol
# Density = 2.215139 g / cm^3
# Si number density = 22.201928 Si / 1000 Ang^3
#
#
#
# Elastic Constant Matrix: (Units=GPa)
#
#
# Indices 1 2 3 4 5 6 
#
# 1 57.5173 -6.8052 -6.7391 0.0000 7.9938 0.0000
# 2 -6.8052 81.2836 7.4445 0.0000 6.5622 0.0000
# 3 -6.7391 7.4445 77.7456 0.0000 18.4287 0.0000
# 4 0.0000 0.0000 0.0000 9.5784 0.0000 18.8229
# 5 7.9938 6.5622 18.4287 0.0000 15.6785 0.0000
# 6 0.0000 0.0000 0.0000 18.8229 0.0000 7.2076
#
#
#
# Elastic Compliance Matrix: (Units=1/GPa)
#
#
# Indices 1 2 3 4 5 6 
#
# 1 0.021067 0.002744 0.006074 0.000000 -0.019029 0.000000
# 2 0.002744 0.013090 0.000852 0.000000 -0.007879 0.000000
# 3 0.006074 0.000852 0.019582 0.000000 -0.026470 0.000000
# 4 0.000000 0.000000 0.000000 -0.025266 0.000000 0.065984
# 5 -0.019029 -0.007879 -0.026470 0.000000 0.107895 0.000000
# 6 0.000000 0.000000 0.000000 0.065984 0.000000 -0.033577
#
#
# Mechanical properties :
#
#
# Convention : Reuss Voigt Hill
#
# Bulk Modulus (GPa) = 13.68381 22.70520 18.19450
# Shear Modulus (GPa) = 46.37744 21.33599 33.85671
#
# Velocity S-wave (km/s) = 4.57540 3.10336 3.90929
# Velocity P-wave (km/s) = 5.83859 4.80520 5.34692
#
# Compressibility (1/GPa) = 0.07307906
#
# Stress axis : x y z
#
# Youngs Moduli (GPa) = 47.46746 76.39189 51.06764
#
# Poissons Ratio (x) = -0.20960 -0.31019
# Poissons Ratio (y) = -0.13024 -0.04351
# Poissons Ratio (z) = -0.28832 -0.06509
#
# Static dielectric constant tensor:
#      x y z
#    x 1.898080 0.000000 -0.013980 
#    y 0.000000 1.805030 0.000000 
#    z -0.013980 0.000000 1.904390 
# 
# From -- ./inp_files/268654.got.cif
#   From: 2010.05.17/outbox.cif.g08.bks.cpg/sg12_135_cif.got.tgz:268654.got - 2010.06.03 13:09:07.
