data_PCOD9195729
_publ_section_title
;
Structure prediction by ZEFSAII (Michael W. Deem and Ramdas Pophale) SiO2 
 PCOD9195729
Probable space group: C 2/M
;
_chemical_formula_sum "Si O2"
_cell_formula_units_Z 64
_cell_length_a 20.484993
_cell_length_b 12.370465
_cell_length_c 19.054429
_cell_angle_alpha 90.000000
_cell_angle_beta 43.145229
_cell_angle_gamma 90.000000
_cell_volume 3302.011651
_symmetry_space_group_name_H-M "C 2/M"
_symmetry_group_IT_number 12
_symmetry_cell_setting 'monoclinic'
loop_
_space_group_symop_operation_xyz
x,y,z
-x,y,-z
-x,-y,-z
x,-y,z
1/2+x,1/2+y,z
1/2-x,1/2+y,-z
1/2-x,1/2-y,-z
1/2+x,1/2-y,z
loop_
_atom_site_type_symbol
_atom_site_label
_atom_site_fract_x
_atom_site_fract_y
_atom_site_fract_z
Si Si1 0.643628 0.774890 0.607950
Si Si2 0.451062 0.882367 0.440696
Si Si3 0.896919 0.171417 0.574617
Si Si4 0.814694 0.377444 0.278565
Si Si5 0.147559 0.210870 0.871690
Si Si6 0.468814 0.626707 0.760573
Si Si7 0.013628 0.121317 0.086345
Si Si8 0.857447 0.722904 0.749110
O O1 0.750000 0.750000 0.500000
O O2 0.606562 0.868678 0.586058
O O3 0.642831 0.811255 0.689334
O O4 0.569684 0.675765 0.654400
O O5 0.417131 0.784599 0.517576
O O6 0.560943 0.864479 0.332153
O O7 0.434907 0.000000 0.484903
O O8 0.800490 0.122662 0.619327
O O9 0.870271 0.193461 0.675546
O O10 0.000000 0.116297 0.500000
O O11 0.849089 0.500000 0.251419
O O12 0.838878 0.318407 0.186063
O O13 0.250384 0.180475 0.823310
O O14 0.094728 0.133248 0.856706
O O15 0.075570 0.207654 0.994068
O O16 0.456148 0.500000 0.751259
O O17 0.474452 0.633562 0.840320
O O18 0.388309 0.707799 0.792970
O O19 0.047324 0.000000 0.041580
#
# Coordination Sequence:
#
# PCOD9195729 Si02
#       8
#     8   8   8   8   8   8   8   8
#     4  11  21  39  56  85 124 154 202 252 294 350
#     4  10  20  35  55  79 114 160 201 245 300 351
#     4   9  19  37  52  80 115 155 202 250 288 343
#     4  11  22  37  58  83 118 161 198 244 301 358
#     4  10  20  39  62  91 122 152 197 253 302 360
#     4  10  22  41  65  90 120 162 205 247 302 360
#     4  10  21  40  69  95 121 156 197 251 308 358
#     4   9  21  35  56  85 124 153 195 252 295 355
#
# _framework density 19.382124000000001
#
# number of rings (size 3 to 8) (size 9 to 14) (size 15 to 20)
#    0.000    2.000    2.500    1.125    0.000    7.000 
#    0.000    5.000    0.000    0.000    0.000    0.000 
#    0.000    0.000    0.000    0.000    0.000    0.000 
#
# Total GULP energy -178173.291347 kJ/mol
# GULP energy per Si atom -5567.915355 kJ/mol
# Density = 1.933801 g / cm^3
# Si number density = 19.382124 Si / 1000 Ang^3
#
#
#
# Elastic Constant Matrix: (Units=GPa)
#
#
# Indices 1 2 3 4 5 6 
#
# 1 113.4954 18.7741 28.5720 0.0000 -7.2639 0.0000
# 2 18.7741 91.9527 28.2479 0.0000 5.7572 0.0000
# 3 28.5720 28.2479 66.7584 0.0000 -8.0211 0.0000
# 4 0.0000 0.0000 0.0000 16.0452 0.0000 9.0728
# 5 -7.2639 5.7572 -8.0211 0.0000 36.9810 0.0000
# 6 0.0000 0.0000 0.0000 9.0728 0.0000 -10.8382
#
#
#
# Elastic Compliance Matrix: (Units=1/GPa)
#
#
# Indices 1 2 3 4 5 6 
#
# 1 0.009990 -0.000985 -0.003701 0.000000 0.001313 0.000000
# 2 -0.000985 0.012971 -0.005476 0.000000 -0.003400 0.000000
# 3 -0.003701 -0.005476 0.019401 0.000000 0.004334 0.000000
# 4 0.000000 0.000000 0.000000 0.042301 0.000000 0.035411
# 5 0.001313 -0.003400 0.004334 0.000000 0.028768 0.000000
# 6 0.000000 0.000000 0.000000 0.035411 0.000000 -0.062623
#
#
# Mechanical properties :
#
#
# Convention : Reuss Voigt Hill
#
# Bulk Modulus (GPa) = 45.37446 47.04384 46.20915
# Shear Modulus (GPa) = 63.71332 21.54511 42.62921
#
# Velocity S-wave (km/s) = 5.73965 3.33768 4.69487
# Velocity P-wave (km/s) = 8.20890 6.25923 7.29945
#
# Compressibility (1/GPa) = 0.02203883
#
# Stress axis : x y z
#
# Youngs Moduli (GPa) = 100.10449 77.09347 51.54369
#
# Poissons Ratio (x) = 0.07592 0.19076
# Poissons Ratio (y) = 0.09859 0.28224
# Poissons Ratio (z) = 0.37049 0.42214
#
# Static dielectric constant tensor:
#      x y z
#    x 1.742730 0.000000 -0.031190 
#    y 0.000000 1.710570 0.000000 
#    z -0.031190 0.000000 1.688930 
# 
# From -- ./inp_files/321227.got.cif
#   From: 2010.05.17/outbox.cif.g08.bks.cpg/sg12_161_cif.got.tgz:321227.got - 2010.06.03 13:09:07.
