data_PCOD9195630
_publ_section_title
;
Structure prediction by ZEFSAII (Michael W. Deem and Ramdas Pophale) SiO2 
 PCOD9195630
Probable space group: C 2/M
;
_chemical_formula_sum "Si O2"
_cell_formula_units_Z 64
_cell_length_a 9.454007
_cell_length_b 28.817739
_cell_length_c 26.000702
_cell_angle_alpha 90.000000
_cell_angle_beta 149.606344
_cell_angle_gamma 90.000000
_cell_volume 3583.920935
_symmetry_space_group_name_H-M "C 2/M"
_symmetry_group_IT_number 12
_symmetry_cell_setting 'monoclinic'
loop_
_space_group_symop_operation_xyz
x,y,z
-x,y,-z
-x,-y,-z
x,-y,z
1/2+x,1/2+y,z
1/2-x,1/2+y,-z
1/2-x,1/2-y,-z
1/2+x,1/2-y,z
loop_
_atom_site_type_symbol
_atom_site_label
_atom_site_fract_x
_atom_site_fract_y
_atom_site_fract_z
Si Si1 0.727324 0.339744 0.113553
Si Si2 0.473654 0.552145 0.578121
Si Si3 0.733714 0.852501 0.759073
Si Si4 0.456458 0.236808 0.931873
Si Si5 0.530177 0.947621 0.350937
Si Si6 0.681106 0.291614 0.608265
Si Si7 0.044145 0.195405 0.272577
Si Si8 0.110713 0.143414 0.679166
O O1 0.634299 0.352507 0.142550
O O2 0.715696 0.283622 0.108872
O O3 0.049159 0.355580 0.207250
O O4 0.500000 0.355731 0.000000
O O5 0.467220 0.500000 0.597777
O O6 0.733428 0.554502 0.619574
O O7 0.198684 0.558929 0.456951
O O8 0.517000 0.592965 0.631595
O O9 0.673049 0.904962 0.722869
O O10 0.446142 0.823856 0.677244
O O11 0.882413 0.825520 0.759717
O O12 0.277681 0.210561 0.833791
O O13 0.500000 0.211669 0.000000
O O14 0.750000 0.250000 0.000000
O O15 0.412009 0.000000 0.313129
O O16 0.500000 0.287785 0.500000
O O17 0.543301 0.319569 0.612445
O O18 0.777643 0.241116 0.657937
O O19 0.050477 0.159179 0.320646
#
# Coordination Sequence:
#
# PCOD9195630 Si02
#       8
#     8   8   8   8   8   8   8   8
#     4  10  20  35  55  78 106 143 181 229 271 320
#     4   9  17  33  59  84 103 136 188 237 277 318
#     4  11  21  36  57  78 115 144 185 229 276 336
#     4  11  21  35  56  76 106 144 189 232 269 311
#     4   9  17  33  59  85 104 136 189 236 275 321
#     4  11  23  37  53  73 110 155 190 221 263 329
#     4  12  24  35  51  84 113 151 184 218 283 333
#     4  11  21  36  55  77 112 142 184 229 273 334
#
# _framework density 17.857536
#
# number of rings (size 3 to 8) (size 9 to 14) (size 15 to 20)
#    0.000    1.500    5.000    4.500    0.000    3.000 
#    0.000    0.625    0.000    3.000    0.000    0.000 
#    0.000    4.000    0.000    0.000    0.000    0.000 
#
# Total GULP energy -178574.773692 kJ/mol
# GULP energy per Si atom -5580.461678 kJ/mol
# Density = 1.781689 g / cm^3
# Si number density = 17.857536 Si / 1000 Ang^3
#
#
#
# Elastic Constant Matrix: (Units=GPa)
#
#
# Indices 1 2 3 4 5 6 
#
# 1 71.8766 24.0807 25.2805 0.0001 -20.5008 0.0002
# 2 24.0807 118.8367 47.9705 0.0004 -21.6216 -0.0004
# 3 25.2805 47.9705 88.9065 0.0012 -34.9513 0.0071
# 4 0.0001 0.0004 0.0012 18.4838 0.0014 -9.0898
# 5 -20.5008 -21.6216 -34.9513 0.0014 21.2923 -0.0005
# 6 0.0002 -0.0004 0.0071 -9.0898 -0.0005 7.9487
#
#
#
# Elastic Compliance Matrix: (Units=1/GPa)
#
#
# Indices 1 2 3 4 5 6 
#
# 1 0.020224 -0.001446 0.005942 -0.000010 0.027757 -0.000016
# 2 -0.001446 0.010980 -0.004729 0.000005 0.001994 0.000011
# 3 0.005942 -0.004729 0.035161 -0.000047 0.058635 -0.000081
# 4 -0.000010 0.000005 -0.000047 0.123624 -0.000086 0.141372
# 5 0.027757 0.001994 0.058635 -0.000086 0.171965 -0.000139
# 6 -0.000016 0.000011 -0.000081 0.141372 -0.000139 0.287473
#
#
# Mechanical properties :
#
#
# Convention : Reuss Voigt Hill
#
# Bulk Modulus (GPa) = 15.17515 52.69812 33.93664
# Shear Modulus (GPa) = 7.44202 21.69749 14.56975
#
# Velocity S-wave (km/s) = 2.04364 3.48951 2.85947
# Velocity P-wave (km/s) = 3.75300 6.76831 5.47243
#
# Compressibility (1/GPa) = 0.06589722
#
# Stress axis : x y z
#
# Youngs Moduli (GPa) = 49.44518 91.07639 28.44086
#
# Poissons Ratio (x) = 0.13173 -0.16898
# Poissons Ratio (y) = 0.07152 0.13449
# Poissons Ratio (z) = -0.29378 0.43069
#
# Static dielectric constant tensor:
#      x y z
#    x 1.638600 0.000000 -0.012500 
#    y 0.000000 1.600810 0.000000 
#    z -0.012500 0.000000 1.640360 
# 
# From -- ./inp_files/199778.got.cif
#   From: 2010.05.17/outbox.cif.g08.bks.cpg/sg12_100_cif.got.tgz:199778.got - 2010.06.03 13:09:07.
