data_PCOD9195539
_publ_section_title
;
Structure prediction by ZEFSAII (Michael W. Deem and Ramdas Pophale) SiO2 
 PCOD9195539
Probable space group: C 2/M
;
_chemical_formula_sum "Si O2"
_cell_formula_units_Z 46
_cell_length_a 12.573803
_cell_length_b 32.223726
_cell_length_c 4.887174
_cell_angle_alpha 90.000000
_cell_angle_beta 112.587720
_cell_angle_gamma 90.000000
_cell_volume 1828.266686
_symmetry_space_group_name_H-M "C 2/M"
_symmetry_group_IT_number 12
_symmetry_cell_setting 'monoclinic'
loop_
_space_group_symop_operation_xyz
x,y,z
-x,y,-z
-x,-y,-z
x,-y,z
1/2+x,1/2+y,z
1/2-x,1/2+y,-z
1/2-x,1/2-y,-z
1/2+x,1/2-y,z
loop_
_atom_site_type_symbol
_atom_site_label
_atom_site_fract_x
_atom_site_fract_y
_atom_site_fract_z
Si Si1 0.500000 0.600099 0.500000
Si Si2 0.355400 0.043957 0.885739
Si Si3 0.364385 0.454158 0.984255
Si Si4 0.000000 0.500000 0.500000
Si Si5 0.126835 0.220904 0.565362
Si Si6 0.763876 0.303796 0.203965
Si Si7 0.245863 0.886772 0.510486
O O1 0.377213 0.622311 0.449672
O O2 0.528802 0.569258 0.775636
O O3 0.351670 0.091002 0.772896
O O4 0.374712 0.000000 0.721600
O O5 0.223856 0.040878 0.849981
O O6 0.435013 0.036077 0.229268
O O7 0.381700 0.500000 0.887724
O O8 0.294417 0.423942 0.723057
O O9 0.138396 0.269565 0.651721
O O10 0.158467 0.214452 0.281869
O O11 0.000000 0.205708 0.500000
O O12 0.222491 0.198462 0.850867
O O13 0.782121 0.348456 0.355689
#
# Coordination Sequence:
#
# PCOD9195539 Si02
#       7
#     4   8   8   2   8   8   8
#     4  10  23  34  52  86 128 177 219 266 334 410
#     4   8  18  36  60  87 122 173 227 283 334 396
#     4  10  20  35  54  83 124 173 216 270 333 396
#     4   8  16  40  66  82 116 176 242 280 338 402
#     4  10  22  44  70 100 136 180 224 277 352 437
#     4  10  24  40  69 105 134 178 226 282 350 418
#     4  11  22  36  58  93 132 169 220 285 341 406
#
# _framework density 25.160442
#
# number of rings (size 3 to 8) (size 9 to 14) (size 15 to 20)
#    0.522    1.739    0.000    1.826    6.087    4.174 
#    0.000    1.739    1.913    4.174    0.000    0.000 
#    0.000    0.000    0.000    0.000    0.000    0.000 
#
# Total GULP energy -128112.061744 kJ/mol
# GULP energy per Si atom -5570.089641 kJ/mol
# Density = 2.510318 g / cm^3
# Si number density = 25.160442 Si / 1000 Ang^3
#
#
#
# Elastic Constant Matrix: (Units=GPa)
#
#
# Indices 1 2 3 4 5 6 
#
# 1 56.5358 12.5240 -4.4239 0.0000 16.9663 0.0000
# 2 12.5240 169.7081 50.9917 0.0000 5.6993 0.0000
# 3 -4.4239 50.9917 111.5800 0.0000 6.3413 0.0000
# 4 0.0000 0.0000 0.0000 51.2992 0.0000 -5.4507
# 5 16.9663 5.6993 6.3413 0.0000 32.0706 0.0000
# 6 0.0000 0.0000 0.0000 -5.4507 0.0000 34.9571
#
#
#
# Elastic Compliance Matrix: (Units=1/GPa)
#
#
# Indices 1 2 3 4 5 6 
#
# 1 0.021810 -0.001944 0.002416 0.000000 -0.011670 0.000000
# 2 -0.001944 0.007015 -0.003308 0.000000 0.000436 0.000000
# 3 0.002416 -0.003308 0.010729 0.000000 -0.002812 0.000000
# 4 0.000000 0.000000 0.000000 0.019822 0.000000 0.003091
# 5 -0.011670 0.000436 -0.002812 0.000000 0.037834 0.000000
# 6 0.000000 0.000000 0.000000 0.003091 0.000000 0.029088
#
#
# Mechanical properties :
#
#
# Convention : Reuss Voigt Hill
#
# Bulk Modulus (GPa) = 29.51234 50.66748 40.08991
# Shear Modulus (GPa) = 34.90079 42.24753 38.57416
#
# Velocity S-wave (km/s) = 3.72846 4.10216 3.91976
# Velocity P-wave (km/s) = 5.50367 6.52828 6.03775
#
# Compressibility (1/GPa) = 0.03388413
#
# Stress axis : x y z
#
# Youngs Moduli (GPa) = 45.85098 142.54907 93.20190
#
# Poissons Ratio (x) = 0.27705 -0.22519
# Poissons Ratio (y) = 0.08911 0.30828
# Poissons Ratio (z) = -0.11078 0.47151
#
# Static dielectric constant tensor:
#      x y z
#    x 2.074930 0.000000 0.103620 
#    y 0.000000 2.043190 0.000000 
#    z 0.103620 0.000000 2.027250 
# 
# From -- ./inp_files/13267.got.cif
#   From: 2010.05.17/outbox.cif.g08.bks.cpg/sg12_7_cif.got.tgz:13267.got - 2010.06.03 13:09:07.
