data_PCOD9195696
_publ_section_title
;
Structure prediction by ZEFSAII (Michael W. Deem and Ramdas Pophale) SiO2 
 PCOD9195696
Probable space group: C 2/M
;
_chemical_formula_sum "Si O2"
_cell_formula_units_Z 40
_cell_length_a 28.267430
_cell_length_b 7.669213
_cell_length_c 19.225469
_cell_angle_alpha 90.000000
_cell_angle_beta 153.238858
_cell_angle_gamma 90.000000
_cell_volume 1876.675101
_symmetry_space_group_name_H-M "C 2/M"
_symmetry_group_IT_number 12
_symmetry_cell_setting 'monoclinic'
loop_
_space_group_symop_operation_xyz
x,y,z
-x,y,-z
-x,-y,-z
x,-y,z
1/2+x,1/2+y,z
1/2-x,1/2+y,-z
1/2-x,1/2-y,-z
1/2+x,1/2-y,z
loop_
_atom_site_type_symbol
_atom_site_label
_atom_site_fract_x
_atom_site_fract_y
_atom_site_fract_z
Si Si1 0.483616 0.213695 0.764783
Si Si2 0.387413 0.205559 0.375375
Si Si3 0.781201 0.707757 0.962166
Si Si4 0.187499 0.711100 0.573269
Si Si5 0.576165 0.207523 0.160031
O O1 0.399440 0.269425 0.596587
O O2 0.450455 0.274595 0.797981
O O3 0.483232 0.000000 0.763700
O O4 0.601296 0.271206 0.900598
O O5 0.500000 0.280527 0.500000
O O6 0.303590 0.222919 0.203812
O O7 0.342338 0.276355 0.388837
O O8 0.404783 0.000000 0.411107
O O9 0.781847 0.500000 0.955189
O O10 0.750000 0.750000 0.000000
O O11 0.186889 0.500000 0.573106
O O12 0.303465 0.764755 0.702484
O O13 0.557324 0.000000 0.138679
O O14 0.500000 0.279545 0.000000
#
# Coordination Sequence:
#
# PCOD9195696 Si02
#       5
#     8   8   8   8   8
#     4   9  19  36  56  78 108 147 183 220 275 336
#     4  10  21  38  58  80 111 150 188 228 278 332
#     4  11  22  38  60  84 112 145 184 228 276 332
#     4  10  20  35  56  80 107 142 184 227 272 324
#     4  10  20  35  55  79 109 144 181 223 274 328
#
# _framework density 21.314291000000001
#
# number of rings (size 3 to 8) (size 9 to 14) (size 15 to 20)
#    0.000    2.000    0.000    3.600    0.000    6.400 
#    0.000    6.000    0.000    0.000    0.000    0.000 
#    0.000    0.000    0.000    0.000    0.000    0.000 
#
# Total GULP energy -111801.235717 kJ/mol
# GULP energy per Si atom -5590.061786 kJ/mol
# Density = 2.126578 g / cm^3
# Si number density = 21.314291 Si / 1000 Ang^3
#
#
#
# Elastic Constant Matrix: (Units=GPa)
#
#
# Indices 1 2 3 4 5 6 
#
# 1 236.4807 -14.2210 113.4932 0.0000 1.4885 0.0000
# 2 -14.2210 29.1334 -27.8194 0.0000 -0.2609 0.0000
# 3 113.4932 -27.8194 184.0472 0.0000 4.2291 0.0000
# 4 0.0000 0.0000 0.0000 235.0899 0.0000 199.7094
# 5 1.4885 -0.2609 4.2291 0.0000 44.9521 0.0000
# 6 0.0000 0.0000 0.0000 199.7094 0.0000 191.7233
#
#
#
# Elastic Compliance Matrix: (Units=1/GPa)
#
#
# Indices 1 2 3 4 5 6 
#
# 1 0.006020 -0.000711 -0.003823 0.000000 0.000156 0.000000
# 2 -0.000711 0.040204 0.006524 0.000000 -0.000357 0.000000
# 3 -0.003823 0.006524 0.008792 0.000000 -0.000663 0.000000
# 4 0.000000 0.000000 0.000000 0.036953 0.000000 -0.038492
# 5 0.000156 -0.000357 -0.000663 0.000000 0.022301 0.000000
# 6 0.000000 0.000000 0.000000 -0.038492 0.000000 0.045311
#
#
# Mechanical properties :
#
#
# Convention : Reuss Voigt Hill
#
# Bulk Modulus (GPa) = 16.95057 65.84078 41.39567
# Shear Modulus (GPa) = 28.52796 119.56696 74.04746
#
# Velocity S-wave (km/s) = 3.66244 7.49792 5.90052
# Velocity P-wave (km/s) = 5.08474 10.29155 8.11698
#
# Compressibility (1/GPa) = 0.05899508
#
# Stress axis : x y z
#
# Youngs Moduli (GPa) = 166.11929 24.87313 113.73684
#
# Poissons Ratio (x) = 0.01768 0.43483
# Poissons Ratio (y) = 0.11809 -0.74197
# Poissons Ratio (z) = 0.63510 -0.16226
#
# Static dielectric constant tensor:
#      x y z
#    x 1.733230 0.000000 0.006340 
#    y 0.000000 1.804410 0.000000 
#    z 0.006340 0.000000 1.706360 
# 
# From -- ./inp_files/151677.got.cif
#   From: 2010.05.17/outbox.cif.g08.bks.cpg/sg12_76_cif.got.tgz:151677.got - 2010.06.03 13:09:07.
