data_PCOD9195800
_publ_section_title
;
Structure prediction by ZEFSAII (Michael W. Deem and Ramdas Pophale) SiO2 
 PCOD9195800
Probable space group: C 2/M
;
_chemical_formula_sum "Si O2"
_cell_formula_units_Z 44
_cell_length_a 12.163170
_cell_length_b 11.849135
_cell_length_c 18.328194
_cell_angle_alpha 90.000000
_cell_angle_beta 48.320890
_cell_angle_gamma 90.000000
_cell_volume 1972.896580
_symmetry_space_group_name_H-M "C 2/M"
_symmetry_group_IT_number 12
_symmetry_cell_setting 'monoclinic'
loop_
_space_group_symop_operation_xyz
x,y,z
-x,y,-z
-x,-y,-z
x,-y,z
1/2+x,1/2+y,z
1/2-x,1/2+y,-z
1/2-x,1/2-y,-z
1/2+x,1/2-y,z
loop_
_atom_site_type_symbol
_atom_site_label
_atom_site_fract_x
_atom_site_fract_y
_atom_site_fract_z
Si Si1 0.576461 0.627290 0.808834
Si Si2 0.115943 0.623196 0.627822
Si Si3 0.261977 0.627967 0.879629
Si Si4 0.000000 0.208430 0.000000
Si Si5 0.756653 0.834488 0.709159
Si Si6 0.431452 0.626564 0.409181
O O1 0.607725 0.500000 0.776498
O O2 0.424260 0.660545 0.835688
O O3 0.715269 0.703203 0.727092
O O4 0.547547 0.640167 0.907944
O O5 0.047894 0.500000 0.635579
O O6 0.139267 0.618040 0.704389
O O7 0.277366 0.626282 0.518994
O O8 0.057041 0.749838 0.635796
O O9 0.235161 0.500000 0.916923
O O10 0.136601 0.712025 0.961994
O O11 0.249980 0.629325 0.796612
O O12 0.918083 0.867718 0.611547
O O13 0.437803 0.500000 0.369382
#
# Coordination Sequence:
#
# PCOD9195800 Si02
#       6
#     8   8   8   4   8   8
#     4  10  22  38  56  81 115 150 185 233 288 340
#     4  10  21  37  58  85 115 150 195 241 283 334
#     4  10  20  35  55  81 112 144 184 234 285 339
#     4  10  20  36  60  84 106 144 188 228 280 344
#     4  11  21  34  56  82 110 151 195 233 281 340
#     4  10  21  38  59  83 115 154 193 237 288 337
#
# _framework density 22.302233999999999
#
# number of rings (size 3 to 8) (size 9 to 14) (size 15 to 20)
#    0.000    1.818    0.000    4.364    0.000    4.364 
#    0.000    0.000    0.000   19.636    0.000    0.000 
#    0.000    0.000    0.000    0.000    0.000    0.000 
#
# Total GULP energy -122584.731388 kJ/mol
# GULP energy per Si atom -5572.033245 kJ/mol
# Density = 2.225147 g / cm^3
# Si number density = 22.302234 Si / 1000 Ang^3
#
#
#
# Elastic Constant Matrix: (Units=GPa)
#
#
# Indices 1 2 3 4 5 6 
#
# 1 61.5764 58.5936 -7.2508 0.0000 3.4096 0.0000
# 2 58.5936 179.4184 31.4408 0.0000 -11.3854 0.0000
# 3 -7.2508 31.4408 36.7957 0.0000 3.1551 0.0000
# 4 0.0000 0.0000 0.0000 11.0394 0.0000 -6.5610
# 5 3.4096 -11.3854 3.1551 0.0000 32.4127 0.0000
# 6 0.0000 0.0000 0.0000 -6.5610 0.0000 20.7061
#
#
#
# Elastic Compliance Matrix: (Units=1/GPa)
#
#
# Indices 1 2 3 4 5 6 
#
# 1 0.034034 -0.015474 0.020876 0.000000 -0.011048 0.000000
# 2 -0.015474 0.013867 -0.015585 0.000000 0.008016 0.000000
# 3 0.020876 -0.015585 0.045647 0.000000 -0.012114 0.000000
# 4 0.000000 0.000000 0.000000 0.111602 0.000000 0.035362
# 5 -0.011048 0.008016 -0.012114 0.000000 0.036009 0.000000
# 6 0.000000 0.000000 0.000000 0.035362 0.000000 0.059500
#
#
# Mechanical properties :
#
#
# Convention : Reuss Voigt Hill
#
# Bulk Modulus (GPa) = 13.66469 49.26196 31.46333
# Shear Modulus (GPa) = 14.47517 25.83210 20.15363
#
# Velocity S-wave (km/s) = 2.55040 3.40703 3.00935
# Velocity P-wave (km/s) = 3.84878 6.13298 5.11989
#
# Compressibility (1/GPa) = 0.07318130
#
# Stress axis : x y z
#
# Youngs Moduli (GPa) = 29.38197 72.11466 21.90740
#
# Poissons Ratio (x) = 1.11591 -0.45734
# Poissons Ratio (y) = 0.45466 0.34143
# Poissons Ratio (z) = -0.61338 1.12393
#
# Static dielectric constant tensor:
#      x y z
#    x 1.816320 0.000000 0.034660 
#    y 0.000000 1.868500 0.000000 
#    z 0.034660 0.000000 1.832760 
# 
# From -- ./inp_files/262043.got.cif
#   From: 2010.05.17/outbox.cif.g08.bks.cpg/sg12_132_cif.got.tgz:262043.got - 2010.06.03 13:09:07.
