data_PCOD9195842
_publ_section_title
;
Structure prediction by ZEFSAII (Michael W. Deem and Ramdas Pophale) SiO2 
 PCOD9195842
Probable space group: C 2/M
;
_chemical_formula_sum "Si O2"
_cell_formula_units_Z 48
_cell_length_a 13.282204
_cell_length_b 27.326830
_cell_length_c 16.568497
_cell_angle_alpha 90.000000
_cell_angle_beta 26.116177
_cell_angle_gamma 90.000000
_cell_volume 2647.191465
_symmetry_space_group_name_H-M "C 2/M"
_symmetry_group_IT_number 12
_symmetry_cell_setting 'monoclinic'
loop_
_space_group_symop_operation_xyz
x,y,z
-x,y,-z
-x,-y,-z
x,-y,z
1/2+x,1/2+y,z
1/2-x,1/2+y,-z
1/2-x,1/2-y,-z
1/2+x,1/2-y,z
loop_
_atom_site_type_symbol
_atom_site_label
_atom_site_fract_x
_atom_site_fract_y
_atom_site_fract_z
Si Si1 0.424781 0.442529 0.327740
Si Si2 0.757299 0.142569 0.347660
Si Si3 0.616107 0.886045 0.002097
Si Si4 0.672211 0.194959 0.576314
Si Si5 0.295361 0.606703 0.586020
Si Si6 0.712368 0.305826 0.999700
O O1 0.399879 0.500000 0.335721
O O2 0.338028 0.412274 0.311932
O O3 0.305189 0.424211 0.496669
O O4 0.686710 0.425726 0.151343
O O5 0.500000 0.143388 0.500000
O O6 0.735383 0.167301 0.450228
O O7 0.959014 0.174150 0.158735
O O8 0.430799 0.903545 0.200169
O O9 0.725041 0.838704 0.967054
O O10 0.500000 0.874581 0.000000
O O11 0.750000 0.250000 0.500000
O O12 0.797245 0.164251 0.557570
O O13 0.405170 0.188592 0.791806
O O14 0.500000 0.596640 0.500000
O O15 0.750000 0.250000 0.000000
#
# Coordination Sequence:
#
# PCOD9195842 Si02
#       6
#     8   8   8   8   8   8
#     4  10  22  39  59  82 112 148 191 242 291 343
#     4  10  22  40  58  83 116 150 195 238 280 334
#     4  10  20  36  55  82 117 149 182 233 290 343
#     4  10  20  35  56  82 117 152 188 232 281 334
#     4  10  20  35  55  82 116 147 184 235 287 345
#     4  10  20  37  55  83 115 150 191 229 277 336
#
# _framework density 18.132425000000001
#
# number of rings (size 3 to 8) (size 9 to 14) (size 15 to 20)
#    0.000    2.000    3.333    0.000    0.000    3.000 
#    3.000    0.000    0.000    0.000    0.000    9.333 
#    0.000    0.000    0.000    0.000    0.000    0.000 
#
# Total GULP energy -133637.093364 kJ/mol
# GULP energy per Si atom -5568.212224 kJ/mol
# Density = 1.809115 g / cm^3
# Si number density = 18.132425 Si / 1000 Ang^3
#
#
#
# Elastic Constant Matrix: (Units=GPa)
#
#
# Indices 1 2 3 4 5 6 
#
# 1 31.2423 6.9600 26.0098 -0.0002 -16.2124 0.0082
# 2 6.9600 119.5359 38.9897 -0.0163 -5.1650 0.0368
# 3 26.0098 38.9897 128.9386 0.2395 0.6518 -0.1168
# 4 -0.0002 -0.0163 0.2395 15.9105 -0.1065 2.2720
# 5 -16.2124 -5.1650 0.6518 -0.1065 34.1885 0.0253
# 6 0.0082 0.0368 -0.1168 2.2720 0.0253 7.1917
#
#
#
# Elastic Compliance Matrix: (Units=1/GPa)
#
#
# Indices 1 2 3 4 5 6 
#
# 1 0.055347 0.001797 -0.011844 0.000430 0.026745 -0.000494
# 2 0.001797 0.009413 -0.003221 0.000094 0.002336 -0.000140
# 3 -0.011844 -0.003221 0.011152 -0.000259 -0.006317 0.000315
# 4 0.000430 0.000094 -0.000259 0.065829 0.000444 -0.020803
# 5 0.026745 0.002336 -0.006317 0.000444 0.042407 -0.000434
# 6 -0.000494 -0.000140 0.000315 -0.020803 -0.000434 0.145629
#
#
# Mechanical properties :
#
#
# Convention : Reuss Voigt Hill
#
# Bulk Modulus (GPa) = 20.25358 47.07066 33.66212
# Shear Modulus (GPa) = 13.41301 25.30861 19.36081
#
# Velocity S-wave (km/s) = 2.72274 3.74005 3.27118
# Velocity P-wave (km/s) = 4.59113 6.68329 5.73345
#
# Compressibility (1/GPa) = 0.04937399
#
# Stress axis : x y z
#
# Youngs Moduli (GPa) = 18.06777 106.24047 89.67354
#
# Poissons Ratio (x) = -0.19087 1.06214
# Poissons Ratio (y) = -0.03246 0.28882
# Poissons Ratio (z) = 0.21400 0.34218
#
# Static dielectric constant tensor:
#      x y z
#    x 1.698040 -0.000160 -0.745560 
#    y -0.000160 1.664690 0.001340 
#    z -0.745560 0.001340 8.691710 
# 
# From -- ./inp_files/209317.got.cif
#   From: 2010.05.17/outbox.cif.g08.bks.cpg/sg12_105_cif.got.tgz:209317.got - 2010.06.03 13:09:07.
