data_PCOD9195050
_publ_section_title
;
Structure prediction by ZEFSAII (Michael W. Deem and Ramdas Pophale) SiO2 
 PCOD9195050
Probable space group: C 2/M
;
_chemical_formula_sum "Si O2"
_cell_formula_units_Z 64
_cell_length_a 12.835287
_cell_length_b 32.589509
_cell_length_c 9.172139
_cell_angle_alpha 90.000000
_cell_angle_beta 122.174878
_cell_angle_gamma 90.000000
_cell_volume 3247.456925
_symmetry_space_group_name_H-M "C 2/M"
_symmetry_group_IT_number 12
_symmetry_cell_setting 'monoclinic'
loop_
_space_group_symop_operation_xyz
x,y,z
-x,y,-z
-x,-y,-z
x,-y,z
1/2+x,1/2+y,z
1/2-x,1/2+y,-z
1/2-x,1/2-y,-z
1/2+x,1/2-y,z
loop_
_atom_site_type_symbol
_atom_site_label
_atom_site_fract_x
_atom_site_fract_y
_atom_site_fract_z
Si Si1 0.711670 0.599520 0.512813
Si Si2 0.708648 0.706550 0.292464
Si Si3 0.983068 0.174153 0.644903
Si Si4 0.816899 0.895991 0.173892
Si Si5 0.137996 0.711628 0.118949
Si Si6 0.977044 0.048986 0.813078
Si Si7 0.097654 0.661770 0.373508
Si Si8 0.815595 0.340763 0.123117
O O1 0.620285 0.638718 0.445986
O O2 0.722379 0.590258 0.693250
O O3 0.644658 0.567358 0.356876
O O4 0.839309 0.617917 0.551079
O O5 0.579043 0.702820 0.281365
O O6 0.721297 0.751889 0.239002
O O7 0.824074 0.695575 0.480861
O O8 0.717533 0.672508 0.171595
O O9 0.000000 0.194611 0.500000
O O10 0.103766 0.146856 0.764821
O O11 0.908879 0.930572 0.185582
O O12 0.712484 0.883371 0.980415
O O13 0.123491 0.674620 0.224066
O O14 0.181103 0.694184 0.998168
O O15 0.000000 0.728561 0.000000
O O16 0.975624 0.000000 0.800570
O O17 0.000000 0.060143 0.000000
O O18 0.952878 0.660277 0.291489
#
# Coordination Sequence:
#
# PCOD9195050 Si02
#       8
#     8   8   8   8   8   8   8   8
#     4   9  18  37  61  81 118 163 198 234 293 353
#     4  11  22  36  58  80 113 158 207 262 320 360
#     4   8  18  34  53  84 110 147 201 249 294 360
#     4  10  20  34  60  89 116 161 196 240 295 360
#     4  10  22  39  55  78 114 156 201 268 320 355
#     4  10  22  38  62 100 132 151 184 243 307 359
#     4  10  21  41  55  80 116 162 212 250 298 364
#     4  11  23  36  58  85 120 156 210 256 299 362
#
# _framework density 19.707730000000002
#
# number of rings (size 3 to 8) (size 9 to 14) (size 15 to 20)
#    0.000    2.125    1.250    2.250    7.000    1.000 
#    0.000    0.000    2.750    0.750    0.000    3.500 
#    0.000    0.000    0.000    0.000    0.000    0.000 
#
# Total GULP energy -178506.658632 kJ/mol
# GULP energy per Si atom -5578.333082 kJ/mol
# Density = 1.966287 g / cm^3
# Si number density = 19.707730 Si / 1000 Ang^3
#
#
#
# Elastic Constant Matrix: (Units=GPa)
#
#
# Indices 1 2 3 4 5 6 
#
# 1 71.3129 22.6705 31.9639 0.0000 -4.3243 0.0000
# 2 22.6705 60.0213 35.9476 0.0000 1.8011 0.0000
# 3 31.9639 35.9476 89.6241 0.0000 -3.6480 0.0000
# 4 0.0000 0.0000 0.0000 34.1880 0.0000 -1.7598
# 5 -4.3243 1.8011 -3.6480 0.0000 29.9142 0.0000
# 6 0.0000 0.0000 0.0000 -1.7598 0.0000 9.6298
#
#
#
# Elastic Compliance Matrix: (Units=1/GPa)
#
#
# Indices 1 2 3 4 5 6 
#
# 1 0.017447 -0.003926 -0.004558 0.000000 0.002203 0.000000
# 2 -0.003926 0.022985 -0.007938 0.000000 -0.002919 0.000000
# 3 -0.004558 -0.007938 0.016039 0.000000 0.001775 0.000000
# 4 0.000000 0.000000 0.000000 0.029528 0.000000 0.005396
# 5 0.002203 -0.002919 0.001775 0.000000 0.034140 0.000000
# 6 0.000000 0.000000 0.000000 0.005396 0.000000 0.104830
#
#
# Mechanical properties :
#
#
# Convention : Reuss Voigt Hill
#
# Bulk Modulus (GPa) = 42.32281 44.68024 43.50152
# Shear Modulus (GPa) = 18.81891 23.43816 21.12854
#
# Velocity S-wave (km/s) = 3.09350 3.45235 3.27784
# Velocity P-wave (km/s) = 5.85504 6.21387 6.03712
#
# Compressibility (1/GPa) = 0.02362792
#
# Stress axis : x y z
#
# Youngs Moduli (GPa) = 57.31497 43.50581 62.34651
#
# Poissons Ratio (x) = 0.17081 0.28418
# Poissons Ratio (y) = 0.22503 0.49490
# Poissons Ratio (z) = 0.26125 0.34534
#
# Static dielectric constant tensor:
#      x y z
#    x 1.741620 0.000000 0.006020 
#    y 0.000000 1.665940 0.000000 
#    z 0.006020 0.000000 1.803700 
# 
# From -- ./inp_files/68272.got.cif
#   From: 2010.05.17/outbox.cif.g08.bks.cpg/sg12_35_cif.got.tgz:68272.got - 2010.06.03 13:09:07.
