data_PCOD9195993
_publ_section_title
;
Structure prediction by ZEFSAII (Michael W. Deem and Ramdas Pophale) SiO2 
 PCOD9195993
Probable space group: C 2/M
;
_chemical_formula_sum "Si O2"
_cell_formula_units_Z 40
_cell_length_a 9.073983
_cell_length_b 13.238813
_cell_length_c 15.896233
_cell_angle_alpha 90.000000
_cell_angle_beta 87.735505
_cell_angle_gamma 90.000000
_cell_volume 1908.103568
_symmetry_space_group_name_H-M "C 2/M"
_symmetry_group_IT_number 12
_symmetry_cell_setting 'monoclinic'
loop_
_space_group_symop_operation_xyz
x,y,z
-x,y,-z
-x,-y,-z
x,-y,z
1/2+x,1/2+y,z
1/2-x,1/2+y,-z
1/2-x,1/2-y,-z
1/2+x,1/2-y,z
loop_
_atom_site_type_symbol
_atom_site_label
_atom_site_fract_x
_atom_site_fract_y
_atom_site_fract_z
Si Si1 0.500912 0.611617 0.602396
Si Si2 0.789900 0.275681 0.403026
Si Si3 0.473058 0.879689 0.281938
Si Si4 0.272929 0.752441 0.810999
Si Si5 0.018300 0.118334 0.899140
O O1 0.500000 0.607224 0.500000
O O2 0.493873 0.500000 0.636479
O O3 0.356011 0.672852 0.628494
O O4 0.643917 0.670075 0.630164
O O5 0.750000 0.250000 0.500000
O O6 0.925018 0.352164 0.379557
O O7 0.621224 0.826372 0.246077
O O8 0.341860 0.821783 0.234608
O O9 0.474726 0.000000 0.270311
O O10 0.384177 0.680064 0.859698
O O11 0.168640 0.825243 0.868784
O O12 0.018764 0.000000 0.873433
O O13 0.000000 0.122281 0.000000
#
# Coordination Sequence:
#
# PCOD9195993 Si02
#       5
#     8   8   8   8   8
#     4   9  18  34  53  73 101 133 170 226 285 332
#     4  10  20  35  56  80 105 141 192 240 285 338
#     4  11  22  38  59  81 114 156 192 238 295 344
#     4  10  22  38  58  88 120 152 194 234 280 347
#     4  10  20  37  62  90 121 155 190 232 280 334
#
# _framework density 20.963222999999999
#
# number of rings (size 3 to 8) (size 9 to 14) (size 15 to 20)
#    0.000    2.000    0.000    3.600    0.000    0.800 
#    0.000    9.000    0.000   27.000    0.000    0.000 
#    0.000    0.000    0.000    0.000    0.000    0.000 
#
# Total GULP energy -111561.427919 kJ/mol
# GULP energy per Si atom -5578.071396 kJ/mol
# Density = 2.091551 g / cm^3
# Si number density = 20.963223 Si / 1000 Ang^3
#
#
#
# Elastic Constant Matrix: (Units=GPa)
#
#
# Indices 1 2 3 4 5 6 
#
# 1 162.4439 110.0574 52.3440 0.0000 -24.5532 0.0000
# 2 110.0574 236.4977 66.6106 0.0000 -14.3861 0.0000
# 3 52.3440 66.6106 79.8694 0.0000 -24.4764 0.0000
# 4 0.0000 0.0000 0.0000 28.0225 0.0000 0.9117
# 5 -24.5532 -14.3861 -24.4764 0.0000 35.8508 0.0000
# 6 0.0000 0.0000 0.0000 0.9117 0.0000 29.6333
#
#
#
# Elastic Compliance Matrix: (Units=1/GPa)
#
#
# Indices 1 2 3 4 5 6 
#
# 1 0.010032 -0.003809 -0.002227 0.000000 0.003822 0.000000
# 2 -0.003809 0.007012 -0.004159 0.000000 -0.002634 0.000000
# 3 -0.002227 -0.004159 0.020827 0.000000 0.011025 0.000000
# 4 0.000000 0.000000 0.000000 0.035721 0.000000 -0.001099
# 5 0.003822 -0.002634 0.011025 0.000000 0.036981 0.000000
# 6 0.000000 0.000000 0.000000 -0.001099 0.000000 0.033780
#
#
# Mechanical properties :
#
#
# Convention : Reuss Voigt Hill
#
# Bulk Modulus (GPa) = 57.20290 104.09278 80.64784
# Shear Modulus (GPa) = 29.31358 35.35458 32.33408
#
# Velocity S-wave (km/s) = 3.74349 4.11116 3.93163
# Velocity P-wave (km/s) = 6.78465 8.50284 7.69187
#
# Compressibility (1/GPa) = 0.01748163
#
# Stress axis : x y z
#
# Youngs Moduli (GPa) = 99.68538 142.61285 48.01385
#
# Poissons Ratio (x) = 0.54316 0.10692
# Poissons Ratio (y) = 0.37967 0.19970
# Poissons Ratio (z) = 0.22198 0.59315
#
# Static dielectric constant tensor:
#      x y z
#    x 1.746130 0.000000 -0.022190 
#    y 0.000000 1.728840 0.000000 
#    z -0.022190 0.000000 1.866600 
# 
# From -- ./inp_files/254618.got.cif
#   From: 2010.05.17/outbox.cif.g08.bks.cpg/sg12_128_cif.got.tgz:254618.got - 2010.06.03 13:09:07.
