data_PCOD9195860
_publ_section_title
;
Structure prediction by ZEFSAII (Michael W. Deem and Ramdas Pophale) SiO2 
 PCOD9195860
Probable space group: C 2/M
;
_chemical_formula_sum "Si O2"
_cell_formula_units_Z 64
_cell_length_a 30.614471
_cell_length_b 8.386687
_cell_length_c 26.724385
_cell_angle_alpha 90.000000
_cell_angle_beta 150.228665
_cell_angle_gamma 90.000000
_cell_volume 3407.053408
_symmetry_space_group_name_H-M "C 2/M"
_symmetry_group_IT_number 12
_symmetry_cell_setting 'monoclinic'
loop_
_space_group_symop_operation_xyz
x,y,z
-x,y,-z
-x,-y,-z
x,-y,z
1/2+x,1/2+y,z
1/2-x,1/2+y,-z
1/2-x,1/2-y,-z
1/2+x,1/2-y,z
loop_
_atom_site_type_symbol
_atom_site_label
_atom_site_fract_x
_atom_site_fract_y
_atom_site_fract_z
Si Si1 0.252313 0.805221 0.174305
Si Si2 0.262601 0.193089 0.298965
Si Si3 0.913515 0.690295 0.264952
Si Si4 0.149473 0.190551 0.903082
Si Si5 0.399350 0.311322 0.515490
Si Si6 0.614199 0.693591 0.227567
Si Si7 0.756854 0.691020 0.450617
Si Si8 0.919139 0.804886 0.056943
O O1 0.263328 0.752529 0.242442
O O2 0.332109 0.752693 0.218162
O O3 0.253153 0.000000 0.175462
O O4 0.160070 0.755808 0.058156
O O5 0.346000 0.248713 0.414246
O O6 0.174267 0.246254 0.240564
O O7 0.262952 0.000000 0.299851
O O8 0.907938 0.500000 0.256029
O O9 0.902117 0.757122 0.197774
O O10 0.005083 0.737255 0.381273
O O11 0.104208 0.246297 0.909714
O O12 0.151927 0.000000 0.907258
O O13 0.250000 0.250000 0.000000
O O14 0.407411 0.500000 0.520328
O O15 0.339079 0.264633 0.503009
O O16 0.610922 0.500000 0.221752
O O17 0.670125 0.735112 0.332551
O O18 0.514493 0.750789 0.133117
O O19 0.765266 0.500000 0.457477
O O20 0.750000 0.750000 0.500000
O O21 0.920755 0.000000 0.058787
#
# Coordination Sequence:
#
# PCOD9195860 Si02
#       8
#     8   8   8   8   8   8   8   8
#     4   9  18  33  56  83 112 146 185 231 288 346
#     4   9  18  36  59  83 110 144 186 235 289 344
#     4  11  22  38  57  83 115 148 190 236 288 348
#     4  11  21  35  56  80 115 154 190 231 281 336
#     4  11  23  39  57  80 111 150 192 238 289 340
#     4   8  16  30  51  80 113 142 178 227 276 327
#     4  10  20  35  55  83 115 151 190 234 284 339
#     4   9  17  31  52  83 115 144 180 227 276 334
#
# _framework density 18.784559999999999
#
# number of rings (size 3 to 8) (size 9 to 14) (size 15 to 20)
#    0.000    2.250    1.250    3.000    1.750    1.000 
#    0.000    6.250    0.000    0.750    0.000    3.500 
#    0.000    0.000    0.000    0.000    0.000    0.000 
#
# Total GULP energy -178618.302704 kJ/mol
# GULP energy per Si atom -5581.821959 kJ/mol
# Density = 1.874181 g / cm^3
# Si number density = 18.784560 Si / 1000 Ang^3
#
#
#
# Elastic Constant Matrix: (Units=GPa)
#
#
# Indices 1 2 3 4 5 6 
#
# 1 57.8437 1.3409 64.3012 0.0000 -21.7910 0.0000
# 2 1.3409 22.5776 1.5896 0.0000 -3.9198 0.0000
# 3 64.3012 1.5896 121.6194 0.0000 3.8692 0.0000
# 4 0.0000 0.0000 0.0000 20.0337 0.0000 -5.3826
# 5 -21.7910 -3.9198 3.8692 0.0000 40.0216 0.0000
# 6 0.0000 0.0000 0.0000 -5.3826 0.0000 19.1161
#
#
#
# Elastic Compliance Matrix: (Units=1/GPa)
#
#
# Indices 1 2 3 4 5 6 
#
# 1 0.105841 0.008938 -0.058116 0.000000 0.064122 0.000000
# 2 0.008938 0.045878 -0.005640 0.000000 0.009905 0.000000
# 3 -0.058116 -0.005640 0.040170 0.000000 -0.036079 0.000000
# 4 0.000000 0.000000 0.000000 0.054001 0.000000 0.015205
# 5 0.064122 0.009905 -0.036079 0.000000 0.064358 0.000000
# 6 0.000000 0.000000 0.000000 0.015205 0.000000 0.056593
#
#
# Mechanical properties :
#
#
# Convention : Reuss Voigt Hill
#
# Bulk Modulus (GPa) = 12.15766 37.38934 24.77350
# Shear Modulus (GPa) = 9.92272 24.82154 17.37213
#
# Velocity S-wave (km/s) = 2.30084 3.63902 3.04437
# Velocity P-wave (km/s) = 3.68031 6.13222 5.05711
#
# Compressibility (1/GPa) = 0.08225266
#
# Stress axis : x y z
#
# Youngs Moduli (GPa) = 9.44817 21.79707 24.89410
#
# Poissons Ratio (x) = -0.19483 1.44674
# Poissons Ratio (y) = -0.08445 0.14041
# Poissons Ratio (z) = 0.54909 0.12295
#
# Static dielectric constant tensor:
#      x y z
#    x 1.641960 0.000000 0.002340 
#    y 0.000000 1.652820 0.000000 
#    z 0.002340 0.000000 1.625750 
# 
# From -- ./inp_files/353478.got.cif
#   From: 2010.05.17/outbox.cif.g08.bks.cpg/sg12_177_cif.got.tgz:353478.got - 2010.06.03 13:09:07.
