data_PCOD9195357
_publ_section_title
;
Structure prediction by ZEFSAII (Michael W. Deem and Ramdas Pophale) SiO2 
 PCOD9195357
Probable space group: C 2/M
;
_chemical_formula_sum "Si O2"
_cell_formula_units_Z 64
_cell_length_a 32.184366
_cell_length_b 8.559149
_cell_length_c 25.889022
_cell_angle_alpha 90.000000
_cell_angle_beta 149.398199
_cell_angle_gamma 90.000000
_cell_volume 3630.507934
_symmetry_space_group_name_H-M "C 2/M"
_symmetry_group_IT_number 12
_symmetry_cell_setting 'monoclinic'
loop_
_space_group_symop_operation_xyz
x,y,z
-x,y,-z
-x,-y,-z
x,-y,z
1/2+x,1/2+y,z
1/2-x,1/2+y,-z
1/2-x,1/2-y,-z
1/2+x,1/2-y,z
loop_
_atom_site_type_symbol
_atom_site_label
_atom_site_fract_x
_atom_site_fract_y
_atom_site_fract_z
Si Si1 0.417880 0.311418 0.440520
Si Si2 0.047971 0.189206 0.201166
Si Si3 0.242735 0.188680 0.232080
Si Si4 0.614517 0.687127 0.476379
Si Si5 0.289990 0.310979 0.685660
Si Si6 0.632159 0.690035 0.019081
Si Si7 0.505130 0.185824 0.266886
Si Si8 0.828906 0.812619 0.055227
O O1 0.500000 0.258415 0.500000
O O2 0.415259 0.500000 0.435776
O O3 0.335334 0.247452 0.326681
O O4 0.415505 0.265033 0.498336
O O5 0.128113 0.239175 0.255934
O O6 0.962933 0.237175 0.082924
O O7 0.044136 0.252511 0.255187
O O8 0.048063 0.000000 0.203794
O O9 0.211162 0.236391 0.255196
O O10 0.243382 0.000000 0.231672
O O11 0.184946 0.245418 0.124010
O O12 0.611915 0.500000 0.470434
O O13 0.707928 0.743943 0.572591
O O14 0.558288 0.757733 0.371945
O O15 0.286079 0.500000 0.679732
O O16 0.633182 0.500000 0.021506
O O17 0.668617 0.737036 0.002482
O O18 0.413197 0.252452 0.170090
O O19 0.501669 0.000000 0.262017
O O20 0.829201 0.000000 0.056861
O O21 0.750000 0.750000 0.000000
#
# Coordination Sequence:
#
# PCOD9195357 Si02
#       8
#     8   8   8   8   8   8   8   8
#     4   9  19  35  52  72  99 131 167 205 249 302
#     4   9  18  34  53  74 103 136 169 207 252 302
#     4   9  17  31  51  76 103 130 164 205 250 299
#     4  10  20  35  54  74 101 135 168 209 258 305
#     4   9  18  32  52  77 103 132 168 209 251 301
#     4   8  16  31  51  75 103 133 166 206 249 296
#     4  11  22  36  54  76 102 133 172 215 256 301
#     4  10  20  36  55  77 106 138 173 211 253 300
#
# _framework density 17.628387
#
# number of rings (size 3 to 8) (size 9 to 14) (size 15 to 20)
#    0.000    2.625    0.000    2.625    0.000    3.250 
#    0.000    8.125    0.000    0.000    0.000    7.000 
#    0.000    0.000    0.000    0.000    0.000    0.000 
#
# Total GULP energy -178494.158987 kJ/mol
# GULP energy per Si atom -5577.942468 kJ/mol
# Density = 1.758826 g / cm^3
# Si number density = 17.628387 Si / 1000 Ang^3
#
#
#
# Elastic Constant Matrix: (Units=GPa)
#
#
# Indices 1 2 3 4 5 6 
#
# 1 135.3594 32.6477 117.6086 0.0000 29.7712 0.0000
# 2 32.6477 29.9975 37.6878 0.0000 3.7402 0.0000
# 3 117.6086 37.6878 187.0826 0.0000 -5.0404 0.0000
# 4 0.0000 0.0000 0.0000 25.1546 0.0000 4.6132
# 5 29.7712 3.7402 -5.0404 0.0000 31.3262 0.0000
# 6 0.0000 0.0000 0.0000 4.6132 0.0000 20.9484
#
#
#
# Elastic Compliance Matrix: (Units=1/GPa)
#
#
# Indices 1 2 3 4 5 6 
#
# 1 0.038574 -0.006998 -0.023908 0.000000 -0.039670 0.000000
# 2 -0.006998 0.047394 -0.005144 0.000000 0.000164 0.000000
# 3 -0.023908 -0.005144 0.022136 0.000000 0.026897 0.000000
# 4 0.000000 0.000000 0.000000 0.041427 0.000000 -0.009123
# 5 -0.039670 0.000164 0.026897 0.000000 0.073931 0.000000
# 6 0.000000 0.000000 0.000000 -0.009123 0.000000 0.049745
#
#
# Mechanical properties :
#
#
# Convention : Reuss Voigt Hill
#
# Bulk Modulus (GPa) = 27.77483 80.92528 54.35005
# Shear Modulus (GPa) = 13.99350 26.45221 20.22285
#
# Velocity S-wave (km/s) = 2.82051 3.87789 3.39067
# Velocity P-wave (km/s) = 5.13780 8.12752 6.79903
#
# Compressibility (1/GPa) = 0.03600383
#
# Stress axis : x y z
#
# Youngs Moduli (GPa) = 25.92450 21.09951 45.17553
#
# Poissons Ratio (x) = 0.14765 1.08006
# Poissons Ratio (y) = 0.18142 0.23238
# Poissons Ratio (z) = 0.61981 0.10854
#
# Static dielectric constant tensor:
#      x y z
#    x 1.591800 0.000000 -0.003760 
#    y 0.000000 1.601090 0.000000 
#    z -0.003760 0.000000 1.575900 
# 
# From -- ./inp_files/353590.got.cif
#   From: 2010.05.17/outbox.cif.g08.bks.cpg/sg12_177_cif.got.tgz:353590.got - 2010.06.03 13:09:07.
