data_PCOD9195278
_publ_section_title
;
Structure prediction by ZEFSAII (Michael W. Deem and Ramdas Pophale) SiO2 
 PCOD9195278
Probable space group: C 2/M
;
_chemical_formula_sum "Si O2"
_cell_formula_units_Z 52
_cell_length_a 22.304924
_cell_length_b 23.487666
_cell_length_c 4.985983
_cell_angle_alpha 90.000000
_cell_angle_beta 105.347068
_cell_angle_gamma 90.000000
_cell_volume 2518.962666
_symmetry_space_group_name_H-M "C 2/M"
_symmetry_group_IT_number 12
_symmetry_cell_setting 'monoclinic'
loop_
_space_group_symop_operation_xyz
x,y,z
-x,y,-z
-x,-y,-z
x,-y,z
1/2+x,1/2+y,z
1/2-x,1/2+y,-z
1/2-x,1/2-y,-z
1/2+x,1/2-y,z
loop_
_atom_site_type_symbol
_atom_site_label
_atom_site_fract_x
_atom_site_fract_y
_atom_site_fract_z
Si Si1 0.651228 0.435050 0.682366
Si Si2 0.264187 0.345146 0.487050
Si Si3 0.317160 0.820962 0.110856
Si Si4 0.568613 0.433731 0.062068
Si Si5 0.561490 0.181948 0.975387
Si Si6 0.000000 0.773267 0.500000
Si Si7 0.624333 0.268701 0.454473
O O1 0.670315 0.500000 0.764806
O O2 0.708384 0.400687 0.625320
O O3 0.599712 0.435555 0.388212
O O4 0.617962 0.409347 0.906576
O O5 0.222582 0.350680 0.702549
O O6 0.324731 0.307391 0.625032
O O7 0.222837 0.316213 0.205533
O O8 0.383601 0.849727 0.116672
O O9 0.339360 0.759974 0.253889
O O10 0.559740 0.500000 0.959224
O O11 0.500000 0.407437 0.000000
O O12 0.531061 0.231416 0.755636
O O13 0.500000 0.149052 0.000000
O O14 0.597593 0.215858 0.252496
O O15 0.938616 0.803051 0.543718
#
# Coordination Sequence:
#
# PCOD9195278 Si02
#       7
#     8   8   8   8   8   4   8
#     4  10  21  38  54  76 108 141 179 234 280 317
#     4  12  24  34  54  80 107 145 188 219 268 323
#     4  11  22  36  54  80 108 141 181 220 265 323
#     4   9  17  34  58  76  95 132 183 233 285 320
#     4   9  18  35  55  78 107 145 174 214 268 312
#     4   8  18  32  52  72 105 148 177 212 268 308
#     4  10  20  35  53  75 112 146 178 223 261 318
#
# _framework density 20.643419999999999
#
# number of rings (size 3 to 8) (size 9 to 14) (size 15 to 20)
#    0.000    2.000    1.538    2.308    4.308    1.846 
#    2.769    0.769    0.000    0.000    0.000    0.000 
#    0.000    3.692    0.000    0.000    0.000    0.000 
#
# Total GULP energy -145002.784455 kJ/mol
# GULP energy per Si atom -5577.030171 kJ/mol
# Density = 2.059643 g / cm^3
# Si number density = 20.643420 Si / 1000 Ang^3
#
#
#
# Elastic Constant Matrix: (Units=GPa)
#
#
# Indices 1 2 3 4 5 6 
#
# 1 200.2625 25.0906 23.8363 0.0000 -8.8936 0.0000
# 2 25.0906 32.8403 -2.5015 0.0000 3.3874 0.0000
# 3 23.8363 -2.5015 87.8288 0.0000 -0.4969 0.0000
# 4 0.0000 0.0000 0.0000 10.8967 0.0000 8.6722
# 5 -8.8936 3.3874 -0.4969 0.0000 35.9541 0.0000
# 6 0.0000 0.0000 0.0000 8.6722 0.0000 -27.9282
#
#
#
# Elastic Compliance Matrix: (Units=1/GPa)
#
#
# Indices 1 2 3 4 5 6 
#
# 1 0.005887 -0.004824 -0.001724 0.000000 0.001887 0.000000
# 2 -0.004824 0.034767 0.002274 0.000000 -0.004437 0.000000
# 3 -0.001724 0.002274 0.011916 0.000000 -0.000476 0.000000
# 4 0.000000 0.000000 0.000000 0.073586 0.000000 0.022850
# 5 0.001887 -0.004437 -0.000476 0.000000 0.028691 0.000000
# 6 0.000000 0.000000 0.000000 0.022850 0.000000 -0.028711
#
#
# Mechanical properties :
#
#
# Convention : Reuss Voigt Hill
#
# Bulk Modulus (GPa) = 22.71604 45.97582 34.34593
# Shear Modulus (GPa) = 33.47686 22.08494 27.78090
#
# Velocity S-wave (km/s) = 4.03137 3.27437 3.67243
# Velocity P-wave (km/s) = 5.71814 6.05104 5.88695
#
# Compressibility (1/GPa) = 0.04402176
#
# Stress axis : x y z
#
# Youngs Moduli (GPa) = 169.87095 28.76323 83.92181
#
# Poissons Ratio (x) = 0.13874 0.14471
# Poissons Ratio (y) = 0.81939 -0.19085
# Poissons Ratio (z) = 0.29292 -0.06541
#
# Static dielectric constant tensor:
#      x y z
#    x 1.891010 0.000000 -0.056770 
#    y 0.000000 1.749810 0.000000 
#    z -0.056770 0.000000 1.788090 
# 
# From -- ./inp_files/21712.got.cif
#   From: 2010.05.17/outbox.cif.g08.bks.cpg/sg12_11_cif.got.tgz:21712.got - 2010.06.03 13:09:07.
