data_PCOD9195271
_publ_section_title
;
Structure prediction by ZEFSAII (Michael W. Deem and Ramdas Pophale) SiO2 
 PCOD9195271
Probable space group: C 2/M
;
_chemical_formula_sum "Si O2"
_cell_formula_units_Z 56
_cell_length_a 11.407359
_cell_length_b 12.177991
_cell_length_c 20.323811
_cell_angle_alpha 90.000000
_cell_angle_beta 108.864445
_cell_angle_gamma 90.000000
_cell_volume 2671.704397
_symmetry_space_group_name_H-M "C 2/M"
_symmetry_group_IT_number 12
_symmetry_cell_setting 'monoclinic'
loop_
_space_group_symop_operation_xyz
x,y,z
-x,y,-z
-x,-y,-z
x,-y,z
1/2+x,1/2+y,z
1/2-x,1/2+y,-z
1/2-x,1/2-y,-z
1/2+x,1/2-y,z
loop_
_atom_site_type_symbol
_atom_site_label
_atom_site_fract_x
_atom_site_fract_y
_atom_site_fract_z
Si Si1 0.369268 0.869406 0.551528
Si Si2 0.436016 0.337081 0.891586
Si Si3 0.843624 0.280801 0.687477
Si Si4 0.179997 0.374818 0.173663
Si Si5 0.153724 0.368619 0.596889
Si Si6 0.199375 0.875338 0.006833
Si Si7 0.966811 0.122893 0.230854
O O1 0.322544 0.843642 0.615681
O O2 0.511927 0.830424 0.575407
O O3 0.304320 0.839172 0.470483
O O4 0.376539 0.000000 0.547618
O O5 0.410811 0.207075 0.880577
O O6 0.327610 0.377517 0.919736
O O7 0.447647 0.376651 0.818844
O O8 0.565251 0.370031 0.947660
O O9 0.835788 0.353638 0.751152
O O10 0.737808 0.188346 0.666276
O O11 0.973390 0.215101 0.712560
O O12 0.154724 0.500000 0.152608
O O13 0.325116 0.351398 0.185439
O O14 0.159543 0.500000 0.605746
O O15 0.252221 0.000000 0.999198
O O16 0.250000 0.750000 0.000000
O O17 0.966623 0.000000 0.259808
#
# Coordination Sequence:
#
# PCOD9195271 Si02
#       7
#     8   8   8   8   8   8   8
#     4   9  18  32  49  69 100 136 173 223 277 330
#     4  10  21  38  61  82 110 153 192 225 268 329
#     4  11  19  31  52  77 102 136 178 226 280 336
#     4  10  22  37  54  80 113 146 185 231 283 335
#     4   9  18  32  49  72  99 134 180 224 271 334
#     4  11  23  40  64  94 123 152 189 233 279 329
#     4  10  20  35  53  75 106 142 179 225 274 328
#
# _framework density 20.960402999999999
#
# number of rings (size 3 to 8) (size 9 to 14) (size 15 to 20)
#    0.000    2.000    0.000    5.571    0.000    2.286 
#    0.000    1.429    0.000   11.143    0.000   12.000 
#    0.000    0.000    0.000    0.000    0.000    0.000 
#
# Total GULP energy -155915.036035 kJ/mol
# GULP energy per Si atom -5568.394144 kJ/mol
# Density = 2.091270 g / cm^3
# Si number density = 20.960403 Si / 1000 Ang^3
#
#
#
# Elastic Constant Matrix: (Units=GPa)
#
#
# Indices 1 2 3 4 5 6 
#
# 1 28.1486 19.3894 -5.3859 0.0000 -9.4382 0.0000
# 2 19.3894 105.9691 13.3201 0.0000 7.7821 0.0000
# 3 -5.3859 13.3201 53.9452 0.0000 -12.8372 0.0000
# 4 0.0000 0.0000 0.0000 8.8830 0.0000 13.4116
# 5 -9.4382 7.7821 -12.8372 0.0000 30.4418 0.0000
# 6 0.0000 0.0000 0.0000 13.4116 0.0000 16.3301
#
#
#
# Elastic Compliance Matrix: (Units=1/GPa)
#
#
# Indices 1 2 3 4 5 6 
#
# 1 0.058638 -0.014917 0.016419 0.000000 0.028917 0.000000
# 2 -0.014917 0.013967 -0.007657 0.000000 -0.011424 0.000000
# 3 0.016419 -0.007657 0.026393 0.000000 0.018178 0.000000
# 4 0.000000 0.000000 0.000000 -0.469130 0.000000 0.385287
# 5 0.028917 -0.011424 0.018178 0.000000 0.052401 0.000000
# 6 0.000000 0.000000 0.000000 0.385287 0.000000 -0.255191
#
#
# Mechanical properties :
#
#
# Convention : Reuss Voigt Hill
#
# Bulk Modulus (GPa) = 11.53531 26.96777 19.25154
# Shear Modulus (GPa) = -9.40351 21.84695 6.22172
#
# Velocity S-wave (km/s) = -2.12039 3.23196 1.72475
# Velocity P-wave (km/s) = 0.69240 5.17894 3.62919
#
# Compressibility (1/GPa) = 0.08669035
#
# Stress axis : x y z
#
# Youngs Moduli (GPa) = 17.05367 71.59514 37.88893
#
# Poissons Ratio (x) = 1.06796 -0.62210
# Poissons Ratio (y) = 0.25438 0.29010
# Poissons Ratio (z) = -0.28001 0.54818
#
# Static dielectric constant tensor:
#      x y z
#    x 1.799980 0.000000 -0.025630 
#    y 0.000000 1.796680 0.000000 
#    z -0.025630 0.000000 1.771890 
# 
# From -- ./inp_files/304776.got.cif
#   From: 2010.05.17/outbox.cif.g08.bks.cpg/sg12_153_cif.got.tgz:304776.got - 2010.06.03 13:09:07.
