data_PCOD9195320
_publ_section_title
;
Structure prediction by ZEFSAII (Michael W. Deem and Ramdas Pophale) SiO2 
 PCOD9195320
Probable space group: C 2/M
;
_chemical_formula_sum "Si O2"
_cell_formula_units_Z 56
_cell_length_a 22.286154
_cell_length_b 7.795366
_cell_length_c 18.624662
_cell_angle_alpha 90.000000
_cell_angle_beta 56.979079
_cell_angle_gamma 90.000000
_cell_volume 2712.991398
_symmetry_space_group_name_H-M "C 2/M"
_symmetry_group_IT_number 12
_symmetry_cell_setting 'monoclinic'
loop_
_space_group_symop_operation_xyz
x,y,z
-x,y,-z
-x,-y,-z
x,-y,z
1/2+x,1/2+y,z
1/2-x,1/2+y,-z
1/2-x,1/2-y,-z
1/2+x,1/2-y,z
loop_
_atom_site_type_symbol
_atom_site_label
_atom_site_fract_x
_atom_site_fract_y
_atom_site_fract_z
Si Si1 0.738398 0.293307 0.090724
Si Si2 0.825354 0.306439 0.483656
Si Si3 0.896078 0.207272 0.730375
Si Si4 0.917393 0.705985 0.555680
Si Si5 0.112196 0.709026 0.948249
Si Si6 0.479251 0.207847 0.128314
Si Si7 0.046928 0.200490 0.692590
O O1 0.737102 0.500000 0.096587
O O2 0.665658 0.229851 0.175390
O O3 0.808264 0.230463 0.087947
O O4 0.750000 0.250000 0.000000
O O5 0.811967 0.500000 0.515346
O O6 0.750000 0.250000 0.500000
O O7 0.866012 0.223253 0.525931
O O8 0.884249 0.295112 0.382695
O O9 0.885267 0.256917 0.654883
O O10 0.974384 0.269013 0.703469
O O11 0.897297 0.000000 0.734103
O O12 0.922724 0.500000 0.542685
O O13 0.000000 0.772171 0.500000
O O14 0.112481 0.500000 0.947941
O O15 0.077850 0.761091 0.895079
O O16 0.056897 0.760333 0.047024
O O17 0.462341 0.280755 0.216582
O O18 0.478458 0.000000 0.133134
O O19 0.055046 0.000000 0.669050
#
# Coordination Sequence:
#
# PCOD9195320 Si02
#       7
#     8   8   8   8   8   8   8
#     4  10  20  35  53  79 113 148 187 235 285 338
#     4  11  24  42  63  88 118 151 188 239 296 352
#     4  10  22  36  56  85 117 154 196 241 293 350
#     4  10  21  40  64  88 115 149 196 247 290 345
#     4   8  16  32  53  76 106 144 190 237 285 342
#     4   9  17  32  55  79 104 145 193 237 286 343
#     4  11  22  36  54  82 116 149 189 237 289 350
#
# _framework density 20.641421999999999
#
# number of rings (size 3 to 8) (size 9 to 14) (size 15 to 20)
#    0.000    2.143    1.429    2.571    0.000    3.714 
#    0.000    3.571    0.000    0.000    0.000    0.000 
#    0.000    0.000    0.000    0.000    0.000    0.000 
#
# Total GULP energy -156309.578895 kJ/mol
# GULP energy per Si atom -5582.484961 kJ/mol
# Density = 2.059444 g / cm^3
# Si number density = 20.641422 Si / 1000 Ang^3
#
#
#
# Elastic Constant Matrix: (Units=GPa)
#
#
# Indices 1 2 3 4 5 6 
#
# 1 168.9111 16.1952 77.3951 0.0000 -17.4205 -0.0001
# 2 16.1952 25.4787 -4.1717 -0.0002 -6.2238 0.0000
# 3 77.3951 -4.1717 124.5099 0.0000 6.1843 0.0001
# 4 0.0000 -0.0002 0.0000 22.5254 0.0000 10.9725
# 5 -17.4205 -6.2238 6.1843 0.0000 33.3698 0.0000
# 6 -0.0001 0.0000 0.0001 10.9725 0.0000 5.5105
#
#
#
# Elastic Compliance Matrix: (Units=1/GPa)
#
#
# Indices 1 2 3 4 5 6 
#
# 1 0.010210 -0.006283 -0.006826 -0.000007 0.005423 0.000013
# 2 -0.006283 0.045113 0.005210 0.000020 0.004169 -0.000040
# 3 -0.006826 0.005210 0.012695 0.000007 -0.004945 -0.000013
# 4 -0.000007 0.000020 0.000007 1.477888 0.000000 -2.942797
# 5 0.005423 0.004169 -0.004945 0.000000 0.034492 0.000001
# 6 0.000013 -0.000040 -0.000013 -2.942797 0.000001 6.041221
#
#
# Mechanical properties :
#
#
# Convention : Reuss Voigt Hill
#
# Bulk Modulus (GPa) = 19.14990 55.30411 37.22701
# Shear Modulus (GPa) = 0.65318 27.57985 14.11652
#
# Velocity S-wave (km/s) = 0.56314 3.65929 2.61797
# Velocity P-wave (km/s) = 3.11775 6.68617 5.21657
#
# Compressibility (1/GPa) = 0.05221958
#
# Stress axis : x y z
#
# Youngs Moduli (GPa) = 97.94555 22.16642 78.77236
#
# Poissons Ratio (x) = 0.13926 0.53772
# Poissons Ratio (y) = 0.61535 -0.41038
# Poissons Ratio (z) = 0.66860 -0.11548
#
# Static dielectric constant tensor:
#      x y z
#    x 1.754940 0.000000 0.000840 
#    y 0.000000 1.988470 0.000000 
#    z 0.000840 0.000000 1.694200 
# 
# From -- ./inp_files/280940.got.cif
#   From: 2010.05.17/outbox.cif.g08.bks.cpg/sg12_141_cif.got.tgz:280940.got - 2010.06.03 13:09:07.
