data_PCOD9195541
_publ_section_title
;
Structure prediction by ZEFSAII (Michael W. Deem and Ramdas Pophale) SiO2 
 PCOD9195541
Probable space group: C 2/M
;
_chemical_formula_sum "Si O2"
_cell_formula_units_Z 44
_cell_length_a 30.776096
_cell_length_b 7.369601
_cell_length_c 7.655080
_cell_angle_alpha 90.000000
_cell_angle_beta 94.080313
_cell_angle_gamma 90.000000
_cell_volume 1731.829085
_symmetry_space_group_name_H-M "C 2/M"
_symmetry_group_IT_number 12
_symmetry_cell_setting 'monoclinic'
loop_
_space_group_symop_operation_xyz
x,y,z
-x,y,-z
-x,-y,-z
x,-y,z
1/2+x,1/2+y,z
1/2-x,1/2+y,-z
1/2-x,1/2-y,-z
1/2+x,1/2-y,z
loop_
_atom_site_type_symbol
_atom_site_label
_atom_site_fract_x
_atom_site_fract_y
_atom_site_fract_z
Si Si1 0.046231 0.796111 0.484638
Si Si2 0.644362 0.286195 0.082299
Si Si3 0.711570 0.000000 0.929236
Si Si4 0.137258 0.219298 0.488915
Si Si5 0.772474 0.788577 0.321154
Si Si6 0.547483 0.217612 0.086059
O O1 0.091743 0.709889 0.551653
O O2 0.051140 0.804197 0.277922
O O3 0.000000 0.704131 0.500000
O O4 0.043343 0.000000 0.560495
O O5 0.654592 0.500000 0.069135
O O6 0.645121 0.230325 0.289391
O O7 0.593470 0.264290 0.007853
O O8 0.678217 0.158214 0.996170
O O9 0.740734 0.844110 0.833442
O O10 0.177641 0.263118 0.621084
O O11 0.134092 0.000000 0.486679
O O12 0.750000 0.750000 0.500000
O O13 0.766290 0.000000 0.271089
O O14 0.546492 0.000000 0.103406
O O15 0.500000 0.272800 0.000000
#
# Coordination Sequence:
#
# PCOD9195541 Si02
#       6
#     8   8   4   8   8   8
#     4   9  18  34  56  87 119 157 213 253 299 365
#     4  10  21  41  65  91 125 164 213 256 310 377
#     4  12  24  40  65  98 124 158 198 260 315 382
#     4   8  18  38  65  89 122 169 205 256 315 365
#     4  11  23  44  68  92 128 162 206 256 316 379
#     4  10  20  35  54  84 125 166 208 257 306 357
#
# _framework density 25.406665
#
# number of rings (size 3 to 8) (size 9 to 14) (size 15 to 20)
#    0.000    2.182    1.818    2.182    0.000    4.000 
#    1.636    2.727    0.000    0.000    0.000    0.000 
#    0.000    0.000    0.000    0.000    0.000    0.000 
#
# Total GULP energy -122550.830270 kJ/mol
# GULP energy per Si atom -5570.492285 kJ/mol
# Density = 2.534884 g / cm^3
# Si number density = 25.406665 Si / 1000 Ang^3
#
#
#
# Elastic Constant Matrix: (Units=GPa)
#
#
# Indices 1 2 3 4 5 6 
#
# 1 137.3932 41.0614 19.7825 0.0000 -6.0679 0.0000
# 2 41.0614 179.3488 32.4879 0.0000 -7.6276 0.0000
# 3 19.7825 32.4879 55.4553 0.0000 -13.2896 0.0000
# 4 0.0000 0.0000 0.0000 -95.4692 0.0000 -6.5422
# 5 -6.0679 -7.6276 -13.2896 0.0000 45.1661 0.0000
# 6 0.0000 0.0000 0.0000 -6.5422 0.0000 31.1326
#
#
#
# Elastic Compliance Matrix: (Units=1/GPa)
#
#
# Indices 1 2 3 4 5 6 
#
# 1 0.008008 -0.001472 -0.001932 0.000000 0.000259 0.000000
# 2 -0.001472 0.006508 -0.003305 0.000000 -0.000071 0.000000
# 3 -0.001932 -0.003305 0.022014 0.000000 0.005660 0.000000
# 4 0.000000 0.000000 0.000000 -0.010326 0.000000 -0.002170
# 5 0.000259 -0.000071 0.005660 0.000000 0.023829 0.000000
# 6 0.000000 0.000000 0.000000 -0.002170 0.000000 0.031665
#
#
# Mechanical properties :
#
#
# Convention : Reuss Voigt Hill
#
# Bulk Modulus (GPa) = 43.26717 62.09565 52.68141
# Shear Modulus (GPa) = 48.62848 14.75695 31.69272
#
# Velocity S-wave (km/s) = 4.37968 2.41266 3.53571
# Velocity P-wave (km/s) = 6.53011 5.67935 6.11953
#
# Compressibility (1/GPa) = 0.02311221
#
# Stress axis : x y z
#
# Youngs Moduli (GPa) = 124.87441 153.64683 45.42540
#
# Poissons Ratio (x) = 0.22623 0.08777
# Poissons Ratio (y) = 0.18387 0.15012
# Poissons Ratio (z) = 0.24127 0.50775
#
# Static dielectric constant tensor:
#      x y z
#    x 2.153070 0.000000 0.056450 
#    y 0.000000 2.405760 0.000000 
#    z 0.056450 0.000000 2.031400 
# 
# From -- ./inp_files/108140.got.cif
#   From: 2010.05.17/outbox.cif.g08.bks.cpg/sg12_55_cif.got.tgz:108140.got - 2010.06.03 13:09:07.
