data_PCOD9195622
_publ_section_title
;
Structure prediction by ZEFSAII (Michael W. Deem and Ramdas Pophale) SiO2 
 PCOD9195622
Probable space group: C 2/M
;
_chemical_formula_sum "Si O2"
_cell_formula_units_Z 36
_cell_length_a 9.340799
_cell_length_b 12.766394
_cell_length_c 17.363694
_cell_angle_alpha 90.000000
_cell_angle_beta 74.599551
_cell_angle_gamma 90.000000
_cell_volume 1996.243290
_symmetry_space_group_name_H-M "C 2/M"
_symmetry_group_IT_number 12
_symmetry_cell_setting 'monoclinic'
loop_
_space_group_symop_operation_xyz
x,y,z
-x,y,-z
-x,-y,-z
x,-y,z
1/2+x,1/2+y,z
1/2-x,1/2+y,-z
1/2-x,1/2-y,-z
1/2+x,1/2-y,z
loop_
_atom_site_type_symbol
_atom_site_label
_atom_site_fract_x
_atom_site_fract_y
_atom_site_fract_z
Si Si1 0.652926 0.124597 0.776641
Si Si2 0.152525 0.257388 0.142188
Si Si3 0.795529 0.377366 0.412997
Si Si4 0.327453 0.611225 0.009998
Si Si5 0.000000 0.751440 0.500000
O O1 0.790315 0.186766 0.795760
O O2 0.507782 0.190293 0.823728
O O3 0.665044 0.129779 0.682744
O O4 0.647687 0.000000 0.798682
O O5 0.176198 0.185317 0.063507
O O6 0.258607 0.351912 0.100573
O O7 0.787045 0.500000 0.435577
O O8 0.921482 0.319879 0.445904
O O9 0.636042 0.322247 0.449479
O O10 0.257614 0.500000 0.998727
O O11 0.500000 0.602015 0.000000
#
# Coordination Sequence:
#
# PCOD9195622 Si02
#       5
#     8   8   8   8   4
#     4  11  23  38  57  84 115 146 182 229 279 329
#     4  11  21  38  55  81 110 148 188 231 279 328
#     4  10  21  37  59  86 114 145 183 224 272 328
#     4  10  20  35  55  78 105 145 192 233 274 325
#     4  10  20  38  62  84 112 148 182 222 270 328
#
# _framework density 18.033874999999998
#
# number of rings (size 3 to 8) (size 9 to 14) (size 15 to 20)
#    0.000    1.556    2.222    3.333    0.000    0.000 
#    0.000    3.333    0.000   10.667    0.000    0.000 
#    0.000    0.000    0.000    0.000    0.000    0.000 
#
# Total GULP energy -100222.842015 kJ/mol
# GULP energy per Si atom -5567.935668 kJ/mol
# Density = 1.799283 g / cm^3
# Si number density = 18.033875 Si / 1000 Ang^3
#
#
#
# Elastic Constant Matrix: (Units=GPa)
#
#
# Indices 1 2 3 4 5 6 
#
# 1 61.5803 30.5208 3.9380 0.0000 5.2201 0.0000
# 2 30.5208 121.1732 34.2396 0.0000 0.6063 0.0000
# 3 3.9380 34.2396 60.5540 0.0000 7.6513 0.0000
# 4 0.0000 0.0000 0.0000 10.7130 0.0000 35.5011
# 5 5.2201 0.6063 7.6513 0.0000 23.4054 0.0000
# 6 0.0000 0.0000 0.0000 35.5011 0.0000 -26.7011
#
#
#
# Elastic Compliance Matrix: (Units=1/GPa)
#
#
# Indices 1 2 3 4 5 6 
#
# 1 0.019240 -0.005528 0.002502 0.000000 -0.004966 0.000000
# 2 -0.005528 0.011470 -0.006514 0.000000 0.003065 0.000000
# 3 0.002502 -0.006514 0.020949 0.000000 -0.007238 0.000000
# 4 0.000000 0.000000 0.000000 0.017267 0.000000 0.022958
# 5 -0.004966 0.003065 -0.007238 0.000000 0.046119 0.000000
# 6 0.000000 0.000000 0.000000 0.022958 0.000000 -0.006928
#
#
# Mechanical properties :
#
#
# Convention : Reuss Voigt Hill
#
# Bulk Modulus (GPa) = 30.69388 42.30049 36.49718
# Shear Modulus (GPa) = 36.21702 13.12407 24.67055
#
# Velocity S-wave (km/s) = 4.48624 2.70060 3.70268
# Velocity P-wave (km/s) = 6.62512 5.76467 6.20982
#
# Compressibility (1/GPa) = 0.03257979
#
# Stress axis : x y z
#
# Youngs Moduli (GPa) = 51.97550 87.18199 47.73504
#
# Poissons Ratio (x) = 0.48196 -0.11944
# Poissons Ratio (y) = 0.28733 0.31092
# Poissons Ratio (z) = -0.13005 0.56786
#
# Static dielectric constant tensor:
#      x y z
#    x 1.613470 0.000000 0.008470 
#    y 0.000000 1.749500 0.000000 
#    z 0.008470 0.000000 1.595150 
# 
# From -- ./inp_files/194065.got.cif
#   From: 2010.05.17/outbox.cif.g08.bks.cpg/sg12_98_cif.got.tgz:194065.got - 2010.06.03 13:09:07.
