data_PCOD9195925
_publ_section_title
;
Structure prediction by ZEFSAII (Michael W. Deem and Ramdas Pophale) SiO2 
 PCOD9195925
Probable space group: C 2/M
;
_chemical_formula_sum "Si O2"
_cell_formula_units_Z 48
_cell_length_a 27.734767
_cell_length_b 7.291385
_cell_length_c 19.124027
_cell_angle_alpha 90.000000
_cell_angle_beta 30.709300
_cell_angle_gamma 90.000000
_cell_volume 1974.989804
_symmetry_space_group_name_H-M "C 2/M"
_symmetry_group_IT_number 12
_symmetry_cell_setting 'monoclinic'
loop_
_space_group_symop_operation_xyz
x,y,z
-x,y,-z
-x,-y,-z
x,-y,z
1/2+x,1/2+y,z
1/2-x,1/2+y,-z
1/2-x,1/2-y,-z
1/2+x,1/2-y,z
loop_
_atom_site_type_symbol
_atom_site_label
_atom_site_fract_x
_atom_site_fract_y
_atom_site_fract_z
Si Si1 0.585184 0.722569 0.695507
Si Si2 0.406503 0.277695 0.576672
Si Si3 0.906518 0.290703 0.152252
Si Si4 0.300862 0.723923 0.575287
Si Si5 0.593654 0.292051 0.167749
Si Si6 0.286355 0.722164 0.853867
O O1 0.584002 0.500000 0.701761
O O2 0.583553 0.791988 0.776231
O O3 0.671633 0.778452 0.537517
O O4 0.492581 0.785519 0.768304
O O5 0.500000 0.213242 0.500000
O O6 0.413321 0.500000 0.566127
O O7 0.381602 0.219200 0.529566
O O8 0.319272 0.230171 0.735760
O O9 0.901532 0.500000 0.131477
O O10 0.801899 0.211017 0.271999
O O11 0.000000 0.208553 0.000000
O O12 0.298365 0.500000 0.578446
O O13 0.564218 0.500000 0.222253
O O14 0.634414 0.213412 0.189161
O O15 0.685492 0.293055 0.003625
O O16 0.282307 0.500000 0.864410
#
# Coordination Sequence:
#
# PCOD9195925 Si02
#       6
#     8   8   8   8   8   8
#     4  10  20  35  56  76 103 140 177 215 259 312
#     4   9  16  27  49  78 104 131 170 214 254 300
#     4  10  22  37  55  79 107 135 170 220 269 311
#     4   9  18  33  52  76 106 138 172 215 262 305
#     4   9  18  31  47  73 105 136 170 212 259 303
#     4   9  17  29  49  75 103 136 174 212 253 305
#
# _framework density 24.303923000000001
#
# number of rings (size 3 to 8) (size 9 to 14) (size 15 to 20)
#    0.000    2.667    0.000    1.500    2.333    5.000 
#    0.000    0.000    0.000    1.500    0.000    0.000 
#    0.000    0.000    0.000    0.000    0.000    0.000 
#
# Total GULP energy -134095.966684 kJ/mol
# GULP energy per Si atom -5587.331945 kJ/mol
# Density = 2.424861 g / cm^3
# Si number density = 24.303923 Si / 1000 Ang^3
#
#
#
# Elastic Constant Matrix: (Units=GPa)
#
#
# Indices 1 2 3 4 5 6 
#
# 1 120.0615 -9.3114 60.1024 0.0002 -4.1218 0.0023
# 2 -9.3114 102.9973 -5.8250 -0.0357 -2.2115 -0.0094
# 3 60.1024 -5.8250 129.1562 -0.0317 6.1043 -0.0185
# 4 0.0002 -0.0357 -0.0317 -43.0832 0.0214 -1.9813
# 5 -4.1218 -2.2115 6.1043 0.0214 44.8628 0.0039
# 6 0.0023 -0.0094 -0.0185 -1.9813 0.0039 7.4332
#
#
#
# Elastic Compliance Matrix: (Units=1/GPa)
#
#
# Indices 1 2 3 4 5 6 
#
# 1 0.011045 0.000743 -0.005189 0.000005 0.001757 -0.000015
# 2 0.000743 0.009792 0.000070 -0.000008 0.000541 0.000010
# 3 -0.005189 0.000070 0.010249 -0.000010 -0.001868 0.000026
# 4 0.000005 -0.000008 -0.000010 -0.022930 0.000013 -0.006112
# 5 0.001757 0.000541 -0.001868 0.000013 0.022732 -0.000013
# 6 -0.000015 0.000010 0.000026 -0.006112 -0.000013 0.132903
#
#
# Mechanical properties :
#
#
# Convention : Reuss Voigt Hill
#
# Bulk Modulus (GPa) = 44.77649 49.12744 46.95196
# Shear Modulus (GPa) = 27.77976 22.32582 25.05279
#
# Velocity S-wave (km/s) = 3.38452 3.03415 3.21411
# Velocity P-wave (km/s) = 5.80834 5.70372 5.75627
#
# Compressibility (1/GPa) = 0.02233315
#
# Stress axis : x y z
#
# Youngs Moduli (GPa) = 90.54125 102.12686 97.57255
#
# Poissons Ratio (x) = -0.07585 0.50632
# Poissons Ratio (y) = -0.06725 -0.00687
# Poissons Ratio (z) = 0.46983 -0.00719
#
# Static dielectric constant tensor:
#      x y z
#    x 1.903120 -0.000010 -0.027100 
#    y -0.000010 1.964370 0.000010 
#    z -0.027100 0.000010 1.904060 
# 
# From -- ./inp_files/232810.got.cif
#   From: 2010.05.17/outbox.cif.g08.bks.cpg/sg12_117_cif.got.tgz:232810.got - 2010.06.03 13:09:07.
