data_PCOD9195079
_publ_section_title
;
Structure prediction by ZEFSAII (Michael W. Deem and Ramdas Pophale) SiO2 
 PCOD9195079
Probable space group: C 2/M
;
_chemical_formula_sum "Si O2"
_cell_formula_units_Z 36
_cell_length_a 20.466362
_cell_length_b 11.650877
_cell_length_c 7.113835
_cell_angle_alpha 90.000000
_cell_angle_beta 119.140297
_cell_angle_gamma 90.000000
_cell_volume 1481.600587
_symmetry_space_group_name_H-M "C 2/M"
_symmetry_group_IT_number 12
_symmetry_cell_setting 'monoclinic'
loop_
_space_group_symop_operation_xyz
x,y,z
-x,y,-z
-x,-y,-z
x,-y,z
1/2+x,1/2+y,z
1/2-x,1/2+y,-z
1/2-x,1/2-y,-z
1/2+x,1/2-y,z
loop_
_atom_site_type_symbol
_atom_site_label
_atom_site_fract_x
_atom_site_fract_y
_atom_site_fract_z
Si Si1 0.000000 0.286313 0.000000
Si Si2 0.373303 0.000000 0.417446
Si Si3 0.371538 0.365044 0.845609
Si Si4 0.973745 0.500000 0.191787
Si Si5 0.778695 0.271055 0.253085
Si Si6 0.917631 0.132213 0.354383
O O1 0.062015 0.200428 0.168050
O O2 0.957797 0.377603 0.073891
O O3 0.321245 0.109372 0.337144
O O4 0.426312 0.000000 0.311377
O O5 0.435686 0.000000 0.666181
O O6 0.361356 0.500000 0.784049
O O7 0.296546 0.288543 0.731706
O O8 0.397987 0.363186 0.103565
O O9 0.845520 0.180016 0.363879
O O10 0.750000 0.250000 0.000000
O O11 0.000000 0.188244 0.500000
O O12 0.924412 0.000000 0.419383
#
# Coordination Sequence:
#
# PCOD9195079 Si02
#       6
#     4   4   8   4   8   8
#     4  11  23  42  60  86 129 167 204 246 318 379
#     4  11  22  40  68  91 119 152 213 257 309 354
#     4  10  20  38  59  85 119 168 205 243 307 377
#     4  10  24  40  62  94 118 160 204 260 306 375
#     4  10  20  34  61  91 121 153 199 256 306 355
#     4   9  19  34  58  92 123 152 205 259 302 351
#
# _framework density 24.298047
#
# number of rings (size 3 to 8) (size 9 to 14) (size 15 to 20)
#    0.000    2.000    1.111    3.000    7.778    0.000 
#    4.000    1.111    0.000    0.000    0.000    0.000 
#    0.000    0.000    0.000    0.000    0.000    0.000 
#
# Total GULP energy -100555.829766 kJ/mol
# GULP energy per Si atom -5586.434987 kJ/mol
# Density = 2.424274 g / cm^3
# Si number density = 24.298047 Si / 1000 Ang^3
#
#
#
# Elastic Constant Matrix: (Units=GPa)
#
#
# Indices 1 2 3 4 5 6 
#
# 1 154.0300 44.4765 21.0357 0.0000 37.4128 0.0000
# 2 44.4765 126.0136 12.2162 0.0000 22.4177 0.0000
# 3 21.0357 12.2162 81.2038 0.0000 27.7164 0.0000
# 4 0.0000 0.0000 0.0000 -259.6697 0.0000 -233.1511
# 5 37.4128 22.4177 27.7164 0.0000 46.2510 0.0000
# 6 0.0000 0.0000 0.0000 -233.1511 0.0000 -188.2021
#
#
#
# Elastic Compliance Matrix: (Units=1/GPa)
#
#
# Indices 1 2 3 4 5 6 
#
# 1 0.008495 -0.001942 0.000145 0.000000 -0.006017 0.000000
# 2 -0.001942 0.009130 0.000131 0.000000 -0.002933 0.000000
# 3 0.000145 0.000131 0.015487 0.000000 -0.009462 0.000000
# 4 0.000000 0.000000 0.000000 0.034287 0.000000 -0.042475
# 5 -0.006017 -0.002933 -0.009462 0.000000 0.033580 0.000000
# 6 0.000000 0.000000 0.000000 -0.042475 0.000000 0.047307
#
#
# Mechanical properties :
#
#
# Convention : Reuss Voigt Hill
#
# Bulk Modulus (GPa) = 33.57979 57.41158 45.49568
# Shear Modulus (GPa) = 30.95148 -61.42288 -15.23570
#
# Velocity S-wave (km/s) = 3.57294 -5.03327 -2.50678
# Velocity P-wave (km/s) = 5.55618 3.17790 3.22274
#
# Compressibility (1/GPa) = 0.02977982
#
# Stress axis : x y z
#
# Youngs Moduli (GPa) = 117.72113 109.52787 64.57123
#
# Poissons Ratio (x) = 0.21268 -0.00939
# Poissons Ratio (y) = 0.22859 -0.00843
# Poissons Ratio (z) = -0.01712 -0.01430
#
# Static dielectric constant tensor:
#      x y z
#    x 1.915930 0.000000 -0.043080 
#    y 0.000000 1.878740 0.000000 
#    z -0.043080 0.000000 2.054200 
# 
# From -- ./inp_files/83846.got.cif
#   From: 2010.05.17/outbox.cif.g08.bks.cpg/sg12_42_cif.got.tgz:83846.got - 2010.06.03 13:09:07.
