data_PCOD9195902
_publ_section_title
;
Structure prediction by ZEFSAII (Michael W. Deem and Ramdas Pophale) SiO2 
 PCOD9195902
Probable space group: C 2/M
;
_chemical_formula_sum "Si O2"
_cell_formula_units_Z 60
_cell_length_a 21.526540
_cell_length_b 19.296902
_cell_length_c 12.208814
_cell_angle_alpha 90.000000
_cell_angle_beta 143.778956
_cell_angle_gamma 90.000000
_cell_volume 2996.751761
_symmetry_space_group_name_H-M "C 2/M"
_symmetry_group_IT_number 12
_symmetry_cell_setting 'monoclinic'
loop_
_space_group_symop_operation_xyz
x,y,z
-x,y,-z
-x,-y,-z
x,-y,z
1/2+x,1/2+y,z
1/2-x,1/2+y,-z
1/2-x,1/2-y,-z
1/2+x,1/2-y,z
loop_
_atom_site_type_symbol
_atom_site_label
_atom_site_fract_x
_atom_site_fract_y
_atom_site_fract_z
Si Si1 0.887261 0.679962 0.129410
Si Si2 0.828312 0.792300 0.755966
Si Si3 0.219509 0.575983 0.506104
Si Si4 0.482359 0.078911 0.095173
Si Si5 0.305553 0.697383 0.277454
Si Si6 0.127349 0.920394 0.480511
Si Si7 0.506132 0.303549 0.185231
Si Si8 0.000000 0.296369 0.500000
O O1 0.938397 0.660540 0.318434
O O2 0.908690 0.622611 0.067670
O O3 0.955330 0.747064 0.191901
O O4 0.764662 0.695976 0.932612
O O5 0.756721 0.858262 0.627366
O O6 0.764625 0.731303 0.724534
O O7 0.891637 0.773899 0.734629
O O8 0.917250 0.816262 0.968154
O O9 0.249322 0.500000 0.595123
O O10 0.095715 0.577609 0.312729
O O11 0.275577 0.579774 0.467255
O O12 0.443654 0.000000 0.024934
O O13 0.500000 0.110620 0.000000
O O14 0.340370 0.621570 0.365725
O O15 0.406447 0.746326 0.408559
O O16 0.040636 0.872664 0.296826
O O17 0.096847 0.000000 0.455464
#
# Coordination Sequence:
#
# PCOD9195902 Si02
#       8
#     8   8   8   8   8   8   8   4
#     4  11  23  38  64  87 121 161 201 248 301 358
#     4   9  19  33  56  88 119 150 198 245 305 363
#     4   9  18  30  50  83 122 159 186 229 301 373
#     4  10  21  36  58  92 128 156 190 243 307 368
#     4  11  23  38  61  86 114 158 203 257 298 354
#     4  10  20  35  55  85 122 159 198 245 303 359
#     4   9  19  34  56  90 119 154 195 248 304 364
#     4  12  24  44  58  86 116 160 214 256 292 344
#
# _framework density 20.021678000000001
#
# number of rings (size 3 to 8) (size 9 to 14) (size 15 to 20)
#    0.000    2.000    1.333    2.000    5.600    3.200 
#    0.000    3.333    0.000    0.800    0.000    0.000 
#    0.000    0.000    0.000    0.000    0.000    0.000 
#
# Total GULP energy -167472.104720 kJ/mol
# GULP energy per Si atom -5582.403491 kJ/mol
# Density = 1.997611 g / cm^3
# Si number density = 20.021678 Si / 1000 Ang^3
#
#
#
# Elastic Constant Matrix: (Units=GPa)
#
#
# Indices 1 2 3 4 5 6 
#
# 1 20.4748 17.8536 26.0328 0.0000 -4.1559 0.0000
# 2 17.8536 75.1136 12.4212 0.0000 -5.5617 0.0000
# 3 26.0328 12.4212 95.0926 0.0000 -10.3080 0.0000
# 4 0.0000 0.0000 0.0000 25.8073 0.0000 -5.0228
# 5 -4.1559 -5.5617 -10.3080 0.0000 31.4937 0.0000
# 6 0.0000 0.0000 0.0000 -5.0228 0.0000 17.2175
#
#
#
# Elastic Compliance Matrix: (Units=1/GPa)
#
#
# Indices 1 2 3 4 5 6 
#
# 1 0.095264 -0.018644 -0.023471 0.000000 0.001596 0.000000
# 2 -0.018644 0.017365 0.003008 0.000000 0.001591 0.000000
# 3 -0.023471 0.003008 0.016869 0.000000 0.002955 0.000000
# 4 0.000000 0.000000 0.000000 0.041081 0.000000 0.011984
# 5 0.001596 0.001591 0.002955 0.000000 0.033211 0.000000
# 6 0.000000 0.000000 0.000000 0.011984 0.000000 0.061576
#
#
# Mechanical properties :
#
#
# Convention : Reuss Voigt Hill
#
# Bulk Modulus (GPa) = 19.49915 33.69957 26.59936
# Shear Modulus (GPa) = 13.86289 23.86194 18.86241
#
# Velocity S-wave (km/s) = 2.63419 3.45600 3.07269
# Velocity P-wave (km/s) = 4.36029 5.72654 5.08947
#
# Compressibility (1/GPa) = 0.05128428
#
# Stress axis : x y z
#
# Youngs Moduli (GPa) = 10.49715 57.58752 59.28002
#
# Poissons Ratio (x) = 1.07364 1.39139
# Poissons Ratio (y) = 0.19570 -0.17832
# Poissons Ratio (z) = 0.24638 -0.17323
#
# Static dielectric constant tensor:
#      x y z
#    x 1.744050 0.000000 -0.022340 
#    y 0.000000 1.701280 0.000000 
#    z -0.022340 0.000000 1.747210 
# 
# From -- ./inp_files/168989.got.cif
#   From: 2010.05.17/outbox.cif.g08.bks.cpg/sg12_85_cif.got.tgz:168989.got - 2010.06.03 13:09:07.
