data_PCOD9195509
_publ_section_title
;
Structure prediction by ZEFSAII (Michael W. Deem and Ramdas Pophale) SiO2 
 PCOD9195509
Probable space group: C 2/M
;
_chemical_formula_sum "Si O2"
_cell_formula_units_Z 48
_cell_length_a 27.735318
_cell_length_b 9.455717
_cell_length_c 10.982270
_cell_angle_alpha 90.000000
_cell_angle_beta 65.701060
_cell_angle_gamma 90.000000
_cell_volume 2625.028031
_symmetry_space_group_name_H-M "C 2/M"
_symmetry_group_IT_number 12
_symmetry_cell_setting 'monoclinic'
loop_
_space_group_symop_operation_xyz
x,y,z
-x,y,-z
-x,-y,-z
x,-y,z
1/2+x,1/2+y,z
1/2-x,1/2+y,-z
1/2-x,1/2-y,-z
1/2+x,1/2-y,z
loop_
_atom_site_type_symbol
_atom_site_label
_atom_site_fract_x
_atom_site_fract_y
_atom_site_fract_z
Si Si1 0.806801 0.330513 0.457744
Si Si2 0.353444 0.338774 0.630228
Si Si3 0.255228 0.157865 0.110896
Si Si4 0.042310 0.829555 0.063529
Si Si5 0.641850 0.168531 0.850735
Si Si6 0.538052 0.329201 0.349915
O O1 0.796794 0.500000 0.475770
O O2 0.750000 0.250000 0.500000
O O3 0.838676 0.268578 0.538926
O O4 0.845912 0.304973 0.303240
O O5 0.364197 0.500000 0.572593
O O6 0.299951 0.345175 0.762780
O O7 0.402537 0.297876 0.665049
O O8 0.302520 0.208320 0.145968
O O9 0.269263 0.000000 0.058303
O O10 0.250000 0.250000 0.000000
O O11 0.029028 0.783726 0.217829
O O12 0.048767 0.000000 0.060173
O O13 0.095696 0.755313 0.962345
O O14 0.000000 0.797954 0.000000
O O15 0.632344 0.000000 0.875112
O O16 0.500000 0.277850 0.500000
O O17 0.532392 0.500000 0.352624
#
# Coordination Sequence:
#
# PCOD9195509 Si02
#       6
#     8   8   8   8   8   8
#     4  11  22  38  59  87 120 154 196 239 291 354
#     4  10  20  36  58  82 117 156 191 238 296 349
#     4  10  20  35  54  81 113 150 192 235 291 355
#     4  10  22  39  62  92 116 147 203 250 285 347
#     4  10  22  39  57  81 119 156 188 235 298 357
#     4   9  19  36  59  87 120 154 190 242 301 346
#
# _framework density 18.285519000000001
#
# number of rings (size 3 to 8) (size 9 to 14) (size 15 to 20)
#    0.000    2.000    1.667    1.500    2.333    4.333 
#    0.000    0.833    0.000    1.000    0.000    0.000 
#    0.000    0.000    0.000    0.000    0.000    0.000 
#
# Total GULP energy -133716.245550 kJ/mol
# GULP energy per Si atom -5571.510231 kJ/mol
# Density = 1.824390 g / cm^3
# Si number density = 18.285519 Si / 1000 Ang^3
#
#
#
# Elastic Constant Matrix: (Units=GPa)
#
#
# Indices 1 2 3 4 5 6 
#
# 1 115.3570 27.9190 66.5791 0.0000 6.6976 0.0000
# 2 27.9190 30.6136 44.9825 0.0000 12.0862 0.0000
# 3 66.5791 44.9825 135.5146 0.0000 16.1704 0.0000
# 4 0.0000 0.0000 0.0000 32.9974 0.0000 1.8937
# 5 6.6976 12.0862 16.1704 0.0000 37.9108 0.0000
# 6 0.0000 0.0000 0.0000 1.8937 0.0000 29.3404
#
#
#
# Elastic Compliance Matrix: (Units=1/GPa)
#
#
# Indices 1 2 3 4 5 6 
#
# 1 0.012490 -0.005239 -0.004566 0.000000 0.001411 0.000000
# 2 -0.005239 0.071509 -0.019548 0.000000 -0.013534 0.000000
# 3 -0.004566 -0.019548 0.016090 0.000000 0.000175 0.000000
# 4 0.000000 0.000000 0.000000 0.030418 0.000000 -0.001963
# 5 0.001411 -0.013534 0.000175 0.000000 0.030368 0.000000
# 6 0.000000 0.000000 0.000000 -0.001963 0.000000 0.034209
#
#
# Mechanical properties :
#
#
# Convention : Reuss Voigt Hill
#
# Bulk Modulus (GPa) = 24.16378 62.27182 43.21780
# Shear Modulus (GPa) = 18.68572 29.51670 24.10121
#
# Velocity S-wave (km/s) = 3.20016 4.02208 3.63443
# Velocity P-wave (km/s) = 5.18634 7.46316 6.42639
#
# Compressibility (1/GPa) = 0.04138425
#
# Stress axis : x y z
#
# Youngs Moduli (GPa) = 80.06470 13.98429 62.14977
#
# Poissons Ratio (x) = 0.07326 0.28376
# Poissons Ratio (y) = 0.41945 1.21489
# Poissons Ratio (z) = 0.36556 0.27336
#
# Static dielectric constant tensor:
#      x y z
#    x 1.585090 0.000000 0.060510 
#    y 0.000000 1.621820 0.000000 
#    z 0.060510 0.000000 1.648130 
# 
# From -- ./inp_files/102811.got.cif
#   From: 2010.05.17/outbox.cif.g08.bks.cpg/sg12_52_cif.got.tgz:102811.got - 2010.06.03 13:09:07.
