data_PCOD9195888
_publ_section_title
;
Structure prediction by ZEFSAII (Michael W. Deem and Ramdas Pophale) SiO2 
 PCOD9195888
Probable space group: C 2/M
;
_chemical_formula_sum "Si O2"
_cell_formula_units_Z 48
_cell_length_a 13.862872
_cell_length_b 25.932658
_cell_length_c 11.544826
_cell_angle_alpha 90.000000
_cell_angle_beta 145.474034
_cell_angle_gamma 90.000000
_cell_volume 2352.349778
_symmetry_space_group_name_H-M "C 2/M"
_symmetry_group_IT_number 12
_symmetry_cell_setting 'monoclinic'
loop_
_space_group_symop_operation_xyz
x,y,z
-x,y,-z
-x,-y,-z
x,-y,z
1/2+x,1/2+y,z
1/2-x,1/2+y,-z
1/2-x,1/2-y,-z
1/2+x,1/2-y,z
loop_
_atom_site_type_symbol
_atom_site_label
_atom_site_fract_x
_atom_site_fract_y
_atom_site_fract_z
Si Si1 0.598842 0.394832 0.859828
Si Si2 0.010740 0.711216 0.257463
Si Si3 0.921843 0.391120 0.296424
Si Si4 0.622664 0.309298 0.476943
Si Si5 0.544485 0.000000 0.407808
Si Si6 0.678692 0.153217 0.112018
Si Si7 0.450843 0.500000 0.812915
O O1 0.453089 0.354189 0.680316
O O2 0.734919 0.388854 0.888067
O O3 0.522794 0.449822 0.818200
O O4 0.719725 0.381371 0.088902
O O5 0.006317 0.657343 0.319681
O O6 0.191829 0.711532 0.374756
O O7 0.002023 0.759948 0.333734
O O8 0.871848 0.702042 0.019378
O O9 0.000000 0.393202 0.500000
O O10 0.964945 0.446791 0.282920
O O11 0.674252 0.332121 0.652382
O O12 0.500000 0.000000 0.500000
O O13 0.747155 0.000000 0.600318
O O14 0.500000 0.138310 0.000000
O O15 0.500000 0.500000 0.000000
#
# Coordination Sequence:
#
# PCOD9195888 Si02
#       7
#     8   8   8   8   4   8   4
#     4  11  23  38  63  92 120 162 211 255 314 371
#     4   9  20  36  58  87 121 169 209 245 313 370
#     4  10  20  35  55  84 121 159 200 245 306 372
#     4  10  20  37  59  88 125 160 208 263 301 360
#     4  10  20  38  60  83 120 160 190 240 315 370
#     4   9  20  40  61  87 130 170 203 256 313 368
#     4  12  24  42  66  93 123 154 205 268 310 366
#
# _framework density 20.405128999999999
#
# number of rings (size 3 to 8) (size 9 to 14) (size 15 to 20)
#    0.000    2.000    0.000    4.000    0.000    5.333 
#    0.000    6.250    0.000    2.000    0.000    0.000 
#    0.000    0.000    0.000    0.000    0.000    0.000 
#
# Total GULP energy -133623.734342 kJ/mol
# GULP energy per Si atom -5567.655598 kJ/mol
# Density = 2.035869 g / cm^3
# Si number density = 20.405129 Si / 1000 Ang^3
#
#
#
# Elastic Constant Matrix: (Units=GPa)
#
#
# Indices 1 2 3 4 5 6 
#
# 1 67.0598 26.7470 32.6623 0.0000 12.3127 0.0000
# 2 26.7470 111.8199 33.1666 0.0000 -25.1064 0.0000
# 3 32.6623 33.1666 154.4179 0.0000 -14.0026 0.0000
# 4 0.0000 0.0000 0.0000 28.0929 0.0000 2.6617
# 5 12.3127 -25.1064 -14.0026 0.0000 33.0545 0.0000
# 6 0.0000 0.0000 0.0000 2.6617 0.0000 28.9578
#
#
#
# Elastic Compliance Matrix: (Units=1/GPa)
#
#
# Indices 1 2 3 4 5 6 
#
# 1 0.023530 -0.007995 -0.004789 0.000000 -0.016866 0.000000
# 2 -0.007995 0.013911 -0.000071 0.000000 0.013513 0.000000
# 3 -0.004789 -0.000071 0.007967 0.000000 0.005105 0.000000
# 4 0.000000 0.000000 0.000000 0.035909 0.000000 -0.003301
# 5 -0.016866 0.013513 0.005105 0.000000 0.048962 0.000000
# 6 0.000000 0.000000 0.000000 -0.003301 0.000000 0.034836
#
#
# Mechanical properties :
#
#
# Convention : Reuss Voigt Hill
#
# Bulk Modulus (GPa) = 50.76866 57.60548 54.18707
# Shear Modulus (GPa) = 25.33030 34.06913 29.69971
#
# Velocity S-wave (km/s) = 3.52713 4.09055 3.81924
# Velocity P-wave (km/s) = 6.44375 7.11353 6.78691
#
# Compressibility (1/GPa) = 0.01969719
#
# Stress axis : x y z
#
# Youngs Moduli (GPa) = 42.49855 71.88805 125.51444
#
# Poissons Ratio (x) = 0.57472 0.60113
# Poissons Ratio (y) = 0.33976 0.00896
# Poissons Ratio (z) = 0.20354 0.00513
#
# Static dielectric constant tensor:
#      x y z
#    x 2.526740 0.000000 -1.005270 
#    y 0.000000 1.727130 0.000000 
#    z -1.005270 0.000000 3.212900 
# 
# From -- ./inp_files/149901.got.cif
#   From: 2010.05.17/outbox.cif.g08.bks.cpg/sg12_75_cif.got.tgz:149901.got - 2010.06.03 13:09:07.
