data_PCOD9195812
_publ_section_title
;
Structure prediction by ZEFSAII (Michael W. Deem and Ramdas Pophale) SiO2 
 PCOD9195812
Probable space group: C 2/M
;
_chemical_formula_sum "Si O2"
_cell_formula_units_Z 40
_cell_length_a 20.583314
_cell_length_b 7.491155
_cell_length_c 15.682072
_cell_angle_alpha 90.000000
_cell_angle_beta 132.582674
_cell_angle_gamma 90.000000
_cell_volume 1780.423637
_symmetry_space_group_name_H-M "C 2/M"
_symmetry_group_IT_number 12
_symmetry_cell_setting 'monoclinic'
loop_
_space_group_symop_operation_xyz
x,y,z
-x,y,-z
-x,-y,-z
x,-y,z
1/2+x,1/2+y,z
1/2-x,1/2+y,-z
1/2-x,1/2-y,-z
1/2+x,1/2-y,z
loop_
_atom_site_type_symbol
_atom_site_label
_atom_site_fract_x
_atom_site_fract_y
_atom_site_fract_z
Si Si1 0.583677 0.718882 0.630151
Si Si2 0.160621 0.712141 0.370008
Si Si3 0.032640 0.204870 0.768435
Si Si4 0.564727 0.709993 0.984370
Si Si5 0.278788 0.215394 0.759731
O O1 0.500000 0.775964 0.500000
O O2 0.582382 0.500000 0.629536
O O3 0.572965 0.782059 0.718041
O O4 0.677719 0.774846 0.676019
O O5 0.146958 0.500000 0.355813
O O6 0.250000 0.750000 0.500000
O O7 0.073449 0.793559 0.333850
O O8 0.174527 0.778413 0.285643
O O9 0.053337 0.286640 0.879473
O O10 0.064185 0.000000 0.799629
O O11 0.542185 0.500000 0.957305
O O12 0.500000 0.786786 0.000000
O O13 0.662725 0.728863 0.108038
O O14 0.278198 0.000000 0.756265
#
# Coordination Sequence:
#
# PCOD9195812 Si02
#       5
#     8   8   8   8   8
#     4   9  18  35  57  80 109 144 184 228 274 325
#     4  11  22  35  55  82 110 142 184 230 276 324
#     4  10  20  36  58  80 108 147 186 223 272 329
#     4  10  20  35  55  81 114 148 180 223 280 330
#     4  10  21  36  57  83 109 144 187 230 272 321
#
# _framework density 22.466564000000002
#
# number of rings (size 3 to 8) (size 9 to 14) (size 15 to 20)
#    0.000    2.000    2.000    1.800    0.000    6.000 
#    0.000    1.000    0.000    2.400    0.000    0.000 
#    0.000    0.000    0.000    0.000    0.000    0.000 
#
# Total GULP energy -111785.244288 kJ/mol
# GULP energy per Si atom -5589.262214 kJ/mol
# Density = 2.241543 g / cm^3
# Si number density = 22.466564 Si / 1000 Ang^3
#
#
#
# Elastic Constant Matrix: (Units=GPa)
#
#
# Indices 1 2 3 4 5 6 
#
# 1 69.7588 2.0790 -18.8653 0.0000 -3.2507 0.0000
# 2 2.0790 69.5770 -6.2963 0.0000 -10.0783 0.0000
# 3 -18.8653 -6.2963 74.1793 0.0000 1.1468 0.0000
# 4 0.0000 0.0000 0.0000 14.9891 0.0000 13.3678
# 5 -3.2507 -10.0783 1.1468 0.0000 41.4141 0.0000
# 6 0.0000 0.0000 0.0000 13.3678 0.0000 4.4780
#
#
#
# Elastic Compliance Matrix: (Units=1/GPa)
#
#
# Indices 1 2 3 4 5 6 
#
# 1 0.015444 0.000055 0.003915 0.000000 0.001117 0.000000
# 2 0.000055 0.015007 0.001232 0.000000 0.003622 0.000000
# 3 0.003915 0.001232 0.014578 0.000000 0.000203 0.000000
# 4 0.000000 0.000000 0.000000 -0.040134 0.000000 0.119809
# 5 0.001117 0.003622 0.000203 0.000000 0.025110 0.000000
# 6 0.000000 0.000000 0.000000 0.119809 0.000000 -0.134340
#
#
# Mechanical properties :
#
#
# Convention : Reuss Voigt Hill
#
# Bulk Modulus (GPa) = 18.04000 18.59444 18.31722
# Shear Modulus (GPa) = -51.94243 27.94942 -11.99651
#
# Velocity S-wave (km/s) = -4.81353 3.53093 -2.31329
# Velocity P-wave (km/s) = 4.77978 4.99177 1.01771
#
# Compressibility (1/GPa) = 0.05543236
#
# Stress axis : x y z
#
# Youngs Moduli (GPa) = 64.74864 66.63524 68.59673
#
# Poissons Ratio (x) = -0.00364 -0.26857
# Poissons Ratio (y) = -0.00354 -0.08449
# Poissons Ratio (z) = -0.25350 -0.08207
#
# Static dielectric constant tensor:
#      x y z
#    x 1.801150 0.000000 -0.029180 
#    y 0.000000 1.869480 0.000000 
#    z -0.029180 0.000000 1.812960 
# 
# From -- ./inp_files/165363.got.cif
#   From: 2010.05.17/outbox.cif.g08.bks.cpg/sg12_83_cif.got.tgz:165363.got - 2010.06.03 13:09:07.
