data_PCOD9195377
_publ_section_title
;
Structure prediction by ZEFSAII (Michael W. Deem and Ramdas Pophale) SiO2 
 PCOD9195377
Probable space group: C 2/M
;
_chemical_formula_sum "Si O2"
_cell_formula_units_Z 64
_cell_length_a 15.371470
_cell_length_b 7.712275
_cell_length_c 23.628104
_cell_angle_alpha 90.000000
_cell_angle_beta 84.400429
_cell_angle_gamma 90.000000
_cell_volume 2787.721764
_symmetry_space_group_name_H-M "C 2/M"
_symmetry_group_IT_number 12
_symmetry_cell_setting 'monoclinic'
loop_
_space_group_symop_operation_xyz
x,y,z
-x,y,-z
-x,-y,-z
x,-y,z
1/2+x,1/2+y,z
1/2-x,1/2+y,-z
1/2-x,1/2-y,-z
1/2+x,1/2-y,z
loop_
_atom_site_type_symbol
_atom_site_label
_atom_site_fract_x
_atom_site_fract_y
_atom_site_fract_z
Si Si1 0.767518 0.294905 0.919034
Si Si2 0.619039 0.792999 0.288486
Si Si3 0.671103 0.787978 0.403102
Si Si4 0.720013 0.792204 0.796273
Si Si5 0.545513 0.196279 0.758111
Si Si6 0.405159 0.801905 0.478229
Si Si7 0.099358 0.796764 0.998411
Si Si8 0.632733 0.301374 0.640705
O O1 0.770946 0.500000 0.930063
O O2 0.759713 0.264535 0.853165
O O3 0.677149 0.224204 0.953071
O O4 0.854079 0.219121 0.943255
O O5 0.612600 0.728543 0.353579
O O6 0.714990 0.765164 0.257420
O O7 0.547919 0.719070 0.249123
O O8 0.604234 0.000000 0.292058
O O9 0.652738 0.723677 0.467436
O O10 0.768633 0.745602 0.378270
O O11 0.663039 0.000000 0.406835
O O12 0.621420 0.724298 0.792078
O O13 0.715367 0.000000 0.794835
O O14 0.587721 0.192868 0.692534
O O15 0.530158 0.000000 0.780210
O O16 0.500000 0.808504 0.500000
O O17 0.409831 0.708646 0.418328
O O18 0.376801 0.000000 0.468144
O O19 0.091747 0.000000 0.984142
O O20 0.000000 0.725008 0.000000
O O21 0.633170 0.500000 0.660706
#
# Coordination Sequence:
#
# PCOD9195377 Si02
#       8
#     8   8   8   8   8   8   8   8
#     4  10  21  37  60  89 122 163 202 239 287 340
#     4  10  20  39  62  82 109 149 195 239 288 351
#     4   9  18  33  54  78 104 139 182 230 285 347
#     4  11  23  39  58  86 121 154 195 246 291 336
#     4  10  22  39  60  83 111 151 195 237 289 352
#     4  10  20  35  54  75 103 141 184 229 284 351
#     4   9  19  38  63  92 126 161 198 243 290 333
#     4  11  21  34  54  80 109 141 182 236 292 345
#
# _framework density 22.957813999999999
#
# number of rings (size 3 to 8) (size 9 to 14) (size 15 to 20)
#    0.000    2.000    1.250    2.250    0.000    5.000 
#    0.000    3.750    0.000    0.000    0.000    0.000 
#    0.000    0.000    0.000    0.000    0.000    0.000 
#
# Total GULP energy -178628.778669 kJ/mol
# GULP energy per Si atom -5582.149333 kJ/mol
# Density = 2.290556 g / cm^3
# Si number density = 22.957814 Si / 1000 Ang^3
#
#
#
# Elastic Constant Matrix: (Units=GPa)
#
#
# Indices 1 2 3 4 5 6 
#
# 1 108.7538 4.6536 4.8520 0.0000 24.0075 0.0000
# 2 4.6536 43.5725 -12.7780 0.0000 -3.0563 0.0000
# 3 4.8520 -12.7780 79.0865 0.0000 19.8074 0.0000
# 4 0.0000 0.0000 0.0000 2.5978 0.0000 -10.2633
# 5 24.0075 -3.0563 19.8074 0.0000 26.7381 0.0000
# 6 0.0000 0.0000 0.0000 -10.2633 0.0000 1.8342
#
#
#
# Elastic Compliance Matrix: (Units=1/GPa)
#
#
# Indices 1 2 3 4 5 6 
#
# 1 0.011915 -0.001518 0.002145 0.000000 -0.012460 0.000000
# 2 -0.001518 0.024286 0.003659 0.000000 0.001428 0.000000
# 3 0.002145 0.003659 0.016553 0.000000 -0.013769 0.000000
# 4 0.000000 0.000000 0.000000 -0.018238 0.000000 -0.102051
# 5 -0.012460 0.001428 -0.013769 0.000000 0.058951 0.000000
# 6 0.000000 0.000000 0.000000 -0.102051 0.000000 -0.025831
#
#
# Mechanical properties :
#
#
# Convention : Reuss Voigt Hill
#
# Bulk Modulus (GPa) = 16.30642 24.98535 20.64589
# Shear Modulus (GPa) = 62.88924 21.87970 42.38447
#
# Velocity S-wave (km/s) = 5.23955 3.09048 4.30139
# Velocity P-wave (km/s) = 6.61226 4.86226 5.80360
#
# Compressibility (1/GPa) = 0.06132553
#
# Stress axis : x y z
#
# Youngs Moduli (GPa) = 83.92810 41.17667 60.41342
#
# Poissons Ratio (x) = 0.06249 -0.12956
# Poissons Ratio (y) = 0.12737 -0.22107
# Poissons Ratio (z) = -0.17998 -0.15068
#
# Static dielectric constant tensor:
#      x y z
#    x 1.917540 0.000000 0.016900 
#    y 0.000000 1.891470 0.000000 
#    z 0.016900 0.000000 1.867520 
# 
# From -- ./inp_files/338932.got.cif
#   From: 2010.05.17/outbox.cif.g08.bks.cpg/sg12_170_cif.got.tgz:338932.got - 2010.06.03 13:09:07.
