data_PCOD9195096
_publ_section_title
;
Structure prediction by ZEFSAII (Michael W. Deem and Ramdas Pophale) SiO2 
 PCOD9195096
Probable space group: C 2/M
;
_chemical_formula_sum "Si O2"
_cell_formula_units_Z 40
_cell_length_a 28.666194
_cell_length_b 7.653865
_cell_length_c 11.434864
_cell_angle_alpha 90.000000
_cell_angle_beta 130.232563
_cell_angle_gamma 90.000000
_cell_volume 1915.360518
_symmetry_space_group_name_H-M "C 2/M"
_symmetry_group_IT_number 12
_symmetry_cell_setting 'monoclinic'
loop_
_space_group_symop_operation_xyz
x,y,z
-x,y,-z
-x,-y,-z
x,-y,z
1/2+x,1/2+y,z
1/2-x,1/2+y,-z
1/2-x,1/2-y,-z
1/2+x,1/2-y,z
loop_
_atom_site_type_symbol
_atom_site_label
_atom_site_fract_x
_atom_site_fract_y
_atom_site_fract_z
Si Si1 0.362150 0.200352 0.934105
Si Si2 0.115589 0.289447 0.541483
Si Si3 0.015555 0.000000 0.382213
Si Si4 0.821520 0.291552 0.115493
Si Si5 0.238567 0.293026 0.615046
Si Si6 0.949314 0.000000 0.020760
O O1 0.292763 0.204048 0.774645
O O2 0.383988 0.000000 0.968145
O O3 0.355244 0.271988 0.054658
O O4 0.406326 0.329585 0.937127
O O5 0.104837 0.500000 0.521750
O O6 0.144850 0.236041 0.713210
O O7 0.169825 0.245198 0.539158
O O8 0.055927 0.174758 0.429266
O O9 0.000000 0.000000 0.500000
O O10 0.973177 0.000000 0.195415
O O11 0.825587 0.500000 0.118230
O O12 0.750000 0.250000 0.000000
O O13 0.244174 0.500000 0.647118
O O14 0.250000 0.250000 0.500000
O O15 0.000000 0.000000 0.000000
#
# Coordination Sequence:
#
# PCOD9195096 Si02
#       6
#     8   8   4   8   8   4
#     4  11  24  43  69 101 134 175 225 283 345 408
#     4  10  24  42  66 104 136 172 226 285 343 406
#     4  12  28  48  74  96 136 196 240 280 330 410
#     4  10  20  34  62 101 137 168 204 271 351 410
#     4  11  23  39  66 102 140 173 215 283 354 412
#     4  12  30  50  70  96 138 194 238 282 332 410
#
# _framework density 20.883797999999999
#
# number of rings (size 3 to 8) (size 9 to 14) (size 15 to 20)
#    0.000    1.200    3.000    1.800    8.400    1.600 
#    0.000    0.000    0.000    0.000    0.000    0.000 
#    0.000    0.000    0.000    0.000    0.000    0.000 
#
# Total GULP energy -111690.461942 kJ/mol
# GULP energy per Si atom -5584.523097 kJ/mol
# Density = 2.083627 g / cm^3
# Si number density = 20.883798 Si / 1000 Ang^3
#
#
#
# Elastic Constant Matrix: (Units=GPa)
#
#
# Indices 1 2 3 4 5 6 
#
# 1 137.0644 50.7784 4.6560 0.0000 -5.1657 0.0000
# 2 50.7784 94.3515 12.4320 0.0000 15.0316 0.0000
# 3 4.6560 12.4320 53.7914 0.0000 0.4485 0.0000
# 4 0.0000 0.0000 0.0000 29.7338 0.0000 3.1075
# 5 -5.1657 15.0316 0.4485 0.0000 33.5189 0.0000
# 6 0.0000 0.0000 0.0000 3.1075 0.0000 25.3103
#
#
#
# Elastic Compliance Matrix: (Units=1/GPa)
#
#
# Indices 1 2 3 4 5 6 
#
# 1 0.009620 -0.005899 0.000496 0.000000 0.004121 0.000000
# 2 -0.005899 0.015406 -0.002985 0.000000 -0.007778 0.000000
# 3 0.000496 -0.002985 0.019228 0.000000 0.001158 0.000000
# 4 0.000000 0.000000 0.000000 0.034069 0.000000 -0.004183
# 5 0.004121 -0.007778 0.001158 0.000000 0.033942 0.000000
# 6 0.000000 0.000000 0.000000 -0.004183 0.000000 0.040023
#
#
# Mechanical properties :
#
#
# Convention : Reuss Voigt Hill
#
# Bulk Modulus (GPa) = 36.39334 46.77111 41.58222
# Shear Modulus (GPa) = 28.05486 32.20199 30.12843
#
# Velocity S-wave (km/s) = 3.66919 3.93104 3.80237
# Velocity P-wave (km/s) = 5.95105 6.56114 6.26353
#
# Compressibility (1/GPa) = 0.02747756
#
# Stress axis : x y z
#
# Youngs Moduli (GPa) = 103.95239 64.90977 52.00853
#
# Poissons Ratio (x) = 0.38292 -0.02582
# Poissons Ratio (y) = 0.61324 0.15525
# Poissons Ratio (z) = -0.05160 0.19376
#
# Static dielectric constant tensor:
#      x y z
#    x 2.178320 0.000000 -0.261960 
#    y 0.000000 1.751560 0.000000 
#    z -0.261960 0.000000 1.950650 
# 
# From -- ./inp_files/180312.got.cif
#   From: 2010.05.17/outbox.cif.g08.bks.cpg/sg12_91_cif.got.tgz:180312.got - 2010.06.03 13:09:07.
