data_PCOD9195323
_publ_section_title
;
Structure prediction by ZEFSAII (Michael W. Deem and Ramdas Pophale) SiO2 
 PCOD9195323
Probable space group: C 2/M
;
_chemical_formula_sum "Si O2"
_cell_formula_units_Z 42
_cell_length_a 15.638822
_cell_length_b 7.499087
_cell_length_c 23.150746
_cell_angle_alpha 90.000000
_cell_angle_beta 44.574191
_cell_angle_gamma 90.000000
_cell_volume 1905.507833
_symmetry_space_group_name_H-M "C 2/M"
_symmetry_group_IT_number 12
_symmetry_cell_setting 'monoclinic'
loop_
_space_group_symop_operation_xyz
x,y,z
-x,y,-z
-x,-y,-z
x,-y,z
1/2+x,1/2+y,z
1/2-x,1/2+y,-z
1/2-x,1/2-y,-z
1/2+x,1/2-y,z
loop_
_atom_site_type_symbol
_atom_site_label
_atom_site_fract_x
_atom_site_fract_y
_atom_site_fract_z
Si Si1 0.000000 0.500000 0.500000
Si Si2 0.163427 0.784815 0.206244
Si Si3 0.170555 0.792831 0.448409
Si Si4 0.626309 0.286523 0.094174
Si Si5 0.056264 0.211938 0.912697
Si Si6 0.418990 0.284923 0.381348
O O1 0.103706 0.657917 0.438565
O O2 0.138989 0.717484 0.153000
O O3 0.299728 0.738281 0.158837
O O4 0.052922 0.723088 0.299730
O O5 0.157651 0.000000 0.208434
O O6 0.315929 0.775360 0.385651
O O7 0.120723 0.727202 0.535474
O O8 0.140897 0.000000 0.453054
O O9 0.612417 0.500000 0.106231
O O10 0.515949 0.216662 0.108028
O O11 0.750000 0.250000 0.000000
O O12 0.033152 0.000000 0.924660
O O13 0.000000 0.283736 0.000000
O O14 0.415581 0.500000 0.383749
#
# Coordination Sequence:
#
# PCOD9195323 Si02
#       6
#     2   8   8   8   8   8
#     4  12  22  40  64 102 124 158 202 268 298 366
#     4  10  21  37  59  85 115 155 201 252 306 362
#     4  10  21  39  66  92 127 167 206 248 316 373
#     4  10  20  35  55  79 110 152 197 246 305 362
#     4  10  20  35  53  79 115 152 197 248 301 364
#     4   9  19  40  61  86 121 165 208 255 308 378
#
# _framework density 22.041367000000001
#
# number of rings (size 3 to 8) (size 9 to 14) (size 15 to 20)
#    0.000    2.095    2.857    0.286    1.333    1.905 
#    3.429    0.000    0.000    0.000    0.000    0.000 
#    0.000    0.000    0.000    0.000    0.000    0.000 
#
# Total GULP energy -117058.505479 kJ/mol
# GULP energy per Si atom -5574.214547 kJ/mol
# Density = 2.199120 g / cm^3
# Si number density = 22.041367 Si / 1000 Ang^3
#
#
#
# Elastic Constant Matrix: (Units=GPa)
#
#
# Indices 1 2 3 4 5 6 
#
# 1 127.2319 1.9056 40.7842 0.0000 -38.3131 0.0002
# 2 1.9056 87.2510 -12.9506 0.0000 -1.8013 0.0004
# 3 40.7842 -12.9506 103.5042 0.0000 -32.9658 0.0000
# 4 0.0000 0.0000 0.0000 20.5493 0.0000 -13.0325
# 5 -38.3131 -1.8013 -32.9658 0.0000 35.0739 0.0000
# 6 0.0002 0.0004 0.0000 -13.0325 0.0000 9.4403
#
#
#
# Elastic Compliance Matrix: (Units=1/GPa)
#
#
# Indices 1 2 3 4 5 6 
#
# 1 0.011757 -0.000126 -0.000799 -0.000001 0.012085 -0.000002
# 2 -0.000126 0.011878 0.002407 -0.000002 0.002734 -0.000004
# 3 -0.000799 0.002407 0.014328 -0.000001 0.012717 -0.000001
# 4 -0.000001 -0.000002 -0.000001 0.390963 -0.000001 0.539732
# 5 0.012085 0.002734 0.012717 -0.000001 0.053806 -0.000002
# 6 -0.000002 -0.000004 -0.000001 0.539732 -0.000002 0.851040
#
#
# Mechanical properties :
#
#
# Convention : Reuss Voigt Hill
#
# Bulk Modulus (GPa) = 24.43477 41.94061 33.18769
# Shear Modulus (GPa) = 3.71899 32.22922 17.97411
#
# Velocity S-wave (km/s) = 1.30036 3.82804 2.85874
# Velocity P-wave (km/s) = 3.65575 6.21353 5.09767
#
# Compressibility (1/GPa) = 0.04092528
#
# Stress axis : x y z
#
# Youngs Moduli (GPa) = 85.05637 84.19202 69.79367
#
# Poissons Ratio (x) = 0.01060 0.05579
# Poissons Ratio (y) = 0.01071 -0.16797
# Poissons Ratio (z) = 0.06799 -0.20262
#
# Static dielectric constant tensor:
#      x y z
#    x 1.862680 0.000000 0.018220 
#    y 0.000000 1.835070 0.000000 
#    z 0.018220 0.000000 1.786560 
# 
# From -- ./inp_files/359558.got.cif
#   From: 2010.05.17/outbox.cif.g08.bks.cpg/sg12_180_cif.got.tgz:359558.got - 2010.06.03 13:09:07.
