data_PCOD9195342
_publ_section_title
;
Structure prediction by ZEFSAII (Michael W. Deem and Ramdas Pophale) SiO2 
 PCOD9195342
Probable space group: C 2/M
;
_chemical_formula_sum "Si O2"
_cell_formula_units_Z 58
_cell_length_a 19.676190
_cell_length_b 9.276958
_cell_length_c 20.843794
_cell_angle_alpha 90.000000
_cell_angle_beta 129.692114
_cell_angle_gamma 90.000000
_cell_volume 2927.688860
_symmetry_space_group_name_H-M "C 2/M"
_symmetry_group_IT_number 12
_symmetry_cell_setting 'monoclinic'
loop_
_space_group_symop_operation_xyz
x,y,z
-x,y,-z
-x,-y,-z
x,-y,z
1/2+x,1/2+y,z
1/2-x,1/2+y,-z
1/2-x,1/2-y,-z
1/2+x,1/2-y,z
loop_
_atom_site_type_symbol
_atom_site_label
_atom_site_fract_x
_atom_site_fract_y
_atom_site_fract_z
Si Si1 0.258178 0.669930 0.771427
Si Si2 0.500000 0.000000 0.500000
Si Si3 0.015963 0.332303 0.814432
Si Si4 0.654312 0.838981 0.373860
Si Si5 0.964996 0.261655 0.577216
Si Si6 0.610905 0.663368 0.758280
Si Si7 0.034829 0.172129 0.091795
Si Si8 0.692312 0.171650 0.586979
O O1 0.247530 0.500000 0.779409
O O2 0.196250 0.762136 0.779813
O O3 0.361114 0.706228 0.840591
O O4 0.227461 0.691655 0.679521
O O5 0.482418 0.123939 0.433634
O O6 0.039790 0.500000 0.832865
O O7 0.075076 0.252409 0.797225
O O8 0.916110 0.323925 0.726023
O O9 0.015879 0.255918 0.882885
O O10 0.595669 0.828902 0.402570
O O11 0.726062 0.712606 0.409915
O O12 0.694355 0.000000 0.395118
O O13 0.886684 0.221085 0.480563
O O14 0.034386 0.166267 0.657134
O O15 0.627893 0.500000 0.787329
O O16 0.025250 0.000000 0.096490
O O17 0.000000 0.206435 0.000000
O O18 0.660744 0.000000 0.562978
#
# Coordination Sequence:
#
# PCOD9195342 Si02
#       8
#     8   2   8   8   8   8   8   8
#     4  10  22  39  63  93 123 165 209 251 311 380
#     4  12  20  40  58  72 116 160 222 254 300 372
#     4  10  21  39  65  94 126 168 209 257 314 377
#     4  10  20  35  53  84 119 153 203 257 309 357
#     4  11  23  35  57  82 114 166 211 253 302 358
#     4  11  25  41  62  90 128 165 214 266 314 366
#     4  10  21  41  69 100 132 163 201 252 315 382
#     4  11  21  35  58  86 118 160 208 256 313 365
#
# _framework density 19.810849000000001
#
# number of rings (size 3 to 8) (size 9 to 14) (size 15 to 20)
#    0.000    1.517    2.759    2.069    3.862    4.138 
#    0.000    3.103    0.000    0.000    0.000    0.000 
#    0.000    0.000    0.000    0.000    0.000    0.000 
#
# Total GULP energy -161611.719679 kJ/mol
# GULP energy per Si atom -5572.817920 kJ/mol
# Density = 1.976576 g / cm^3
# Si number density = 19.810849 Si / 1000 Ang^3
#
#
#
# Elastic Constant Matrix: (Units=GPa)
#
#
# Indices 1 2 3 4 5 6 
#
# 1 92.9097 57.5792 41.3389 0.0000 -22.5323 0.0000
# 2 57.5792 79.8855 40.2604 0.0000 -20.8750 0.0000
# 3 41.3389 40.2604 113.4562 0.0000 -18.5766 0.0000
# 4 0.0000 0.0000 0.0000 21.8267 0.0000 -5.3259
# 5 -22.5323 -20.8750 -18.5766 0.0000 24.2604 0.0000
# 6 0.0000 0.0000 0.0000 -5.3259 0.0000 28.6886
#
#
#
# Elastic Compliance Matrix: (Units=1/GPa)
#
#
# Indices 1 2 3 4 5 6 
#
# 1 0.021052 -0.012145 -0.002138 0.000000 0.007464 0.000000
# 2 -0.012145 0.024869 -0.003136 0.000000 0.007717 0.000000
# 3 -0.002138 -0.003136 0.011364 0.000000 0.004017 0.000000
# 4 0.000000 0.000000 0.000000 0.047989 0.000000 0.008909
# 5 0.007464 0.007717 0.004017 0.000000 0.057868 0.000000
# 6 0.000000 0.000000 0.000000 0.008909 0.000000 0.036511
#
#
# Mechanical properties :
#
#
# Convention : Reuss Voigt Hill
#
# Bulk Modulus (GPa) = 44.55378 62.73428 53.64403
# Shear Modulus (GPa) = 20.66345 24.76002 22.71173
#
# Velocity S-wave (km/s) = 3.23311 3.53912 3.38957
# Velocity P-wave (km/s) = 6.03952 6.95959 6.51581
#
# Compressibility (1/GPa) = 0.02244478
#
# Stress axis : x y z
#
# Youngs Moduli (GPa) = 47.50234 40.21080 87.99980
#
# Poissons Ratio (x) = 0.48837 0.18818
# Poissons Ratio (y) = 0.57693 0.27597
# Poissons Ratio (z) = 0.10158 0.12610
#
# Static dielectric constant tensor:
#      x y z
#    x 3.001720 0.000000 -0.083910 
#    y 0.000000 1.682220 0.000000 
#    z -0.083910 0.000000 1.708780 
# 
# From -- ./inp_files/282217.got.cif
#   From: 2010.05.17/outbox.cif.g08.bks.cpg/sg12_142_cif.got.tgz:282217.got - 2010.06.03 13:09:07.
