data_PCOD9195350
_publ_section_title
;
Structure prediction by ZEFSAII (Michael W. Deem and Ramdas Pophale) SiO2 
 PCOD9195350
Probable space group: C 2/M
;
_chemical_formula_sum "Si O2"
_cell_formula_units_Z 64
_cell_length_a 19.361367
_cell_length_b 8.850891
_cell_length_c 21.181946
_cell_angle_alpha 90.000000
_cell_angle_beta 92.996784
_cell_angle_gamma 90.000000
_cell_volume 3624.887639
_symmetry_space_group_name_H-M "C 2/M"
_symmetry_group_IT_number 12
_symmetry_cell_setting 'monoclinic'
loop_
_space_group_symop_operation_xyz
x,y,z
-x,y,-z
-x,-y,-z
x,-y,z
1/2+x,1/2+y,z
1/2-x,1/2+y,-z
1/2-x,1/2-y,-z
1/2+x,1/2-y,z
loop_
_atom_site_type_symbol
_atom_site_label
_atom_site_fract_x
_atom_site_fract_y
_atom_site_fract_z
Si Si1 0.708526 0.818435 0.938469
Si Si2 0.921089 0.683513 0.994026
Si Si3 0.509425 0.320280 0.342620
Si Si4 0.223498 0.181810 0.376712
Si Si5 0.882822 0.319955 0.397992
Si Si6 0.892632 0.820151 0.533125
Si Si7 0.625204 0.180772 0.266573
Si Si8 0.673966 0.182228 0.129452
O O1 0.751006 0.753381 0.881600
O O2 0.713235 0.000000 0.939137
O O3 0.750000 0.750000 0.000000
O O4 0.628740 0.776070 0.949205
O O5 0.923850 0.500000 0.993162
O O6 0.879820 0.728746 0.928465
O O7 0.000000 0.739013 0.000000
O O8 0.507942 0.500000 0.335532
O O9 0.433833 0.254299 0.349999
O O10 0.552181 0.286323 0.409252
O O11 0.553169 0.248261 0.288184
O O12 0.303164 0.225886 0.384332
O O13 0.181149 0.218137 0.438517
O O14 0.183458 0.258433 0.317199
O O15 0.218478 0.000000 0.368924
O O16 0.887545 0.500000 0.394082
O O17 0.903699 0.266644 0.469044
O O18 0.895680 0.000000 0.520574
O O19 0.644633 0.224310 0.196280
O O20 0.622123 0.000000 0.270011
O O21 0.680405 0.000000 0.126548
#
# Coordination Sequence:
#
# PCOD9195350 Si02
#       8
#     8   8   8   8   8   8   8   8
#     4   9  16  27  47  73  99 129 164 199 235 279
#     4   8  14  27  48  74 102 129 157 191 234 280
#     4  10  21  36  52  71 100 134 166 204 249 301
#     4   9  20  36  51  71 100 130 163 207 253 299
#     4  11  21  32  50  76 101 126 162 208 254 302
#     4   9  18  33  51  71  97 130 164 201 251 305
#     4  10  20  35  54  73  95 129 172 212 250 295
#     4   9  18  32  51  74  99 127 162 204 242 286
#
# _framework density 17.655719999999999
#
# number of rings (size 3 to 8) (size 9 to 14) (size 15 to 20)
#    0.000    2.625    0.000    3.750    0.000    6.000 
#    0.000    1.250    0.000   12.375    0.000    0.000 
#    0.000    0.000    0.000    0.000    0.000    0.000 
#
# Total GULP energy -178406.135085 kJ/mol
# GULP energy per Si atom -5575.191721 kJ/mol
# Density = 1.761553 g / cm^3
# Si number density = 17.655720 Si / 1000 Ang^3
#
#
#
# Elastic Constant Matrix: (Units=GPa)
#
#
# Indices 1 2 3 4 5 6 
#
# 1 117.3229 28.2978 42.9710 0.0000 -41.1066 0.0000
# 2 28.2978 21.5000 28.1738 0.0000 -15.1462 0.0000
# 3 42.9710 28.1738 95.9407 0.0000 -34.8970 0.0000
# 4 0.0000 0.0000 0.0000 25.1118 0.0000 -6.6260
# 5 -41.1066 -15.1462 -34.8970 0.0000 27.9325 0.0000
# 6 0.0000 0.0000 0.0000 -6.6260 0.0000 25.8948
#
#
#
# Elastic Compliance Matrix: (Units=1/GPa)
#
#
# Indices 1 2 3 4 5 6 
#
# 1 0.019735 -0.012686 0.005404 0.000000 0.028915 0.000000
# 2 -0.012686 0.093977 -0.018642 0.000000 0.009000 0.000000
# 3 0.005404 -0.018642 0.023265 0.000000 0.026910 0.000000
# 4 0.000000 0.000000 0.000000 0.042705 0.000000 0.010927
# 5 0.028915 0.009000 0.026910 0.000000 0.116853 0.000000
# 6 0.000000 0.000000 0.000000 0.010927 0.000000 0.041414
#
#
# Mechanical properties :
#
#
# Convention : Reuss Voigt Hill
#
# Bulk Modulus (GPa) = 11.74683 48.18319 29.96501
# Shear Modulus (GPa) = 11.95674 24.80923 18.38298
#
# Velocity S-wave (km/s) = 2.60516 3.75262 3.23025
# Velocity P-wave (km/s) = 3.96445 6.79160 5.56070
#
# Compressibility (1/GPa) = 0.08512937
#
# Stress axis : x y z
#
# Youngs Moduli (GPa) = 50.67088 10.64087 42.98248
#
# Poissons Ratio (x) = 0.13499 -0.23226
# Poissons Ratio (y) = 0.64281 0.80127
# Poissons Ratio (z) = -0.27380 0.19837
#
# Static dielectric constant tensor:
#      x y z
#    x 1.626090 0.000000 -0.021630 
#    y 0.000000 1.591830 0.000000 
#    z -0.021630 0.000000 1.595330 
# 
# From -- ./inp_files/319093.got.cif
#   From: 2010.05.17/outbox.cif.g08.bks.cpg/sg12_160_cif.got.tgz:319093.got - 2010.06.03 13:09:07.
