data_PCOD9195379
_publ_section_title
;
Structure prediction by ZEFSAII (Michael W. Deem and Ramdas Pophale) SiO2 
 PCOD9195379
Probable space group: C 2/M
;
_chemical_formula_sum "Si O2"
_cell_formula_units_Z 56
_cell_length_a 31.509398
_cell_length_b 8.684103
_cell_length_c 18.051065
_cell_angle_alpha 90.000000
_cell_angle_beta 39.159020
_cell_angle_gamma 90.000000
_cell_volume 3119.061773
_symmetry_space_group_name_H-M "C 2/M"
_symmetry_group_IT_number 12
_symmetry_cell_setting 'monoclinic'
loop_
_space_group_symop_operation_xyz
x,y,z
-x,y,-z
-x,-y,-z
x,-y,z
1/2+x,1/2+y,z
1/2-x,1/2+y,-z
1/2-x,1/2-y,-z
1/2+x,1/2-y,z
loop_
_atom_site_type_symbol
_atom_site_label
_atom_site_fract_x
_atom_site_fract_y
_atom_site_fract_z
Si Si1 0.323506 0.315445 0.483409
Si Si2 0.551265 0.679059 0.366182
Si Si3 0.469271 0.322143 0.325348
Si Si4 0.914328 0.319493 0.918226
Si Si5 0.070261 0.813956 0.940960
Si Si6 0.316116 0.315449 0.322840
Si Si7 0.826829 0.313763 0.893441
O O1 0.315111 0.500000 0.496269
O O2 0.391836 0.276483 0.432429
O O3 0.328958 0.265180 0.390026
O O4 0.256793 0.238543 0.603714
O O5 0.500000 0.740286 0.500000
O O6 0.566580 0.500000 0.364669
O O7 0.504741 0.682011 0.356298
O O8 0.621926 0.755997 0.241988
O O9 0.472190 0.500000 0.293549
O O10 0.511976 0.215629 0.213841
O O11 0.903580 0.500000 0.942775
O O12 0.863147 0.266925 0.922238
O O13 0.912647 0.238654 0.999589
O O14 0.127689 0.757247 0.808129
O O15 0.069015 0.000000 0.942950
O O16 0.000000 0.761963 0.000000
O O17 0.318435 0.500000 0.320322
O O18 0.824850 0.500000 0.892538
O O19 0.750000 0.250000 0.000000
#
# Coordination Sequence:
#
# PCOD9195379 Si02
#       7
#     8   8   8   8   8   8   8
#     4   9  17  31  50  70  95 131 171 207 250 301
#     4   9  18  34  56  82 111 140 176 223 274 330
#     4   9  17  32  54  75  98 135 174 207 254 317
#     4  10  21  35  53  80 108 135 174 224 267 312
#     4  10  20  35  54  75 104 142 179 215 258 314
#     4   9  18  31  47  69  98 130 168 211 252 297
#     4  10  21  38  59  82 110 147 187 229 281 335
#
# _framework density 17.954118000000001
#
# number of rings (size 3 to 8) (size 9 to 14) (size 15 to 20)
#    0.000    2.571    0.000    1.714    0.000    5.714 
#    2.571    2.857    0.000    0.000    0.000    0.000 
#    0.000    0.000    0.000    0.000    0.000    0.000 
#
# Total GULP energy -155921.110501 kJ/mol
# GULP energy per Si atom -5568.611089 kJ/mol
# Density = 1.791325 g / cm^3
# Si number density = 17.954118 Si / 1000 Ang^3
#
#
#
# Elastic Constant Matrix: (Units=GPa)
#
#
# Indices 1 2 3 4 5 6 
#
# 1 62.9338 20.3232 57.4631 -0.0062 -20.4434 -0.0011
# 2 20.3232 19.2728 31.2317 -0.0093 -3.6994 -0.0016
# 3 57.4631 31.2317 156.3095 -0.0201 -13.1645 0.0012
# 4 -0.0062 -0.0093 -0.0201 33.4916 0.0081 2.4100
# 5 -20.4434 -3.6994 -13.1645 0.0081 29.7190 0.0021
# 6 -0.0011 -0.0016 0.0012 2.4100 0.0021 29.2170
#
#
#
# Elastic Compliance Matrix: (Units=1/GPa)
#
#
# Indices 1 2 3 4 5 6 
#
# 1 0.035652 -0.022662 -0.007012 -0.000008 0.018597 0.000000
# 2 -0.022662 0.091372 -0.010679 0.000017 -0.008945 0.000004
# 3 -0.007012 -0.010679 0.011001 0.000003 -0.001280 -0.000001
# 4 -0.000008 0.000017 0.000003 0.030037 -0.000010 -0.002478
# 5 0.018597 -0.008945 -0.001280 -0.000010 0.044761 -0.000002
# 6 0.000000 0.000004 -0.000001 -0.002478 -0.000002 0.034431
#
#
# Mechanical properties :
#
#
# Convention : Reuss Voigt Hill
#
# Bulk Modulus (GPa) = 17.44626 50.72803 34.08714
# Shear Modulus (GPa) = 14.40652 27.11873 20.76262
#
# Velocity S-wave (km/s) = 2.83575 3.89066 3.40432
# Velocity P-wave (km/s) = 4.52330 6.96409 5.87192
#
# Compressibility (1/GPa) = 0.05731889
#
# Stress axis : x y z
#
# Youngs Moduli (GPa) = 28.04929 10.94431 90.89773
#
# Poissons Ratio (x) = 0.24802 0.63739
# Poissons Ratio (y) = 0.63564 0.97071
# Poissons Ratio (z) = 0.19669 0.11688
#
# Static dielectric constant tensor:
#      x y z
#    x 1.613910 0.000000 0.009090 
#    y 0.000000 1.627690 0.000000 
#    z 0.009090 0.000000 1.629980 
# 
# From -- ./inp_files/281659.got.cif
#   From: 2010.05.17/outbox.cif.g08.bks.cpg/sg12_141_cif.got.tgz:281659.got - 2010.06.03 13:09:07.
