data_PCOD9195374
_publ_section_title
;
Structure prediction by ZEFSAII (Michael W. Deem and Ramdas Pophale) SiO2 
 PCOD9195374
Probable space group: C 2/M
;
_chemical_formula_sum "Si O2"
_cell_formula_units_Z 56
_cell_length_a 14.679278
_cell_length_b 9.588218
_cell_length_c 29.102386
_cell_angle_alpha 90.000000
_cell_angle_beta 145.828429
_cell_angle_gamma 90.000000
_cell_volume 2300.671877
_symmetry_space_group_name_H-M "C 2/M"
_symmetry_group_IT_number 12
_symmetry_cell_setting 'monoclinic'
loop_
_space_group_symop_operation_xyz
x,y,z
-x,y,-z
-x,-y,-z
x,-y,z
1/2+x,1/2+y,z
1/2-x,1/2+y,-z
1/2-x,1/2-y,-z
1/2+x,1/2-y,z
loop_
_atom_site_type_symbol
_atom_site_label
_atom_site_fract_x
_atom_site_fract_y
_atom_site_fract_z
Si Si1 0.050217 0.337528 0.879458
Si Si2 0.404278 0.156920 0.270485
Si Si3 0.282905 0.656559 0.461315
Si Si4 0.957991 0.842951 0.211856
Si Si5 0.058174 0.161420 0.972300
Si Si6 0.926342 0.158637 0.360507
Si Si7 0.684200 0.846579 0.604495
O O1 0.997525 0.500000 0.853589
O O2 0.007685 0.269379 0.911078
O O3 0.998643 0.231028 0.817724
O O4 0.245952 0.338951 0.952074
O O5 0.594379 0.147524 0.366965
O O6 0.370215 0.229036 0.207483
O O7 0.346149 0.258864 0.285691
O O8 0.342596 0.000000 0.246010
O O9 0.343117 0.500000 0.471677
O O10 0.376254 0.666520 0.549791
O O11 0.347292 0.787595 0.459057
O O12 0.123052 0.860808 0.309328
O O13 0.887514 0.000000 0.176579
O O14 0.006191 0.000000 0.942442
O O15 0.000000 0.198558 0.000000
O O16 0.860730 0.227026 0.378914
O O17 0.884089 0.000000 0.337916
O O18 0.616912 0.000000 0.587298
#
# Coordination Sequence:
#
# PCOD9195374 Si02
#       7
#     8   8   8   8   8   8   8
#     4  10  20  36  62  92 122 158 196 238 284 334
#     4  10  20  35  54  75 103 138 181 229 276 335
#     4   9  19  34  52  73  99 135 175 225 286 342
#     4  10  21  39  58  77 107 149 188 224 277 334
#     4   9  19  38  63  93 126 159 193 232 280 335
#     4  11  21  33  50  75 105 135 175 229 288 339
#     4  10  21  35  52  74 101 138 183 229 276 335
#
# _framework density 24.340716
#
# number of rings (size 3 to 8) (size 9 to 14) (size 15 to 20)
#    0.000    2.143    0.000    3.000    0.000    6.000 
#    2.571    0.000    0.000    0.000    0.000    0.000 
#    0.000    0.000    0.000    0.000    0.000    0.000 
#
# Total GULP energy -156145.525342 kJ/mol
# GULP energy per Si atom -5576.625905 kJ/mol
# Density = 2.428532 g / cm^3
# Si number density = 24.340716 Si / 1000 Ang^3
#
#
#
# Elastic Constant Matrix: (Units=GPa)
#
#
# Indices 1 2 3 4 5 6 
#
# 1 77.0261 36.0635 26.8435 0.0000 -32.6502 0.0000
# 2 36.0635 205.9968 52.2211 0.0000 -40.7418 0.0000
# 3 26.8435 52.2211 85.3604 0.0000 -23.4460 0.0000
# 4 0.0000 0.0000 0.0000 14.3082 0.0000 -11.2751
# 5 -32.6502 -40.7418 -23.4460 0.0000 51.2815 0.0000
# 6 0.0000 0.0000 0.0000 -11.2751 0.0000 24.6730
#
#
#
# Elastic Compliance Matrix: (Units=1/GPa)
#
#
# Indices 1 2 3 4 5 6 
#
# 1 0.018453 -0.000554 -0.002696 0.000000 0.010075 0.000000
# 2 -0.000554 0.006325 -0.002758 0.000000 0.003411 0.000000
# 3 -0.002696 -0.002758 0.015069 0.000000 0.002982 0.000000
# 4 0.000000 0.000000 0.000000 0.109221 0.000000 0.049912
# 5 0.010075 0.003411 0.002982 0.000000 0.029988 0.000000
# 6 0.000000 0.000000 0.000000 0.049912 0.000000 0.063339
#
#
# Mechanical properties :
#
#
# Convention : Reuss Voigt Hill
#
# Bulk Modulus (GPa) = 35.93319 66.51550 51.22434
# Shear Modulus (GPa) = 18.96162 34.93624 26.94893
#
# Velocity S-wave (km/s) = 2.79410 3.79265 3.33100
# Velocity P-wave (km/s) = 5.02035 6.82386 5.99037
#
# Compressibility (1/GPa) = 0.02782943
#
# Stress axis : x y z
#
# Youngs Moduli (GPa) = 54.19297 158.09170 66.35946
#
# Poissons Ratio (x) = 0.08762 0.17893
# Poissons Ratio (y) = 0.03004 0.18305
# Poissons Ratio (z) = 0.14612 0.43609
#
# Static dielectric constant tensor:
#      x y z
#    x 2.053540 0.000000 0.107300 
#    y 0.000000 1.934500 0.000000 
#    z 0.107300 0.000000 1.981540 
# 
# From -- ./inp_files/377751.got.cif
#   From: 2010.05.17/outbox.cif.g08.bks.cpg/sg12_189_cif.got.tgz:377751.got - 2010.06.03 13:09:07.
