data_PCOD9195991
_publ_section_title
;
Structure prediction by ZEFSAII (Michael W. Deem and Ramdas Pophale) SiO2 
 PCOD9195991
Probable space group: C 2/M
;
_chemical_formula_sum "Si O2"
_cell_formula_units_Z 56
_cell_length_a 20.528666
_cell_length_b 7.538176
_cell_length_c 19.047256
_cell_angle_alpha 90.000000
_cell_angle_beta 131.467526
_cell_angle_gamma 90.000000
_cell_volume 2208.682107
_symmetry_space_group_name_H-M "C 2/M"
_symmetry_group_IT_number 12
_symmetry_cell_setting 'monoclinic'
loop_
_space_group_symop_operation_xyz
x,y,z
-x,y,-z
-x,-y,-z
x,-y,z
1/2+x,1/2+y,z
1/2-x,1/2+y,-z
1/2-x,1/2-y,-z
1/2+x,1/2-y,z
loop_
_atom_site_type_symbol
_atom_site_label
_atom_site_fract_x
_atom_site_fract_y
_atom_site_fract_z
Si Si1 0.797590 0.216905 0.694336
Si Si2 0.444465 0.290916 0.177945
Si Si3 0.734927 0.189244 0.910429
Si Si4 0.007677 0.710969 0.426663
Si Si5 0.873743 0.206443 0.610269
Si Si6 0.179728 0.281434 0.733343
Si Si7 0.527539 0.284488 0.096878
O O1 0.805149 0.280998 0.618629
O O2 0.715107 0.267787 0.681936
O O3 0.880949 0.270360 0.802041
O O4 0.800010 0.000000 0.692271
O O5 0.422031 0.500000 0.165548
O O6 0.369784 0.180828 0.160721
O O7 0.536844 0.270130 0.281367
O O8 0.456028 0.238695 0.104829
O O9 0.743498 0.283141 0.841494
O O10 0.780061 0.000000 0.936039
O O11 0.750000 0.250000 0.000000
O O12 0.996463 0.500000 0.422613
O O13 0.919081 0.782232 0.328465
O O14 0.000000 0.780343 0.500000
O O15 0.095313 0.733802 0.444379
O O16 0.854295 0.000000 0.589174
O O17 0.183609 0.500000 0.739121
O O18 0.531770 0.500000 0.097112
O O19 0.500000 0.221919 0.000000
#
# Coordination Sequence:
#
# PCOD9195991 Si02
#       7
#     8   8   8   8   8   8   8
#     4   8  15  28  47  72  99 130 169 212 257 301
#     4   9  17  30  48  72  98 129 168 210 257 302
#     4  11  22  33  49  73 102 139 177 213 256 303
#     4  10  20  35  56  80 105 136 174 212 254 312
#     4   9  17  32  54  78 103 130 164 214 263 304
#     4   9  18  33  52  75 102 135 175 216 257 305
#     4   8  14  23  41  69  96 123 164 214 251 286
#
# _framework density 25.354485
#
# number of rings (size 3 to 8) (size 9 to 14) (size 15 to 20)
#    0.000    2.857    1.429    2.143    2.000    0.286 
#    0.000    0.714    0.000    3.000    0.000    0.000 
#    0.000    0.000    0.000    0.000    0.000    0.000 
#
# Total GULP energy -156077.877313 kJ/mol
# GULP energy per Si atom -5574.209904 kJ/mol
# Density = 2.529678 g / cm^3
# Si number density = 25.354485 Si / 1000 Ang^3
#
#
#
# Elastic Constant Matrix: (Units=GPa)
#
#
# Indices 1 2 3 4 5 6 
#
# 1 129.5197 -1.4465 37.0555 0.0000 -37.2377 0.0000
# 2 -1.4465 44.7789 2.6833 0.0000 -2.9592 0.0000
# 3 37.0555 2.6833 114.8191 0.0000 -42.2304 0.0000
# 4 0.0000 0.0000 0.0000 -2.1025 0.0000 3.6767
# 5 -37.2377 -2.9592 -42.2304 0.0000 51.3622 0.0000
# 6 0.0000 0.0000 0.0000 3.6767 0.0000 8.0027
#
#
#
# Elastic Compliance Matrix: (Units=1/GPa)
#
#
# Indices 1 2 3 4 5 6 
#
# 1 0.009832 0.000796 -0.000793 0.000000 0.006522 0.000000
# 2 0.000796 0.022482 -0.000134 0.000000 0.001762 0.000000
# 3 -0.000793 -0.000134 0.012549 0.000000 0.009735 0.000000
# 4 0.000000 0.000000 0.000000 -0.263737 0.000000 0.121169
# 5 0.006522 0.001762 0.009735 0.000000 0.032304 0.000000
# 6 0.000000 0.000000 0.000000 0.121169 0.000000 0.069290
#
#
# Mechanical properties :
#
#
# Convention : Reuss Voigt Hill
#
# Bulk Modulus (GPa) = 22.42101 40.63358 31.52729
# Shear Modulus (GPa) = -48.94696 28.17417 -10.38640
#
# Velocity S-wave (km/s) = -4.39852 3.33710 -2.02617
# Velocity P-wave (km/s) = 4.11506 5.55961 2.64344
#
# Compressibility (1/GPa) = 0.04460103
#
# Stress axis : x y z
#
# Youngs Moduli (GPa) = 101.71231 44.47971 79.68755
#
# Poissons Ratio (x) = -0.03541 0.06317
# Poissons Ratio (y) = -0.08097 0.01070
# Poissons Ratio (z) = 0.08064 0.00597
#
# Static dielectric constant tensor:
#      x y z
#    x 2.028770 0.000000 -0.038300 
#    y 0.000000 1.897900 0.000000 
#    z -0.038300 0.000000 2.118760 
# 
# From -- ./inp_files/281640.got.cif
#   From: 2010.05.17/outbox.cif.g08.bks.cpg/sg12_141_cif.got.tgz:281640.got - 2010.06.03 13:09:07.
