data_PCOD9195821
_publ_section_title
;
Structure prediction by ZEFSAII (Michael W. Deem and Ramdas Pophale) SiO2 
 PCOD9195821
Probable space group: C 2/M
;
_chemical_formula_sum "Si O2"
_cell_formula_units_Z 56
_cell_length_a 23.295423
_cell_length_b 14.542973
_cell_length_c 9.044341
_cell_angle_alpha 90.000000
_cell_angle_beta 128.844543
_cell_angle_gamma 90.000000
_cell_volume 2386.463972
_symmetry_space_group_name_H-M "C 2/M"
_symmetry_group_IT_number 12
_symmetry_cell_setting 'monoclinic'
loop_
_space_group_symop_operation_xyz
x,y,z
-x,y,-z
-x,-y,-z
x,-y,z
1/2+x,1/2+y,z
1/2-x,1/2+y,-z
1/2-x,1/2-y,-z
1/2+x,1/2-y,z
loop_
_atom_site_type_symbol
_atom_site_label
_atom_site_fract_x
_atom_site_fract_y
_atom_site_fract_z
Si Si1 0.461713 0.390662 0.136292
Si Si2 0.361280 0.102337 0.005077
Si Si3 0.882936 0.900124 0.303881
Si Si4 0.739343 0.150587 0.908978
Si Si5 0.181453 0.212828 0.225223
Si Si6 0.891858 0.220939 0.598443
Si Si7 0.523848 0.893592 0.371225
O O1 0.464461 0.500000 0.108349
O O2 0.445934 0.379705 0.286425
O O3 0.537314 0.337415 0.228599
O O4 0.391754 0.341797 0.948954
O O5 0.332894 0.111669 0.129539
O O6 0.448999 0.111872 0.153984
O O7 0.341081 0.000000 0.920443
O O8 0.327167 0.183907 0.853268
O O9 0.872645 0.825532 0.412288
O O10 0.896510 0.000000 0.395079
O O11 0.808783 0.903799 0.087109
O O12 0.751788 0.163342 0.754607
O O13 0.750000 0.250000 0.000000
O O14 0.172962 0.213403 0.387114
O O15 0.919178 0.323297 0.607937
O O16 0.500000 0.866723 0.500000
O O17 0.548172 0.000000 0.413983
#
# Coordination Sequence:
#
# PCOD9195821 Si02
#       7
#     8   8   8   8   8   8   8
#     4  10  20  35  55  81 119 161 201 238 286 357
#     4  10  20  39  65  85 112 158 207 251 292 349
#     4  10  21  37  59  87 116 157 202 241 293 359
#     4   9  20  39  63  84 110 151 205 245 286 347
#     4  10  22  37  54  92 120 154 196 244 304 358
#     4  12  22  34  58  88 129 155 188 245 309 360
#     4  10  22  37  60  91 120 157 204 250 299 353
#
# _framework density 23.465678
#
# number of rings (size 3 to 8) (size 9 to 14) (size 15 to 20)
#    0.000    1.857    1.429    2.571    4.000    4.000 
#    0.000    4.286    0.000    0.000    0.000    0.000 
#    0.000    0.000    0.000    0.000    0.000    0.000 
#
# Total GULP energy -156633.428772 kJ/mol
# GULP energy per Si atom -5594.051028 kJ/mol
# Density = 2.341227 g / cm^3
# Si number density = 23.465678 Si / 1000 Ang^3
#
#
#
# Elastic Constant Matrix: (Units=GPa)
#
#
# Indices 1 2 3 4 5 6 
#
# 1 140.3686 44.7381 27.4210 0.0000 -23.7939 0.0000
# 2 44.7381 124.4950 19.5956 0.0000 -14.0362 0.0000
# 3 27.4210 19.5956 42.7482 0.0000 -13.4324 0.0000
# 4 0.0000 0.0000 0.0000 7.4748 0.0000 14.7327
# 5 -23.7939 -14.0362 -13.4324 0.0000 40.6451 0.0000
# 6 0.0000 0.0000 0.0000 14.7327 0.0000 -2.1081
#
#
#
# Elastic Compliance Matrix: (Units=1/GPa)
#
#
# Indices 1 2 3 4 5 6 
#
# 1 0.009164 -0.002326 -0.003770 0.000000 0.003315 0.000000
# 2 -0.002326 0.009377 -0.002474 0.000000 0.001059 0.000000
# 3 -0.003770 -0.002474 0.028994 0.000000 0.006521 0.000000
# 4 0.000000 0.000000 0.000000 0.009055 0.000000 0.063282
# 5 0.003315 0.001059 0.006521 0.000000 0.029065 0.000000
# 6 0.000000 0.000000 0.000000 0.063282 0.000000 -0.032107
#
#
# Mechanical properties :
#
#
# Convention : Reuss Voigt Hill
#
# Bulk Modulus (GPa) = 32.89969 54.56903 43.73436
# Shear Modulus (GPa) = 61.86618 23.59282 42.72950
#
# Velocity S-wave (km/s) = 5.14021 3.17427 4.27187
# Velocity P-wave (km/s) = 7.01996 6.06135 6.55819
#
# Compressibility (1/GPa) = 0.03039543
#
# Stress axis : x y z
#
# Youngs Moduli (GPa) = 109.12362 106.64343 34.48979
#
# Poissons Ratio (x) = 0.24804 0.13004
# Poissons Ratio (y) = 0.25381 0.08532
# Poissons Ratio (z) = 0.41143 0.26380
#
# Static dielectric constant tensor:
#      x y z
#    x 1.908030 0.000000 0.011730 
#    y 0.000000 1.905690 0.000000 
#    z 0.011730 0.000000 1.937440 
# 
# From -- ./inp_files/104738.got.cif
#   From: 2010.05.17/outbox.cif.g08.bks.cpg/sg12_53_cif.got.tgz:104738.got - 2010.06.03 13:09:07.
