data_PCOD9195279
_publ_section_title
;
Structure prediction by ZEFSAII (Michael W. Deem and Ramdas Pophale) SiO2 
 PCOD9195279
Probable space group: C 2/M
;
_chemical_formula_sum "Si O2"
_cell_formula_units_Z 56
_cell_length_a 15.036515
_cell_length_b 7.588076
_cell_length_c 25.433659
_cell_angle_alpha 90.000000
_cell_angle_beta 120.817311
_cell_angle_gamma 90.000000
_cell_volume 2492.196888
_symmetry_space_group_name_H-M "C 2/M"
_symmetry_group_IT_number 12
_symmetry_cell_setting 'monoclinic'
loop_
_space_group_symop_operation_xyz
x,y,z
-x,y,-z
-x,-y,-z
x,-y,z
1/2+x,1/2+y,z
1/2-x,1/2+y,-z
1/2-x,1/2-y,-z
1/2+x,1/2-y,z
loop_
_atom_site_type_symbol
_atom_site_label
_atom_site_fract_x
_atom_site_fract_y
_atom_site_fract_z
Si Si1 0.421357 0.284105 0.320222
Si Si2 0.905738 0.296382 0.005162
Si Si3 0.755265 0.784622 0.423158
Si Si4 0.203125 0.712083 0.288593
Si Si5 0.025264 0.795187 0.777542
Si Si6 0.183932 0.703837 0.913430
Si Si7 0.424461 0.702956 0.548783
O O1 0.428240 0.500000 0.324599
O O2 0.301432 0.234236 0.284096
O O3 0.472909 0.224106 0.281632
O O4 0.479356 0.218563 0.390215
O O5 0.935424 0.500000 0.024237
O O6 0.796317 0.290628 0.941376
O O7 0.876519 0.220673 0.053799
O O8 0.000000 0.217559 0.000000
O O9 0.729207 0.731735 0.356198
O O10 0.667337 0.711283 0.435324
O O11 0.867303 0.725987 0.479583
O O12 0.752887 0.000000 0.425472
O O13 0.198968 0.500000 0.287422
O O14 0.091449 0.777131 0.237533
O O15 0.109531 0.712994 0.841133
O O16 0.052508 0.000000 0.782618
O O17 0.206829 0.500000 0.932040
O O18 0.451146 0.500000 0.545087
#
# Coordination Sequence:
#
# PCOD9195279 Si02
#       7
#     8   8   8   8   8   8   8
#     4   9  19  34  53  74 101 140 181 221 268 327
#     4   9  19  38  63  89 117 148 180 214 258 312
#     4   9  17  28  49  76  99 127 168 225 278 322
#     4  10  20  35  53  76 103 135 180 229 276 319
#     4  11  22  38  56  76 108 149 185 218 263 319
#     4  10  21  37  59  87 116 146 180 221 263 303
#     4   9  16  30  50  72  99 132 172 215 272 335
#
# _framework density 22.470134000000002
#
# number of rings (size 3 to 8) (size 9 to 14) (size 15 to 20)
#    0.000    2.429    1.429    0.857    0.000    2.571 
#    0.000   10.714    0.000    0.000    0.000    5.000 
#    0.000    0.000    0.000    0.000    0.000    0.000 
#
# Total GULP energy -156290.841832 kJ/mol
# GULP energy per Si atom -5581.815780 kJ/mol
# Density = 2.241899 g / cm^3
# Si number density = 22.470134 Si / 1000 Ang^3
#
#
#
# Elastic Constant Matrix: (Units=GPa)
#
#
# Indices 1 2 3 4 5 6 
#
# 1 114.7321 -2.5794 28.0184 0.0000 15.8286 0.0000
# 2 -2.5794 54.5057 -0.8876 0.0000 -6.3280 0.0000
# 3 28.0184 -0.8876 94.1105 0.0000 24.3858 0.0000
# 4 0.0000 0.0000 0.0000 -0.2484 0.0000 -16.3730
# 5 15.8286 -6.3280 24.3858 0.0000 20.0709 0.0000
# 6 0.0000 0.0000 0.0000 -16.3730 0.0000 -16.8598
#
#
#
# Elastic Compliance Matrix: (Units=1/GPa)
#
#
# Indices 1 2 3 4 5 6 
#
# 1 0.009900 -0.000284 -0.001319 0.000000 -0.006294 0.000000
# 2 -0.000284 0.019316 -0.001999 0.000000 0.008742 0.000000
# 3 -0.001319 -0.001999 0.015899 0.000000 -0.018906 0.000000
# 4 0.000000 0.000000 0.000000 0.063890 0.000000 -0.062045
# 5 -0.006294 0.008742 -0.018906 0.000000 0.080514 0.000000
# 6 0.000000 0.000000 0.000000 -0.062045 0.000000 0.000941
#
#
# Mechanical properties :
#
#
# Convention : Reuss Voigt Hill
#
# Bulk Modulus (GPa) = 26.37714 34.71679 30.54696
# Shear Modulus (GPa) = 23.77552 16.51233 20.14392
#
# Velocity S-wave (km/s) = 3.25636 2.71377 2.99737
# Velocity P-wave (km/s) = 5.08948 5.03022 5.05993
#
# Compressibility (1/GPa) = 0.03791162
#
# Stress axis : x y z
#
# Youngs Moduli (GPa) = 101.00922 51.77155 62.89817
#
# Poissons Ratio (x) = 0.01469 0.08297
# Poissons Ratio (y) = 0.02866 0.12570
# Poissons Ratio (z) = 0.13325 0.10347
#
# Static dielectric constant tensor:
#      x y z
#    x 1.837120 0.000000 -0.013230 
#    y 0.000000 1.944620 0.000000 
#    z -0.013230 0.000000 1.819900 
# 
# From -- ./inp_files/339058.got.cif
#   From: 2010.05.17/outbox.cif.g08.bks.cpg/sg12_170_cif.got.tgz:339058.got - 2010.06.03 13:09:07.
