data_PCOD9195751
_publ_section_title
;
Structure prediction by ZEFSAII (Michael W. Deem and Ramdas Pophale) SiO2 
 PCOD9195751
Probable space group: C 2/M
;
_chemical_formula_sum "Si O2"
_cell_formula_units_Z 64
_cell_length_a 5.082779
_cell_length_b 29.232871
_cell_length_c 24.760074
_cell_angle_alpha 90.000000
_cell_angle_beta 52.290149
_cell_angle_gamma 90.000000
_cell_volume 2910.489990
_symmetry_space_group_name_H-M "C 2/M"
_symmetry_group_IT_number 12
_symmetry_cell_setting 'monoclinic'
loop_
_space_group_symop_operation_xyz
x,y,z
-x,y,-z
-x,-y,-z
x,-y,z
1/2+x,1/2+y,z
1/2-x,1/2+y,-z
1/2-x,1/2-y,-z
1/2+x,1/2-y,z
loop_
_atom_site_type_symbol
_atom_site_label
_atom_site_fract_x
_atom_site_fract_y
_atom_site_fract_z
Si Si1 0.680805 0.779046 0.813924
Si Si2 0.722241 0.852191 0.072908
Si Si3 0.225487 0.086647 0.072698
Si Si4 0.371812 0.852990 0.454623
Si Si5 0.275417 0.055083 0.290896
Si Si6 0.057044 0.449338 0.428726
Si Si7 0.492166 0.554253 0.217035
Si Si8 0.868202 0.779737 0.346072
O O1 0.440657 0.737454 0.826429
O O2 0.446517 0.819399 0.863165
O O3 0.901700 0.791344 0.734131
O O4 0.432940 0.870786 0.070646
O O5 0.917259 0.894494 0.076627
O O6 0.000000 0.828979 0.000000
O O7 0.108397 0.061250 0.141234
O O8 0.500000 0.062228 0.000000
O O9 0.500000 0.855679 0.500000
O O10 0.360394 0.904973 0.433415
O O11 0.638344 0.821842 0.391071
O O12 0.000000 0.833570 0.500000
O O13 0.620317 0.073790 0.270088
O O14 0.940828 0.061367 0.366795
O O15 0.217207 0.072970 0.237248
O O16 0.320647 0.000000 0.282912
O O17 0.973904 0.500000 0.415747
O O18 0.000000 0.452664 0.500000
O O19 0.484120 0.500000 0.227571
O O20 0.619368 0.738647 0.360064
#
# Coordination Sequence:
#
# PCOD9195751 Si02
#       8
#     8   8   8   8   8   8   8   8
#     4  10  21  38  60  86 113 143 183 226 277 338
#     4  10  21  37  56  82 115 147 183 227 277 339
#     4  10  21  36  54  79 113 152 190 230 283 339
#     4  11  24  39  59  88 114 148 198 235 280 349
#     4   9  19  35  55  80 109 144 187 235 290 344
#     4   9  20  40  62  86 121 157 191 240 293 343
#     4  10  20  35  55  80 109 144 193 243 280 328
#     4  10  22  40  60  84 117 151 187 239 290 337
#
# _framework density 21.989422000000001
#
# number of rings (size 3 to 8) (size 9 to 14) (size 15 to 20)
#    0.000    2.125    0.000    2.250    0.000    6.500 
#    0.000    3.750    0.000    4.500    0.000    0.000 
#    0.000    0.000    0.000    0.000    0.000    0.000 
#
# Total GULP energy -178697.631969 kJ/mol
# GULP energy per Si atom -5584.300999 kJ/mol
# Density = 2.193937 g / cm^3
# Si number density = 21.989422 Si / 1000 Ang^3
#
#
#
# Elastic Constant Matrix: (Units=GPa)
#
#
# Indices 1 2 3 4 5 6 
#
# 1 74.9334 5.0956 22.0551 0.0000 -8.2746 0.0000
# 2 5.0956 42.9504 26.6173 0.0000 -3.9565 0.0000
# 3 22.0551 26.6173 86.0159 0.0000 -13.5031 0.0000
# 4 0.0000 0.0000 0.0000 12.8430 0.0000 -0.1249
# 5 -8.2746 -3.9565 -13.5031 0.0000 29.9922 0.0000
# 6 0.0000 0.0000 0.0000 -0.1249 0.0000 12.3266
#
#
#
# Elastic Compliance Matrix: (Units=1/GPa)
#
#
# Indices 1 2 3 4 5 6 
#
# 1 0.014627 0.000713 -0.003575 0.000000 0.002520 0.000000
# 2 0.000713 0.028843 -0.009125 0.000000 -0.000107 0.000000
# 3 -0.003575 -0.009125 0.016165 0.000000 0.005088 0.000000
# 4 0.000000 0.000000 0.000000 0.077871 0.000000 0.000789
# 5 0.002520 -0.000107 0.005088 0.000000 0.036314 0.000000
# 6 0.000000 0.000000 0.000000 0.000789 0.000000 0.081133
#
#
# Mechanical properties :
#
#
# Convention : Reuss Voigt Hill
#
# Bulk Modulus (GPa) = 28.04279 34.60397 31.32338
# Shear Modulus (GPa) = 17.19303 21.04114 19.11708
#
# Velocity S-wave (km/s) = 2.79924 3.09670 2.95172
# Velocity P-wave (km/s) = 4.81956 5.34386 5.08847
#
# Compressibility (1/GPa) = 0.03565979
#
# Stress axis : x y z
#
# Youngs Moduli (GPa) = 68.36506 34.67019 61.86262
#
# Poissons Ratio (x) = -0.02470 0.22119
# Poissons Ratio (y) = -0.04871 0.56449
# Poissons Ratio (z) = 0.24444 0.31636
#
# Static dielectric constant tensor:
#      x y z
#    x 1.796650 0.000000 0.012850 
#    y 0.000000 1.798730 0.000000 
#    z 0.012850 0.000000 1.828280 
# 
# From -- ./inp_files/355267.got.cif
#   From: 2010.05.17/outbox.cif.g08.bks.cpg/sg12_178_cif.got.tgz:355267.got - 2010.06.03 13:09:07.
