data_PCOD9195282
_publ_section_title
;
Structure prediction by ZEFSAII (Michael W. Deem and Ramdas Pophale) SiO2 
 PCOD9195282
Probable space group: C 2/M
;
_chemical_formula_sum "Si O2"
_cell_formula_units_Z 64
_cell_length_a 28.741606
_cell_length_b 8.740586
_cell_length_c 23.136389
_cell_angle_alpha 90.000000
_cell_angle_beta 37.926630
_cell_angle_gamma 90.000000
_cell_volume 3572.534056
_symmetry_space_group_name_H-M "C 2/M"
_symmetry_group_IT_number 12
_symmetry_cell_setting 'monoclinic'
loop_
_space_group_symop_operation_xyz
x,y,z
-x,y,-z
-x,-y,-z
x,-y,z
1/2+x,1/2+y,z
1/2-x,1/2+y,-z
1/2-x,1/2-y,-z
1/2+x,1/2-y,z
loop_
_atom_site_type_symbol
_atom_site_label
_atom_site_fract_x
_atom_site_fract_y
_atom_site_fract_z
Si Si1 0.668189 0.184141 0.789080
Si Si2 0.640664 0.182890 0.947556
Si Si3 0.529401 0.684791 0.608498
Si Si4 0.184169 0.816405 0.024647
Si Si5 0.986468 0.185406 0.776224
Si Si6 0.976332 0.183583 0.133470
Si Si7 0.427641 0.825202 0.614219
Si Si8 0.665955 0.684286 0.392940
O O1 0.671997 0.220771 0.853514
O O2 0.595673 0.260755 0.831385
O O3 0.747571 0.231779 0.682553
O O4 0.660272 0.000000 0.791948
O O5 0.641122 0.000000 0.954005
O O6 0.684904 0.256711 0.958012
O O7 0.554369 0.243329 0.034546
O O8 0.529574 0.500000 0.607860
O O9 0.521898 0.740077 0.681541
O O10 0.457664 0.740686 0.641559
O O11 0.605622 0.736204 0.500520
O O12 0.101464 0.769616 0.130443
O O13 0.187752 0.000000 0.020916
O O14 0.250000 0.750000 0.000000
O O15 0.028550 0.229545 0.794041
O O16 0.987342 0.000000 0.773502
O O17 0.983246 0.000000 0.123424
O O18 0.500000 0.824767 0.500000
O O19 0.363134 0.742955 0.640565
O O20 0.407417 0.000000 0.646756
O O21 0.663936 0.500000 0.393700
#
# Coordination Sequence:
#
# PCOD9195282 Si02
#       8
#     8   8   8   8   8   8   8   8
#     4  10  21  35  51  74 102 130 162 205 254 295
#     4  10  20  35  54  74 100 133 166 202 247 297
#     4   9  16  31  54  72  92 129 171 201 233 288
#     4  10  20  35  53  76 107 136 166 204 246 293
#     4   8  17  33  52  73  96 127 165 204 244 288
#     4  10  20  35  54  75  99 127 164 207 250 299
#     4   9  17  29  45  68  99 128 156 197 245 285
#     4   9  18  32  50  72  97 128 167 203 236 287
#
# _framework density 17.914456000000001
#
# number of rings (size 3 to 8) (size 9 to 14) (size 15 to 20)
#    0.000    2.625    0.000    2.625    0.000    5.500 
#    0.000    9.375    0.000    0.000    0.000    0.000 
#    0.000    0.000    0.000    0.000    0.000    0.000 
#
# Total GULP energy -178433.201089 kJ/mol
# GULP energy per Si atom -5576.037534 kJ/mol
# Density = 1.787368 g / cm^3
# Si number density = 17.914456 Si / 1000 Ang^3
#
#
#
# Elastic Constant Matrix: (Units=GPa)
#
#
# Indices 1 2 3 4 5 6 
#
# 1 119.4685 34.2694 54.6585 -0.0053 -1.5849 0.0064
# 2 34.2694 29.6886 26.3072 -0.0033 2.8007 0.0044
# 3 54.6585 26.3072 75.2421 -0.0074 16.3204 0.0061
# 4 -0.0053 -0.0033 -0.0074 15.1684 0.0035 1.2281
# 5 -1.5849 2.8007 16.3204 0.0035 25.1444 -0.0019
# 6 0.0064 0.0044 0.0061 1.2281 -0.0019 25.0729
#
#
#
# Elastic Compliance Matrix: (Units=1/GPa)
#
#
# Indices 1 2 3 4 5 6 
#
# 1 0.015992 -0.010622 -0.009751 -0.000004 0.008520 0.000001
# 2 -0.010622 0.056807 -0.012369 0.000003 0.001031 -0.000004
# 3 -0.009751 -0.012369 0.028553 0.000012 -0.017770 -0.000004
# 4 -0.000004 0.000003 0.000012 0.066189 -0.000018 -0.003242
# 5 0.008520 0.001031 -0.017770 -0.000018 0.051726 0.000007
# 6 0.000001 -0.000004 -0.000004 -0.003242 0.000007 0.040043
#
#
# Mechanical properties :
#
#
# Convention : Reuss Voigt Hill
#
# Bulk Modulus (GPa) = 27.88076 50.54104 39.21090
# Shear Modulus (GPa) = 14.84780 20.35476 17.60128
#
# Velocity S-wave (km/s) = 2.88204 3.37444 3.13792
# Velocity P-wave (km/s) = 5.16449 6.59213 5.92149
#
# Compressibility (1/GPa) = 0.03586703
#
# Stress axis : x y z
#
# Youngs Moduli (GPa) = 62.53231 17.60333 35.02270
#
# Poissons Ratio (x) = 0.18699 0.34151
# Poissons Ratio (y) = 0.66425 0.43320
# Poissons Ratio (z) = 0.60976 0.21774
#
# Static dielectric constant tensor:
#      x y z
#    x 1.589420 0.000000 0.009510 
#    y 0.000000 1.605960 0.000000 
#    z 0.009510 0.000000 1.629690 
# 
# From -- ./inp_files/324141.got.cif
#   From: 2010.05.17/outbox.cif.g08.bks.cpg/sg12_163_cif.got.tgz:324141.got - 2010.06.03 13:09:07.
