data_PCOD9195697
_publ_section_title
;
Structure prediction by ZEFSAII (Michael W. Deem and Ramdas Pophale) SiO2 
 PCOD9195697
Probable space group: C 2/M
;
_chemical_formula_sum "Si O2"
_cell_formula_units_Z 56
_cell_length_a 14.322214
_cell_length_b 9.041489
_cell_length_c 19.665265
_cell_angle_alpha 90.000000
_cell_angle_beta 77.850698
_cell_angle_gamma 90.000000
_cell_volume 2489.500537
_symmetry_space_group_name_H-M "C 2/M"
_symmetry_group_IT_number 12
_symmetry_cell_setting 'monoclinic'
loop_
_space_group_symop_operation_xyz
x,y,z
-x,y,-z
-x,-y,-z
x,-y,z
1/2+x,1/2+y,z
1/2-x,1/2+y,-z
1/2-x,1/2-y,-z
1/2+x,1/2-y,z
loop_
_atom_site_type_symbol
_atom_site_label
_atom_site_fract_x
_atom_site_fract_y
_atom_site_fract_z
Si Si1 0.351739 0.328129 0.899405
Si Si2 0.450438 0.826674 0.433758
Si Si3 0.208350 0.165688 0.745899
Si Si4 0.875326 0.824578 0.656483
Si Si5 0.769940 0.168310 0.411904
Si Si6 0.965963 0.669666 0.158297
Si Si7 0.141166 0.329908 0.960183
O O1 0.373182 0.500000 0.886490
O O2 0.429045 0.233528 0.847504
O O3 0.239707 0.303085 0.903413
O O4 0.361416 0.282756 0.977472
O O5 0.500000 0.813410 0.500000
O O6 0.522993 0.753772 0.368236
O O7 0.348352 0.745850 0.446249
O O8 0.438826 0.000000 0.420201
O O9 0.305968 0.261674 0.726453
O O10 0.181738 0.153919 0.670092
O O11 0.118260 0.238653 0.794860
O O12 0.227507 0.000000 0.768789
O O13 0.817305 0.773102 0.597456
O O14 0.884130 0.000000 0.659348
O O15 0.741800 0.000000 0.436679
O O16 0.959275 0.500000 0.180616
O O17 0.943456 0.677450 0.080780
O O18 0.146961 0.500000 0.985673
#
# Coordination Sequence:
#
# PCOD9195697 Si02
#       7
#     8   8   8   8   8   8   8
#     4  10  20  35  55  79 109 144 181 230 284 331
#     4  11  23  38  60  90 119 150 192 235 278 336
#     4   9  20  39  59  81 112 147 189 236 280 334
#     4  10  20  38  61  84 114 152 187 229 285 337
#     4   9  20  39  60  83 114 151 187 233 283 332
#     4  11  21  35  56  81 108 145 187 228 277 336
#     4   9  20  37  54  77 110 144 181 226 278 337
#
# _framework density 22.494471000000001
#
# number of rings (size 3 to 8) (size 9 to 14) (size 15 to 20)
#    0.857    1.286    0.000    3.429    0.000    5.143 
#    2.571    0.000    0.000    0.000    0.000    0.000 
#    0.000    0.000    0.000    0.000    0.000    0.000 
#
# Total GULP energy -156324.531737 kJ/mol
# GULP energy per Si atom -5583.018991 kJ/mol
# Density = 2.244327 g / cm^3
# Si number density = 22.494471 Si / 1000 Ang^3
#
#
#
# Elastic Constant Matrix: (Units=GPa)
#
#
# Indices 1 2 3 4 5 6 
#
# 1 88.2195 31.3474 -2.1664 0.0000 -14.3132 0.0000
# 2 31.3474 130.6585 13.2671 0.0000 -18.2371 0.0000
# 3 -2.1664 13.2671 41.5090 0.0000 -19.8163 0.0000
# 4 0.0000 0.0000 0.0000 28.1790 0.0000 -5.1181
# 5 -14.3132 -18.2371 -19.8163 0.0000 39.7175 0.0000
# 6 0.0000 0.0000 0.0000 -5.1181 0.0000 25.0225
#
#
#
# Elastic Compliance Matrix: (Units=1/GPa)
#
#
# Indices 1 2 3 4 5 6 
#
# 1 0.013375 -0.002857 0.004313 0.000000 0.005660 0.000000
# 2 -0.002857 0.008825 -0.002004 0.000000 0.002023 0.000000
# 3 0.004313 -0.002004 0.033157 0.000000 0.017177 0.000000
# 4 0.000000 0.000000 0.000000 0.036857 0.000000 0.007539
# 5 0.005660 0.002023 0.017177 0.000000 0.036717 0.000000
# 6 0.000000 0.000000 0.000000 0.007539 0.000000 0.041506
#
#
# Mechanical properties :
#
#
# Convention : Reuss Voigt Hill
#
# Bulk Modulus (GPa) = 18.42922 38.36480 28.39701
# Shear Modulus (GPa) = 26.36874 33.11305 29.74090
#
# Velocity S-wave (km/s) = 3.42750 3.84090 3.64007
# Velocity P-wave (km/s) = 4.88613 6.06319 5.50620
#
# Compressibility (1/GPa) = 0.05426167
#
# Stress axis : x y z
#
# Youngs Moduli (GPa) = 74.76779 113.31767 30.15933
#
# Poissons Ratio (x) = 0.32372 -0.13009
# Poissons Ratio (y) = 0.21359 0.06044
# Poissons Ratio (z) = -0.32250 0.22709
#
# Static dielectric constant tensor:
#      x y z
#    x 1.830950 0.000000 -0.004900 
#    y 0.000000 1.788820 0.000000 
#    z -0.004900 0.000000 1.902200 
# 
# From -- ./inp_files/337890.got.cif
#   From: 2010.05.17/outbox.cif.g08.bks.cpg/sg12_169_cif.got.tgz:337890.got - 2010.06.03 13:09:07.
