data_PCOD9195297
_publ_section_title
;
Structure prediction by ZEFSAII (Michael W. Deem and Ramdas Pophale) SiO2 
 PCOD9195297
Probable space group: C 2/M
;
_chemical_formula_sum "Si O2"
_cell_formula_units_Z 56
_cell_length_a 19.333984
_cell_length_b 7.431326
_cell_length_c 21.462265
_cell_angle_alpha 90.000000
_cell_angle_beta 125.753366
_cell_angle_gamma 90.000000
_cell_volume 2502.493560
_symmetry_space_group_name_H-M "C 2/M"
_symmetry_group_IT_number 12
_symmetry_cell_setting 'monoclinic'
loop_
_space_group_symop_operation_xyz
x,y,z
-x,y,-z
-x,-y,-z
x,-y,z
1/2+x,1/2+y,z
1/2-x,1/2+y,-z
1/2-x,1/2-y,-z
1/2+x,1/2-y,z
loop_
_atom_site_type_symbol
_atom_site_label
_atom_site_fract_x
_atom_site_fract_y
_atom_site_fract_z
Si Si1 0.148646 0.719799 0.734455
Si Si2 0.844519 0.285398 0.528452
Si Si3 0.337960 0.720307 0.872167
Si Si4 0.157983 0.784657 0.982648
Si Si5 0.904608 0.718668 0.430601
Si Si6 0.476275 0.285887 0.843729
Si Si7 0.024352 0.715874 0.297576
O O1 0.149357 0.500000 0.735755
O O2 0.243331 0.776989 0.801895
O O3 0.124015 0.780354 0.652031
O O4 0.072274 0.778499 0.739807
O O5 0.859649 0.500000 0.533033
O O6 0.750000 0.250000 0.500000
O O7 0.851499 0.217535 0.461685
O O8 0.913083 0.216166 0.614852
O O9 0.339653 0.500000 0.872588
O O10 0.410505 0.781729 0.861735
O O11 0.349241 0.778127 0.949586
O O12 0.073345 0.716550 0.902652
O O13 0.152287 0.000000 0.981385
O O14 0.250000 0.750000 0.000000
O O15 0.901599 0.500000 0.425415
O O16 0.000000 0.767597 0.500000
O O17 0.479492 0.500000 0.854800
O O18 0.447109 0.257462 0.757401
O O19 0.023348 0.500000 0.302111
#
# Coordination Sequence:
#
# PCOD9195297 Si02
#       7
#     8   8   8   8   8   8   8
#     4   9  16  28  50  76 100 131 175 218 257 303
#     4  10  21  34  52  77 107 140 175 219 267 312
#     4   9  18  32  52  78 105 136 174 216 260 308
#     4  10  20  36  57  81 109 139 174 215 260 311
#     4   9  15  28  49  74 100 129 172 221 257 296
#     4  10  21  35  54  80 109 139 172 214 263 313
#     4  10  20  35  53  77 108 140 174 217 266 312
#
# _framework density 22.377680000000002
#
# number of rings (size 3 to 8) (size 9 to 14) (size 15 to 20)
#    0.000    2.429    1.429    1.286    2.000    4.000 
#    0.000    0.714    0.000    3.857    0.000    0.000 
#    0.000    0.000    0.000    0.000    0.000    0.000 
#
# Total GULP energy -156363.614954 kJ/mol
# GULP energy per Si atom -5584.414820 kJ/mol
# Density = 2.232675 g / cm^3
# Si number density = 22.377680 Si / 1000 Ang^3
#
#
#
# Elastic Constant Matrix: (Units=GPa)
#
#
# Indices 1 2 3 4 5 6 
#
# 1 140.3358 -0.8092 24.4777 0.0000 -17.3578 0.0000
# 2 -0.8092 69.7314 0.6765 0.0000 1.5171 0.0000
# 3 24.4777 0.6765 93.1511 0.0000 -13.2816 0.0000
# 4 0.0000 0.0000 0.0000 7.0960 0.0000 -0.3411
# 5 -17.3578 1.5171 -13.2816 0.0000 43.6335 0.0000
# 6 0.0000 0.0000 0.0000 -0.3411 0.0000 18.8870
#
#
#
# Elastic Compliance Matrix: (Units=1/GPa)
#
#
# Indices 1 2 3 4 5 6 
#
# 1 0.007734 0.000050 -0.001667 0.000000 0.002568 0.000000
# 2 0.000050 0.014355 -0.000194 0.000000 -0.000538 0.000000
# 3 -0.001667 -0.000194 0.011584 0.000000 0.002870 0.000000
# 4 0.000000 0.000000 0.000000 0.141047 0.000000 0.002547
# 5 0.002568 -0.000538 0.002870 0.000000 0.024832 0.000000
# 6 0.000000 0.000000 0.000000 0.002547 0.000000 0.052993
#
#
# Mechanical properties :
#
#
# Convention : Reuss Voigt Hill
#
# Bulk Modulus (GPa) = 33.27615 39.10092 36.18853
# Shear Modulus (GPa) = 18.78403 32.51485 25.64944
#
# Velocity S-wave (km/s) = 2.90040 3.81596 3.38924
# Velocity P-wave (km/s) = 5.11067 6.07672 5.61451
#
# Compressibility (1/GPa) = 0.03005156
#
# Stress axis : x y z
#
# Youngs Moduli (GPa) = 129.29331 69.66254 86.32772
#
# Poissons Ratio (x) = -0.00349 0.14388
# Poissons Ratio (y) = -0.00647 0.01676
# Poissons Ratio (z) = 0.21548 0.01353
#
# Static dielectric constant tensor:
#      x y z
#    x 1.530980 0.000000 0.088900 
#    y 0.000000 1.841790 0.000000 
#    z 0.088900 0.000000 1.760380 
# 
# From -- ./inp_files/268600.got.cif
#   From: 2010.05.17/outbox.cif.g08.bks.cpg/sg12_135_cif.got.tgz:268600.got - 2010.06.03 13:09:07.
