data_PCOD9195947
_publ_section_title
;
Structure prediction by ZEFSAII (Michael W. Deem and Ramdas Pophale) SiO2 
 PCOD9195947
Probable space group: C 2/M
;
_chemical_formula_sum "Si O2"
_cell_formula_units_Z 48
_cell_length_a 7.672857
_cell_length_b 12.396318
_cell_length_c 23.486075
_cell_angle_alpha 90.000000
_cell_angle_beta 107.104595
_cell_angle_gamma 90.000000
_cell_volume 2135.076262
_symmetry_space_group_name_H-M "C 2/M"
_symmetry_group_IT_number 12
_symmetry_cell_setting 'monoclinic'
loop_
_space_group_symop_operation_xyz
x,y,z
-x,y,-z
-x,-y,-z
x,-y,z
1/2+x,1/2+y,z
1/2-x,1/2+y,-z
1/2-x,1/2-y,-z
1/2+x,1/2-y,z
loop_
_atom_site_type_symbol
_atom_site_label
_atom_site_fract_x
_atom_site_fract_y
_atom_site_fract_z
Si Si1 0.969133 0.118148 0.152165
Si Si2 0.944404 0.340580 0.579865
Si Si3 0.449735 0.882212 0.288065
Si Si4 0.217412 0.623710 0.017194
Si Si5 0.188540 0.886568 0.451785
Si Si6 0.290470 0.201815 0.779989
O O1 0.827536 0.122845 0.086894
O O2 0.856022 0.133348 0.199648
O O3 0.107917 0.218120 0.165850
O O4 0.058305 0.000000 0.158678
O O5 0.940609 0.212333 0.572545
O O6 0.782227 0.378055 0.522882
O O7 0.930102 0.371983 0.643743
O O8 0.136968 0.380109 0.573429
O O9 0.567936 0.867217 0.242445
O O10 0.307111 0.784671 0.272637
O O11 0.362196 0.000000 0.280901
O O12 0.266714 0.500000 0.995814
O O13 0.250000 0.750000 0.000000
O O14 0.000000 0.618427 0.000000
O O15 0.093740 0.000000 0.435925
#
# Coordination Sequence:
#
# PCOD9195947 Si02
#       6
#     8   8   8   8   8   8
#     4  10  20  38  58  79 113 149 182 225 272 320
#     4  10  20  35  56  79 104 137 177 217 267 330
#     4  11  21  36  55  78 107 138 178 228 272 314
#     4  10  21  37  59  88 119 151 188 231 278 329
#     4  10  20  37  55  76 107 139 171 215 272 326
#     4  10  22  36  55  81 106 142 188 222 266 326
#
# _framework density 22.481632999999999
#
# number of rings (size 3 to 8) (size 9 to 14) (size 15 to 20)
#    0.000    1.833    0.000    5.000    0.000    0.333 
#    0.000   18.333    0.000    0.000    0.000    0.000 
#    0.000    0.000    0.000    0.000    0.000    0.000 
#
# Total GULP energy -133907.674423 kJ/mol
# GULP energy per Si atom -5579.486434 kJ/mol
# Density = 2.243046 g / cm^3
# Si number density = 22.481633 Si / 1000 Ang^3
#
#
#
# Elastic Constant Matrix: (Units=GPa)
#
#
# Indices 1 2 3 4 5 6 
#
# 1 26.1690 7.8423 -13.7606 0.0000 2.0766 0.0000
# 2 7.8423 185.2907 31.3011 0.0000 -2.3607 0.0000
# 3 -13.7606 31.3011 63.1864 0.0000 11.0418 0.0000
# 4 0.0000 0.0000 0.0000 -377.5544 0.0000 -602.1617
# 5 2.0766 -2.3607 11.0418 0.0000 18.4674 0.0000
# 6 0.0000 0.0000 0.0000 -602.1617 0.0000 -912.9958
#
#
#
# Elastic Compliance Matrix: (Units=1/GPa)
#
#
# Indices 1 2 3 4 5 6 
#
# 1 0.049353 -0.004987 0.015968 0.000000 -0.015734 0.000000
# 2 -0.004987 0.006525 -0.005094 0.000000 0.004441 0.000000
# 3 0.015968 -0.005094 0.024851 0.000000 -0.017306 0.000000
# 4 0.000000 0.000000 0.000000 0.051025 0.000000 -0.033653
# 5 -0.015734 0.004441 -0.017306 0.000000 0.066834 0.000000
# 6 0.000000 0.000000 0.000000 -0.033653 0.000000 0.021100
#
#
# Mechanical properties :
#
#
# Convention : Reuss Voigt Hill
#
# Bulk Modulus (GPa) = 10.81053 36.15684 23.48369
# Shear Modulus (GPa) = 20.94250 -237.79901 -108.42826
#
# Velocity S-wave (km/s) = 3.05542 -10.29584 -6.95230
# Velocity P-wave (km/s) = 4.15530 11.19024 7.34694
#
# Compressibility (1/GPa) = 0.09250240
#
# Stress axis : x y z
#
# Youngs Moduli (GPa) = 20.26237 153.25293 40.23909
#
# Poissons Ratio (x) = 0.76422 -0.64253
# Poissons Ratio (y) = 0.10104 0.20500
# Poissons Ratio (z) = -0.32354 0.78074
#
# Static dielectric constant tensor:
#      x y z
#    x 1.797400 0.000000 -0.012740 
#    y 0.000000 1.879360 0.000000 
#    z -0.012740 0.000000 1.803370 
# 
# From -- ./inp_files/332035.got.cif
#   From: 2010.05.17/outbox.cif.g08.bks.cpg/sg12_167_cif.got.tgz:332035.got - 2010.06.03 13:09:07.
