data_PCOD9195867
_publ_section_title
;
Structure prediction by ZEFSAII (Michael W. Deem and Ramdas Pophale) SiO2 
 PCOD9195867
Probable space group: C 2/M
;
_chemical_formula_sum "Si O2"
_cell_formula_units_Z 64
_cell_length_a 33.031770
_cell_length_b 8.023155
_cell_length_c 15.454130
_cell_angle_alpha 90.000000
_cell_angle_beta 133.626144
_cell_angle_gamma 90.000000
_cell_volume 2964.656876
_symmetry_space_group_name_H-M "C 2/M"
_symmetry_group_IT_number 12
_symmetry_cell_setting 'monoclinic'
loop_
_space_group_symop_operation_xyz
x,y,z
-x,y,-z
-x,-y,-z
x,-y,z
1/2+x,1/2+y,z
1/2-x,1/2+y,-z
1/2-x,1/2-y,-z
1/2+x,1/2-y,z
loop_
_atom_site_type_symbol
_atom_site_label
_atom_site_fract_x
_atom_site_fract_y
_atom_site_fract_z
Si Si1 0.775450 0.799589 0.446305
Si Si2 0.898850 0.202879 0.668680
Si Si3 0.383843 0.305292 0.015401
Si Si4 0.565298 0.703116 0.091381
Si Si5 0.234963 0.696008 0.204501
Si Si6 0.851864 0.694780 0.301853
Si Si7 0.949396 0.804136 0.570733
Si Si8 0.072199 0.694942 0.737813
O O1 0.750000 0.750000 0.500000
O O2 0.839599 0.742752 0.542463
O O3 0.742595 0.737194 0.313974
O O4 0.775961 0.000000 0.440581
O O5 0.907183 0.263814 0.778560
O O6 0.944806 0.248990 0.664947
O O7 0.898816 0.000000 0.673966
O O8 0.399248 0.500000 0.044109
O O9 0.406434 0.240091 0.956094
O O10 0.316996 0.285138 0.916735
O O11 0.410451 0.218366 0.137448
O O12 0.569063 0.500000 0.096578
O O13 0.500000 0.746295 0.000000
O O14 0.221409 0.500000 0.187159
O O15 0.295131 0.717809 0.248445
O O16 0.838057 0.500000 0.271766
O O17 0.901854 0.714704 0.444978
O O18 0.879005 0.760956 0.252943
O O19 0.012177 0.776072 0.632060
O O20 0.935948 0.000000 0.546708
O O21 0.065965 0.500000 0.708780
#
# Coordination Sequence:
#
# PCOD9195867 Si02
#       8
#     8   8   8   8   8   8   8   8
#     4  10  20  35  55  83 117 157 201 245 297 355
#     4   9  17  32  54  83 120 156 193 238 294 355
#     4  11  23  40  64  92 121 162 211 256 309 370
#     4   9  17  31  55  87 121 157 200 248 297 354
#     4  11  23  41  63  88 124 163 204 258 312 366
#     4  11  24  42  64  90 123 162 206 256 313 372
#     4  11  21  38  65  95 126 160 202 253 309 371
#     4  11  25  43  62  88 123 163 205 257 315 370
#
# _framework density 21.587658999999999
#
# number of rings (size 3 to 8) (size 9 to 14) (size 15 to 20)
#    0.000    1.625    1.250    3.750    0.000    8.000 
#    0.000    0.000    0.000    9.000    0.000    0.000 
#    0.000    0.000    0.000    0.000    0.000    0.000 
#
# Total GULP energy -178858.093692 kJ/mol
# GULP energy per Si atom -5589.315428 kJ/mol
# Density = 2.153852 g / cm^3
# Si number density = 21.587659 Si / 1000 Ang^3
#
#
#
# Elastic Constant Matrix: (Units=GPa)
#
#
# Indices 1 2 3 4 5 6 
#
# 1 101.6211 -0.4328 14.0910 0.0000 -5.4349 0.0000
# 2 -0.4328 17.6579 -8.4642 0.0000 -4.5963 0.0000
# 3 14.0910 -8.4642 70.8459 0.0000 -0.4741 0.0000
# 4 0.0000 0.0000 0.0000 15.0076 0.0000 -10.2623
# 5 -5.4349 -4.5963 -0.4741 0.0000 34.2066 0.0000
# 6 0.0000 0.0000 0.0000 -10.2623 0.0000 12.5023
#
#
#
# Elastic Compliance Matrix: (Units=1/GPa)
#
#
# Indices 1 2 3 4 5 6 
#
# 1 0.010207 -0.000334 -0.002060 0.000000 0.001548 0.000000
# 2 -0.000334 0.062457 0.007585 -0.000001 0.008444 -0.000001
# 3 -0.002060 0.007585 0.015437 0.000000 0.000906 0.000000
# 4 0.000000 -0.000001 0.000000 0.151882 0.000000 0.124669
# 5 0.001548 0.008444 0.000906 0.000000 0.030627 0.000000
# 6 0.000000 -0.000001 0.000000 0.124669 0.000000 0.182317
#
#
# Mechanical properties :
#
#
# Convention : Reuss Voigt Hill
#
# Bulk Modulus (GPa) = 10.15392 22.27922 16.21657
# Shear Modulus (GPa) = 10.51802 24.67204 17.59503
#
# Velocity S-wave (km/s) = 2.20971 3.38431 2.85801
# Velocity P-wave (km/s) = 3.35025 5.06105 4.29176
#
# Compressibility (1/GPa) = 0.09848413
#
# Stress axis : x y z
#
# Youngs Moduli (GPa) = 97.96736 16.01090 64.77910
#
# Poissons Ratio (x) = 0.00535 0.13343
# Poissons Ratio (y) = 0.03273 -0.49135
# Poissons Ratio (z) = 0.20179 -0.12144
#
# Static dielectric constant tensor:
#      x y z
#    x 1.807560 0.000000 -0.023490 
#    y 0.000000 1.759780 0.000000 
#    z -0.023490 0.000000 1.762780 
# 
# From -- ./inp_files/250028.got.cif
#   From: 2010.05.17/outbox.cif.g08.bks.cpg/sg12_126_cif.got.tgz:250028.got - 2010.06.03 13:09:07.
