data_PCOD9195597
_publ_section_title
;
Structure prediction by ZEFSAII (Michael W. Deem and Ramdas Pophale) SiO2 
 PCOD9195597
Probable space group: C 2/M
;
_chemical_formula_sum "Si O2"
_cell_formula_units_Z 56
_cell_length_a 22.007928
_cell_length_b 9.020920
_cell_length_c 31.616141
_cell_angle_alpha 90.000000
_cell_angle_beta 29.268017
_cell_angle_gamma 90.000000
_cell_volume 3068.703705
_symmetry_space_group_name_H-M "C 2/M"
_symmetry_group_IT_number 12
_symmetry_cell_setting 'monoclinic'
loop_
_space_group_symop_operation_xyz
x,y,z
-x,y,-z
-x,-y,-z
x,-y,z
1/2+x,1/2+y,z
1/2-x,1/2+y,-z
1/2-x,1/2-y,-z
1/2+x,1/2-y,z
loop_
_atom_site_type_symbol
_atom_site_label
_atom_site_fract_x
_atom_site_fract_y
_atom_site_fract_z
Si Si1 0.484812 0.175638 0.907193
Si Si2 0.725699 0.177802 0.560725
Si Si3 0.000969 0.833807 0.739089
Si Si4 0.363136 0.334281 0.254702
Si Si5 0.135330 0.664596 0.896108
Si Si6 0.137790 0.178445 0.433346
Si Si7 0.256790 0.325912 0.094913
O O1 0.535490 0.245984 0.833905
O O2 0.600635 0.195664 0.869185
O O3 0.459791 0.000000 0.919361
O O4 0.363800 0.255408 0.000170
O O5 0.750000 0.250000 0.500000
O O6 0.587356 0.232242 0.657327
O O7 0.817858 0.219717 0.544991
O O8 0.731088 0.000000 0.553996
O O9 0.079012 0.848453 0.734246
O O10 0.872822 0.757879 0.830202
O O11 0.981739 0.000000 0.733065
O O12 0.343232 0.500000 0.249131
O O13 0.235826 0.247453 0.340693
O O14 0.192884 0.500000 0.865642
O O15 0.204701 0.789386 0.880042
O O16 0.000000 0.654687 0.000000
O O17 0.000000 0.219785 0.500000
O O18 0.146705 0.000000 0.426541
O O19 0.247351 0.500000 0.092891
#
# Coordination Sequence:
#
# PCOD9195597 Si02
#       7
#     8   8   8   8   8   8   8
#     4  10  20  35  55  77 107 148 186 222 269 330
#     4  10  20  37  61  87 115 148 187 233 285 340
#     4  10  21  38  57  78 109 147 184 225 276 331
#     4  10  21  36  56  82 110 142 181 230 279 319
#     4   8  16  32  51  71  99 140 181 218 267 322
#     4   9  19  38  62  85 112 149 189 228 279 344
#     4  11  21  33  53  80 109 142 183 231 276 322
#
# _framework density 18.248747999999999
#
# number of rings (size 3 to 8) (size 9 to 14) (size 15 to 20)
#    0.000    2.286    0.000    3.857    0.000    6.286 
#    2.571    0.000    0.000    0.000    0.000    0.000 
#    0.000    0.000    0.000    0.000    0.000    0.000 
#
# Total GULP energy -155906.960555 kJ/mol
# GULP energy per Si atom -5568.105734 kJ/mol
# Density = 1.820721 g / cm^3
# Si number density = 18.248748 Si / 1000 Ang^3
#
#
#
# Elastic Constant Matrix: (Units=GPa)
#
#
# Indices 1 2 3 4 5 6 
#
# 1 42.1488 29.6125 41.0588 -0.0007 -2.6854 0.0009
# 2 29.6125 98.8025 55.5607 -0.0011 -3.8056 0.0018
# 3 41.0588 55.5607 116.0505 -0.0002 -6.0200 0.0000
# 4 -0.0007 -0.0011 -0.0002 119.0372 -0.0001 26.0786
# 5 -2.6854 -3.8056 -6.0200 -0.0001 34.7713 -0.0004
# 6 0.0009 0.0018 0.0000 26.0786 -0.0004 30.4687
#
#
#
# Elastic Compliance Matrix: (Units=1/GPa)
#
#
# Indices 1 2 3 4 5 6 
#
# 1 0.038104 -0.005248 -0.010944 0.000000 0.000474 -0.000001
# 2 -0.005248 0.014577 -0.005107 0.000000 0.000306 -0.000001
# 3 -0.010944 -0.005107 0.014996 0.000000 0.001192 0.000001
# 4 0.000000 0.000000 0.000000 0.010340 0.000000 -0.008850
# 5 0.000474 0.000306 0.001192 0.000000 0.029036 0.000000
# 6 -0.000001 -0.000001 0.000001 -0.008850 0.000000 0.040395
#
#
# Mechanical properties :
#
#
# Convention : Reuss Voigt Hill
#
# Bulk Modulus (GPa) = 39.87254 56.60730 48.23992
# Shear Modulus (GPa) = 25.20112 45.57344 35.38728
#
# Velocity S-wave (km/s) = 3.72018 5.00277 4.40837
# Velocity P-wave (km/s) = 6.35216 8.02854 7.23904
#
# Compressibility (1/GPa) = 0.02507992
#
# Stress axis : x y z
#
# Youngs Moduli (GPa) = 26.24428 68.59908 66.68567
#
# Poissons Ratio (x) = 0.35998 0.72982
# Poissons Ratio (y) = 0.13772 0.34054
# Poissons Ratio (z) = 0.28722 0.35031
#
# Static dielectric constant tensor:
#      x y z
#    x 1.703500 0.000000 0.000070 
#    y 0.000000 1.644300 0.000000 
#    z 0.000070 0.000000 1.603310 
# 
# From -- ./inp_files/237340.got.cif
#   From: 2010.05.17/outbox.cif.g08.bks.cpg/sg12_119_cif.got.tgz:237340.got - 2010.06.03 13:09:07.
