data_PCOD9195004
_publ_section_title
;
Structure prediction by ZEFSAII (Michael W. Deem and Ramdas Pophale) SiO2 
 PCOD9195004
Probable space group: C 2/M
;
_chemical_formula_sum "Si O2"
_cell_formula_units_Z 64
_cell_length_a 14.282375
_cell_length_b 18.906772
_cell_length_c 24.914545
_cell_angle_alpha 90.000000
_cell_angle_beta 29.070426
_cell_angle_gamma 90.000000
_cell_volume 3268.915172
_symmetry_space_group_name_H-M "C 2/M"
_symmetry_group_IT_number 12
_symmetry_cell_setting 'monoclinic'
loop_
_space_group_symop_operation_xyz
x,y,z
-x,y,-z
-x,-y,-z
x,-y,z
1/2+x,1/2+y,z
1/2-x,1/2+y,-z
1/2-x,1/2-y,-z
1/2+x,1/2-y,z
loop_
_atom_site_type_symbol
_atom_site_label
_atom_site_fract_x
_atom_site_fract_y
_atom_site_fract_z
Si Si1 0.480299 0.421943 0.279392
Si Si2 0.277800 0.615662 0.277239
Si Si3 0.224815 0.157464 0.903956
Si Si4 0.793394 0.916424 0.977495
Si Si5 0.006474 0.739403 0.432631
Si Si6 0.203345 0.320173 0.927362
Si Si7 0.679743 0.643957 0.538975
Si Si8 0.978945 0.420598 0.690399
O O1 0.564757 0.500000 0.229317
O O2 0.308899 0.413291 0.321640
O O3 0.634214 0.361845 0.187560
O O4 0.407006 0.411232 0.375938
O O5 0.483044 0.604098 0.145938
O O6 0.198611 0.695329 0.322280
O O7 0.124181 0.578347 0.316122
O O8 0.262984 0.238180 0.903044
O O9 0.358377 0.132625 0.788039
O O10 0.256107 0.104440 0.937439
O O11 0.000000 0.153002 0.000000
O O12 0.683488 0.864816 0.991832
O O13 0.768054 0.000000 0.980323
O O14 0.823009 0.692652 0.503878
O O15 0.981508 0.809244 0.409547
O O16 0.000000 0.750272 0.500000
O O17 0.000000 0.320693 0.000000
O O18 0.810403 0.609036 0.427608
O O19 0.978527 0.500000 0.712723
#
# Coordination Sequence:
#
# PCOD9195004 Si02
#       8
#     8   8   8   8   8   8   8   8
#     4  11  22  39  63  90 122 158 204 258 307 359
#     4  10  20  34  59  90 120 155 197 244 310 357
#     4  11  23  38  61  90 122 159 202 250 306 366
#     4  11  22  39  63  90 123 159 200 252 305 363
#     4  10  20  37  58  88 122 162 196 248 295 361
#     4  10  24  41  61  88 122 161 208 252 298 356
#     4  10  23  36  60  90 124 159 205 240 304 362
#     4  11  22  37  59  89 128 163 198 250 305 367
#
# _framework density 19.57836
#
# number of rings (size 3 to 8) (size 9 to 14) (size 15 to 20)
#    0.000    1.500    2.500    3.375    5.250    1.500 
#    0.000    3.125    0.000    3.000    0.000    0.000 
#    0.000    0.000    0.000    0.000    0.000    0.000 
#
# Total GULP energy -178610.468910 kJ/mol
# GULP energy per Si atom -5581.577153 kJ/mol
# Density = 1.953380 g / cm^3
# Si number density = 19.578360 Si / 1000 Ang^3
#
#
#
# Elastic Constant Matrix: (Units=GPa)
#
#
# Indices 1 2 3 4 5 6 
#
# 1 59.0247 49.2138 17.2975 0.0063 15.4035 -0.0039
# 2 49.2138 125.6940 36.3420 -0.0140 12.4540 0.0035
# 3 17.2975 36.3420 62.7215 -0.0222 24.2744 -0.0002
# 4 0.0063 -0.0140 -0.0222 19.5337 -0.0004 4.7073
# 5 15.4035 12.4540 24.2744 -0.0004 23.8454 0.0041
# 6 -0.0039 0.0035 -0.0002 4.7073 0.0041 19.6820
#
#
#
# Elastic Compliance Matrix: (Units=1/GPa)
#
#
# Indices 1 2 3 4 5 6 
#
# 1 0.029794 -0.011455 0.005864 -0.000015 -0.019233 0.000016
# 2 -0.011455 0.013978 -0.008215 0.000006 0.008462 -0.000008
# 3 0.005864 -0.008215 0.031173 0.000026 -0.031232 0.000003
# 4 -0.000015 0.000006 0.000026 0.054324 -0.000017 -0.012993
# 5 -0.019233 0.008462 -0.031232 -0.000017 0.081735 -0.000019
# 6 0.000016 -0.000008 0.000003 -0.012993 -0.000019 0.053915
#
#
# Mechanical properties :
#
#
# Convention : Reuss Voigt Hill
#
# Bulk Modulus (GPa) = 21.12675 50.34962 35.73819
# Shear Modulus (GPa) = 16.21751 22.25136 19.23443
#
# Velocity S-wave (km/s) = 2.88121 3.37490 3.13778
# Velocity P-wave (km/s) = 4.67790 6.39995 5.60545
#
# Compressibility (1/GPa) = 0.04733336
#
# Stress axis : x y z
#
# Youngs Moduli (GPa) = 33.56398 71.54266 32.07872
#
# Poissons Ratio (x) = 0.81954 -0.18812
# Poissons Ratio (y) = 0.38448 0.26352
# Poissons Ratio (z) = -0.19683 0.58770
#
# Static dielectric constant tensor:
#      x y z
#    x 1.696010 0.000000 0.002540 
#    y 0.000000 1.700660 0.000000 
#    z 0.002540 0.000000 1.678040 
# 
# From -- ./inp_files/340819.got.cif
#   From: 2010.05.17/outbox.cif.g08.bks.cpg/sg12_171_cif.got.tgz:340819.got - 2010.06.03 13:09:07.
