data_PCOD9195508
_publ_section_title
;
Structure prediction by ZEFSAII (Michael W. Deem and Ramdas Pophale) SiO2 
 PCOD9195508
Probable space group: C 2/M
;
_chemical_formula_sum "Si O2"
_cell_formula_units_Z 56
_cell_length_a 15.249304
_cell_length_b 8.479491
_cell_length_c 29.128291
_cell_angle_alpha 90.000000
_cell_angle_beta 130.456168
_cell_angle_gamma 90.000000
_cell_volume 2865.918703
_symmetry_space_group_name_H-M "C 2/M"
_symmetry_group_IT_number 12
_symmetry_cell_setting 'monoclinic'
loop_
_space_group_symop_operation_xyz
x,y,z
-x,y,-z
-x,-y,-z
x,-y,z
1/2+x,1/2+y,z
1/2-x,1/2+y,-z
1/2-x,1/2-y,-z
1/2+x,1/2-y,z
loop_
_atom_site_type_symbol
_atom_site_label
_atom_site_fract_x
_atom_site_fract_y
_atom_site_fract_z
Si Si1 0.278435 0.313117 0.729234
Si Si2 0.031938 0.687314 0.804578
Si Si3 0.851133 0.811351 0.500022
Si Si4 0.889858 0.689502 0.411428
Si Si5 0.852167 0.318685 0.065126
Si Si6 0.060892 0.315246 0.065428
Si Si7 0.784333 0.187774 0.193668
O O1 0.266619 0.500000 0.733243
O O2 0.410065 0.271614 0.763160
O O3 0.196024 0.269120 0.659011
O O4 0.246471 0.221987 0.764556
O O5 0.014883 0.500000 0.805870
O O6 0.112342 0.751189 0.873731
O O7 0.101077 0.723243 0.782178
O O8 0.750000 0.750000 0.500000
O O9 0.981271 0.752222 0.555659
O O10 0.658121 0.744652 0.556372
O O11 0.848951 0.000000 0.500768
O O12 0.896503 0.500000 0.417842
O O13 0.820673 0.500000 0.062600
O O14 0.967664 0.311464 0.074119
O O15 0.750000 0.250000 0.000000
O O16 0.084395 0.500000 0.062156
O O17 0.179591 0.250670 0.125741
O O18 0.000000 0.242601 0.000000
O O19 0.796516 0.000000 0.191135
#
# Coordination Sequence:
#
# PCOD9195508 Si02
#       7
#     8   8   8   8   8   8   8
#     4  11  24  42  64  90 124 165 208 255 309 368
#     4  11  23  40  60  85 120 158 202 254 307 370
#     4  11  22  39  66  98 132 169 208 252 301 355
#     4  10  22  41  64  93 128 166 209 257 305 359
#     4  10  20  35  54  81 113 149 192 246 310 371
#     4   9  17  32  54  79 110 146 189 242 305 369
#     4  11  22  39  62  86 117 158 201 254 312 369
#
# _framework density 19.539981000000001
#
# number of rings (size 3 to 8) (size 9 to 14) (size 15 to 20)
#    0.000    1.571    1.429    4.714    0.000    5.714 
#    0.000    0.000    0.000    3.000    0.000    0.000 
#    0.000    0.000    0.000    0.000    0.000    0.000 
#
# Total GULP energy -156326.469687 kJ/mol
# GULP energy per Si atom -5583.088203 kJ/mol
# Density = 1.949551 g / cm^3
# Si number density = 19.539981 Si / 1000 Ang^3
#
#
#
# Elastic Constant Matrix: (Units=GPa)
#
#
# Indices 1 2 3 4 5 6 
#
# 1 113.8443 20.8849 59.5890 0.0000 -0.7791 0.0000
# 2 20.8849 54.3550 25.5895 0.0000 3.2025 0.0000
# 3 59.5890 25.5895 114.7292 0.0000 9.1372 0.0000
# 4 0.0000 0.0000 0.0000 28.1999 0.0000 -2.6039
# 5 -0.7791 3.2025 9.1372 0.0000 18.9002 0.0000
# 6 0.0000 0.0000 0.0000 -2.6039 0.0000 28.7881
#
#
#
# Elastic Compliance Matrix: (Units=1/GPa)
#
#
# Indices 1 2 3 4 5 6 
#
# 1 0.012513 -0.002048 -0.006356 0.000000 0.003936 0.000000
# 2 -0.002048 0.020923 -0.003447 0.000000 -0.001963 0.000000
# 3 -0.006356 -0.003447 0.013272 0.000000 -0.006094 0.000000
# 4 0.000000 0.000000 0.000000 0.035760 0.000000 0.003235
# 5 0.003936 -0.001963 -0.006094 0.000000 0.056350 0.000000
# 6 0.000000 0.000000 0.000000 0.003235 0.000000 0.035029
#
#
# Mechanical properties :
#
#
# Convention : Reuss Voigt Hill
#
# Bulk Modulus (GPa) = 43.46547 55.00616 49.23581
# Shear Modulus (GPa) = 24.36445 26.96863 25.66654
#
# Velocity S-wave (km/s) = 3.53498 3.71910 3.62821
# Velocity P-wave (km/s) = 6.24132 6.83037 6.54248
#
# Compressibility (1/GPa) = 0.02300677
#
# Stress axis : x y z
#
# Youngs Moduli (GPa) = 79.91422 47.79498 75.34906
#
# Poissons Ratio (x) = 0.09786 0.47892
# Poissons Ratio (y) = 0.16363 0.25971
# Poissons Ratio (z) = 0.50794 0.16474
#
# Static dielectric constant tensor:
#      x y z
#    x 1.662420 0.000000 -0.003850 
#    y 0.000000 1.678870 0.000000 
#    z -0.003850 0.000000 1.704540 
# 
# From -- ./inp_files/339047.got.cif
#   From: 2010.05.17/outbox.cif.g08.bks.cpg/sg12_170_cif.got.tgz:339047.got - 2010.06.03 13:09:07.
