data_PCOD9195853
_publ_section_title
;
Structure prediction by ZEFSAII (Michael W. Deem and Ramdas Pophale) SiO2 
 PCOD9195853
Probable space group: C 2/M
;
_chemical_formula_sum "Si O2"
_cell_formula_units_Z 40
_cell_length_a 9.939068
_cell_length_b 20.883922
_cell_length_c 16.467635
_cell_angle_alpha 90.000000
_cell_angle_beta 43.359124
_cell_angle_gamma 90.000000
_cell_volume 2346.784094
_symmetry_space_group_name_H-M "C 2/M"
_symmetry_group_IT_number 12
_symmetry_cell_setting 'monoclinic'
loop_
_space_group_symop_operation_xyz
x,y,z
-x,y,-z
-x,-y,-z
x,-y,z
1/2+x,1/2+y,z
1/2-x,1/2+y,-z
1/2-x,1/2-y,-z
1/2+x,1/2-y,z
loop_
_atom_site_type_symbol
_atom_site_label
_atom_site_fract_x
_atom_site_fract_y
_atom_site_fract_z
Si Si1 0.531063 0.630343 0.761586
Si Si2 0.134948 0.635997 0.247467
Si Si3 0.575465 0.500000 0.112498
Si Si4 0.291861 0.000000 0.853802
Si Si5 0.834592 0.313779 0.504887
Si Si6 0.768842 0.743076 0.086779
O O1 0.676834 0.639422 0.774822
O O2 0.440439 0.561324 0.822147
O O3 0.670259 0.643825 0.622869
O O4 0.358412 0.681921 0.831883
O O5 0.115292 0.568153 0.210839
O O6 0.174357 0.694459 0.169664
O O7 0.947019 0.647477 0.385914
O O8 0.394663 0.500000 0.126854
O O9 0.747728 0.500000 0.969682
O O10 0.750000 0.250000 0.500000
O O11 0.000000 0.296709 0.500000
O O12 0.750000 0.750000 0.000000
O O13 0.000000 0.737756 0.000000
#
# Coordination Sequence:
#
# PCOD9195853 Si02
#       6
#     8   8   4   4   8   8
#     4  10  20  36  55  81 111 146 182 230 274 323
#     4  10  20  35  55  83 111 144 186 227 273 327
#     4   9  18  33  54  79 113 148 179 223 279 329
#     4   9  18  31  53  81 115 143 180 227 277 324
#     4  10  20  35  56  83 112 142 184 228 274 323
#     4  12  22  33  54  82 111 141 187 227 272 326
#
# _framework density 17.044602000000001
#
# number of rings (size 3 to 8) (size 9 to 14) (size 15 to 20)
#    0.000    1.800    4.000    1.200    2.800    0.800 
#    0.000    4.500    0.000    0.000    0.000    1.400 
#    0.000    0.000    0.000    0.000    0.000    0.000 
#
# Total GULP energy -111383.173025 kJ/mol
# GULP energy per Si atom -5569.158651 kJ/mol
# Density = 1.700581 g / cm^3
# Si number density = 17.044602 Si / 1000 Ang^3
#
#
#
# Elastic Constant Matrix: (Units=GPa)
#
#
# Indices 1 2 3 4 5 6 
#
# 1 51.0978 41.5169 56.1529 -0.0003 0.7530 0.0000
# 2 41.5169 188.3920 113.2484 -0.0001 7.6916 0.0000
# 3 56.1529 113.2484 177.8382 -0.0010 8.0458 0.0002
# 4 -0.0003 -0.0001 -0.0010 27.8140 0.0005 2.1763
# 5 0.7530 7.6916 8.0458 0.0005 22.2459 -0.0001
# 6 0.0000 0.0000 0.0002 2.1763 -0.0001 23.3971
#
#
#
# Elastic Compliance Matrix: (Units=1/GPa)
#
#
# Indices 1 2 3 4 5 6 
#
# 1 0.030382 -0.001564 -0.008718 0.000000 0.002665 0.000000
# 2 -0.001564 0.008703 -0.004997 0.000000 -0.001149 0.000000
# 3 -0.008718 -0.004997 0.011657 0.000000 -0.002193 0.000000
# 4 0.000000 0.000000 0.000000 0.036217 -0.000001 -0.003369
# 5 0.002665 -0.001149 -0.002193 -0.000001 0.046052 0.000000
# 6 0.000000 0.000000 0.000000 -0.003369 0.000000 0.043054
#
#
# Mechanical properties :
#
#
# Convention : Reuss Voigt Hill
#
# Bulk Modulus (GPa) = 49.54000 93.24047 71.39024
# Shear Modulus (GPa) = 23.43568 28.45204 25.94386
#
# Velocity S-wave (km/s) = 3.71207 4.09010 3.90566
# Velocity P-wave (km/s) = 6.89207 8.78224 7.89394
#
# Compressibility (1/GPa) = 0.02018571
#
# Stress axis : x y z
#
# Youngs Moduli (GPa) = 32.91420 114.90118 85.78594
#
# Poissons Ratio (x) = 0.17965 0.74789
# Poissons Ratio (y) = 0.05146 0.42863
# Poissons Ratio (z) = 0.28695 0.57411
#
# Static dielectric constant tensor:
#      x y z
#    x 1.559330 0.000000 -0.006940 
#    y 0.000000 1.477830 0.000000 
#    z -0.006940 0.000000 1.584430 
# 
# From -- ./inp_files/48832.got.cif
#   From: 2010.05.17/outbox.cif.g08.bks.cpg/sg12_25_cif.got.tgz:48832.got - 2010.06.03 13:09:07.
