data_PCOD9195294
_publ_section_title
;
Structure prediction by ZEFSAII (Michael W. Deem and Ramdas Pophale) SiO2 
 PCOD9195294
Probable space group: C 2/M
;
_chemical_formula_sum "Si O2"
_cell_formula_units_Z 64
_cell_length_a 31.691462
_cell_length_b 7.505837
_cell_length_c 14.521675
_cell_angle_alpha 90.000000
_cell_angle_beta 58.910964
_cell_angle_gamma 90.000000
_cell_volume 2958.131580
_symmetry_space_group_name_H-M "C 2/M"
_symmetry_group_IT_number 12
_symmetry_cell_setting 'monoclinic'
loop_
_space_group_symop_operation_xyz
x,y,z
-x,y,-z
-x,-y,-z
x,-y,z
1/2+x,1/2+y,z
1/2-x,1/2+y,-z
1/2-x,1/2-y,-z
1/2+x,1/2-y,z
loop_
_atom_site_type_symbol
_atom_site_label
_atom_site_fract_x
_atom_site_fract_y
_atom_site_fract_z
Si Si1 0.664126 0.781485 0.828684
Si Si2 0.033958 0.208736 0.541144
Si Si3 0.295853 0.289601 0.880753
Si Si4 0.913280 0.708128 0.231758
Si Si5 0.122412 0.288662 0.067953
Si Si6 0.511345 0.216960 0.210064
Si Si7 0.368083 0.716494 0.480282
Si Si8 0.274519 0.281860 0.697941
O O1 0.620894 0.717376 0.810212
O O2 0.718884 0.725891 0.738548
O O3 0.664269 0.000000 0.826523
O O4 0.652902 0.723004 0.945490
O O5 0.088615 0.279576 0.499374
O O6 0.000000 0.288912 0.500000
O O7 0.005651 0.226354 0.669386
O O8 0.040840 0.000000 0.510854
O O9 0.297267 0.500000 0.869147
O O10 0.346153 0.237574 0.875236
O O11 0.287934 0.219195 0.786383
O O12 0.250000 0.250000 0.000000
O O13 0.920211 0.500000 0.201902
O O14 0.883387 0.722368 0.361391
O O15 0.968083 0.780386 0.190028
O O16 0.117898 0.500000 0.060492
O O17 0.066711 0.218782 0.130861
O O18 0.510991 0.000000 0.208432
O O19 0.369290 0.500000 0.476745
O O20 0.315567 0.774226 0.578387
O O21 0.275125 0.500000 0.698028
#
# Coordination Sequence:
#
# PCOD9195294 Si02
#       8
#     8   8   8   8   8   8   8   8
#     4   9  17  32  54  75 100 135 174 214 256 310
#     4   9  18  31  49  71  97 132 176 214 248 308
#     4  11  21  35  56  78 107 141 173 213 257 307
#     4   9  18  34  54  75 101 135 173 215 262 305
#     4  10  20  35  53  77 107 138 174 212 258 310
#     4   9  19  33  50  75 105 133 168 216 262 303
#     4   9  18  33  51  72 100 133 169 212 258 305
#     4   9  18  32  52  76 101 134 170 206 255 308
#
# _framework density 21.635276999999999
#
# number of rings (size 3 to 8) (size 9 to 14) (size 15 to 20)
#    0.000    2.625    1.250    0.375    1.750    1.750 
#    0.000    4.375    0.000    0.000    0.000    4.375 
#    0.000    0.000    0.000    0.000    0.000    0.000 
#
# Total GULP energy -178584.504515 kJ/mol
# GULP energy per Si atom -5580.765766 kJ/mol
# Density = 2.158603 g / cm^3
# Si number density = 21.635277 Si / 1000 Ang^3
#
#
#
# Elastic Constant Matrix: (Units=GPa)
#
#
# Indices 1 2 3 4 5 6 
#
# 1 131.5759 7.6735 11.7766 0.0000 -11.8957 0.0000
# 2 7.6735 45.4633 -8.0897 0.0000 0.5714 0.0000
# 3 11.7766 -8.0897 6.5230 0.0000 -23.5280 0.0000
# 4 0.0000 0.0000 0.0000 11.8217 0.0000 -7.7366
# 5 -11.8957 0.5714 -23.5280 0.0000 42.8096 0.0000
# 6 0.0000 0.0000 0.0000 -7.7366 0.0000 -14.9483
#
#
#
# Elastic Compliance Matrix: (Units=1/GPa)
#
#
# Indices 1 2 3 4 5 6 
#
# 1 0.007546 -0.000203 0.006416 0.000000 0.005626 0.000000
# 2 -0.000203 0.018223 -0.022279 0.000000 -0.012544 0.000000
# 3 0.006416 -0.022279 -0.123777 0.000000 -0.065948 0.000000
# 4 0.000000 0.000000 0.000000 0.063188 0.000000 -0.032703
# 5 0.005626 -0.012544 -0.065948 0.000000 -0.011155 0.000000
# 6 0.000000 0.000000 0.000000 -0.032703 0.000000 -0.049971
#
#
# Mechanical properties :
#
#
# Convention : Reuss Voigt Hill
#
# Bulk Modulus (GPa) = -7.68405 22.92032 7.61814
# Shear Modulus (GPa) = -46.64466 19.41673 -13.61397
#
# Velocity S-wave (km/s) = -4.64826 2.99901 -2.51120
# Velocity P-wave (km/s) = 5.68927 4.75490 2.20893
#
# Compressibility (1/GPa) = -0.13013970
#
# Stress axis : x y z
#
# Youngs Moduli (GPa) = 132.51373 54.87461 -8.07903
#
# Poissons Ratio (x) = 0.01113 0.05183
# Poissons Ratio (y) = 0.02688 -0.17999
# Poissons Ratio (z) = -0.85016 1.22254
#
# Static dielectric constant tensor:
#      x y z
#    x 1.799850 0.000000 -0.008100 
#    y 0.000000 1.813800 0.000000 
#    z -0.008100 0.000000 1.742910 
# 
# From -- ./inp_files/249100.got.cif
#   From: 2010.05.17/outbox.cif.g08.bks.cpg/sg12_125_cif.got.tgz:249100.got - 2010.06.03 13:09:07.
