data_PCOD9195226
_publ_section_title
;
Structure prediction by ZEFSAII (Michael W. Deem and Ramdas Pophale) SiO2 
 PCOD9195226
Probable space group: C 2/M
;
_chemical_formula_sum "Si O2"
_cell_formula_units_Z 42
_cell_length_a 14.774713
_cell_length_b 13.300641
_cell_length_c 10.051230
_cell_angle_alpha 90.000000
_cell_angle_beta 87.770077
_cell_angle_gamma 90.000000
_cell_volume 1973.703149
_symmetry_space_group_name_H-M "C 2/M"
_symmetry_group_IT_number 12
_symmetry_cell_setting 'monoclinic'
loop_
_space_group_symop_operation_xyz
x,y,z
-x,y,-z
-x,-y,-z
x,-y,z
1/2+x,1/2+y,z
1/2-x,1/2+y,-z
1/2-x,1/2-y,-z
1/2+x,1/2-y,z
loop_
_atom_site_type_symbol
_atom_site_label
_atom_site_fract_x
_atom_site_fract_y
_atom_site_fract_z
Si Si1 0.831028 0.386400 0.823166
Si Si2 0.371393 0.616981 0.093616
Si Si3 0.500000 0.500000 0.500000
Si Si4 0.669127 0.112598 0.498039
Si Si5 0.625038 0.674536 0.469876
Si Si6 0.055477 0.198284 0.174674
O O1 0.843772 0.500000 0.872325
O O2 0.731191 0.349990 0.872366
O O3 0.830389 0.389724 0.662613
O O4 0.908970 0.309834 0.860561
O O5 0.378747 0.500000 0.132942
O O6 0.448940 0.681121 0.161916
O O7 0.396197 0.627131 0.936635
O O8 0.570360 0.587874 0.544353
O O9 0.613118 0.214111 0.532470
O O10 0.770479 0.140591 0.536886
O O11 0.642273 0.000000 0.545991
O O12 0.590980 0.674685 0.319535
#
# Coordination Sequence:
#
# PCOD9195226 Si02
#       6
#     8   8   2   8   8   8
#     4   9  19  35  57  78 105 142 181 217 268 326
#     4  10  21  33  54  80 107 142 180 221 267 318
#     4  12  24  32  54  90 108 134 188 230 266 328
#     4   9  18  37  55  78 109 145 178 218 275 333
#     4  10  22  32  54  84 108 141 178 228 274 314
#     4  10  20  35  52  80 112 139 178 225 272 314
#
# _framework density 21.279796999999999
#
# number of rings (size 3 to 8) (size 9 to 14) (size 15 to 20)
#    0.000    2.286    0.952    1.714    5.333    0.000 
#    0.000    2.381    0.000    2.286    0.000    0.000 
#    0.000    0.000    0.000    0.000    0.000    0.000 
#
# Total GULP energy -116938.329945 kJ/mol
# GULP energy per Si atom -5568.491902 kJ/mol
# Density = 2.123136 g / cm^3
# Si number density = 21.279797 Si / 1000 Ang^3
#
#
#
# Elastic Constant Matrix: (Units=GPa)
#
#
# Indices 1 2 3 4 5 6 
#
# 1 77.8477 72.2770 7.1117 0.0000 14.0273 0.0000
# 2 72.2770 182.4570 28.1955 0.0000 11.3373 0.0000
# 3 7.1117 28.1955 36.7429 0.0000 12.3964 0.0000
# 4 0.0000 0.0000 0.0000 14.3509 0.0000 4.8354
# 5 14.0273 11.3373 12.3964 0.0000 25.9730 0.0000
# 6 0.0000 0.0000 0.0000 4.8354 0.0000 32.8613
#
#
#
# Elastic Compliance Matrix: (Units=1/GPa)
#
#
# Indices 1 2 3 4 5 6 
#
# 1 0.023105 -0.009469 0.006686 0.000000 -0.011536 0.000000
# 2 -0.009469 0.010105 -0.007341 0.000000 0.004207 0.000000
# 3 0.006686 -0.007341 0.037775 0.000000 -0.018436 0.000000
# 4 0.000000 0.000000 0.000000 0.073317 0.000000 -0.010788
# 5 -0.011536 0.004207 -0.018436 0.000000 0.051695 0.000000
# 6 0.000000 0.000000 0.000000 -0.010788 0.000000 0.032018
#
#
# Mechanical properties :
#
#
# Convention : Reuss Voigt Hill
#
# Bulk Modulus (GPa) = 19.70904 56.91289 38.31097
# Shear Modulus (GPa) = 18.85555 27.26793 23.06174
#
# Velocity S-wave (km/s) = 2.97993 3.58355 3.29559
# Velocity P-wave (km/s) = 4.59587 6.62763 5.70296
#
# Compressibility (1/GPa) = 0.05073813
#
# Stress axis : x y z
#
# Youngs Moduli (GPa) = 43.28081 98.96391 26.47258
#
# Poissons Ratio (x) = 0.93709 -0.17701
# Poissons Ratio (y) = 0.40983 0.19432
# Poissons Ratio (z) = -0.28939 0.72645
#
# Static dielectric constant tensor:
#      x y z
#    x 1.781100 0.000000 -0.001170 
#    y 0.000000 1.856260 0.000000 
#    z -0.001170 0.000000 1.779370 
# 
# From -- ./inp_files/141070.got.cif
#   From: 2010.05.17/outbox.cif.g08.bks.cpg/sg12_71_cif.got.tgz:141070.got - 2010.06.03 13:09:07.
