data_PCOD9195793
_publ_section_title
;
Structure prediction by ZEFSAII (Michael W. Deem and Ramdas Pophale) SiO2 
 PCOD9195793
Probable space group: C 2/M
;
_chemical_formula_sum "Si O2"
_cell_formula_units_Z 42
_cell_length_a 17.346474
_cell_length_b 18.508791
_cell_length_c 8.937230
_cell_angle_alpha 90.000000
_cell_angle_beta 123.403340
_cell_angle_gamma 90.000000
_cell_volume 2395.426453
_symmetry_space_group_name_H-M "C 2/M"
_symmetry_group_IT_number 12
_symmetry_cell_setting 'monoclinic'
loop_
_space_group_symop_operation_xyz
x,y,z
-x,y,-z
-x,-y,-z
x,-y,z
1/2+x,1/2+y,z
1/2-x,1/2+y,-z
1/2-x,1/2-y,-z
1/2+x,1/2-y,z
loop_
_atom_site_type_symbol
_atom_site_label
_atom_site_fract_x
_atom_site_fract_y
_atom_site_fract_z
Si Si1 0.523743 0.272603 0.192726
Si Si2 0.192624 0.806887 0.540716
Si Si3 0.111102 0.418215 0.626241
Si Si4 0.629180 0.118587 0.301783
Si Si5 0.156553 0.730484 0.814558
Si Si6 0.500000 0.000000 0.000000
O O1 0.599299 0.324184 0.351215
O O2 0.573633 0.194281 0.238190
O O3 0.431518 0.260052 0.189653
O O4 0.500000 0.295931 0.000000
O O5 0.250000 0.750000 0.500000
O O6 0.268186 0.868328 0.653134
O O7 0.161660 0.767556 0.658220
O O8 0.134358 0.500000 0.699136
O O9 0.142048 0.404357 0.488853
O O10 0.146354 0.355257 0.772532
O O11 0.000000 0.412658 0.500000
O O12 0.567149 0.062225 0.147233
O O13 0.250000 0.750000 0.000000
#
# Coordination Sequence:
#
# PCOD9195793 Si02
#       6
#     8   8   8   8   8   2
#     4  11  21  36  56  84 117 154 202 253 302 356
#     4  10  20  35  55  80 119 152 197 246 298 360
#     4  11  21  36  56  83 121 163 190 242 305 365
#     4  11  21  35  56  85 121 159 192 239 305 375
#     4  12  22  35  57  88 119 163 209 253 300 359
#     4  12  24  36  58  88 128 156 198 238 316 374
#
# _framework density 17.533412999999999
#
# number of rings (size 3 to 8) (size 9 to 14) (size 15 to 20)
#    0.000    0.952    7.619    2.857    0.000    0.000 
#    0.000    0.000    0.000    0.000    2.476    3.333 
#    0.000    0.000    0.000    0.000    0.000    0.000 
#
# Total GULP energy -116932.741126 kJ/mol
# GULP energy per Si atom -5568.225768 kJ/mol
# Density = 1.749351 g / cm^3
# Si number density = 17.533413 Si / 1000 Ang^3
#
#
#
# Elastic Constant Matrix: (Units=GPa)
#
#
# Indices 1 2 3 4 5 6 
#
# 1 110.6361 21.7072 52.6782 0.0000 8.7765 0.0000
# 2 21.7072 57.7413 30.8458 0.0000 11.0874 0.0000
# 3 52.6782 30.8458 123.0227 0.0000 14.0471 0.0000
# 4 0.0000 0.0000 0.0000 32.0129 0.0000 8.4766
# 5 8.7765 11.0874 14.0471 0.0000 32.8468 0.0000
# 6 0.0000 0.0000 0.0000 8.4766 0.0000 7.1328
#
#
#
# Elastic Compliance Matrix: (Units=1/GPa)
#
#
# Indices 1 2 3 4 5 6 
#
# 1 0.011552 -0.001878 -0.004411 0.000000 -0.000566 0.000000
# 2 -0.001878 0.021063 -0.003914 0.000000 -0.004934 0.000000
# 3 -0.004411 -0.003914 0.011263 0.000000 -0.002317 0.000000
# 4 0.000000 0.000000 0.000000 0.045580 0.000000 -0.054167
# 5 -0.000566 -0.004934 -0.002317 0.000000 0.033252 0.000000
# 6 0.000000 0.000000 0.000000 -0.054167 0.000000 0.204568
#
#
# Mechanical properties :
#
#
# Convention : Reuss Voigt Hill
#
# Bulk Modulus (GPa) = 42.60176 55.76248 49.18212
# Shear Modulus (GPa) = 14.06438 26.80979 20.43708
#
# Velocity S-wave (km/s) = 2.83529 3.91457 3.41780
# Velocity P-wave (km/s) = 5.92189 7.23218 6.60958
#
# Compressibility (1/GPa) = 0.02347321
#
# Stress axis : x y z
#
# Youngs Moduli (GPa) = 86.56257 47.47726 88.78385
#
# Poissons Ratio (x) = 0.08915 0.39164
# Poissons Ratio (y) = 0.16254 0.34747
# Poissons Ratio (z) = 0.38185 0.18581
#
# Static dielectric constant tensor:
#      x y z
#    x 1.627040 0.000000 -0.000620 
#    y 0.000000 1.619880 0.000000 
#    z -0.000620 0.000000 1.642350 
# 
# From -- ./inp_files/61851.got.cif
#   From: 2010.05.17/outbox.cif.g08.bks.cpg/sg12_31_cif.got.tgz:61851.got - 2010.06.03 13:09:07.
