data_PCOD9195204
_publ_section_title
;
Structure prediction by ZEFSAII (Michael W. Deem and Ramdas Pophale) SiO2 
 PCOD9195204
Probable space group: C 2/M
;
_chemical_formula_sum "Si O2"
_cell_formula_units_Z 56
_cell_length_a 8.992767
_cell_length_b 28.935936
_cell_length_c 12.250545
_cell_angle_alpha 90.000000
_cell_angle_beta 120.768116
_cell_angle_gamma 90.000000
_cell_volume 2739.070126
_symmetry_space_group_name_H-M "C 2/M"
_symmetry_group_IT_number 12
_symmetry_cell_setting 'monoclinic'
loop_
_space_group_symop_operation_xyz
x,y,z
-x,y,-z
-x,-y,-z
x,-y,z
1/2+x,1/2+y,z
1/2-x,1/2+y,-z
1/2-x,1/2-y,-z
1/2+x,1/2-y,z
loop_
_atom_site_type_symbol
_atom_site_label
_atom_site_fract_x
_atom_site_fract_y
_atom_site_fract_z
Si Si1 0.159191 0.781806 0.876210
Si Si2 0.685592 0.666925 0.535827
Si Si3 0.291841 0.754219 0.714880
Si Si4 0.323777 0.947769 0.862752
Si Si5 0.994224 0.387525 0.242541
Si Si6 0.153321 0.118942 0.970694
Si Si7 0.168016 0.657882 0.633543
O O1 0.281179 0.786462 0.817324
O O2 0.989428 0.756966 0.766899
O O3 0.250000 0.750000 0.000000
O O4 0.108429 0.830769 0.907369
O O5 0.500000 0.648560 0.500000
O O6 0.698624 0.720326 0.579797
O O7 0.852088 0.646333 0.660873
O O8 0.694287 0.655102 0.411369
O O9 0.214873 0.703894 0.716709
O O10 0.394676 0.927723 0.774168
O O11 0.257146 0.000000 0.826073
O O12 0.500000 0.949438 0.000000
O O13 0.191428 0.916010 0.883785
O O14 0.841797 0.375374 0.099813
O O15 0.877696 0.386458 0.310372
O O16 0.000000 0.105590 0.000000
O O17 0.000000 0.669629 0.500000
#
# Coordination Sequence:
#
# PCOD9195204 Si02
#       7
#     8   8   8   8   8   8   8
#     4  12  23  34  50  78 118 160 198 235 285 346
#     4  11  22  36  56  81 114 159 211 254 290 334
#     4  12  22  34  51  74 112 159 204 244 284 327
#     4   9  20  40  66  93 119 147 184 234 299 374
#     4  10  21  38  59  83 115 152 189 242 300 350
#     4  11  22  37  58  88 123 155 192 235 291 360
#     4  10  20  35  52  74 106 147 198 246 284 326
#
# _framework density 20.444894999999999
#
# number of rings (size 3 to 8) (size 9 to 14) (size 15 to 20)
#    0.000    1.286    0.000    8.143    0.000    3.714 
#    0.000    0.000    0.000    4.286    0.000    0.000 
#    0.000    0.000    0.000    0.000    0.000    0.000 
#
# Total GULP energy -155931.292335 kJ/mol
# GULP energy per Si atom -5568.974726 kJ/mol
# Density = 2.039836 g / cm^3
# Si number density = 20.444895 Si / 1000 Ang^3
#
#
#
# Elastic Constant Matrix: (Units=GPa)
#
#
# Indices 1 2 3 4 5 6 
#
# 1 139.7245 53.0334 31.9920 0.0000 -30.7041 0.0000
# 2 53.0334 77.4477 30.6590 0.0000 -30.7298 0.0000
# 3 31.9920 30.6590 66.8799 0.0000 -7.6652 0.0000
# 4 0.0000 0.0000 0.0000 6.9527 0.0000 -3.8429
# 5 -30.7041 -30.7298 -7.6652 0.0000 46.0186 0.0000
# 6 0.0000 0.0000 0.0000 -3.8429 0.0000 23.5158
#
#
#
# Elastic Compliance Matrix: (Units=1/GPa)
#
#
# Indices 1 2 3 4 5 6 
#
# 1 0.010218 -0.004799 -0.002318 0.000000 0.003227 0.000000
# 2 -0.004799 0.023538 -0.007197 0.000000 0.011317 0.000000
# 3 -0.002318 -0.007197 0.018995 0.000000 -0.003189 0.000000
# 4 0.000000 0.000000 0.000000 0.158110 0.000000 0.025838
# 5 0.003227 0.011317 -0.003189 0.000000 0.030909 0.000000
# 6 0.000000 0.000000 0.000000 0.025838 0.000000 0.046747
#
#
# Mechanical properties :
#
#
# Convention : Reuss Voigt Hill
#
# Bulk Modulus (GPa) = 41.45623 57.26897 49.36260
# Shear Modulus (GPa) = 15.37574 26.52194 20.94884
#
# Velocity S-wave (km/s) = 2.74534 3.60563 3.20449
# Velocity P-wave (km/s) = 5.51092 6.73842 6.15535
#
# Compressibility (1/GPa) = 0.02412183
#
# Stress axis : x y z
#
# Youngs Moduli (GPa) = 97.86310 42.48495 52.64552
#
# Poissons Ratio (x) = 0.20389 0.12204
# Poissons Ratio (y) = 0.46965 0.37891
# Poissons Ratio (z) = 0.22686 0.30578
#
# Static dielectric constant tensor:
#      x y z
#    x 1.921080 0.000000 -0.095370 
#    y 0.000000 1.726650 0.000000 
#    z -0.095370 0.000000 1.773170 
# 
# From -- ./inp_files/124264.got.cif
#   From: 2010.05.17/outbox.cif.g08.bks.cpg/sg12_63_cif.got.tgz:124264.got - 2010.06.03 13:09:07.
