data_PCOD9195981
_publ_section_title
;
Structure prediction by ZEFSAII (Michael W. Deem and Ramdas Pophale) SiO2 
 PCOD9195981
Probable space group: C 2/M
;
_chemical_formula_sum "Si O2"
_cell_formula_units_Z 64
_cell_length_a 14.999917
_cell_length_b 14.067543
_cell_length_c 14.516406
_cell_angle_alpha 90.000000
_cell_angle_beta 95.235796
_cell_angle_gamma 90.000000
_cell_volume 3050.354849
_symmetry_space_group_name_H-M "C 2/M"
_symmetry_group_IT_number 12
_symmetry_cell_setting 'monoclinic'
loop_
_space_group_symop_operation_xyz
x,y,z
-x,y,-z
-x,-y,-z
x,-y,z
1/2+x,1/2+y,z
1/2-x,1/2+y,-z
1/2-x,1/2-y,-z
1/2+x,1/2-y,z
loop_
_atom_site_type_symbol
_atom_site_label
_atom_site_fract_x
_atom_site_fract_y
_atom_site_fract_z
Si Si1 0.866028 0.276439 0.349632
Si Si2 0.895693 0.607931 0.078220
Si Si3 0.126170 0.896245 0.533702
Si Si4 0.764026 0.816818 0.811452
Si Si5 0.952785 0.682338 0.694328
Si Si6 0.830304 0.391179 0.523992
Si Si7 0.402266 0.395262 0.689246
Si Si8 0.091017 0.331099 0.120490
O O1 0.910992 0.187720 0.407345
O O2 0.794826 0.251854 0.264294
O O3 0.822716 0.336007 0.427747
O O4 0.943776 0.339866 0.311652
O O5 0.921485 0.500000 0.106179
O O6 0.807462 0.638389 0.125294
O O7 0.982015 0.676614 0.101944
O O8 0.880823 0.611095 0.966689
O O9 0.232563 0.890592 0.559579
O O10 0.114947 0.889335 0.422478
O O11 0.092537 0.000000 0.558758
O O12 0.813602 0.888207 0.745237
O O13 0.842108 0.759065 0.870883
O O14 0.899771 0.660703 0.596621
O O15 0.949449 0.795249 0.717327
O O16 0.904740 0.630027 0.774583
O O17 0.857698 0.500000 0.511491
O O18 0.442819 0.500000 0.710835
#
# Coordination Sequence:
#
# PCOD9195981 Si02
#       8
#     8   8   8   8   8   8   8   8
#     4  12  22  38  57  84 125 163 213 253 308 377
#     4  11  23  43  70 101 128 160 212 273 332 396
#     4  10  20  35  56  79 112 161 211 256 305 359
#     4  11  22  39  66  94 127 167 212 257 320 395
#     4  11  23  38  57  88 121 166 210 262 315 377
#     4  11  23  37  54  82 122 167 211 260 315 372
#     4  10  20  36  59  84 117 162 211 260 307 369
#     4  10  22  41  63  95 124 163 204 263 326 391
#
# _framework density 20.981166999999999
#
# number of rings (size 3 to 8) (size 9 to 14) (size 15 to 20)
#    0.000    1.250    3.750    3.750    0.000    3.000 
#    0.000    2.500    0.000    0.000    0.000    9.625 
#    0.000    0.000    0.000    0.000    0.000    0.000 
#
# Total GULP energy -178382.947051 kJ/mol
# GULP energy per Si atom -5574.467095 kJ/mol
# Density = 2.093341 g / cm^3
# Si number density = 20.981167 Si / 1000 Ang^3
#
#
#
# Elastic Constant Matrix: (Units=GPa)
#
#
# Indices 1 2 3 4 5 6 
#
# 1 105.6513 26.8641 29.7141 0.0000 -12.9463 0.0000
# 2 26.8641 84.9267 36.0811 0.0000 0.9574 0.0000
# 3 29.7141 36.0811 89.7931 0.0000 -18.2469 0.0000
# 4 0.0000 0.0000 0.0000 4.7942 0.0000 9.5009
# 5 -12.9463 0.9574 -18.2469 0.0000 40.4082 0.0000
# 6 0.0000 0.0000 0.0000 9.5009 0.0000 0.2091
#
#
#
# Elastic Compliance Matrix: (Units=1/GPa)
#
#
# Indices 1 2 3 4 5 6 
#
# 1 0.011043 -0.002655 -0.002043 0.000000 0.002678 0.000000
# 2 -0.002655 0.015225 -0.006039 0.000000 -0.003939 0.000000
# 3 -0.002043 -0.006039 0.015564 0.000000 0.006517 0.000000
# 4 0.000000 0.000000 0.000000 -0.002343 0.000000 0.106436
# 5 0.002678 -0.003939 0.006517 0.000000 0.028642 0.000000
# 6 0.000000 0.000000 0.000000 0.106436 0.000000 -0.053709
#
#
# Mechanical properties :
#
#
# Convention : Reuss Voigt Hill
#
# Bulk Modulus (GPa) = 49.12516 51.74330 50.43423
# Shear Modulus (GPa) = 117.14135 21.59643 69.36889
#
# Velocity S-wave (km/s) = 7.48017 3.21179 5.75623
# Velocity P-wave (km/s) = 9.90296 6.20237 8.26251
#
# Compressibility (1/GPa) = 0.02035617
#
# Stress axis : x y z
#
# Youngs Moduli (GPa) = 90.55430 65.68111 64.25139
#
# Poissons Ratio (x) = 0.17441 0.13127
# Poissons Ratio (y) = 0.24045 0.38805
# Poissons Ratio (z) = 0.18501 0.39668
#
# Static dielectric constant tensor:
#      x y z
#    x 1.777050 0.000000 -0.014570 
#    y 0.000000 1.792030 0.000000 
#    z -0.014570 0.000000 1.769260 
# 
# From -- ./inp_files/224811.got.cif
#   From: 2010.05.17/outbox.cif.g08.bks.cpg/sg12_113_cif.got.tgz:224811.got - 2010.06.03 13:09:07.
