data_PCOD9195593
_publ_section_title
;
Structure prediction by ZEFSAII (Michael W. Deem and Ramdas Pophale) SiO2 
 PCOD9195593
Probable space group: C 2/M
;
_chemical_formula_sum "Si O2"
_cell_formula_units_Z 64
_cell_length_a 15.094083
_cell_length_b 7.622276
_cell_length_c 25.411555
_cell_angle_alpha 90.000000
_cell_angle_beta 81.555325
_cell_angle_gamma 90.000000
_cell_volume 2891.933948
_symmetry_space_group_name_H-M "C 2/M"
_symmetry_group_IT_number 12
_symmetry_cell_setting 'monoclinic'
loop_
_space_group_symop_operation_xyz
x,y,z
-x,y,-z
-x,-y,-z
x,-y,z
1/2+x,1/2+y,z
1/2-x,1/2+y,-z
1/2-x,1/2-y,-z
1/2+x,1/2-y,z
loop_
_atom_site_type_symbol
_atom_site_label
_atom_site_fract_x
_atom_site_fract_y
_atom_site_fract_z
Si Si1 0.458427 0.715093 0.059544
Si Si2 0.584703 0.703810 0.139740
Si Si3 0.258192 0.290999 0.061045
Si Si4 0.256657 0.700142 0.314979
Si Si5 0.179504 0.202901 0.429020
Si Si6 0.124371 0.214172 0.542089
Si Si7 0.446305 0.715122 0.343979
Si Si8 0.896735 0.793117 0.744756
O O1 0.461823 0.500000 0.058859
O O2 0.514355 0.780988 0.104396
O O3 0.355662 0.768413 0.070930
O O4 0.500000 0.770909 0.000000
O O5 0.558902 0.500000 0.148299
O O6 0.679217 0.710152 0.101809
O O7 0.592646 0.780945 0.197471
O O8 0.752334 0.000000 0.067805
O O9 0.250000 0.250000 0.000000
O O10 0.274516 0.500000 0.299908
O O11 0.191579 0.709076 0.371679
O O12 0.352561 0.774689 0.325210
O O13 0.201813 0.776618 0.271340
O O14 0.116511 0.269884 0.481918
O O15 0.279578 0.217755 0.445184
O O16 0.156555 0.000000 0.420652
O O17 0.055724 0.265472 0.594102
O O18 0.128868 0.000000 0.540464
O O19 0.445512 0.500000 0.344483
O O20 0.529780 0.778110 0.302629
O O21 0.914725 0.000000 0.746312
#
# Coordination Sequence:
#
# PCOD9195593 Si02
#       8
#     8   8   8   8   8   8   8   8
#     4   9  17  33  57  81 109 146 181 211 254 316
#     4  10  21  38  57  80 110 143 181 224 267 315
#     4  11  21  35  59  87 115 146 179 215 259 312
#     4  10  20  35  55  77 106 141 179 226 275 326
#     4   9  15  25  46  75 104 136 176 221 274 332
#     4   8  14  26  46  73 104 137 176 224 274 326
#     4   8  16  33  55  76 100 138 183 222 266 322
#     4  10  21  37  57  78 103 138 183 229 268 314
#
# _framework density 22.130520000000001
#
# number of rings (size 3 to 8) (size 9 to 14) (size 15 to 20)
#    0.000    2.625    1.250    1.875    0.000    2.000 
#    0.000    8.125    0.000    3.750    0.000    0.000 
#    0.000    0.000    0.000    0.000    0.000    0.000 
#
# Total GULP energy -178554.861330 kJ/mol
# GULP energy per Si atom -5579.839417 kJ/mol
# Density = 2.208015 g / cm^3
# Si number density = 22.130520 Si / 1000 Ang^3
#
#
#
# Elastic Constant Matrix: (Units=GPa)
#
#
# Indices 1 2 3 4 5 6 
#
# 1 87.5810 -7.1115 34.6204 0.0000 15.9372 0.0000
# 2 -7.1115 43.1811 -6.7312 0.0000 2.6865 0.0000
# 3 34.6204 -6.7312 91.2115 0.0000 18.4435 0.0000
# 4 0.0000 0.0000 0.0000 9.5479 0.0000 0.2045
# 5 15.9372 2.6865 18.4435 0.0000 29.5161 0.0000
# 6 0.0000 0.0000 0.0000 0.2045 0.0000 14.6522
#
#
#
# Elastic Compliance Matrix: (Units=1/GPa)
#
#
# Indices 1 2 3 4 5 6 
#
# 1 0.014185 0.002010 -0.004178 0.000000 -0.005231 0.000000
# 2 0.002010 0.024067 0.001918 0.000000 -0.004474 0.000000
# 3 -0.004178 0.001918 0.014044 0.000000 -0.006695 0.000000
# 4 0.000000 0.000000 0.000000 0.104766 0.000000 -0.001462
# 5 -0.005231 -0.004474 -0.006695 0.000000 0.041295 0.000000
# 6 0.000000 0.000000 0.000000 -0.001462 0.000000 0.068269
#
#
# Mechanical properties :
#
#
# Convention : Reuss Voigt Hill
#
# Bulk Modulus (GPa) = 19.30637 29.28101 24.29369
# Shear Modulus (GPa) = 17.58142 24.15631 20.86886
#
# Velocity S-wave (km/s) = 2.82164 3.30743 3.07415
# Velocity P-wave (km/s) = 4.39981 5.27686 4.85817
#
# Compressibility (1/GPa) = 0.05179637
#
# Stress axis : x y z
#
# Youngs Moduli (GPa) = 70.49873 41.55127 71.20229
#
# Poissons Ratio (x) = -0.08353 0.29747
# Poissons Ratio (y) = -0.14172 -0.13655
# Poissons Ratio (z) = 0.29453 -0.07969
#
# Static dielectric constant tensor:
#      x y z
#    x 1.818480 0.000000 0.003740 
#    y 0.000000 1.852900 0.000000 
#    z 0.003740 0.000000 1.810770 
# 
# From -- ./inp_files/338899.got.cif
#   From: 2010.05.17/outbox.cif.g08.bks.cpg/sg12_170_cif.got.tgz:338899.got - 2010.06.03 13:09:07.
