data_PCOD9195708
_publ_section_title
;
Structure prediction by ZEFSAII (Michael W. Deem and Ramdas Pophale) SiO2 
 PCOD9195708
Probable space group: C 2/M
;
_chemical_formula_sum "Si O2"
_cell_formula_units_Z 56
_cell_length_a 18.717824
_cell_length_b 8.987586
_cell_length_c 29.783150
_cell_angle_alpha 90.000000
_cell_angle_beta 37.807800
_cell_angle_gamma 90.000000
_cell_volume 3071.424731
_symmetry_space_group_name_H-M "C 2/M"
_symmetry_group_IT_number 12
_symmetry_cell_setting 'monoclinic'
loop_
_space_group_symop_operation_xyz
x,y,z
-x,y,-z
-x,-y,-z
x,-y,z
1/2+x,1/2+y,z
1/2-x,1/2+y,-z
1/2-x,1/2-y,-z
1/2+x,1/2-y,z
loop_
_atom_site_type_symbol
_atom_site_label
_atom_site_fract_x
_atom_site_fract_y
_atom_site_fract_z
Si Si1 0.863180 0.674790 0.565189
Si Si2 0.825066 0.677433 0.002474
Si Si3 0.259157 0.678254 0.130240
Si Si4 0.398467 0.176859 0.142818
Si Si5 0.335245 0.323597 0.267510
Si Si6 0.986634 0.678590 0.270759
Si Si7 0.712740 0.175961 0.564623
O O1 0.845688 0.500000 0.562029
O O2 0.791151 0.699709 0.646741
O O3 0.804839 0.776013 0.556619
O O4 0.000000 0.702116 0.500000
O O5 0.804778 0.500000 0.013682
O O6 0.962497 0.702755 0.926329
O O7 0.750000 0.750000 0.000000
O O8 0.791221 0.749843 0.066680
O O9 0.273596 0.500000 0.121000
O O10 0.338861 0.745222 0.129847
O O11 0.122916 0.710679 0.207337
O O12 0.348039 0.242373 0.213954
O O13 0.378953 0.000000 0.150035
O O14 0.353201 0.500000 0.252963
O O15 0.428510 0.259611 0.257009
O O16 0.973082 0.500000 0.271049
O O17 0.911908 0.721207 0.351931
O O18 0.750000 0.250000 0.500000
O O19 0.710888 0.000000 0.559454
#
# Coordination Sequence:
#
# PCOD9195708 Si02
#       7
#     8   8   8   8   8   8   8
#     4   9  19  36  56  79 110 145 181 226 278 327
#     4  11  24  41  61  85 113 147 184 222 270 325
#     4  11  23  39  60  85 112 144 184 228 274 323
#     4  11  24  40  57  81 116 150 179 221 276 326
#     4  10  20  35  58  84 108 142 188 229 268 324
#     4   9  20  38  57  79 110 146 181 224 278 328
#     4  10  20  35  55  79 110 145 183 227 273 325
#
# _framework density 18.232579999999999
#
# number of rings (size 3 to 8) (size 9 to 14) (size 15 to 20)
#    0.000    1.857    0.000    3.429    0.000   11.143 
#    0.000    5.714    0.000    0.000    0.000    0.000 
#    0.000    0.000    0.000    0.000    0.000    0.000 
#
# Total GULP energy -156418.683901 kJ/mol
# GULP energy per Si atom -5586.381568 kJ/mol
# Density = 1.819108 g / cm^3
# Si number density = 18.232580 Si / 1000 Ang^3
#
#
#
# Elastic Constant Matrix: (Units=GPa)
#
#
# Indices 1 2 3 4 5 6 
#
# 1 128.1087 73.7339 89.8066 0.0000 11.1101 0.0003
# 2 73.7339 79.2014 81.2025 0.0001 1.8092 0.0006
# 3 89.8066 81.2025 134.5084 0.0000 17.0102 0.0000
# 4 0.0000 0.0001 0.0000 33.6263 0.0000 5.6054
# 5 11.1101 1.8092 17.0102 0.0000 36.0523 0.0000
# 6 0.0003 0.0006 0.0000 5.6054 0.0000 38.1762
#
#
#
# Elastic Compliance Matrix: (Units=1/GPa)
#
#
# Indices 1 2 3 4 5 6 
#
# 1 0.018295 -0.012681 -0.004176 0.000000 -0.003031 0.000000
# 2 -0.012681 0.044417 -0.019738 0.000000 0.010992 -0.000001
# 3 -0.004176 -0.019738 0.023237 0.000000 -0.008686 0.000000
# 4 0.000000 0.000000 0.000000 0.030485 0.000000 -0.004476
# 5 -0.003031 0.010992 -0.008686 0.000000 0.032218 0.000000
# 6 0.000000 -0.000001 0.000000 -0.004476 0.000000 0.026852
#
#
# Mechanical properties :
#
#
# Convention : Reuss Voigt Hill
#
# Bulk Modulus (GPa) = 78.37626 92.36717 85.37171
# Shear Modulus (GPa) = 19.76699 28.04266 23.90482
#
# Velocity S-wave (km/s) = 3.29623 3.92606 3.62485
# Velocity P-wave (km/s) = 7.58730 8.44526 8.02775
#
# Compressibility (1/GPa) = 0.01275897
#
# Stress axis : x y z
#
# Youngs Moduli (GPa) = 54.65976 22.51366 43.03541
#
# Poissons Ratio (x) = 0.28551 0.17971
# Poissons Ratio (y) = 0.69317 0.84942
# Poissons Ratio (z) = 0.22825 0.44437
#
# Static dielectric constant tensor:
#      x y z
#    x 1.580510 0.000000 -0.010680 
#    y 0.000000 1.611590 0.000000 
#    z -0.010680 0.000000 1.627170 
# 
# From -- ./inp_files/363030.got.cif
#   From: 2010.05.17/outbox.cif.g08.bks.cpg/sg12_182_cif.got.tgz:363030.got - 2010.06.03 13:09:07.
