data_PCOD9195703
_publ_section_title
;
Structure prediction by ZEFSAII (Michael W. Deem and Ramdas Pophale) SiO2 
 PCOD9195703
Probable space group: C 2/M
;
_chemical_formula_sum "Si O2"
_cell_formula_units_Z 64
_cell_length_a 12.678837
_cell_length_b 13.084794
_cell_length_c 29.864910
_cell_angle_alpha 90.000000
_cell_angle_beta 44.107799
_cell_angle_gamma 90.000000
_cell_volume 3448.445249
_symmetry_space_group_name_H-M "C 2/M"
_symmetry_group_IT_number 12
_symmetry_cell_setting 'monoclinic'
loop_
_space_group_symop_operation_xyz
x,y,z
-x,y,-z
-x,-y,-z
x,-y,z
1/2+x,1/2+y,z
1/2-x,1/2+y,-z
1/2-x,1/2-y,-z
1/2+x,1/2-y,z
loop_
_atom_site_type_symbol
_atom_site_label
_atom_site_fract_x
_atom_site_fract_y
_atom_site_fract_z
Si Si1 0.932634 0.257054 0.894487
Si Si2 0.373684 0.114699 0.659077
Si Si3 0.141052 0.112504 0.565506
Si Si4 0.312629 0.327817 0.641771
Si Si5 0.723752 0.380227 0.800696
Si Si6 0.364822 0.121749 0.005462
Si Si7 0.719988 0.833189 0.571818
Si Si8 0.995272 0.378805 0.784712
O O1 0.785434 0.184473 0.935197
O O2 0.079928 0.187063 0.856673
O O3 0.959534 0.319720 0.841003
O O4 0.910965 0.332623 0.943119
O O5 0.339955 0.205811 0.635429
O O6 0.270714 0.130987 0.734460
O O7 0.548212 0.125958 0.621269
O O8 0.349242 0.000000 0.649415
O O9 0.192813 0.126159 0.498139
O O10 0.209491 0.209791 0.570297
O O11 0.959368 0.123718 0.620322
O O12 0.186323 0.000000 0.567752
O O13 0.293896 0.361800 0.596279
O O14 0.159822 0.352956 0.714810
O O15 0.691321 0.500000 0.818272
O O16 0.868754 0.351669 0.786343
O O17 0.335922 0.000000 0.011700
O O18 0.500000 0.138264 0.000000
O O19 0.987471 0.500000 0.794782
#
# Coordination Sequence:
#
# PCOD9195703 Si02
#       8
#     8   8   8   8   8   8   8   8
#     4  11  21  38  61  85 115 149 186 230 270 327
#     4  10  20  35  55  79 109 145 184 227 277 335
#     4  10  22  37  55  81 109 144 193 238 281 336
#     4  11  21  36  55  81 112 145 186 235 284 336
#     4  10  20  35  56  82 112 147 186 224 272 330
#     4  10  22  40  61  86 116 150 186 225 275 326
#     4  10  21  37  57  78 110 149 186 234 288 334
#     4  11  22  35  55  84 115 148 184 231 285 330
#
# _framework density 18.559089
#
# number of rings (size 3 to 8) (size 9 to 14) (size 15 to 20)
#    0.000    1.625    2.500    2.625    0.000    2.500 
#    0.000    0.000    0.000   11.250    0.000    0.000 
#    0.000    0.000    0.000    0.000    0.000    0.000 
#
# Total GULP energy -178754.409859 kJ/mol
# GULP energy per Si atom -5586.075308 kJ/mol
# Density = 1.851685 g / cm^3
# Si number density = 18.559089 Si / 1000 Ang^3
#
#
#
# Elastic Constant Matrix: (Units=GPa)
#
#
# Indices 1 2 3 4 5 6 
#
# 1 43.2679 9.5421 -0.8720 0.0000 -3.6375 0.0000
# 2 9.5421 86.9063 8.5896 0.0000 -7.2672 0.0000
# 3 -0.8720 8.5896 38.9379 -0.0001 -8.2541 0.0000
# 4 0.0000 0.0000 -0.0001 -6.7378 0.0000 -12.0179
# 5 -3.6375 -7.2672 -8.2541 0.0000 27.2262 0.0000
# 6 0.0000 0.0000 0.0000 -12.0179 0.0000 11.7153
#
#
#
# Elastic Compliance Matrix: (Units=1/GPa)
#
#
# Indices 1 2 3 4 5 6 
#
# 1 0.023966 -0.002549 0.001746 0.000000 0.003051 0.000000
# 2 -0.002549 0.012198 -0.002276 0.000000 0.002225 0.000000
# 3 0.001746 -0.002276 0.027939 0.000000 0.008096 0.000000
# 4 0.000000 0.000000 0.000000 -0.052449 0.000000 -0.053804
# 5 0.003051 0.002225 0.008096 0.000000 0.040185 0.000000
# 6 0.000000 0.000000 0.000000 -0.053804 0.000000 0.030165
#
#
# Mechanical properties :
#
#
# Convention : Reuss Voigt Hill
#
# Bulk Modulus (GPa) = 17.25808 22.62573 19.94190
# Shear Modulus (GPa) = 46.52152 16.56421 31.54286
#
# Velocity S-wave (km/s) = 5.01210 2.99073 4.12708
# Velocity P-wave (km/s) = 6.54324 4.91362 5.78609
#
# Compressibility (1/GPa) = 0.05794388
#
# Stress axis : x y z
#
# Youngs Moduli (GPa) = 41.72655 81.98375 35.79186
#
# Poissons Ratio (x) = 0.20896 -0.06248
# Poissons Ratio (y) = 0.10635 0.08147
# Poissons Ratio (z) = -0.07284 0.18660
#
# Static dielectric constant tensor:
#      x y z
#    x 1.607520 0.000000 -0.006500 
#    y 0.000000 1.645310 0.000000 
#    z -0.006500 0.000000 1.613580 
# 
# From -- ./inp_files/374099.got.cif
#   From: 2010.05.17/outbox.cif.g08.bks.cpg/sg12_188_cif.got.tgz:374099.got - 2010.06.03 13:09:07.
