data_PCOD9195130
_publ_section_title
;
Structure prediction by ZEFSAII (Michael W. Deem and Ramdas Pophale) SiO2 
 PCOD9195130
Probable space group: C 2/M
;
_chemical_formula_sum "Si O2"
_cell_formula_units_Z 60
_cell_length_a 16.111335
_cell_length_b 23.080864
_cell_length_c 8.235719
_cell_angle_alpha 90.000000
_cell_angle_beta 73.141942
_cell_angle_gamma 90.000000
_cell_volume 2930.953345
_symmetry_space_group_name_H-M "C 2/M"
_symmetry_group_IT_number 12
_symmetry_cell_setting 'monoclinic'
loop_
_space_group_symop_operation_xyz
x,y,z
-x,y,-z
-x,-y,-z
x,-y,z
1/2+x,1/2+y,z
1/2-x,1/2+y,-z
1/2-x,1/2-y,-z
1/2+x,1/2-y,z
loop_
_atom_site_type_symbol
_atom_site_label
_atom_site_fract_x
_atom_site_fract_y
_atom_site_fract_z
Si Si1 0.248204 0.821288 0.999761
Si Si2 0.832251 0.289797 0.444369
Si Si3 0.076564 0.433681 0.569449
Si Si4 0.092828 0.347983 0.867249
Si Si5 0.000000 0.757917 0.500000
Si Si6 0.583674 0.567982 0.617627
Si Si7 0.424249 0.362638 0.718087
Si Si8 0.257357 0.891367 0.662598
O O1 0.330117 0.850144 0.046542
O O2 0.161460 0.845494 0.136417
O O3 0.250000 0.750000 0.000000
O O4 0.252703 0.848443 0.817612
O O5 0.750000 0.250000 0.500000
O O6 0.880338 0.290331 0.246420
O O7 0.783805 0.350065 0.498603
O O8 0.911560 0.277308 0.520768
O O9 0.056454 0.500000 0.623101
O O10 0.085009 0.397974 0.733190
O O11 0.160371 0.433181 0.402492
O O12 0.000000 0.408684 0.500000
O O13 0.000000 0.342862 0.000000
O O14 0.975789 0.802647 0.657020
O O15 0.576137 0.500000 0.583448
O O16 0.596890 0.606234 0.444486
O O17 0.495590 0.592882 0.747654
O O18 0.666595 0.578423 0.682628
#
# Coordination Sequence:
#
# PCOD9195130 Si02
#       8
#     8   8   8   8   4   8   8   8
#     4  12  26  42  60  93 139 173 209 264 328 384
#     4  11  22  39  60  88 124 175 222 267 325 389
#     4  10  22  43  69  91 122 166 216 274 333 386
#     4  11  25  40  64  96 129 166 216 268 319 394
#     4  10  20  34  65  86 121 172 220 262 320 390
#     4  10  21  43  69  94 125 169 222 279 333 385
#     4  10  21  39  65  94 127 165 220 271 323 394
#     4  11  23  38  62  88 128 167 219 262 319 400
#
# _framework density 20.471153999999999
#
# number of rings (size 3 to 8) (size 9 to 14) (size 15 to 20)
#    0.000    1.467    0.000    7.600    7.467    0.800 
#    0.000    5.333    0.000    0.000    0.000    0.000 
#    0.000    0.000    0.000    0.000    0.000    0.000 
#
# Total GULP energy -167052.866167 kJ/mol
# GULP energy per Si atom -5568.428872 kJ/mol
# Density = 2.042456 g / cm^3
# Si number density = 20.471154 Si / 1000 Ang^3
#
#
#
# Elastic Constant Matrix: (Units=GPa)
#
#
# Indices 1 2 3 4 5 6 
#
# 1 175.0865 47.1856 52.2642 0.0000 -22.6160 0.0000
# 2 47.1856 70.1807 27.9633 0.0000 -17.8830 0.0000
# 3 52.2642 27.9633 101.1704 0.0000 -32.2787 0.0000
# 4 0.0000 0.0000 0.0000 24.8080 0.0000 3.1275
# 5 -22.6160 -17.8830 -32.2787 0.0000 39.4648 0.0000
# 6 0.0000 0.0000 0.0000 3.1275 0.0000 21.9543
#
#
#
# Elastic Compliance Matrix: (Units=1/GPa)
#
#
# Indices 1 2 3 4 5 6 
#
# 1 0.007641 -0.003957 -0.002745 0.000000 0.000341 0.000000
# 2 -0.003957 0.018800 -0.001566 0.000000 0.004970 0.000000
# 3 -0.002745 -0.001566 0.014894 0.000000 0.009899 0.000000
# 4 0.000000 0.000000 0.000000 0.041047 0.000000 -0.005847
# 5 0.000341 0.004970 0.009899 0.000000 0.035883 0.000000
# 6 0.000000 0.000000 0.000000 -0.005847 0.000000 0.046382
#
#
# Mechanical properties :
#
#
# Convention : Reuss Voigt Hill
#
# Bulk Modulus (GPa) = 40.32581 66.80711 53.56646
# Shear Modulus (GPa) = 26.39228 31.84705 29.11966
#
# Velocity S-wave (km/s) = 3.59450 3.94852 3.77566
# Velocity P-wave (km/s) = 6.08020 7.31391 6.72541
#
# Compressibility (1/GPa) = 0.02479801
#
# Stress axis : x y z
#
# Youngs Moduli (GPa) = 130.86796 53.19155 67.14326
#
# Poissons Ratio (x) = 0.21048 0.18431
# Poissons Ratio (y) = 0.51785 0.10517
# Poissons Ratio (z) = 0.35924 0.08332
#
# Static dielectric constant tensor:
#      x y z
#    x 1.808110 0.000000 0.004880 
#    y 0.000000 1.901280 0.000000 
#    z 0.004880 0.000000 1.794990 
# 
# From -- ./inp_files/65831.got.cif
#   From: 2010.05.17/outbox.cif.g08.bks.cpg/sg12_33_cif.got.tgz:65831.got - 2010.06.03 13:09:07.
