data_PCOD9195215
_publ_section_title
;
Structure prediction by ZEFSAII (Michael W. Deem and Ramdas Pophale) SiO2 
 PCOD9195215
Probable space group: C 2/M
;
_chemical_formula_sum "Si O2"
_cell_formula_units_Z 44
_cell_length_a 11.864919
_cell_length_b 23.852569
_cell_length_c 14.172180
_cell_angle_alpha 90.000000
_cell_angle_beta 38.588493
_cell_angle_gamma 90.000000
_cell_volume 2501.658925
_symmetry_space_group_name_H-M "C 2/M"
_symmetry_group_IT_number 12
_symmetry_cell_setting 'monoclinic'
loop_
_space_group_symop_operation_xyz
x,y,z
-x,y,-z
-x,-y,-z
x,-y,z
1/2+x,1/2+y,z
1/2-x,1/2+y,-z
1/2-x,1/2-y,-z
1/2+x,1/2-y,z
loop_
_atom_site_type_symbol
_atom_site_label
_atom_site_fract_x
_atom_site_fract_y
_atom_site_fract_z
Si Si1 0.285472 0.171837 0.641969
Si Si2 0.584283 0.664220 0.576892
Si Si3 0.871888 0.064920 0.788793
Si Si4 0.091641 0.935889 0.837875
Si Si5 0.232098 0.291814 0.734229
Si Si6 0.500000 0.871299 0.000000
O O1 0.500000 0.180219 0.500000
O O2 0.207959 0.171807 0.586825
O O3 0.233730 0.113557 0.725692
O O4 0.196561 0.226180 0.748426
O O5 0.505974 0.601034 0.634490
O O6 0.691104 0.683004 0.414154
O O7 0.399039 0.700168 0.698027
O O8 0.948470 0.069615 0.845468
O O9 0.869640 0.000000 0.763831
O O10 0.672740 0.091197 0.912683
O O11 0.164322 0.000000 0.785307
O O12 0.000000 0.929196 0.000000
O O13 0.065981 0.329637 0.874657
#
# Coordination Sequence:
#
# PCOD9195215 Si02
#       6
#     8   8   8   8   8   4
#     4  11  21  33  57  79 101 142 179 213 258 312
#     4   9  19  37  52  75 106 139 171 218 264 300
#     4   9  18  36  57  77 104 140 175 214 261 309
#     4   9  20  38  55  77 110 139 172 216 261 306
#     4  10  20  35  52  75 112 137 170 217 264 307
#     4  10  21  34  52  82 107 136 170 220 258 312
#
# _framework density 17.588328000000001
#
# number of rings (size 3 to 8) (size 9 to 14) (size 15 to 20)
#    0.000    2.364    1.818    0.818    1.273    1.818 
#    0.000   10.909    0.000    0.000    0.000    0.000 
#    0.000    0.000    0.000    0.000    0.000    0.000 
#
# Total GULP energy -122588.531700 kJ/mol
# GULP energy per Si atom -5572.205986 kJ/mol
# Density = 1.754830 g / cm^3
# Si number density = 17.588328 Si / 1000 Ang^3
#
#
#
# Elastic Constant Matrix: (Units=GPa)
#
#
# Indices 1 2 3 4 5 6 
#
# 1 50.5342 28.6346 3.8620 0.0001 -4.1670 -0.0004
# 2 28.6346 137.5068 32.5541 0.0000 -0.5870 -0.0001
# 3 3.8620 32.5541 28.0408 0.0001 2.1923 -0.0006
# 4 0.0001 0.0000 0.0001 20.9163 -0.0001 -0.7706
# 5 -4.1670 -0.5870 2.1923 -0.0001 20.1577 0.0003
# 6 -0.0004 -0.0001 -0.0006 -0.7706 0.0003 17.5042
#
#
#
# Elastic Compliance Matrix: (Units=1/GPa)
#
#
# Indices 1 2 3 4 5 6 
#
# 1 0.023009 -0.005438 0.002809 0.000000 0.004293 0.000000
# 2 -0.005438 0.011364 -0.012488 0.000000 0.000565 -0.000001
# 3 0.002809 -0.012488 0.050183 0.000000 -0.005241 0.000002
# 4 0.000000 0.000000 0.000000 0.047887 0.000000 0.002108
# 5 0.004293 0.000565 -0.005241 0.000000 0.051083 -0.000001
# 6 0.000000 -0.000001 0.000002 0.002108 -0.000001 0.057222
#
#
# Mechanical properties :
#
#
# Convention : Reuss Voigt Hill
#
# Bulk Modulus (GPa) = 18.40887 38.46480 28.43683
# Shear Modulus (GPa) = 17.29567 21.78438 19.54003
#
# Velocity S-wave (km/s) = 3.13926 3.52315 3.33673
# Velocity P-wave (km/s) = 4.86099 6.20219 5.57209
#
# Compressibility (1/GPa) = 0.05432164
#
# Stress axis : x y z
#
# Youngs Moduli (GPa) = 43.46056 87.99960 19.92705
#
# Poissons Ratio (x) = 0.47856 -0.05597
# Poissons Ratio (y) = 0.23635 0.24885
# Poissons Ratio (z) = -0.12207 1.09893
#
# Static dielectric constant tensor:
#      x y z
#    x 1.599310 0.000000 0.002030 
#    y 0.000000 1.620580 0.000000 
#    z 0.002030 0.000000 1.576780 
# 
# From -- ./inp_files/207526.got.cif
#   From: 2010.05.17/outbox.cif.g08.bks.cpg/sg12_104_cif.got.tgz:207526.got - 2010.06.03 13:09:07.
