data_PCOD9195725
_publ_section_title
;
Structure prediction by ZEFSAII (Michael W. Deem and Ramdas Pophale) SiO2 
 PCOD9195725
Probable space group: C 2/M
;
_chemical_formula_sum "Si O2"
_cell_formula_units_Z 50
_cell_length_a 20.025029
_cell_length_b 7.623019
_cell_length_c 17.254640
_cell_angle_alpha 90.000000
_cell_angle_beta 72.255813
_cell_angle_gamma 90.000000
_cell_volume 2508.635893
_symmetry_space_group_name_H-M "C 2/M"
_symmetry_group_IT_number 12
_symmetry_cell_setting 'monoclinic'
loop_
_space_group_symop_operation_xyz
x,y,z
-x,y,-z
-x,-y,-z
x,-y,z
1/2+x,1/2+y,z
1/2-x,1/2+y,-z
1/2-x,1/2-y,-z
1/2+x,1/2-y,z
loop_
_atom_site_type_symbol
_atom_site_label
_atom_site_fract_x
_atom_site_fract_y
_atom_site_fract_z
Si Si1 0.633273 0.786115 0.265455
Si Si2 0.500000 0.500000 0.500000
Si Si3 0.185348 0.290485 0.965614
Si Si4 0.212425 0.204372 0.779863
Si Si5 0.072056 0.791624 0.752897
Si Si6 0.429035 0.211578 0.877030
Si Si7 0.489214 0.797684 0.390729
O O1 0.709995 0.720034 0.260535
O O2 0.611652 0.728356 0.186490
O O3 0.569787 0.738438 0.344419
O O4 0.634691 0.000000 0.262815
O O5 0.462521 0.656170 0.460517
O O6 0.181365 0.500000 0.957726
O O7 0.198019 0.212768 0.876797
O O8 0.250000 0.250000 0.000000
O O9 0.114366 0.227606 0.033167
O O10 0.145689 0.279441 0.758549
O O11 0.216471 0.000000 0.756127
O O12 0.048026 0.711692 0.679875
O O13 0.009604 0.762023 0.836901
O O14 0.077128 0.000000 0.739581
O O15 0.426375 0.000000 0.878226
O O16 0.487489 0.000000 0.416477
#
# Coordination Sequence:
#
# PCOD9195725 Si02
#       7
#     8   2   8   8   8   8   8
#     4   8  15  33  56  80 108 150 192 229 283 342
#     4  12  22  40  68 102 120 138 194 228 284 358
#     4  11  21  33  49  75 108 150 200 254 299 336
#     4  10  20  35  55  79 113 152 197 242 291 340
#     4  10  20  35  56  85 114 151 193 239 288 345
#     4   9  18  33  52  69 108 152 193 246 295 337
#     4  10  21  39  65  92 122 151 182 235 286 341
#
# _framework density 19.931151
#
# number of rings (size 3 to 8) (size 9 to 14) (size 15 to 20)
#    0.000    2.240    2.400    2.160    0.000    3.200 
#    1.440    3.200    0.000    0.960    0.000    0.000 
#    0.000    0.000    0.000    0.000    0.000    0.000 
#
# Total GULP energy -139247.302055 kJ/mol
# GULP energy per Si atom -5569.892082 kJ/mol
# Density = 1.988579 g / cm^3
# Si number density = 19.931151 Si / 1000 Ang^3
#
#
#
# Elastic Constant Matrix: (Units=GPa)
#
#
# Indices 1 2 3 4 5 6 
#
# 1 144.4883 4.4717 22.2289 0.0000 -1.4574 0.0000
# 2 4.4717 76.6740 4.3274 0.0000 -1.1865 0.0000
# 3 22.2289 4.3274 37.9760 0.0000 10.6025 0.0000
# 4 0.0000 0.0000 0.0000 7.7618 0.0000 3.5404
# 5 -1.4574 -1.1865 10.6025 0.0000 13.1620 0.0000
# 6 0.0000 0.0000 0.0000 3.5404 0.0000 15.3172
#
#
#
# Elastic Compliance Matrix: (Units=1/GPa)
#
#
# Indices 1 2 3 4 5 6 
#
# 1 0.007954 -0.000015 -0.006321 0.000000 0.005972 0.000000
# 2 -0.000015 0.013224 -0.002362 0.000000 0.003093 0.000000
# 3 -0.006321 -0.002362 0.039422 0.000000 -0.032669 0.000000
# 4 0.000000 0.000000 0.000000 0.144021 0.000000 -0.033289
# 5 0.005972 0.003093 -0.032669 0.000000 0.103232 0.000000
# 6 0.000000 0.000000 0.000000 -0.033289 0.000000 0.072980
#
#
# Mechanical properties :
#
#
# Convention : Reuss Voigt Hill
#
# Bulk Modulus (GPa) = 23.14545 35.68825 29.41685
# Shear Modulus (GPa) = 12.11735 22.45557 17.28646
#
# Velocity S-wave (km/s) = 2.46836 3.36021 2.94821
# Velocity P-wave (km/s) = 4.44541 5.74451 5.13619
#
# Compressibility (1/GPa) = 0.04320504
#
# Stress axis : x y z
#
# Youngs Moduli (GPa) = 125.71993 75.61869 25.36623
#
# Poissons Ratio (x) = 0.00111 0.16035
# Poissons Ratio (y) = 0.00185 0.05991
# Poissons Ratio (z) = 0.79473 0.17860
#
# Static dielectric constant tensor:
#      x y z
#    x 1.724390 0.000000 -0.019880 
#    y 0.000000 1.750960 0.000000 
#    z -0.019880 0.000000 1.731750 
# 
# From -- ./inp_files/274204.got.cif
#   From: 2010.05.17/outbox.cif.g08.bks.cpg/sg12_138_cif.got.tgz:274204.got - 2010.06.03 13:09:07.
