data_PCOD9195988
_publ_section_title
;
Structure prediction by ZEFSAII (Michael W. Deem and Ramdas Pophale) SiO2 
 PCOD9195988
Probable space group: C 2/M
;
_chemical_formula_sum "Si O2"
_cell_formula_units_Z 48
_cell_length_a 20.470834
_cell_length_b 9.036727
_cell_length_c 19.787126
_cell_angle_alpha 90.000000
_cell_angle_beta 130.264498
_cell_angle_gamma 90.000000
_cell_volume 2793.143196
_symmetry_space_group_name_H-M "C 2/M"
_symmetry_group_IT_number 12
_symmetry_cell_setting 'monoclinic'
loop_
_space_group_symop_operation_xyz
x,y,z
-x,y,-z
-x,-y,-z
x,-y,z
1/2+x,1/2+y,z
1/2-x,1/2+y,-z
1/2-x,1/2-y,-z
1/2+x,1/2-y,z
loop_
_atom_site_type_symbol
_atom_site_label
_atom_site_fract_x
_atom_site_fract_y
_atom_site_fract_z
Si Si1 0.279048 0.677380 0.449448
Si Si2 0.342266 0.677569 0.072481
Si Si3 0.041117 0.324383 0.740309
Si Si4 0.995320 0.821998 0.074284
Si Si5 0.113432 0.324701 0.259825
Si Si6 0.460315 0.175919 0.547022
O O1 0.277683 0.500000 0.454925
O O2 0.250000 0.750000 0.500000
O O3 0.207996 0.719613 0.346086
O O4 0.372643 0.735374 0.494761
O O5 0.335395 0.500000 0.068929
O O6 0.386797 0.735441 0.171011
O O7 0.408572 0.720571 0.056523
O O8 0.250000 0.750000 0.000000
O O9 0.060550 0.500000 0.757041
O O10 0.951999 0.299920 0.721297
O O11 0.023701 0.283004 0.651045
O O12 0.073949 0.760161 0.170301
O O13 0.998706 0.000000 0.076957
O O14 0.000000 0.770973 0.000000
O O15 0.112670 0.500000 0.245440
O O16 0.500000 0.198815 0.500000
O O17 0.442444 0.000000 0.543687
#
# Coordination Sequence:
#
# PCOD9195988 Si02
#       6
#     8   8   8   8   8   8
#     4  11  21  35  57  83 112 143 185 229 268 322
#     4  10  20  35  56  80 104 136 179 219 264 319
#     4   9  17  34  56  77 106 140 178 221 265 316
#     4   9  19  36  56  79 106 135 173 220 265 315
#     4   9  18  33  54  80 107 138 176 219 266 317
#     4  10  21  38  57  80 112 149 185 223 275 327
#
# _framework density 17.184940999999998
#
# number of rings (size 3 to 8) (size 9 to 14) (size 15 to 20)
#    0.000    2.333    1.667    1.000    0.000    3.333 
#    3.000    0.000    0.000    0.000    0.000    0.000 
#    0.000    0.000    0.000    0.000    0.000    0.000 
#
# Total GULP energy -133880.073918 kJ/mol
# GULP energy per Si atom -5578.336413 kJ/mol
# Density = 1.714583 g / cm^3
# Si number density = 17.184941 Si / 1000 Ang^3
#
#
#
# Elastic Constant Matrix: (Units=GPa)
#
#
# Indices 1 2 3 4 5 6 
#
# 1 74.2798 47.8306 83.1620 0.0000 4.3566 0.0000
# 2 47.8306 41.8609 59.8868 0.0000 5.5243 0.0000
# 3 83.1620 59.8868 175.6067 0.0000 -0.4335 0.0000
# 4 0.0000 0.0000 0.0000 33.9479 0.0000 4.8424
# 5 4.3566 5.5243 -0.4335 0.0000 35.4217 0.0000
# 6 0.0000 0.0000 0.0000 4.8424 0.0000 25.5697
#
#
#
# Elastic Compliance Matrix: (Units=1/GPa)
#
#
# Indices 1 2 3 4 5 6 
#
# 1 0.058127 -0.053059 -0.009430 0.000000 0.001010 0.000000
# 2 -0.053059 0.097143 -0.008023 0.000000 -0.008723 0.000000
# 3 -0.009430 -0.008023 0.012903 0.000000 0.002569 0.000000
# 4 0.000000 0.000000 0.000000 0.030275 0.000000 -0.005733
# 5 0.001010 -0.008723 0.002569 0.000000 0.029499 0.000000
# 6 0.000000 0.000000 0.000000 -0.005733 0.000000 0.040195
#
#
# Mechanical properties :
#
#
# Convention : Reuss Voigt Hill
#
# Bulk Modulus (GPa) = 36.83395 74.83402 55.83398
# Shear Modulus (GPa) = 11.95559 25.71239 18.83399
#
# Velocity S-wave (km/s) = 2.64048 3.87229 3.31412
# Velocity P-wave (km/s) = 5.54766 7.97707 6.87060
#
# Compressibility (1/GPa) = 0.02714887
#
# Stress axis : x y z
#
# Youngs Moduli (GPa) = 17.20369 10.29410 77.50271
#
# Poissons Ratio (x) = 0.54619 0.73086
# Poissons Ratio (y) = 0.91281 0.62180
# Poissons Ratio (z) = 0.16223 0.08259
#
# Static dielectric constant tensor:
#      x y z
#    x 1.568640 0.000000 -0.007760 
#    y 0.000000 1.575040 0.000000 
#    z -0.007760 0.000000 1.572790 
# 
# From -- ./inp_files/244620.got.cif
#   From: 2010.05.17/outbox.cif.g08.bks.cpg/sg12_123_cif.got.tgz:244620.got - 2010.06.03 13:09:07.
