data_PCOD9195446
_publ_section_title
;
Structure prediction by ZEFSAII (Michael W. Deem and Ramdas Pophale) SiO2 
 PCOD9195446
Probable space group: C 2/M
;
_chemical_formula_sum "Si O2"
_cell_formula_units_Z 56
_cell_length_a 14.214215
_cell_length_b 9.182533
_cell_length_c 26.651842
_cell_angle_alpha 90.000000
_cell_angle_beta 124.170217
_cell_angle_gamma 90.000000
_cell_volume 2878.152246
_symmetry_space_group_name_H-M "C 2/M"
_symmetry_group_IT_number 12
_symmetry_cell_setting 'monoclinic'
loop_
_space_group_symop_operation_xyz
x,y,z
-x,y,-z
-x,-y,-z
x,-y,z
1/2+x,1/2+y,z
1/2-x,1/2+y,-z
1/2-x,1/2-y,-z
1/2+x,1/2-y,z
loop_
_atom_site_type_symbol
_atom_site_label
_atom_site_fract_x
_atom_site_fract_y
_atom_site_fract_z
Si Si1 0.651369 0.326473 0.323709
Si Si2 0.420701 0.825908 0.220010
Si Si3 0.513342 0.331522 0.423560
Si Si4 0.590846 0.172201 0.985528
Si Si5 0.189994 0.170538 0.554221
Si Si6 0.647827 0.328661 0.902993
Si Si7 0.851224 0.328405 0.304174
O O1 0.631345 0.500000 0.321287
O O2 0.540040 0.239248 0.274519
O O3 0.710278 0.265762 0.391968
O O4 0.742929 0.299305 0.306541
O O5 0.384739 0.751907 0.157701
O O6 0.336500 0.791494 0.241401
O O7 0.427483 0.000000 0.215950
O O8 0.533547 0.500000 0.417415
O O9 0.411957 0.327282 0.434793
O O10 0.626663 0.274221 0.484979
O O11 0.459945 0.250725 0.360576
O O12 0.584378 0.260455 0.931969
O O13 0.574208 0.000000 0.970319
O O14 0.500000 0.218350 0.000000
O O15 0.717862 0.190281 0.045507
O O16 0.222707 0.000000 0.558066
O O17 0.623703 0.500000 0.891567
O O18 0.873926 0.500000 0.313941
#
# Coordination Sequence:
#
# PCOD9195446 Si02
#       7
#     8   8   8   8   8   8   8
#     4  10  20  35  54  78 105 136 180 231 277 324
#     4  11  23  39  56  76 109 150 184 219 267 322
#     4   8  14  26  48  74 100 132 174 222 272 329
#     4   9  19  38  63  90 119 149 181 216 258 310
#     4   8  14  27  47  73 102 134 172 218 276 334
#     4  10  21  37  58  86 117 147 182 223 262 305
#     4   9  20  36  53  75 105 139 178 226 278 327
#
# _framework density 19.456927
#
# number of rings (size 3 to 8) (size 9 to 14) (size 15 to 20)
#    0.000    2.714    0.000    2.143    0.000    4.286 
#    0.000    6.429    0.000    0.000    0.000    0.000 
#    0.000    0.000    0.000    0.000    0.000    0.000 
#
# Total GULP energy -156292.650109 kJ/mol
# GULP energy per Si atom -5581.880361 kJ/mol
# Density = 1.941264 g / cm^3
# Si number density = 19.456927 Si / 1000 Ang^3
#
#
#
# Elastic Constant Matrix: (Units=GPa)
#
#
# Indices 1 2 3 4 5 6 
#
# 1 75.9513 30.9258 24.6419 0.0000 -24.1497 0.0000
# 2 30.9258 48.5211 40.4959 0.0000 -12.9266 0.0000
# 3 24.6419 40.4959 82.8909 0.0000 -35.0023 0.0000
# 4 0.0000 0.0000 0.0000 37.5668 0.0000 1.0696
# 5 -24.1497 -12.9266 -35.0023 0.0000 27.2358 0.0000
# 6 0.0000 0.0000 0.0000 1.0696 0.0000 12.1904
#
#
#
# Elastic Compliance Matrix: (Units=1/GPa)
#
#
# Indices 1 2 3 4 5 6 
#
# 1 0.030055 -0.025827 0.021341 0.000000 0.041819 0.000000
# 2 -0.025827 0.058771 -0.041385 0.000000 -0.048192 0.000000
# 3 0.021341 -0.041385 0.056054 0.000000 0.071319 0.000000
# 4 0.000000 0.000000 0.000000 0.026686 0.000000 -0.002341
# 5 0.041819 -0.048192 0.071319 0.000000 0.142579 0.000000
# 6 0.000000 0.000000 0.000000 -0.002341 0.000000 0.082237
#
#
# Mechanical properties :
#
#
# Convention : Reuss Voigt Hill
#
# Bulk Modulus (GPa) = 18.81809 44.38783 31.60296
# Shear Modulus (GPa) = 9.88463 22.81859 16.35161
#
# Velocity S-wave (km/s) = 2.25639 3.42829 2.90211
# Velocity P-wave (km/s) = 4.05969 6.20756 5.24475
#
# Compressibility (1/GPa) = 0.05314035
#
# Stress axis : x y z
#
# Youngs Moduli (GPa) = 33.27225 17.01506 17.84009
#
# Poissons Ratio (x) = 0.43944 -0.38073
# Poissons Ratio (y) = 0.85931 0.73830
# Poissons Ratio (z) = -0.71007 0.70416
#
# Static dielectric constant tensor:
#      x y z
#    x 1.738820 0.000000 -0.015920 
#    y 0.000000 1.647710 0.000000 
#    z -0.015920 0.000000 1.651020 
# 
# From -- ./inp_files/375148.got.cif
#   From: 2010.05.17/outbox.cif.g08.bks.cpg/sg12_188_cif.got.tgz:375148.got - 2010.06.03 13:09:07.
