data_PCOD9195355
_publ_section_title
;
Structure prediction by ZEFSAII (Michael W. Deem and Ramdas Pophale) SiO2 
 PCOD9195355
Probable space group: C 2/M
;
_chemical_formula_sum "Si O2"
_cell_formula_units_Z 40
_cell_length_a 23.997178
_cell_length_b 9.053970
_cell_length_c 8.004501
_cell_angle_alpha 90.000000
_cell_angle_beta 83.952956
_cell_angle_gamma 90.000000
_cell_volume 1729.458756
_symmetry_space_group_name_H-M "C 2/M"
_symmetry_group_IT_number 12
_symmetry_cell_setting 'monoclinic'
loop_
_space_group_symop_operation_xyz
x,y,z
-x,y,-z
-x,-y,-z
x,-y,z
1/2+x,1/2+y,z
1/2-x,1/2+y,-z
1/2-x,1/2-y,-z
1/2+x,1/2-y,z
loop_
_atom_site_type_symbol
_atom_site_label
_atom_site_fract_x
_atom_site_fract_y
_atom_site_fract_z
Si Si1 0.030150 0.831124 0.806734
Si Si2 0.238593 0.828553 0.764239
Si Si3 0.335873 0.330785 0.548664
Si Si4 0.132524 0.820834 0.985568
Si Si5 0.570084 0.825100 0.318424
O O1 0.092655 0.787104 0.839063
O O2 0.992309 0.734247 0.696759
O O3 0.030279 0.000000 0.745542
O O4 0.000000 0.830877 0.000000
O O5 0.291542 0.731260 0.698183
O O6 0.198218 0.825579 0.613098
O O7 0.196197 0.779784 0.922980
O O8 0.255307 0.000000 0.785073
O O9 0.349593 0.500000 0.581516
O O10 0.393404 0.240385 0.541926
O O11 0.129593 0.000000 0.009638
O O12 0.105243 0.736049 0.147977
O O13 0.569659 0.000000 0.324673
#
# Coordination Sequence:
#
# PCOD9195355 Si02
#       5
#     8   8   8   8   8
#     4   8  15  30  51  73  99 131 164 201 248 296
#     4   9  19  36  56  76  98 128 167 208 251 298
#     4  10  20  35  54  74 100 134 167 203 250 299
#     4   9  18  34  55  77 101 129 164 207 251 296
#     4  11  21  32  50  76 104 134 168 205 244 291
#
# _framework density 23.128623000000001
#
# number of rings (size 3 to 8) (size 9 to 14) (size 15 to 20)
#    0.000    2.600    0.000    3.600    0.000    6.000 
#    0.000    1.000    0.000    6.000    0.000    0.000 
#    0.000    0.000    0.000    0.000    0.000    0.000 
#
# Total GULP energy -111825.462912 kJ/mol
# GULP energy per Si atom -5591.273146 kJ/mol
# Density = 2.307598 g / cm^3
# Si number density = 23.128623 Si / 1000 Ang^3
#
#
#
# Elastic Constant Matrix: (Units=GPa)
#
#
# Indices 1 2 3 4 5 6 
#
# 1 140.4816 45.7317 7.9074 0.0000 11.6499 0.0000
# 2 45.7317 88.6487 5.6213 0.0000 17.0216 0.0000
# 3 7.9074 5.6213 63.2979 0.0000 4.2969 0.0000
# 4 0.0000 0.0000 0.0000 14.5454 0.0000 11.8537
# 5 11.6499 17.0216 4.2969 0.0000 45.3308 0.0000
# 6 0.0000 0.0000 0.0000 11.8537 0.0000 29.5776
#
#
#
# Elastic Compliance Matrix: (Units=1/GPa)
#
#
# Indices 1 2 3 4 5 6 
#
# 1 0.008596 -0.004290 -0.000657 0.000000 -0.000536 0.000000
# 2 -0.004290 0.014336 -0.000450 0.000000 -0.004238 0.000000
# 3 -0.000657 -0.000450 0.016000 0.000000 -0.001179 0.000000
# 4 0.000000 0.000000 0.000000 0.102094 0.000000 -0.040916
# 5 -0.000536 -0.004238 -0.001179 0.000000 0.023901 0.000000
# 6 0.000000 0.000000 0.000000 -0.040916 0.000000 0.050207
#
#
# Mechanical properties :
#
#
# Convention : Reuss Voigt Hill
#
# Bulk Modulus (GPa) = 35.53621 45.66100 40.59861
# Shear Modulus (GPa) = 21.24885 33.43527 27.34206
#
# Velocity S-wave (km/s) = 3.03434 3.80626 3.44201
# Velocity P-wave (km/s) = 5.26063 6.25315 5.77824
#
# Compressibility (1/GPa) = 0.02814031
#
# Stress axis : x y z
#
# Youngs Moduli (GPa) = 116.32842 69.75517 62.49889
#
# Poissons Ratio (x) = 0.29925 0.04103
# Poissons Ratio (y) = 0.49906 0.02809
# Poissons Ratio (z) = 0.07637 0.03136
#
# Static dielectric constant tensor:
#      x y z
#    x 1.866050 0.000000 0.009490 
#    y 0.000000 1.768540 0.000000 
#    z 0.009490 0.000000 1.976230 
# 
# From -- ./inp_files/92755.got.cif
#   From: 2010.05.17/outbox.cif.g08.bks.cpg/sg12_47_cif.got.tgz:92755.got - 2010.06.03 13:09:07.
