data_PCOD9195075
_publ_section_title
;
Structure prediction by ZEFSAII (Michael W. Deem and Ramdas Pophale) SiO2 
 PCOD9195075
Probable space group: C 2/M
;
_chemical_formula_sum "Si O2"
_cell_formula_units_Z 56
_cell_length_a 21.575180
_cell_length_b 17.869655
_cell_length_c 9.279276
_cell_angle_alpha 90.000000
_cell_angle_beta 122.940846
_cell_angle_gamma 90.000000
_cell_volume 3002.388877
_symmetry_space_group_name_H-M "C 2/M"
_symmetry_group_IT_number 12
_symmetry_cell_setting 'monoclinic'
loop_
_space_group_symop_operation_xyz
x,y,z
-x,y,-z
-x,-y,-z
x,-y,z
1/2+x,1/2+y,z
1/2-x,1/2+y,-z
1/2-x,1/2-y,-z
1/2+x,1/2-y,z
loop_
_atom_site_type_symbol
_atom_site_label
_atom_site_fract_x
_atom_site_fract_y
_atom_site_fract_z
Si Si1 0.808705 0.208364 0.175531
Si Si2 0.135627 0.087600 0.965921
Si Si3 0.326291 0.657815 0.682329
Si Si4 0.045638 0.301557 0.695535
Si Si5 0.014163 0.831306 0.184959
Si Si6 0.207193 0.328685 0.313925
Si Si7 0.072511 0.411380 0.992994
O O1 0.831430 0.131323 0.127731
O O2 0.880539 0.260811 0.268587
O O3 0.769971 0.191714 0.276751
O O4 0.750000 0.250000 0.000000
O O5 0.048662 0.107504 0.863170
O O6 0.148301 0.000000 0.978091
O O7 0.170298 0.124130 0.153844
O O8 0.403197 0.637108 0.702341
O O9 0.251892 0.637266 0.504454
O O10 0.327696 0.748345 0.690404
O O11 0.000000 0.328315 0.500000
O O12 0.000829 0.237769 0.727729
O O13 0.064658 0.365554 0.834625
O O14 0.000000 0.807176 0.000000
O O15 0.144226 0.379978 0.166641
O O16 0.079085 0.500000 0.976166
O O17 0.000000 0.398374 0.000000
#
# Coordination Sequence:
#
# PCOD9195075 Si02
#       7
#     8   8   8   8   8   8   8
#     4  11  20  38  60  86 117 150 188 233 284 347
#     4  10  21  37  58  85 121 156 185 228 288 345
#     4  10  20  34  61  89 114 143 196 244 277 332
#     4  11  21  36  63  87 111 143 193 240 284 334
#     4   9  18  35  59  87 113 151 186 227 281 343
#     4  11  21  38  60  85 114 149 193 240 288 337
#     4  11  24  41  57  77 112 155 193 235 291 344
#
# _framework density 18.651814000000002
#
# number of rings (size 3 to 8) (size 9 to 14) (size 15 to 20)
#    0.000    1.571    2.857    3.857    0.000    5.143 
#    0.000    0.000    0.000   14.571    0.000    0.000 
#    0.000    0.000    0.000    0.000    0.000    0.000 
#
# Total GULP energy -156390.915442 kJ/mol
# GULP energy per Si atom -5585.389837 kJ/mol
# Density = 1.860936 g / cm^3
# Si number density = 18.651814 Si / 1000 Ang^3
#
#
#
# Elastic Constant Matrix: (Units=GPa)
#
#
# Indices 1 2 3 4 5 6 
#
# 1 73.5199 14.0053 18.0428 0.0000 5.5240 0.0000
# 2 14.0053 71.4867 38.0825 0.0000 15.2874 0.0000
# 3 18.0428 38.0825 98.4018 0.0000 26.1975 0.0000
# 4 0.0000 0.0000 0.0000 6.6513 0.0000 1.9665
# 5 5.5240 15.2874 26.1975 0.0000 21.1159 0.0000
# 6 0.0000 0.0000 0.0000 1.9665 0.0000 11.6120
#
#
#
# Elastic Compliance Matrix: (Units=1/GPa)
#
#
# Indices 1 2 3 4 5 6 
#
# 1 0.014421 -0.001777 -0.001933 0.000000 -0.000088 0.000000
# 2 -0.001777 0.018442 -0.005048 0.000000 -0.006624 0.000000
# 3 -0.001933 -0.005048 0.016967 0.000000 -0.016890 0.000000
# 4 0.000000 0.000000 0.000000 0.158270 0.000000 -0.026803
# 5 -0.000088 -0.006624 -0.016890 0.000000 0.073131 0.000000
# 6 0.000000 0.000000 0.000000 -0.026803 0.000000 0.090657
#
#
# Mechanical properties :
#
#
# Convention : Reuss Voigt Hill
#
# Bulk Modulus (GPa) = 30.94555 42.62996 36.78776
# Shear Modulus (GPa) = 12.49449 19.42770 15.96109
#
# Velocity S-wave (km/s) = 2.59101 3.23088 2.92848
# Velocity P-wave (km/s) = 5.05750 6.06823 5.58577
#
# Compressibility (1/GPa) = 0.03231483
#
# Stress axis : x y z
#
# Youngs Moduli (GPa) = 69.34203 54.22264 58.93731
#
# Poissons Ratio (x) = 0.09633 0.11394
# Poissons Ratio (y) = 0.12320 0.29752
# Poissons Ratio (z) = 0.13406 0.27372
#
# Static dielectric constant tensor:
#      x y z
#    x 1.680470 0.000000 0.001090 
#    y 0.000000 1.606480 0.000000 
#    z 0.001090 0.000000 1.665160 
# 
# From -- ./inp_files/88080.got.cif
#   From: 2010.05.17/outbox.cif.g08.bks.cpg/sg12_45_cif.got.tgz:88080.got - 2010.06.03 13:09:07.
