data_PCOD9195517
_publ_section_title
;
Structure prediction by ZEFSAII (Michael W. Deem and Ramdas Pophale) SiO2 
 PCOD9195517
Probable space group: C 2/M
;
_chemical_formula_sum "Si O2"
_cell_formula_units_Z 64
_cell_length_a 14.873710
_cell_length_b 25.000820
_cell_length_c 9.214803
_cell_angle_alpha 90.000000
_cell_angle_beta 103.814134
_cell_angle_gamma 90.000000
_cell_volume 3327.457934
_symmetry_space_group_name_H-M "C 2/M"
_symmetry_group_IT_number 12
_symmetry_cell_setting 'monoclinic'
loop_
_space_group_symop_operation_xyz
x,y,z
-x,y,-z
-x,-y,-z
x,-y,z
1/2+x,1/2+y,z
1/2-x,1/2+y,-z
1/2-x,1/2-y,-z
1/2+x,1/2-y,z
loop_
_atom_site_type_symbol
_atom_site_label
_atom_site_fract_x
_atom_site_fract_y
_atom_site_fract_z
Si Si1 0.418311 0.796466 0.768598
Si Si2 0.745217 0.629220 0.652600
Si Si3 0.018669 0.058985 0.180870
Si Si4 0.124288 0.146994 0.859835
Si Si5 0.662587 0.712339 0.435477
Si Si6 0.766555 0.060601 0.635499
Si Si7 0.732037 0.652686 0.179321
Si Si8 0.381949 0.773012 0.085289
O O1 0.345917 0.842525 0.696796
O O2 0.417222 0.752379 0.640036
O O3 0.525660 0.806064 0.838748
O O4 0.379952 0.773209 0.908297
O O5 0.709804 0.622322 0.801390
O O6 0.665113 0.670750 0.565932
O O7 0.744534 0.582998 0.532450
O O8 0.125026 0.061570 0.274476
O O9 0.964388 0.111497 0.214769
O O10 0.983664 0.000000 0.219951
O O11 0.000000 0.057954 0.000000
O O12 0.113532 0.211803 0.854849
O O13 0.152729 0.136701 0.036979
O O14 0.750000 0.750000 0.500000
O O15 0.687145 0.679754 0.301650
O O16 0.718808 0.100982 0.731678
O O17 0.733802 0.000000 0.632928
O O18 0.797218 0.694936 0.122160
#
# Coordination Sequence:
#
# PCOD9195517 Si02
#       8
#     8   8   8   8   8   8   8   8
#     4  10  20  35  54  81 118 158 191 240 290 342
#     4  10  22  38  55  81 119 152 192 240 299 349
#     4  10  22  39  60  89 117 151 204 252 286 341
#     4  12  22  34  59  88 122 159 200 240 294 352
#     4   9  18  34  51  72 114 160 187 226 283 341
#     4  10  23  43  65  84 114 158 197 243 305 357
#     4  11  20  36  59  84 118 152 202 250 284 355
#     4  11  22  32  58  91 119 154 205 243 288 347
#
# _framework density 19.233900999999999
#
# number of rings (size 3 to 8) (size 9 to 14) (size 15 to 20)
#    0.000    1.625    3.750    1.875    5.250    1.000 
#    0.000   10.625    0.000    1.500    0.000    1.750 
#    0.000    0.000    0.000    0.000    0.000    0.000 
#
# Total GULP energy -178219.737838 kJ/mol
# GULP energy per Si atom -5569.366807 kJ/mol
# Density = 1.919012 g / cm^3
# Si number density = 19.233901 Si / 1000 Ang^3
#
#
#
# Elastic Constant Matrix: (Units=GPa)
#
#
# Indices 1 2 3 4 5 6 
#
# 1 46.3683 15.3800 1.8292 0.0000 11.3334 0.0000
# 2 15.3800 104.3971 17.1654 0.0000 1.8969 0.0000
# 3 1.8292 17.1654 65.0883 0.0000 15.9372 0.0000
# 4 0.0000 0.0000 0.0000 24.8212 0.0000 1.6026
# 5 11.3334 1.8969 15.9372 0.0000 21.3492 0.0000
# 6 0.0000 0.0000 0.0000 1.6026 0.0000 22.9780
#
#
#
# Elastic Compliance Matrix: (Units=1/GPa)
#
#
# Indices 1 2 3 4 5 6 
#
# 1 0.027141 -0.004453 0.004702 0.000000 -0.017523 0.000000
# 2 -0.004453 0.010774 -0.003745 0.000000 0.004203 0.000000
# 3 0.004702 -0.003745 0.020495 0.000000 -0.017463 0.000000
# 4 0.000000 0.000000 0.000000 0.040470 0.000000 -0.002823
# 5 -0.017523 0.004203 -0.017463 0.000000 0.068805 0.000000
# 6 0.000000 0.000000 0.000000 -0.002823 0.000000 0.043717
#
#
# Mechanical properties :
#
#
# Convention : Reuss Voigt Hill
#
# Bulk Modulus (GPa) = 19.44852 31.62254 25.53553
# Shear Modulus (GPa) = 21.22828 25.92828 23.57828
#
# Velocity S-wave (km/s) = 3.32579 3.67556 3.50504
# Velocity P-wave (km/s) = 4.98812 5.87280 5.44845
#
# Compressibility (1/GPa) = 0.05141778
#
# Stress axis : x y z
#
# Youngs Moduli (GPa) = 36.84465 92.81311 48.79170
#
# Poissons Ratio (x) = 0.41332 -0.22943
# Poissons Ratio (y) = 0.16408 0.18274
# Poissons Ratio (z) = -0.17325 0.34762
#
# Static dielectric constant tensor:
#      x y z
#    x 1.654290 0.000000 0.023460 
#    y 0.000000 1.689840 0.000000 
#    z 0.023460 0.000000 1.683350 
# 
# From -- ./inp_files/66980.got.cif
#   From: 2010.05.17/outbox.cif.g08.bks.cpg/sg12_34_cif.got.tgz:66980.got - 2010.06.03 13:09:07.
