data_PCOD9195897
_publ_section_title
;
Structure prediction by ZEFSAII (Michael W. Deem and Ramdas Pophale) SiO2 
 PCOD9195897
Probable space group: C 2/M
;
_chemical_formula_sum "Si O2"
_cell_formula_units_Z 58
_cell_length_a 18.246606
_cell_length_b 7.585207
_cell_length_c 24.057916
_cell_angle_alpha 90.000000
_cell_angle_beta 130.969299
_cell_angle_gamma 90.000000
_cell_volume 2514.140711
_symmetry_space_group_name_H-M "C 2/M"
_symmetry_group_IT_number 12
_symmetry_cell_setting 'monoclinic'
loop_
_space_group_symop_operation_xyz
x,y,z
-x,y,-z
-x,-y,-z
x,-y,z
1/2+x,1/2+y,z
1/2-x,1/2+y,-z
1/2-x,1/2-y,-z
1/2+x,1/2-y,z
loop_
_atom_site_type_symbol
_atom_site_label
_atom_site_fract_x
_atom_site_fract_y
_atom_site_fract_z
Si Si1 0.030189 0.292843 0.593552
Si Si2 0.190781 0.709846 0.525824
Si Si3 0.438911 0.286249 0.265038
Si Si4 0.120589 0.297079 0.180407
Si Si5 0.054402 0.792054 0.971696
Si Si6 0.141355 0.204945 0.315749
Si Si7 0.500000 0.500000 0.500000
Si Si8 0.767399 0.712328 0.874125
O O1 0.039242 0.500000 0.583029
O O2 0.917757 0.225517 0.539997
O O3 0.071239 0.268508 0.675677
O O4 0.064727 0.157040 0.564399
O O5 0.177776 0.500000 0.527120
O O6 0.250000 0.750000 0.500000
O O7 0.261313 0.781047 0.608860
O O8 0.440029 0.500000 0.264112
O O9 0.540799 0.219836 0.290514
O O10 0.343680 0.228035 0.183881
O O11 0.149049 0.500000 0.199701
O O12 0.141914 0.211854 0.249796
O O13 0.177984 0.223393 0.155171
O O14 0.005830 0.285934 0.109100
O O15 0.037917 0.000000 0.960378
O O16 0.167189 0.762674 0.040440
O O17 0.000000 0.720309 0.000000
O O18 0.140734 0.000000 0.332522
O O19 0.768476 0.500000 0.872932
#
# Coordination Sequence:
#
# PCOD9195897 Si02
#       8
#     8   8   8   8   8   8   2   8
#     4  11  24  42  64  92 121 164 210 256 311 375
#     4  10  21  37  62  89 115 154 210 255 301 364
#     4  10  20  39  62  86 120 164 200 242 309 367
#     4  10  20  35  55  85 118 147 191 250 296 349
#     4   9  17  32  56  83 112 151 192 234 293 357
#     4  10  21  37  59  85 119 157 200 251 301 356
#     4  12  26  44  64  86 128 160 200 262 322 362
#     4   9  19  35  58  86 116 154 196 238 298 364
#
# _framework density 23.069512
#
# number of rings (size 3 to 8) (size 9 to 14) (size 15 to 20)
#    0.000    2.069    2.069    1.034    0.966    4.966 
#    2.483    2.069    0.000    0.000    0.000    0.000 
#    0.000    0.000    0.000    0.000    0.000    0.000 
#
# Total GULP energy -161638.788512 kJ/mol
# GULP energy per Si atom -5573.751328 kJ/mol
# Density = 2.301700 g / cm^3
# Si number density = 23.069512 Si / 1000 Ang^3
#
#
#
# Elastic Constant Matrix: (Units=GPa)
#
#
# Indices 1 2 3 4 5 6 
#
# 1 39.7213 -1.6025 13.1811 0.0000 19.0128 0.0000
# 2 -1.6025 78.7321 -8.2052 0.0000 7.9690 0.0000
# 3 13.1811 -8.2052 124.2532 0.0000 21.6783 0.0000
# 4 0.0000 0.0000 0.0000 21.5754 0.0000 -8.1989
# 5 19.0128 7.9690 21.6783 0.0000 34.5771 0.0000
# 6 0.0000 0.0000 0.0000 -8.1989 0.0000 5.3558
#
#
#
# Elastic Compliance Matrix: (Units=1/GPa)
#
#
# Indices 1 2 3 4 5 6 
#
# 1 0.034721 0.002689 -0.000075 0.000000 -0.019665 0.000000
# 2 0.002689 0.013485 0.001578 0.000000 -0.005576 0.000000
# 3 -0.000075 0.001578 0.009226 0.000000 -0.006107 0.000000
# 4 0.000000 0.000000 0.000000 0.110812 0.000000 0.169635
# 5 -0.019665 -0.005576 -0.006107 0.000000 0.044848 0.000000
# 6 0.000000 0.000000 0.000000 0.169635 0.000000 0.446395
#
#
# Mechanical properties :
#
#
# Convention : Reuss Voigt Hill
#
# Bulk Modulus (GPa) = 15.19362 27.71705 21.45533
# Shear Modulus (GPa) = 7.42897 28.25721 17.84309
#
# Velocity S-wave (km/s) = 1.79645 3.50361 2.78411
# Velocity P-wave (km/s) = 3.30202 5.32989 4.43346
#
# Compressibility (1/GPa) = 0.06581712
#
# Stress axis : x y z
#
# Youngs Moduli (GPa) = 28.80062 74.15717 108.39357
#
# Poissons Ratio (x) = -0.19943 0.00811
# Poissons Ratio (y) = -0.07745 -0.17105
# Poissons Ratio (z) = 0.00215 -0.11702
#
# Static dielectric constant tensor:
#      x y z
#    x 1.975280 0.000000 0.034600 
#    y 0.000000 1.898980 0.000000 
#    z 0.034600 0.000000 1.862110 
# 
# From -- ./inp_files/346541.got.cif
#   From: 2010.05.17/outbox.cif.g08.bks.cpg/sg12_174_cif.got.tgz:346541.got - 2010.06.03 13:09:07.
