data_PCOD9195511
_publ_section_title
;
Structure prediction by ZEFSAII (Michael W. Deem and Ramdas Pophale) SiO2 
 PCOD9195511
Probable space group: C 2/M
;
_chemical_formula_sum "Si O2"
_cell_formula_units_Z 58
_cell_length_a 25.357278
_cell_length_b 7.652085
_cell_length_c 12.189862
_cell_angle_alpha 90.000000
_cell_angle_beta 110.834285
_cell_angle_gamma 90.000000
_cell_volume 2210.614592
_symmetry_space_group_name_H-M "C 2/M"
_symmetry_group_IT_number 12
_symmetry_cell_setting 'monoclinic'
loop_
_space_group_symop_operation_xyz
x,y,z
-x,y,-z
-x,-y,-z
x,-y,z
1/2+x,1/2+y,z
1/2-x,1/2+y,-z
1/2-x,1/2-y,-z
1/2+x,1/2-y,z
loop_
_atom_site_type_symbol
_atom_site_label
_atom_site_fract_x
_atom_site_fract_y
_atom_site_fract_z
Si Si1 0.560391 0.288604 0.596850
Si Si2 0.500000 0.500000 0.000000
Si Si3 0.133379 0.300973 0.076519
Si Si4 0.752530 0.702498 0.250141
Si Si5 0.835686 0.798093 0.469508
Si Si6 0.812665 0.708905 0.092028
Si Si7 0.103466 0.301139 0.275214
Si Si8 0.482886 0.694012 0.210950
O O1 0.500000 0.237583 0.500000
O O2 0.564720 0.500000 0.590554
O O3 0.611650 0.219200 0.560771
O O4 0.560850 0.241778 0.727761
O O5 0.477340 0.652758 0.076121
O O6 0.111343 0.500000 0.044245
O O7 0.196848 0.305159 0.175521
O O8 0.102353 0.209830 0.154918
O O9 0.143648 0.217030 0.964966
O O10 0.740566 0.500000 0.214400
O O11 0.777399 0.711828 0.389522
O O12 0.804365 0.766625 0.210439
O O13 0.854894 0.784730 0.608749
O O14 0.828091 0.000000 0.437035
O O15 0.820945 0.500000 0.095929
O O16 0.750000 0.750000 0.000000
O O17 0.121991 0.500000 0.275132
O O18 0.039596 0.301872 0.267088
O O19 0.498834 0.500000 0.265287
#
# Coordination Sequence:
#
# PCOD9195511 Si02
#       8
#     8   2   8   8   8   8   8   8
#     4   9  16  32  59  81 102 138 183 226 266 320
#     4   8  20  36  64  84 112 148 178 230 272 320
#     4   9  19  36  56  77 108 151 191 221 272 334
#     4  10  20  35  54  81 115 141 179 236 280 321
#     4  11  22  36  56  81 108 146 187 226 278 330
#     4   8  15  31  53  73  99 136 176 219 265 315
#     4  11  22  36  56  83 112 145 185 230 275 328
#     4   9  18  38  59  82 112 143 183 225 268 327
#
# _framework density 26.237045999999999
#
# number of rings (size 3 to 8) (size 9 to 14) (size 15 to 20)
#    0.414    2.069    1.379    1.241    0.000    2.207 
#    2.483    2.414    0.000    0.000    0.000    0.000 
#    0.000    0.000    0.000    0.000    0.000    0.000 
#
# Total GULP energy -161496.800758 kJ/mol
# GULP energy per Si atom -5568.855199 kJ/mol
# Density = 2.617733 g / cm^3
# Si number density = 26.237046 Si / 1000 Ang^3
#
#
#
# Elastic Constant Matrix: (Units=GPa)
#
#
# Indices 1 2 3 4 5 6 
#
# 1 62.1135 -9.3361 11.7317 0.0000 -20.9192 0.0000
# 2 -9.3361 78.2407 -3.0844 0.0000 -6.6758 0.0000
# 3 11.7317 -3.0844 141.7713 0.0000 5.4655 0.0000
# 4 0.0000 0.0000 0.0000 15.8535 0.0000 -7.7068
# 5 -20.9192 -6.6758 5.4655 0.0000 46.4011 0.0000
# 6 0.0000 0.0000 0.0000 -7.7068 0.0000 8.4380
#
#
#
# Elastic Compliance Matrix: (Units=1/GPa)
#
#
# Indices 1 2 3 4 5 6 
#
# 1 0.020262 0.003178 -0.001986 0.000000 0.009826 0.000000
# 2 0.003178 0.013445 -0.000101 0.000000 0.003379 0.000000
# 3 -0.001986 -0.000101 0.007284 0.000000 -0.001768 0.000000
# 4 0.000000 0.000000 0.000000 0.113448 0.000000 0.103616
# 5 0.009826 0.003379 -0.001768 0.000000 0.026675 0.000000
# 6 0.000000 0.000000 0.000000 0.103616 0.000000 0.213149
#
#
# Mechanical properties :
#
#
# Convention : Reuss Voigt Hill
#
# Bulk Modulus (GPa) = 23.16339 31.19423 27.17881
# Shear Modulus (GPa) = 12.30101 32.99282 22.64691
#
# Velocity S-wave (km/s) = 2.16762 3.54996 2.94116
# Velocity P-wave (km/s) = 3.88747 5.35893 4.68138
#
# Compressibility (1/GPa) = 0.04317158
#
# Stress axis : x y z
#
# Youngs Moduli (GPa) = 49.35451 74.37944 137.28816
#
# Poissons Ratio (x) = -0.23636 0.27270
# Poissons Ratio (y) = -0.15684 0.01383
# Poissons Ratio (z) = 0.09803 0.00749
#
# Static dielectric constant tensor:
#      x y z
#    x 2.141290 0.000000 -0.095040 
#    y 0.000000 1.453790 0.000000 
#    z -0.095040 0.000000 2.163240 
# 
# From -- ./inp_files/186716.got.cif
#   From: 2010.05.17/outbox.cif.g08.bks.cpg/sg12_94_cif.got.tgz:186716.got - 2010.06.03 13:09:07.
