data_PCOD9195672
_publ_section_title
;
Structure prediction by ZEFSAII (Michael W. Deem and Ramdas Pophale) SiO2 
 PCOD9195672
Probable space group: C 2/M
;
_chemical_formula_sum "Si O2"
_cell_formula_units_Z 48
_cell_length_a 12.016425
_cell_length_b 13.138726
_cell_length_c 28.805771
_cell_angle_alpha 90.000000
_cell_angle_beta 27.711487
_cell_angle_gamma 90.000000
_cell_volume 2114.848429
_symmetry_space_group_name_H-M "C 2/M"
_symmetry_group_IT_number 12
_symmetry_cell_setting 'monoclinic'
loop_
_space_group_symop_operation_xyz
x,y,z
-x,y,-z
-x,-y,-z
x,-y,z
1/2+x,1/2+y,z
1/2-x,1/2+y,-z
1/2-x,1/2-y,-z
1/2+x,1/2-y,z
loop_
_atom_site_type_symbol
_atom_site_label
_atom_site_fract_x
_atom_site_fract_y
_atom_site_fract_z
Si Si1 0.410281 0.705651 0.900275
Si Si2 0.386738 0.815001 0.759171
Si Si3 0.149917 0.614233 0.752250
Si Si4 0.859781 0.115171 0.828246
Si Si5 0.841756 0.808178 0.410375
Si Si6 0.875463 0.613511 0.605832
O O1 0.632203 0.640849 0.838620
O O2 0.521062 0.801658 0.831383
O O3 0.272555 0.641566 0.911943
O O4 0.250000 0.750000 0.000000
O O5 0.540562 0.870658 0.741329
O O6 0.307349 0.705472 0.811528
O O7 0.552702 0.792318 0.653306
O O8 0.102605 0.500000 0.785878
O O9 0.433695 0.635304 0.649976
O O10 0.152254 0.122659 0.722629
O O11 0.801230 0.000000 0.835283
O O12 0.749118 0.870187 0.398417
O O13 0.593609 0.808256 0.530540
O O14 0.974249 0.500000 0.573178
#
# Coordination Sequence:
#
# PCOD9195672 Si02
#       6
#     8   8   8   8   8   8
#     4  10  22  39  55  75 104 136 174 219 266 316
#     4   9  20  36  52  78 108 135 170 217 262 309
#     4  10  20  35  55  79 107 141 177 215 260 311
#     4   9  19  35  55  79 106 135 170 214 261 305
#     4   9  16  30  52  77 106 139 172 209 253 303
#     4   9  15  27  51  81 107 136 174 214 253 303
#
# _framework density 22.696660999999999
#
# number of rings (size 3 to 8) (size 9 to 14) (size 15 to 20)
#    0.000    2.667    0.000    2.000    0.000    8.667 
#    0.000   24.167    0.000    0.000    0.000   24.500 
#    0.000    0.000    0.000    0.000    0.000    0.000 
#
# Total GULP energy -133958.054102 kJ/mol
# GULP energy per Si atom -5581.585588 kJ/mol
# Density = 2.264500 g / cm^3
# Si number density = 22.696661 Si / 1000 Ang^3
#
#
#
# Elastic Constant Matrix: (Units=GPa)
#
#
# Indices 1 2 3 4 5 6 
#
# 1 95.9412 0.8415 28.6822 -0.0001 -19.9832 0.0002
# 2 0.8415 69.6687 -6.3037 -0.0001 -6.2200 -0.0013
# 3 28.6822 -6.3037 76.8291 0.0020 -2.7398 0.0010
# 4 -0.0001 -0.0001 0.0020 16.3642 0.0029 0.2072
# 5 -19.9832 -6.2200 -2.7398 0.0029 41.4067 -0.0001
# 6 0.0002 -0.0013 0.0010 0.2072 -0.0001 9.6923
#
#
#
# Elastic Compliance Matrix: (Units=1/GPa)
#
#
# Indices 1 2 3 4 5 6 
#
# 1 0.013067 -0.000045 -0.004668 0.000000 0.005990 0.000000
# 2 -0.000045 0.014675 0.001302 -0.000001 0.002269 0.000002
# 3 -0.004668 0.001302 0.014827 -0.000002 -0.001076 -0.000001
# 4 0.000000 -0.000001 -0.000002 0.061126 -0.000005 -0.001307
# 5 0.005990 0.002269 -0.001076 -0.000005 0.027311 0.000001
# 6 0.000000 0.000002 -0.000001 -0.001307 0.000001 0.103203
#
#
# Mechanical properties :
#
#
# Convention : Reuss Voigt Hill
#
# Bulk Modulus (GPa) = 27.97605 32.09766 30.03686
# Shear Modulus (GPa) = 19.76701 28.10723 23.93712
#
# Velocity S-wave (km/s) = 2.95434 3.52289 3.25107
# Velocity P-wave (km/s) = 4.89799 5.54260 5.23023
#
# Compressibility (1/GPa) = 0.03574486
#
# Stress axis : x y z
#
# Youngs Moduli (GPa) = 76.53004 68.14524 67.44403
#
# Poissons Ratio (x) = 0.00309 0.31485
# Poissons Ratio (y) = 0.00347 -0.08780
# Poissons Ratio (z) = 0.35726 -0.08872
#
# Static dielectric constant tensor:
#      x y z
#    x 1.901170 0.000000 0.030070 
#    y 0.000000 1.837460 0.000000 
#    z 0.030070 0.000000 1.915590 
# 
# From -- ./inp_files/374030.got.cif
#   From: 2010.05.17/outbox.cif.g08.bks.cpg/sg12_188_cif.got.tgz:374030.got - 2010.06.03 13:09:07.
