data_PCOD9195678
_publ_section_title
;
Structure prediction by ZEFSAII (Michael W. Deem and Ramdas Pophale) SiO2 
 PCOD9195678
Probable space group: C 2/M
;
_chemical_formula_sum "Si O2"
_cell_formula_units_Z 48
_cell_length_a 14.508699
_cell_length_b 8.650421
_cell_length_c 22.778110
_cell_angle_alpha 90.000000
_cell_angle_beta 72.539883
_cell_angle_gamma 90.000000
_cell_volume 2727.081419
_symmetry_space_group_name_H-M "C 2/M"
_symmetry_group_IT_number 12
_symmetry_cell_setting 'monoclinic'
loop_
_space_group_symop_operation_xyz
x,y,z
-x,y,-z
-x,-y,-z
x,-y,z
1/2+x,1/2+y,z
1/2-x,1/2+y,-z
1/2-x,1/2-y,-z
1/2+x,1/2-y,z
loop_
_atom_site_type_symbol
_atom_site_label
_atom_site_fract_x
_atom_site_fract_y
_atom_site_fract_z
Si Si1 0.229269 0.814207 0.829835
Si Si2 0.034436 0.812159 0.930102
Si Si3 0.797204 0.184370 0.400027
Si Si4 0.935165 0.814222 0.828747
Si Si5 0.609395 0.313763 0.493275
Si Si6 0.626224 0.184021 0.736062
O O1 0.142983 0.766958 0.890886
O O2 0.331861 0.750125 0.830123
O O3 0.197038 0.751140 0.772621
O O4 0.231696 0.000000 0.827068
O O5 0.965260 0.766551 0.889285
O O6 0.033272 0.000000 0.932093
O O7 0.000000 0.754914 0.000000
O O8 0.688510 0.237105 0.435975
O O9 0.860022 0.225249 0.445872
O O10 0.837603 0.264729 0.334510
O O11 0.800615 0.000000 0.391782
O O12 0.020557 0.751992 0.770892
O O13 0.934910 0.000000 0.826260
O O14 0.500000 0.267566 0.500000
O O15 0.616637 0.500000 0.485736
O O16 0.623503 0.000000 0.741085
#
# Coordination Sequence:
#
# PCOD9195678 Si02
#       6
#     8   8   8   8   8   8
#     4  10  20  35  55  79 108 140 178 222 269 321
#     4   8  16  32  53  77 107 142 178 218 263 314
#     4  10  20  35  55  79 108 138 174 220 267 315
#     4  10  20  35  55  79 109 142 178 220 268 320
#     4   9  19  36  56  78 106 140 176 214 259 313
#     4  11  22  37  56  77 106 142 182 225 270 318
#
# _framework density 17.601234000000002
#
# number of rings (size 3 to 8) (size 9 to 14) (size 15 to 20)
#    0.000    2.333    0.000    4.000    0.000    3.000 
#    0.000    5.000    0.000   17.000    0.000    0.000 
#    0.000    0.000    0.000    0.000    0.000    0.000 
#
# Total GULP energy -133950.128679 kJ/mol
# GULP energy per Si atom -5581.255362 kJ/mol
# Density = 1.756117 g / cm^3
# Si number density = 17.601234 Si / 1000 Ang^3
#
#
#
# Elastic Constant Matrix: (Units=GPa)
#
#
# Indices 1 2 3 4 5 6 
#
# 1 180.9257 53.0916 81.6647 0.0000 -7.7583 0.0000
# 2 53.0916 73.8049 53.5133 0.0000 -2.9159 0.0000
# 3 81.6647 53.5133 154.7302 0.0000 -7.6492 0.0000
# 4 0.0000 0.0000 0.0000 20.7148 0.0000 -1.6846
# 5 -7.7583 -2.9159 -7.6492 0.0000 4.7131 0.0000
# 6 0.0000 0.0000 0.0000 -1.6846 0.0000 26.9648
#
#
#
# Elastic Compliance Matrix: (Units=1/GPa)
#
#
# Indices 1 2 3 4 5 6 
#
# 1 0.008086 -0.003601 -0.002690 0.000000 0.006717 0.000000
# 2 -0.003601 0.019693 -0.005002 0.000000 -0.001862 0.000000
# 3 -0.002690 -0.005002 0.010047 0.000000 0.008782 0.000000
# 4 0.000000 0.000000 0.000000 0.048521 0.000000 0.003031
# 5 0.006717 -0.001862 0.008782 0.000000 0.236331 0.000000
# 6 0.000000 0.000000 0.000000 0.003031 0.000000 0.037275
#
#
# Mechanical properties :
#
#
# Convention : Reuss Voigt Hill
#
# Bulk Modulus (GPa) = 65.62105 87.33334 76.47720
# Shear Modulus (GPa) = 12.89924 25.22462 19.06193
#
# Velocity S-wave (km/s) = 2.71008 3.78976 3.29445
# Velocity P-wave (km/s) = 6.86700 8.29911 7.61679
#
# Compressibility (1/GPa) = 0.01523901
#
# Stress axis : x y z
#
# Youngs Moduli (GPa) = 123.66870 50.77972 99.53124
#
# Poissons Ratio (x) = 0.18284 0.26778
# Poissons Ratio (y) = 0.44529 0.49790
# Poissons Ratio (z) = 0.33272 0.25402
#
# Static dielectric constant tensor:
#      x y z
#    x 1.574430 0.000000 0.004920 
#    y 0.000000 1.589650 0.000000 
#    z 0.004920 0.000000 1.581810 
# 
# From -- ./inp_files/308312.got.cif
#   From: 2010.05.17/outbox.cif.g08.bks.cpg/sg12_155_cif.got.tgz:308312.got - 2010.06.03 13:09:07.
