data_PCOD9195257
_publ_section_title
;
Structure prediction by ZEFSAII (Michael W. Deem and Ramdas Pophale) SiO2 
 PCOD9195257
Probable space group: C 2/M
;
_chemical_formula_sum "Si O2"
_cell_formula_units_Z 60
_cell_length_a 14.829851
_cell_length_b 7.547480
_cell_length_c 25.596845
_cell_angle_alpha 90.000000
_cell_angle_beta 107.631062
_cell_angle_gamma 90.000000
_cell_volume 2730.424805
_symmetry_space_group_name_H-M "C 2/M"
_symmetry_group_IT_number 12
_symmetry_cell_setting 'monoclinic'
loop_
_space_group_symop_operation_xyz
x,y,z
-x,y,-z
-x,-y,-z
x,-y,z
1/2+x,1/2+y,z
1/2-x,1/2+y,-z
1/2-x,1/2-y,-z
1/2+x,1/2-y,z
loop_
_atom_site_type_symbol
_atom_site_label
_atom_site_fract_x
_atom_site_fract_y
_atom_site_fract_z
Si Si1 0.000000 0.251157 0.000000
Si Si2 0.224102 0.705501 0.196355
Si Si3 0.455340 0.787974 0.413634
Si Si4 0.411654 0.285429 0.087804
Si Si5 0.590704 0.712782 0.713673
Si Si6 0.644865 0.787743 0.500773
Si Si7 0.698562 0.783060 0.073541
Si Si8 0.473282 0.286380 0.789137
O O1 0.107655 0.191765 0.032030
O O2 0.973129 0.310530 0.054308
O O3 0.248250 0.500000 0.190473
O O4 0.310685 0.781146 0.244877
O O5 0.206775 0.776690 0.135255
O O6 0.128163 0.716947 0.211852
O O7 0.426164 0.751163 0.349583
O O8 0.560459 0.722891 0.447902
O O9 0.382908 0.723261 0.445842
O O10 0.457707 0.000000 0.418559
O O11 0.424622 0.500000 0.083145
O O12 0.300415 0.245088 0.066097
O O13 0.451560 0.240990 0.152162
O O14 0.592269 0.500000 0.717558
O O15 0.509555 0.775457 0.739266
O O16 0.750000 0.750000 0.500000
O O17 0.638124 0.000000 0.500704
O O18 0.683335 0.000000 0.067577
O O19 0.467123 0.500000 0.787441
#
# Coordination Sequence:
#
# PCOD9195257 Si02
#       8
#     4   8   8   8   8   8   8   8
#     4  12  20  32  56  80 100 132 180 230 278 330
#     4  10  20  37  57  77 105 144 183 225 277 333
#     4   9  20  38  58  84 121 153 187 233 283 322
#     4  10  20  35  53  74 103 137 174 221 276 333
#     4  10  21  37  59  81 109 151 193 226 275 337
#     4   9  19  37  60  86 118 159 191 229 280 326
#     4  10  20  35  53  74 103 137 174 221 276 333
#     4  10  20  37  57  77 105 144 183 225 277 333
#
# _framework density 21.974602999999998
#
# number of rings (size 3 to 8) (size 9 to 14) (size 15 to 20)
#    0.000    2.133    2.667    1.600    0.000    3.200 
#    0.000    6.667    0.000    1.600    0.000    0.000 
#    0.000    0.000    0.000    0.000    0.000    0.000 
#
# Total GULP energy -167293.583552 kJ/mol
# GULP energy per Si atom -5576.452785 kJ/mol
# Density = 2.192459 g / cm^3
# Si number density = 21.974603 Si / 1000 Ang^3
#
#
#
# Elastic Constant Matrix: (Units=GPa)
#
#
# Indices 1 2 3 4 5 6 
#
# 1 147.7993 2.8902 46.8122 0.0000 -11.9749 0.0000
# 2 2.8902 61.8920 4.6460 0.0000 -1.0661 0.0000
# 3 46.8122 4.6460 147.5291 0.0000 -17.0072 0.0000
# 4 0.0000 0.0000 0.0000 62.5685 0.0000 -2.6744
# 5 -11.9749 -1.0661 -17.0072 0.0000 24.5516 0.0000
# 6 0.0000 0.0000 0.0000 -2.6744 0.0000 12.7937
#
#
#
# Elastic Compliance Matrix: (Units=1/GPa)
#
#
# Indices 1 2 3 4 5 6 
#
# 1 0.007633 -0.000156 -0.002161 0.000000 0.002219 0.000000
# 2 -0.000156 0.016202 -0.000422 0.000000 0.000335 0.000000
# 3 -0.002161 -0.000422 0.007992 0.000000 0.004464 0.000000
# 4 0.000000 0.000000 0.000000 0.016127 0.000000 0.003371
# 5 0.002219 0.000335 0.004464 0.000000 0.044919 0.000000
# 6 0.000000 0.000000 0.000000 0.003371 0.000000 0.078868
#
#
# Mechanical properties :
#
#
# Convention : Reuss Voigt Hill
#
# Bulk Modulus (GPa) = 37.95311 51.76857 44.86084
# Shear Modulus (GPa) = 26.88127 40.17423 33.52775
#
# Velocity S-wave (km/s) = 3.50135 4.28040 3.91032
# Velocity P-wave (km/s) = 5.80127 6.93099 6.39114
#
# Compressibility (1/GPa) = 0.02634830
#
# Stress axis : x y z
#
# Youngs Moduli (GPa) = 131.00403 61.72108 125.12493
#
# Poissons Ratio (x) = 0.00963 0.27044
# Poissons Ratio (y) = 0.02044 0.05282
# Poissons Ratio (z) = 0.28315 0.02605
#
# Static dielectric constant tensor:
#      x y z
#    x 1.771920 0.000000 -0.001660 
#    y 0.000000 1.910230 0.000000 
#    z -0.001660 0.000000 1.792320 
# 
# From -- ./inp_files/338951.got.cif
#   From: 2010.05.17/outbox.cif.g08.bks.cpg/sg12_170_cif.got.tgz:338951.got - 2010.06.03 13:09:07.
