data_PCOD9195589
_publ_section_title
;
Structure prediction by ZEFSAII (Michael W. Deem and Ramdas Pophale) SiO2 
 PCOD9195589
Probable space group: C 2/M
;
_chemical_formula_sum "Si O2"
_cell_formula_units_Z 48
_cell_length_a 8.330189
_cell_length_b 12.375239
_cell_length_c 24.629309
_cell_angle_alpha 90.000000
_cell_angle_beta 92.673551
_cell_angle_gamma 90.000000
_cell_volume 2536.224518
_symmetry_space_group_name_H-M "C 2/M"
_symmetry_group_IT_number 12
_symmetry_cell_setting 'monoclinic'
loop_
_space_group_symop_operation_xyz
x,y,z
-x,y,-z
-x,-y,-z
x,-y,z
1/2+x,1/2+y,z
1/2-x,1/2+y,-z
1/2-x,1/2-y,-z
1/2+x,1/2-y,z
loop_
_atom_site_type_symbol
_atom_site_label
_atom_site_fract_x
_atom_site_fract_y
_atom_site_fract_z
Si Si1 0.414880 0.306150 0.792653
Si Si2 0.016609 0.379396 0.064766
Si Si3 0.323276 0.306112 0.125960
Si Si4 0.909719 0.379484 0.398143
Si Si5 0.380250 0.306182 0.540700
Si Si6 0.608049 0.120515 0.731482
O O1 0.545847 0.364163 0.833336
O O2 0.295955 0.249850 0.833351
O O3 0.507228 0.213541 0.760008
O O4 0.294843 0.370688 0.751969
O O5 0.958392 0.500000 0.078872
O O6 0.203619 0.370526 0.085059
O O7 0.915795 0.286593 0.093462
O O8 0.000000 0.366065 0.000000
O O9 0.972118 0.500000 0.412326
O O10 0.728522 0.370695 0.418590
O O11 0.907319 0.366389 0.333331
O O12 0.018426 0.286477 0.426680
O O13 0.500000 0.364146 0.500000
O O14 0.250000 0.250000 0.500000
O O15 0.549522 0.000000 0.745651
#
# Coordination Sequence:
#
# PCOD9195589 Si02
#       6
#     8   8   8   8   8   8
#     4   9  19  34  53  77 104 135 171 213 256 304
#     4  10  20  35  55  77 104 138 173 213 260 307
#     4   9  19  34  53  77 104 135 171 213 256 304
#     4  10  20  35  55  77 104 138 172 211 259 306
#     4   9  19  34  53  77 104 135 171 212 253 301
#     4  10  20  35  55  77 104 137 171 212 259 306
#
# _framework density 18.925768000000001
#
# number of rings (size 3 to 8) (size 9 to 14) (size 15 to 20)
#    0.000    2.500    0.000    1.500    0.000   10.000 
#    0.000    7.500    0.000   27.000    0.000    0.000 
#    0.000    0.000    0.000    0.000    0.000    0.000 
#
# Total GULP energy -133638.281025 kJ/mol
# GULP energy per Si atom -5568.261709 kJ/mol
# Density = 1.888269 g / cm^3
# Si number density = 18.925768 Si / 1000 Ang^3
#
#
#
# Elastic Constant Matrix: (Units=GPa)
#
#
# Indices 1 2 3 4 5 6 
#
# 1 79.6990 18.6557 30.8131 0.0000 7.4913 0.0000
# 2 18.6557 82.3512 37.9179 0.0000 -0.9472 0.0000
# 3 30.8131 37.9179 85.7480 0.0000 10.9823 0.0000
# 4 0.0000 0.0000 0.0000 -34.9487 0.0000 -7.1698
# 5 7.4913 -0.9472 10.9823 0.0000 37.4612 0.0000
# 6 0.0000 0.0000 0.0000 -7.1698 0.0000 22.2293
#
#
#
# Elastic Compliance Matrix: (Units=1/GPa)
#
#
# Indices 1 2 3 4 5 6 
#
# 1 0.014751 -0.001278 -0.004523 0.000000 -0.001656 0.000000
# 2 -0.001278 0.015579 -0.006767 0.000000 0.002633 0.000000
# 3 -0.004523 -0.006767 0.016817 0.000000 -0.004197 0.000000
# 4 0.000000 0.000000 0.000000 -0.026838 0.000000 -0.008656
# 5 -0.001656 0.002633 -0.004197 0.000000 0.028322 0.000000
# 6 0.000000 0.000000 0.000000 -0.008656 0.000000 0.042194
#
#
# Mechanical properties :
#
#
# Convention : Reuss Voigt Hill
#
# Bulk Modulus (GPa) = 45.43324 46.95239 46.19282
# Shear Modulus (GPa) = 40.55180 15.64245 28.09713
#
# Velocity S-wave (km/s) = 4.63393 2.87804 3.85723
# Velocity P-wave (km/s) = 7.25873 5.99222 6.65567
#
# Compressibility (1/GPa) = 0.02201032
#
# Stress axis : x y z
#
# Youngs Moduli (GPa) = 67.79274 64.19020 59.46202
#
# Poissons Ratio (x) = 0.08203 0.26897
# Poissons Ratio (y) = 0.08663 0.40238
# Poissons Ratio (z) = 0.30666 0.43437
#
# Static dielectric constant tensor:
#      x y z
#    x 1.679580 0.000000 0.020180 
#    y 0.000000 1.673840 0.000000 
#    z 0.020180 0.000000 1.656920 
# 
# From -- ./inp_files/332027.got.cif
#   From: 2010.05.17/outbox.cif.g08.bks.cpg/sg12_167_cif.got.tgz:332027.got - 2010.06.03 13:09:07.
