data_PCOD9195744
_publ_section_title
;
Structure prediction by ZEFSAII (Michael W. Deem and Ramdas Pophale) SiO2 
 PCOD9195744
Probable space group: C 2/M
;
_chemical_formula_sum "Si O2"
_cell_formula_units_Z 36
_cell_length_a 18.514368
_cell_length_b 10.061971
_cell_length_c 10.154128
_cell_angle_alpha 90.000000
_cell_angle_beta 109.676473
_cell_angle_gamma 90.000000
_cell_volume 1781.169027
_symmetry_space_group_name_H-M "C 2/M"
_symmetry_group_IT_number 12
_symmetry_cell_setting 'monoclinic'
loop_
_space_group_symop_operation_xyz
x,y,z
-x,y,-z
-x,-y,-z
x,-y,z
1/2+x,1/2+y,z
1/2-x,1/2+y,-z
1/2-x,1/2-y,-z
1/2+x,1/2-y,z
loop_
_atom_site_type_symbol
_atom_site_label
_atom_site_fract_x
_atom_site_fract_y
_atom_site_fract_z
Si Si1 0.883769 0.344882 0.563977
Si Si2 0.680488 0.657326 0.694979
Si Si3 0.500000 0.705784 0.000000
Si Si4 0.656672 0.151551 0.152554
Si Si5 0.486535 0.355740 0.290154
O O1 0.890686 0.500000 0.528571
O O2 0.832595 0.256001 0.435352
O O3 0.851925 0.343079 0.693539
O O4 0.964253 0.265606 0.622649
O O5 0.690864 0.500000 0.663412
O O6 0.757133 0.701328 0.819274
O O7 0.602606 0.662490 0.731314
O O8 0.581014 0.782540 0.048413
O O9 0.500214 0.638621 0.142391
O O10 0.654159 0.000000 0.106762
O O11 0.512218 0.500000 0.360237
#
# Coordination Sequence:
#
# PCOD9195744 Si02
#       5
#     8   8   4   8   8
#     4  10  20  35  56  82 110 139 173 215 264 316
#     4  10  20  35  55  80 109 140 175 216 264 315
#     4  10  20  36  56  76 103 140 183 222 259 310
#     4   9  19  35  55  79 108 141 175 216 265 314
#     4  10  21  36  55  78 107 143 178 216 262 313
#
# _framework density 20.211444
#
# number of rings (size 3 to 8) (size 9 to 14) (size 15 to 20)
#    0.000    2.222    0.000    2.667    0.000    5.333 
#    0.000    5.556    0.000    0.000    0.000    0.000 
#    0.000    0.000    0.000    0.000    0.000    0.000 
#
# Total GULP energy -100315.139029 kJ/mol
# GULP energy per Si atom -5573.063279 kJ/mol
# Density = 2.016544 g / cm^3
# Si number density = 20.211444 Si / 1000 Ang^3
#
#
#
# Elastic Constant Matrix: (Units=GPa)
#
#
# Indices 1 2 3 4 5 6 
#
# 1 89.2944 39.4574 7.0413 0.0000 39.0123 0.0000
# 2 39.4574 107.2351 37.5639 0.0000 27.0772 0.0000
# 3 7.0413 37.5639 67.3556 0.0000 16.8449 0.0000
# 4 0.0000 0.0000 0.0000 90.9212 0.0000 -33.8269
# 5 39.0123 27.0772 16.8449 0.0000 42.5597 0.0000
# 6 0.0000 0.0000 0.0000 -33.8269 0.0000 28.4145
#
#
#
# Elastic Compliance Matrix: (Units=1/GPa)
#
#
# Indices 1 2 3 4 5 6 
#
# 1 0.020807 -0.004888 0.005042 0.000000 -0.017959 0.000000
# 2 -0.004888 0.013947 -0.006846 0.000000 -0.001683 0.000000
# 3 0.005042 -0.006846 0.020204 0.000000 -0.008263 0.000000
# 4 0.000000 0.000000 0.000000 0.019743 0.000000 0.023504
# 5 -0.017959 -0.001683 -0.008263 0.000000 0.044300 0.000000
# 6 0.000000 0.000000 0.000000 0.023504 0.000000 0.063174
#
#
# Mechanical properties :
#
#
# Convention : Reuss Voigt Hill
#
# Bulk Modulus (GPa) = 24.05320 48.00116 36.02718
# Shear Modulus (GPa) = 23.87584 44.36724 34.12154
#
# Velocity S-wave (km/s) = 3.44074 4.69033 4.11326
# Velocity P-wave (km/s) = 5.26417 7.28926 6.35786
#
# Compressibility (1/GPa) = 0.04157452
#
# Stress axis : x y z
#
# Youngs Moduli (GPa) = 48.06021 71.70032 49.49520
#
# Poissons Ratio (x) = 0.35044 -0.24955
# Poissons Ratio (y) = 0.23490 0.33885
# Poissons Ratio (z) = -0.24232 0.49087
#
# Static dielectric constant tensor:
#      x y z
#    x 1.741560 0.000000 0.009210 
#    y 0.000000 1.709550 0.000000 
#    z 0.009210 0.000000 1.726250 
# 
# From -- ./inp_files/152062.got.cif
#   From: 2010.05.17/outbox.cif.g08.bks.cpg/sg12_77_cif.got.tgz:152062.got - 2010.06.03 13:09:07.
