data_PCOD9195757
_publ_section_title
;
Structure prediction by ZEFSAII (Michael W. Deem and Ramdas Pophale) SiO2 
 PCOD9195757
Probable space group: C 2/M
;
_chemical_formula_sum "Si O2"
_cell_formula_units_Z 56
_cell_length_a 18.274175
_cell_length_b 7.680722
_cell_length_c 29.598331
_cell_angle_alpha 90.000000
_cell_angle_beta 39.183994
_cell_angle_gamma 90.000000
_cell_volume 2624.795439
_symmetry_space_group_name_H-M "C 2/M"
_symmetry_group_IT_number 12
_symmetry_cell_setting 'monoclinic'
loop_
_space_group_symop_operation_xyz
x,y,z
-x,y,-z
-x,-y,-z
x,-y,z
1/2+x,1/2+y,z
1/2-x,1/2+y,-z
1/2-x,1/2-y,-z
1/2+x,1/2-y,z
loop_
_atom_site_type_symbol
_atom_site_label
_atom_site_fract_x
_atom_site_fract_y
_atom_site_fract_z
Si Si1 0.198816 0.209125 0.073400
Si Si2 0.000089 0.297724 0.639361
Si Si3 0.868413 0.286767 0.071879
Si Si4 0.061767 0.789184 0.785596
Si Si5 0.236859 0.293334 0.782473
Si Si6 0.837906 0.203154 0.356729
Si Si7 0.918217 0.286508 0.497706
O O1 0.283819 0.271886 0.072287
O O2 0.067922 0.275070 0.142130
O O3 0.194707 0.000000 0.079480
O O4 0.250000 0.250000 0.000000
O O5 0.033174 0.500000 0.624419
O O6 0.863159 0.282837 0.712502
O O7 0.071140 0.214052 0.646165
O O8 0.034975 0.227463 0.573369
O O9 0.869324 0.500000 0.071612
O O10 0.819300 0.229665 0.143792
O O11 0.000000 0.230562 0.000000
O O12 0.149768 0.742231 0.783197
O O13 0.108851 0.722935 0.714908
O O14 0.055831 0.000000 0.786415
O O15 0.253153 0.500000 0.779045
O O16 0.712973 0.274528 0.430985
O O17 0.816135 0.000000 0.357465
O O18 0.920268 0.500000 0.495870
O O19 0.000000 0.232855 0.500000
#
# Coordination Sequence:
#
# PCOD9195757 Si02
#       7
#     8   8   8   8   8   8   8
#     4  10  20  35  55  80 110 143 180 223 274 328
#     4  11  22  36  56  83 115 146 180 226 276 325
#     4   9  18  34  56  80 106 139 180 224 269 320
#     4  10  21  37  57  81 111 146 184 230 279 324
#     4  11  22  37  59  83 108 143 186 228 275 331
#     4  10  20  37  60  82 109 147 188 226 269 325
#     4   9  18  34  57  82 108 144 186 225 271 325
#
# _framework density 21.334993999999998
#
# number of rings (size 3 to 8) (size 9 to 14) (size 15 to 20)
#    0.000    2.000    0.000    3.857    0.000    6.857 
#    0.000    3.571    0.000    6.857    0.000    0.000 
#    0.000    0.000    0.000    0.000    0.000    0.000 
#
# Total GULP energy -156520.081660 kJ/mol
# GULP energy per Si atom -5590.002916 kJ/mol
# Density = 2.128644 g / cm^3
# Si number density = 21.334994 Si / 1000 Ang^3
#
#
#
# Elastic Constant Matrix: (Units=GPa)
#
#
# Indices 1 2 3 4 5 6 
#
# 1 188.5706 -17.4154 115.4626 -0.0016 6.5831 0.0082
# 2 -17.4154 34.7943 -5.7729 -0.0017 2.0883 -0.0077
# 3 115.4626 -5.7729 222.5613 -0.0005 9.4431 -0.0014
# 4 -0.0016 -0.0017 -0.0005 4.1884 -0.0009 -0.4533
# 5 6.5831 2.0883 9.4431 -0.0009 48.5579 0.0003
# 6 0.0082 -0.0077 -0.0014 -0.4533 0.0003 23.6704
#
#
#
# Elastic Compliance Matrix: (Units=1/GPa)
#
#
# Indices 1 2 3 4 5 6 
#
# 1 0.008162 0.003428 -0.004126 0.000004 -0.000452 -0.000002
# 2 0.003428 0.030399 -0.000922 0.000014 -0.001593 0.000009
# 3 -0.004126 -0.000922 0.006639 -0.000001 -0.000692 0.000002
# 4 0.000004 0.000014 -0.000001 0.239250 0.000004 0.004582
# 5 -0.000452 -0.001593 -0.000692 0.000004 0.020858 -0.000001
# 6 -0.000002 0.000009 0.000002 0.004582 -0.000001 0.042335
#
#
# Mechanical properties :
#
#
# Convention : Reuss Voigt Hill
#
# Bulk Modulus (GPa) = 23.83322 70.05276 46.94299
# Shear Modulus (GPa) = 13.70352 38.86014 26.28183
#
# Velocity S-wave (km/s) = 2.53712 4.27245 3.51360
# Velocity P-wave (km/s) = 4.44723 7.56600 6.20573
#
# Compressibility (1/GPa) = 0.04195824
#
# Stress axis : x y z
#
# Youngs Moduli (GPa) = 122.52045 32.89631 150.61957
#
# Poissons Ratio (x) = -0.11276 0.62149
# Poissons Ratio (y) = -0.41997 0.13890
# Poissons Ratio (z) = 0.50555 0.03034
#
# Static dielectric constant tensor:
#      x y z
#    x 1.706420 0.000000 0.001710 
#    y 0.000000 1.819730 0.000000 
#    z 0.001710 0.000000 1.749010 
# 
# From -- ./inp_files/275505.got.cif
#   From: 2010.05.17/outbox.cif.g08.bks.cpg/sg12_138_cif.got.tgz:275505.got - 2010.06.03 13:09:07.
