data_PCOD9195277
_publ_section_title
;
Structure prediction by ZEFSAII (Michael W. Deem and Ramdas Pophale) SiO2 
 PCOD9195277
Probable space group: C 2/M
;
_chemical_formula_sum "Si O2"
_cell_formula_units_Z 64
_cell_length_a 15.086314
_cell_length_b 8.708949
_cell_length_c 27.963717
_cell_angle_alpha 90.000000
_cell_angle_beta 105.487376
_cell_angle_gamma 90.000000
_cell_volume 3540.632325
_symmetry_space_group_name_H-M "C 2/M"
_symmetry_group_IT_number 12
_symmetry_cell_setting 'monoclinic'
loop_
_space_group_symop_operation_xyz
x,y,z
-x,y,-z
-x,-y,-z
x,-y,z
1/2+x,1/2+y,z
1/2-x,1/2+y,-z
1/2-x,1/2-y,-z
1/2+x,1/2-y,z
loop_
_atom_site_type_symbol
_atom_site_label
_atom_site_fract_x
_atom_site_fract_y
_atom_site_fract_z
Si Si1 0.395114 0.185486 0.497004
Si Si2 0.228628 0.315493 0.760542
Si Si3 0.785329 0.815932 0.873147
Si Si4 0.471325 0.816189 0.942362
Si Si5 0.654328 0.313817 0.313333
Si Si6 0.214536 0.683910 0.423519
Si Si7 0.534547 0.684767 0.762246
Si Si8 0.410188 0.315854 0.125181
O O1 0.500000 0.235105 0.500000
O O2 0.315565 0.251016 0.451054
O O3 0.357501 0.228284 0.544563
O O4 0.393677 0.000000 0.493441
O O5 0.222764 0.500000 0.758673
O O6 0.286332 0.275748 0.816648
O O7 0.275511 0.265152 0.718322
O O8 0.127840 0.248064 0.753283
O O9 0.875130 0.757237 0.912680
O O10 0.693737 0.739409 0.881185
O O11 0.778546 0.000000 0.875932
O O12 0.545926 0.760786 0.914672
O O13 0.463535 0.000000 0.939871
O O14 0.500000 0.769992 0.000000
O O15 0.655729 0.500000 0.316374
O O16 0.680600 0.246266 0.368052
O O17 0.554116 0.265055 0.280034
O O18 0.219404 0.500000 0.423560
O O19 0.536975 0.500000 0.761747
O O20 0.534801 0.728952 0.818364
O O21 0.413734 0.500000 0.121196
#
# Coordination Sequence:
#
# PCOD9195277 Si02
#       8
#     8   8   8   8   8   8   8   8
#     4   9  19  38  60  77 100 138 178 217 265 316
#     4   9  19  35  55  79 106 140 179 215 257 315
#     4  10  20  37  60  83 108 140 181 226 272 324
#     4  11  24  39  55  79 109 141 181 227 275 327
#     4  10  20  35  53  75 111 149 174 207 260 314
#     4  10  21  35  53  81 109 134 175 222 261 307
#     4   9  19  35  55  80 108 140 178 218 261 313
#     4  10  20  37  60  83 109 142 181 224 272 326
#
# _framework density 18.075868
#
# number of rings (size 3 to 8) (size 9 to 14) (size 15 to 20)
#    0.000    2.250    0.000    2.250    0.000    7.250 
#    0.000    5.000    0.000    0.000    0.000    0.000 
#    0.000    0.000    0.000    0.000    0.000    0.000 
#
# Total GULP energy -178615.371334 kJ/mol
# GULP energy per Si atom -5581.730354 kJ/mol
# Density = 1.803473 g / cm^3
# Si number density = 18.075868 Si / 1000 Ang^3
#
#
#
# Elastic Constant Matrix: (Units=GPa)
#
#
# Indices 1 2 3 4 5 6 
#
# 1 118.6312 12.1343 89.4775 0.0000 21.4552 0.0000
# 2 12.1343 12.1601 23.8117 0.0000 -4.9431 0.0000
# 3 89.4775 23.8117 164.3178 0.0000 17.8951 0.0000
# 4 0.0000 0.0000 0.0000 30.4634 0.0000 0.7360
# 5 21.4552 -4.9431 17.8951 0.0000 60.3427 0.0000
# 6 0.0000 0.0000 0.0000 0.7360 0.0000 31.5576
#
#
#
# Elastic Compliance Matrix: (Units=1/GPa)
#
#
# Indices 1 2 3 4 5 6 
#
# 1 0.014815 -0.001301 -0.007537 0.000000 -0.003139 0.000000
# 2 -0.001301 0.129365 -0.019885 0.000000 0.016957 0.000000
# 3 -0.007537 -0.019885 0.013390 0.000000 -0.002920 0.000000
# 4 0.000000 0.000000 0.000000 0.032845 0.000000 -0.000766
# 5 -0.003139 0.016957 -0.002920 0.000000 0.019943 0.000000
# 6 0.000000 0.000000 0.000000 -0.000766 0.000000 0.031706
#
#
# Mechanical properties :
#
#
# Convention : Reuss Voigt Hill
#
# Bulk Modulus (GPa) = 9.98759 60.66179 35.32469
# Shear Modulus (GPa) = 15.02024 35.78510 25.40267
#
# Velocity S-wave (km/s) = 2.88576 4.45423 3.75285
# Velocity P-wave (km/s) = 4.07932 7.75151 6.19382
#
# Compressibility (1/GPa) = 0.10012426
#
# Stress axis : x y z
#
# Youngs Moduli (GPa) = 67.49900 7.73005 74.68510
#
# Poissons Ratio (x) = 0.01006 0.56290
# Poissons Ratio (y) = 0.08780 1.48511
# Poissons Ratio (z) = 0.50874 0.15371
#
# Static dielectric constant tensor:
#      x y z
#    x 1.601340 0.000000 -0.005880 
#    y 0.000000 1.607600 0.000000 
#    z -0.005880 0.000000 1.604790 
# 
# From -- ./inp_files/359893.got.cif
#   From: 2010.05.17/outbox.cif.g08.bks.cpg/sg12_180_cif.got.tgz:359893.got - 2010.06.03 13:09:07.
