data_PCOD9195307
_publ_section_title
;
Structure prediction by ZEFSAII (Michael W. Deem and Ramdas Pophale) SiO2 
 PCOD9195307
Probable space group: C 2/M
;
_chemical_formula_sum "Si O2"
_cell_formula_units_Z 56
_cell_length_a 30.099056
_cell_length_b 9.710934
_cell_length_c 10.940971
_cell_angle_alpha 90.000000
_cell_angle_beta 69.412045
_cell_angle_gamma 90.000000
_cell_volume 2993.694796
_symmetry_space_group_name_H-M "C 2/M"
_symmetry_group_IT_number 12
_symmetry_cell_setting 'monoclinic'
loop_
_space_group_symop_operation_xyz
x,y,z
-x,y,-z
-x,-y,-z
x,-y,z
1/2+x,1/2+y,z
1/2-x,1/2+y,-z
1/2-x,1/2-y,-z
1/2+x,1/2-y,z
loop_
_atom_site_type_symbol
_atom_site_label
_atom_site_fract_x
_atom_site_fract_y
_atom_site_fract_z
Si Si1 0.288830 0.846649 0.404194
Si Si2 0.278647 0.844076 0.124162
Si Si3 0.974139 0.833841 0.895548
Si Si4 0.133750 0.158430 0.037755
Si Si5 0.327085 0.660380 0.744522
Si Si6 0.983171 0.666192 0.376450
Si Si7 0.872144 0.337099 0.487209
O O1 0.250000 0.750000 0.500000
O O2 0.282527 0.848379 0.266680
O O3 0.342127 0.810675 0.393379
O O4 0.279860 0.000000 0.461275
O O5 0.322718 0.752549 0.043056
O O6 0.224629 0.794417 0.154369
O O7 0.282796 0.000000 0.070535
O O8 0.992752 0.750069 0.758618
O O9 0.979097 0.000000 0.870334
O O10 0.917906 0.803333 0.961327
O O11 0.000000 0.801099 0.000000
O O12 0.143703 0.000000 0.993617
O O13 0.134721 0.165196 0.184134
O O14 0.321104 0.500000 0.712809
O O15 0.344975 0.752736 0.617407
O O16 0.989911 0.500000 0.352710
O O17 0.927138 0.699235 0.424711
O O18 0.000000 0.698081 0.500000
O O19 0.870501 0.500000 0.516966
#
# Coordination Sequence:
#
# PCOD9195307 Si02
#       7
#     8   8   8   8   8   8   8
#     4  10  20  35  53  78 111 144 180 224 269 323
#     4  10  21  35  54  81 112 144 182 224 270 329
#     4  10  23  42  60  84 117 152 195 243 288 340
#     4  10  22  38  57  80 109 145 186 229 274 327
#     4  10  20  36  56  82 113 145 182 224 271 329
#     4  10  22  40  62  89 117 147 191 243 292 345
#     4  10  21  35  56  84 113 144 181 226 276 330
#
# _framework density 18.705981999999999
#
# number of rings (size 3 to 8) (size 9 to 14) (size 15 to 20)
#    0.000    2.000    1.429    1.286    2.000    3.429 
#    0.000    0.000    0.000    0.000    0.000    0.000 
#    0.000    0.000    0.000    0.000    0.000    0.000 
#
# Total GULP energy -156117.038513 kJ/mol
# GULP energy per Si atom -5575.608518 kJ/mol
# Density = 1.866341 g / cm^3
# Si number density = 18.705982 Si / 1000 Ang^3
#
#
#
# Elastic Constant Matrix: (Units=GPa)
#
#
# Indices 1 2 3 4 5 6 
#
# 1 158.1505 38.2768 37.7425 0.0000 4.3880 0.0000
# 2 38.2768 39.4751 38.0052 0.0000 -11.9072 0.0000
# 3 37.7425 38.0052 69.9743 0.0000 -3.8817 0.0000
# 4 0.0000 0.0000 0.0000 37.6066 0.0000 -6.8494
# 5 4.3880 -11.9072 -3.8817 0.0000 31.2765 0.0000
# 6 0.0000 0.0000 0.0000 -6.8494 0.0000 24.0394
#
#
#
# Elastic Compliance Matrix: (Units=1/GPa)
#
#
# Indices 1 2 3 4 5 6 
#
# 1 0.008970 -0.011295 0.000995 0.000000 -0.005435 0.000000
# 2 -0.011295 0.077748 -0.034643 0.000000 0.026884 0.000000
# 3 0.000995 -0.034643 0.032051 0.000000 -0.009351 0.000000
# 4 0.000000 0.000000 0.000000 0.028047 0.000000 0.007991
# 5 -0.005435 0.026884 -0.009351 0.000000 0.041810 0.000000
# 6 0.000000 0.000000 0.000000 0.007991 0.000000 0.043875
#
#
# Mechanical properties :
#
#
# Convention : Reuss Voigt Hill
#
# Bulk Modulus (GPa) = 34.62373 55.07210 44.84791
# Shear Modulus (GPa) = 15.05954 28.82286 21.94120
#
# Velocity S-wave (km/s) = 2.84045 3.92961 3.42855
# Velocity P-wave (km/s) = 5.41361 7.07770 6.30083
#
# Compressibility (1/GPa) = 0.02888193
#
# Stress axis : x y z
#
# Youngs Moduli (GPa) = 111.47981 12.86214 31.19995
#
# Poissons Ratio (x) = 0.14528 -0.03105
# Poissons Ratio (y) = 1.25921 1.08087
# Poissons Ratio (z) = -0.11093 0.44559
#
# Static dielectric constant tensor:
#      x y z
#    x 1.668780 0.000000 0.024300 
#    y 0.000000 1.680810 0.000000 
#    z 0.024300 0.000000 1.627620 
# 
# From -- ./inp_files/180658.got.cif
#   From: 2010.05.17/outbox.cif.g08.bks.cpg/sg12_91_cif.got.tgz:180658.got - 2010.06.03 13:09:07.
