data_PCOD9195009
_publ_section_title
;
Structure prediction by ZEFSAII (Michael W. Deem and Ramdas Pophale) SiO2 
 PCOD9195009
Probable space group: C 2/M
;
_chemical_formula_sum "Si O2"
_cell_formula_units_Z 50
_cell_length_a 25.904152
_cell_length_b 7.819435
_cell_length_c 11.021192
_cell_angle_alpha 90.000000
_cell_angle_beta 67.625968
_cell_angle_gamma 90.000000
_cell_volume 2064.348132
_symmetry_space_group_name_H-M "C 2/M"
_symmetry_group_IT_number 12
_symmetry_cell_setting 'monoclinic'
loop_
_space_group_symop_operation_xyz
x,y,z
-x,y,-z
-x,-y,-z
x,-y,z
1/2+x,1/2+y,z
1/2-x,1/2+y,-z
1/2-x,1/2-y,-z
1/2+x,1/2-y,z
loop_
_atom_site_type_symbol
_atom_site_label
_atom_site_fract_x
_atom_site_fract_y
_atom_site_fract_z
Si Si1 0.444141 0.695091 0.602885
Si Si2 0.000000 0.000000 0.000000
Si Si3 0.341396 0.291780 0.831597
Si Si4 0.657642 0.291346 0.895685
Si Si5 0.867575 0.812715 0.432703
Si Si6 0.233806 0.300714 0.330104
Si Si7 0.055810 0.314290 0.839697
O O1 0.500000 0.779208 0.500000
O O2 0.459719 0.500000 0.625938
O O3 0.404703 0.767179 0.743568
O O4 0.401890 0.685694 0.527374
O O5 0.984457 0.152399 0.113399
O O6 0.340815 0.500000 0.821865
O O7 0.300183 0.221605 0.766085
O O8 0.325749 0.245176 0.982281
O O9 0.652100 0.500000 0.897213
O O10 0.704678 0.234942 0.757438
O O11 0.598743 0.212683 0.912878
O O12 0.804505 0.776338 0.530307
O O13 0.902668 0.696568 0.312117
O O14 0.868936 0.000000 0.373937
O O15 0.238524 0.500000 0.351853
O O16 0.028828 0.500000 0.861891
#
# Coordination Sequence:
#
# PCOD9195009 Si02
#       7
#     8   2   8   8   8   8   8
#     4   8  15  29  53  87 115 154 212 261 317 385
#     4  12  26  52  68  90 134 172 210 276 322 382
#     4   9  18  33  55  85 125 173 214 264 330 391
#     4  10  21  39  59  90 130 173 221 273 328 393
#     4  10  20  39  62  90 127 168 211 271 329 387
#     4  10  20  34  59  90 130 173 215 271 333 392
#     4  12  26  45  71  97 126 172 221 267 327 391
#
# _framework density 24.22072
#
# number of rings (size 3 to 8) (size 9 to 14) (size 15 to 20)
#    0.000    2.080    1.600    2.640    0.000    3.840 
#    2.880    0.000    0.000   12.000    0.000    0.000 
#    0.000    0.000    0.000    0.000    0.000    0.000 
#
# Total GULP energy -139433.990101 kJ/mol
# GULP energy per Si atom -5577.359604 kJ/mol
# Density = 2.416559 g / cm^3
# Si number density = 24.220720 Si / 1000 Ang^3
#
#
#
# Elastic Constant Matrix: (Units=GPa)
#
#
# Indices 1 2 3 4 5 6 
#
# 1 43.1298 4.4798 8.7378 0.0000 -16.4126 0.0000
# 2 4.4798 113.2560 30.6700 0.0000 -13.8137 0.0000
# 3 8.7378 30.6700 138.3122 0.0000 -19.0844 0.0000
# 4 0.0000 0.0000 0.0000 19.9460 0.0000 8.8648
# 5 -16.4126 -13.8137 -19.0844 0.0000 44.2199 0.0000
# 6 0.0000 0.0000 0.0000 8.8648 0.0000 -9.7065
#
#
#
# Elastic Compliance Matrix: (Units=1/GPa)
#
#
# Indices 1 2 3 4 5 6 
#
# 1 0.027021 0.000249 -0.000391 0.000000 0.009938 0.000000
# 2 0.000249 0.009595 -0.001826 0.000000 0.002302 0.000000
# 3 -0.000391 -0.001826 0.008040 0.000000 0.002754 0.000000
# 4 0.000000 0.000000 0.000000 0.035661 0.000000 0.032568
# 5 0.009938 0.002302 0.002754 0.000000 0.028211 0.000000
# 6 0.000000 0.000000 0.000000 0.032568 0.000000 -0.073280
#
#
# Mechanical properties :
#
#
# Convention : Reuss Voigt Hill
#
# Bulk Modulus (GPa) = 24.55769 42.49700 33.52735
# Shear Modulus (GPa) = 94.77659 27.61257 61.19458
#
# Velocity S-wave (km/s) = 6.26221 3.38011 5.03192
# Velocity P-wave (km/s) = 7.90242 5.72864 6.90165
#
# Compressibility (1/GPa) = 0.04072044
#
# Stress axis : x y z
#
# Youngs Moduli (GPa) = 37.00818 104.22238 124.38424
#
# Poissons Ratio (x) = -0.02598 0.04864
# Poissons Ratio (y) = -0.00922 0.22709
# Poissons Ratio (z) = 0.01447 0.19028
#
# Static dielectric constant tensor:
#      x y z
#    x 1.944300 0.000000 -0.031910 
#    y 0.000000 1.910320 0.000000 
#    z -0.031910 0.000000 1.957670 
# 
# From -- ./inp_files/180580.got.cif
#   From: 2010.05.17/outbox.cif.g08.bks.cpg/sg12_91_cif.got.tgz:180580.got - 2010.06.03 13:09:07.
