data_PCOD9195852
_publ_section_title
;
Structure prediction by ZEFSAII (Michael W. Deem and Ramdas Pophale) SiO2 
 PCOD9195852
Probable space group: C 2/M
;
_chemical_formula_sum "Si O2"
_cell_formula_units_Z 56
_cell_length_a 22.247570
_cell_length_b 21.328297
_cell_length_c 5.293281
_cell_angle_alpha 90.000000
_cell_angle_beta 97.162173
_cell_angle_gamma 90.000000
_cell_volume 2492.078520
_symmetry_space_group_name_H-M "C 2/M"
_symmetry_group_IT_number 12
_symmetry_cell_setting 'monoclinic'
loop_
_space_group_symop_operation_xyz
x,y,z
-x,y,-z
-x,-y,-z
x,-y,z
1/2+x,1/2+y,z
1/2-x,1/2+y,-z
1/2-x,1/2-y,-z
1/2+x,1/2-y,z
loop_
_atom_site_type_symbol
_atom_site_label
_atom_site_fract_x
_atom_site_fract_y
_atom_site_fract_z
Si Si1 0.751460 0.876865 0.602838
Si Si2 0.145955 0.373674 0.204283
Si Si3 0.556035 0.934271 0.835944
Si Si4 0.539984 0.575609 0.770820
Si Si5 0.815335 0.726179 0.174813
Si Si6 0.676860 0.372162 0.871791
Si Si7 0.562944 0.190479 0.512390
O O1 0.685681 0.898483 0.459524
O O2 0.731933 0.804675 0.654072
O O3 0.795540 0.886783 0.389114
O O4 0.784971 0.901580 0.872613
O O5 0.087407 0.333110 0.258366
O O6 0.118316 0.428070 0.023039
O O7 0.182571 0.324593 0.051004
O O8 0.553633 0.873318 0.664335
O O9 0.555642 0.000000 0.691821
O O10 0.500000 0.934211 0.000000
O O11 0.500000 0.592394 0.500000
O O12 0.550424 0.500000 0.764619
O O13 0.606005 0.608606 0.831033
O O14 0.500000 0.588829 0.000000
O O15 0.811419 0.797505 0.091099
O O16 0.880734 0.725222 0.340263
O O17 0.500000 0.226109 0.500000
#
# Coordination Sequence:
#
# PCOD9195852 Si02
#       7
#     8   8   8   8   8   8   8
#     4  11  23  40  64  93 131 171 207 255 306 375
#     4  10  21  39  56  82 124 171 205 258 322 363
#     4  10  20  35  56  81 111 160 222 269 308 364
#     4  10  23  48  74  98 131 166 206 269 338 393
#     4  10  23  37  60  91 131 172 208 261 315 371
#     4  12  24  40  69 100 125 166 217 252 307 397
#     4  10  20  35  55  82 120 167 210 261 319 373
#
# _framework density 22.471202000000002
#
# number of rings (size 3 to 8) (size 9 to 14) (size 15 to 20)
#    0.000    1.571    2.857    1.714    4.000    1.429 
#    2.571    1.429    0.000    3.429    0.000    0.000 
#    0.000    0.000    0.000    0.000    0.000    0.000 
#
# Total GULP energy -156130.628695 kJ/mol
# GULP energy per Si atom -5576.093882 kJ/mol
# Density = 2.242006 g / cm^3
# Si number density = 22.471202 Si / 1000 Ang^3
#
#
#
# Elastic Constant Matrix: (Units=GPa)
#
#
# Indices 1 2 3 4 5 6 
#
# 1 150.7665 3.7015 58.2672 0.0000 11.4063 0.0000
# 2 3.7015 29.6708 12.4138 0.0000 4.6694 0.0000
# 3 58.2672 12.4138 142.0312 0.0000 14.5011 0.0000
# 4 0.0000 0.0000 0.0000 -76.0515 0.0000 4.8137
# 5 11.4063 4.6694 14.5011 0.0000 57.4641 0.0000
# 6 0.0000 0.0000 0.0000 4.8137 0.0000 -16.7393
#
#
#
# Elastic Compliance Matrix: (Units=1/GPa)
#
#
# Indices 1 2 3 4 5 6 
#
# 1 0.007922 0.000481 -0.003210 0.000000 -0.000801 0.000000
# 2 0.000481 0.035266 -0.003056 0.000000 -0.002190 0.000000
# 3 -0.003210 -0.003056 0.008760 0.000000 -0.001325 0.000000
# 4 0.000000 0.000000 0.000000 -0.013393 0.000000 -0.003851
# 5 -0.000801 -0.002190 -0.001325 0.000000 0.018074 0.000000
# 6 0.000000 0.000000 0.000000 -0.003851 0.000000 -0.060847
#
#
# Mechanical properties :
#
#
# Convention : Reuss Voigt Hill
#
# Bulk Modulus (GPa) = 24.76597 52.35928 38.56263
# Shear Modulus (GPa) = 240.23777 9.47372 124.85575
#
# Velocity S-wave (km/s) = 10.35091 2.05550 7.46212
# Velocity P-wave (km/s) = 12.40565 5.38374 9.56255
#
# Compressibility (1/GPa) = 0.04037799
#
# Stress axis : x y z
#
# Youngs Moduli (GPa) = 126.22625 28.35560 114.15408
#
# Poissons Ratio (x) = -0.01364 0.36646
# Poissons Ratio (y) = -0.06071 0.34886
# Poissons Ratio (z) = 0.40522 0.08666
#
# Static dielectric constant tensor:
#      x y z
#    x 1.923890 0.000000 0.045350 
#    y 0.000000 1.806400 0.000000 
#    z 0.045350 0.000000 1.923420 
# 
# From -- ./inp_files/21673.got.cif
#   From: 2010.05.17/outbox.cif.g08.bks.cpg/sg12_11_cif.got.tgz:21673.got - 2010.06.03 13:09:07.
