data_PCOD9195464
_publ_section_title
;
Structure prediction by ZEFSAII (Michael W. Deem and Ramdas Pophale) SiO2 
 PCOD9195464
Probable space group: C 2/M
;
_chemical_formula_sum "Si O2"
_cell_formula_units_Z 56
_cell_length_a 21.272741
_cell_length_b 8.009132
_cell_length_c 14.280879
_cell_angle_alpha 90.000000
_cell_angle_beta 75.598166
_cell_angle_gamma 90.000000
_cell_volume 2356.661399
_symmetry_space_group_name_H-M "C 2/M"
_symmetry_group_IT_number 12
_symmetry_cell_setting 'monoclinic'
loop_
_space_group_symop_operation_xyz
x,y,z
-x,y,-z
-x,-y,-z
x,-y,z
1/2+x,1/2+y,z
1/2-x,1/2+y,-z
1/2-x,1/2-y,-z
1/2+x,1/2-y,z
loop_
_atom_site_type_symbol
_atom_site_label
_atom_site_fract_x
_atom_site_fract_y
_atom_site_fract_z
Si Si1 0.571790 0.191415 0.992227
Si Si2 0.120878 0.185981 0.788251
Si Si3 0.510764 0.197439 0.692933
Si Si4 0.863529 0.696213 0.715465
Si Si5 0.082827 0.692767 0.494821
Si Si6 0.799651 0.313509 0.404291
Si Si7 0.186002 0.702998 0.079972
O O1 0.610235 0.194381 0.879639
O O2 0.559261 0.000000 0.027319
O O3 0.500000 0.266920 0.000000
O O4 0.621961 0.265606 0.048408
O O5 0.056433 0.207161 0.747842
O O6 0.181815 0.216469 0.696809
O O7 0.124682 0.000000 0.824989
O O8 0.434446 0.207065 0.737665
O O9 0.522577 0.256203 0.580519
O O10 0.527325 0.000000 0.692590
O O11 0.846276 0.500000 0.706731
O O12 0.878602 0.770848 0.607251
O O13 0.815101 0.764076 0.811696
O O14 0.068838 0.500000 0.471173
O O15 0.134641 0.684912 0.559691
O O16 0.781438 0.500000 0.383442
O O17 0.750000 0.250000 0.500000
O O18 0.182396 0.500000 0.084009
O O19 0.250000 0.750000 0.000000
#
# Coordination Sequence:
#
# PCOD9195464 Si02
#       7
#     8   8   8   8   8   8   8
#     4  10  21  40  64  87 112 148 198 249 296 348
#     4  11  22  35  54  81 112 146 185 234 290 342
#     4   9  16  30  54  82 110 138 172 221 277 335
#     4   9  16  30  54  80 104 137 181 222 267 330
#     4   8  15  27  49  81 108 131 167 215 267 329
#     4  10  20  35  54  78 110 146 184 226 274 332
#     4  10  22  38  57  82 114 151 189 235 289 344
#
# _framework density 23.762429000000001
#
# number of rings (size 3 to 8) (size 9 to 14) (size 15 to 20)
#    0.000    2.429    0.000    3.857    0.000    6.000 
#    0.000    3.571    0.000   11.143    0.000    0.000 
#    0.000    0.000    0.000    0.000    0.000    0.000 
#
# Total GULP energy -156124.233479 kJ/mol
# GULP energy per Si atom -5575.865481 kJ/mol
# Density = 2.370834 g / cm^3
# Si number density = 23.762429 Si / 1000 Ang^3
#
#
#
# Elastic Constant Matrix: (Units=GPa)
#
#
# Indices 1 2 3 4 5 6 
#
# 1 38.3296 1.1193 17.2091 0.0000 -10.9318 0.0000
# 2 1.1193 34.9052 -6.0960 0.0000 -3.0166 0.0000
# 3 17.2091 -6.0960 162.6967 0.0000 -15.7180 0.0000
# 4 0.0000 0.0000 0.0000 18.5214 0.0000 -9.4693
# 5 -10.9318 -3.0166 -15.7180 0.0000 38.2420 0.0000
# 6 0.0000 0.0000 0.0000 -9.4693 0.0000 8.1522
#
#
#
# Elastic Compliance Matrix: (Units=1/GPa)
#
#
# Indices 1 2 3 4 5 6 
#
# 1 0.029284 -0.000729 -0.002418 0.000000 0.007320 0.000000
# 2 -0.000729 0.029153 0.001428 0.000000 0.002678 0.000000
# 3 -0.002418 0.001428 0.006664 0.000000 0.002161 0.000000
# 4 0.000000 0.000000 0.000000 0.132939 0.000000 0.154417
# 5 0.007320 0.002678 0.002161 0.000000 0.029341 0.000000
# 6 0.000000 0.000000 0.000000 0.154417 0.000000 0.302031
#
#
# Mechanical properties :
#
#
# Convention : Reuss Voigt Hill
#
# Bulk Modulus (GPa) = 16.21654 28.93290 22.57472
# Shear Modulus (GPa) = 9.03499 27.89640 18.46569
#
# Velocity S-wave (km/s) = 1.95204 3.43004 2.79067
# Velocity P-wave (km/s) = 3.45252 5.28103 4.46145
#
# Compressibility (1/GPa) = 0.06166542
#
# Stress axis : x y z
#
# Youngs Moduli (GPa) = 34.14844 34.30143 150.05132
#
# Poissons Ratio (x) = 0.02499 0.36277
# Poissons Ratio (y) = 0.02488 -0.21430
# Poissons Ratio (z) = 0.08256 -0.04899
#
# Static dielectric constant tensor:
#      x y z
#    x 2.005980 0.000000 -0.040890 
#    y 0.000000 1.913200 0.000000 
#    z -0.040890 0.000000 2.025880 
# 
# From -- ./inp_files/237409.got.cif
#   From: 2010.05.17/outbox.cif.g08.bks.cpg/sg12_119_cif.got.tgz:237409.got - 2010.06.03 13:09:07.
