data_PCOD9195551
_publ_section_title
;
Structure prediction by ZEFSAII (Michael W. Deem and Ramdas Pophale) SiO2 
 PCOD9195551
Probable space group: C 2/M
;
_chemical_formula_sum "Si O2"
_cell_formula_units_Z 50
_cell_length_a 5.234746
_cell_length_b 19.779049
_cell_length_c 27.360844
_cell_angle_alpha 90.000000
_cell_angle_beta 113.619917
_cell_angle_gamma 90.000000
_cell_volume 2595.565181
_symmetry_space_group_name_H-M "C 2/M"
_symmetry_group_IT_number 12
_symmetry_cell_setting 'monoclinic'
loop_
_space_group_symop_operation_xyz
x,y,z
-x,y,-z
-x,-y,-z
x,-y,z
1/2+x,1/2+y,z
1/2-x,1/2+y,-z
1/2-x,1/2-y,-z
1/2+x,1/2-y,z
loop_
_atom_site_type_symbol
_atom_site_label
_atom_site_fract_x
_atom_site_fract_y
_atom_site_fract_z
Si Si1 0.386476 0.207424 0.360033
Si Si2 0.186672 0.425301 0.909933
Si Si3 0.851773 0.720542 0.059482
Si Si4 0.319744 0.703955 0.762706
Si Si5 0.964120 0.075791 0.161558
Si Si6 0.000000 0.500000 0.500000
Si Si7 0.679173 0.139723 0.470274
O O1 0.106163 0.232645 0.365237
O O2 0.298730 0.182241 0.299616
O O3 0.548176 0.157635 0.408226
O O4 0.218105 0.500000 0.935404
O O5 0.204813 0.358859 0.944227
O O6 0.411380 0.419217 0.883800
O O7 0.871691 0.421702 0.864881
O O8 0.673337 0.758677 0.086866
O O9 0.750000 0.750000 0.000000
O O10 0.577811 0.754410 0.771801
O O11 0.414725 0.637575 0.798675
O O12 0.044152 0.000000 0.185305
O O13 0.143061 0.560298 0.477856
O O14 0.500000 0.174106 0.500000
O O15 0.000000 0.158765 0.500000
#
# Coordination Sequence:
#
# PCOD9195551 Si02
#       7
#     8   8   8   8   8   2   8
#     4  10  21  36  54  79 108 137 176 222 274 330
#     4  10  21  37  58  81 114 148 184 226 279 325
#     4  10  21  37  55  82 114 143 184 232 265 318
#     4  10  21  37  57  81 113 147 182 225 281 333
#     4  10  21  37  57  85 113 143 186 233 272 331
#     4   8  22  36  50  76 106 136 182 230 262 320
#     4  10  20  35  55  74 105 137 177 226 266 321
#
# _framework density 19.263625000000001
#
# number of rings (size 3 to 8) (size 9 to 14) (size 15 to 20)
#    0.480    1.600    0.000    3.120    0.000    5.760 
#    1.440    3.200    0.000    0.000    0.000    0.000 
#    0.000    0.000    0.000    0.000    0.000    0.000 
#
# Total GULP energy -139190.034106 kJ/mol
# GULP energy per Si atom -5567.601364 kJ/mol
# Density = 1.921978 g / cm^3
# Si number density = 19.263625 Si / 1000 Ang^3
#
#
#
# Elastic Constant Matrix: (Units=GPa)
#
#
# Indices 1 2 3 4 5 6 
#
# 1 86.7237 -2.2181 3.4070 0.0000 -0.0597 0.0000
# 2 -2.2181 120.0425 46.4329 0.0000 -6.7504 0.0000
# 3 3.4070 46.4329 59.2851 0.0000 4.3528 0.0000
# 4 0.0000 0.0000 0.0000 41.7999 0.0000 21.1889
# 5 -0.0597 -6.7504 4.3528 0.0000 14.6118 0.0000
# 6 0.0000 0.0000 0.0000 21.1889 0.0000 24.7427
#
#
#
# Elastic Compliance Matrix: (Units=1/GPa)
#
#
# Indices 1 2 3 4 5 6 
#
# 1 0.011604 0.000775 -0.001333 0.000000 0.000802 0.000000
# 2 0.000775 0.013132 -0.011016 0.000000 0.009351 0.000000
# 3 -0.001333 -0.011016 0.026526 0.000000 -0.012997 0.000000
# 4 0.000000 0.000000 0.000000 0.042276 0.000000 -0.036204
# 5 0.000802 0.009351 -0.012997 0.000000 0.076633 0.000000
# 6 0.000000 0.000000 0.000000 -0.036204 0.000000 0.071420
#
#
# Mechanical properties :
#
#
# Convention : Reuss Voigt Hill
#
# Bulk Modulus (GPa) = 35.56933 40.14389 37.85661
# Shear Modulus (GPa) = 18.24095 30.79283 24.51689
#
# Velocity S-wave (km/s) = 3.08053 4.00246 3.57137
# Velocity P-wave (km/s) = 5.58189 6.49954 6.05811
#
# Compressibility (1/GPa) = 0.02811411
#
# Stress axis : x y z
#
# Youngs Moduli (GPa) = 86.18007 76.15230 37.69842
#
# Poissons Ratio (x) = -0.05902 0.05024
# Poissons Ratio (y) = -0.06680 0.41528
# Poissons Ratio (z) = 0.11486 0.83889
#
# Static dielectric constant tensor:
#      x y z
#    x 1.747390 0.000000 0.000530 
#    y 0.000000 1.659460 0.000000 
#    z 0.000530 0.000000 1.583650 
# 
# From -- ./inp_files/354967.got.cif
#   From: 2010.05.17/outbox.cif.g08.bks.cpg/sg12_178_cif.got.tgz:354967.got - 2010.06.03 13:09:07.
