data_PCOD9195273
_publ_section_title
;
Structure prediction by ZEFSAII (Michael W. Deem and Ramdas Pophale) SiO2 
 PCOD9195273
Probable space group: C 2/M
;
_chemical_formula_sum "Si O2"
_cell_formula_units_Z 64
_cell_length_a 31.690317
_cell_length_b 8.800962
_cell_length_c 15.943312
_cell_angle_alpha 90.000000
_cell_angle_beta 56.101441
_cell_angle_gamma 90.000000
_cell_volume 3690.856280
_symmetry_space_group_name_H-M "C 2/M"
_symmetry_group_IT_number 12
_symmetry_cell_setting 'monoclinic'
loop_
_space_group_symop_operation_xyz
x,y,z
-x,y,-z
-x,-y,-z
x,-y,z
1/2+x,1/2+y,z
1/2-x,1/2+y,-z
1/2-x,1/2-y,-z
1/2+x,1/2-y,z
loop_
_atom_site_type_symbol
_atom_site_label
_atom_site_fract_x
_atom_site_fract_y
_atom_site_fract_z
Si Si1 0.466646 0.680441 0.724635
Si Si2 0.928254 0.679532 0.420916
Si Si3 0.309347 0.181357 0.824127
Si Si4 0.829889 0.819220 0.447628
Si Si5 0.775379 0.682091 0.349366
Si Si6 0.903383 0.819173 0.626868
Si Si7 0.293207 0.817894 0.136271
Si Si8 0.137123 0.182172 0.072285
O O1 0.476855 0.500000 0.719094
O O2 0.518261 0.771391 0.678290
O O3 0.443262 0.709270 0.657827
O O4 0.421067 0.718732 0.839032
O O5 0.926333 0.500000 0.435231
O O6 0.880649 0.734801 0.418993
O O7 0.923615 0.762186 0.515962
O O8 0.351591 0.234661 0.709952
O O9 0.255425 0.248587 0.857174
O O10 0.328454 0.249508 0.891115
O O11 0.307135 0.000000 0.831520
O O12 0.809870 0.766930 0.379127
O O13 0.783374 0.782834 0.562908
O O14 0.838083 0.000000 0.440612
O O15 0.781498 0.500000 0.353511
O O16 0.788626 0.721507 0.239437
O O17 0.893694 0.000000 0.635019
O O18 0.292261 0.000000 0.129557
O O19 0.342721 0.750920 0.036273
O O20 0.142339 0.000000 0.067402
#
# Coordination Sequence:
#
# PCOD9195273 Si02
#       8
#     8   8   8   8   8   8   8   8
#     4   9  20  37  54  72 101 141 179 219 265 309
#     4  12  23  33  52  80 108 138 176 218 258 310
#     4  11  21  33  51  77 109 142 179 219 260 310
#     4  10  20  36  58  80 107 140 171 208 257 313
#     4   9  20  37  56  80 108 136 168 210 259 311
#     4  10  20  35  53  75 107 143 178 216 261 312
#     4  11  21  34  54  78 107 142 177 215 262 315
#     4  10  21  37  54  74 104 141 181 223 264 308
#
# _framework density 17.340150000000001
#
# number of rings (size 3 to 8) (size 9 to 14) (size 15 to 20)
#    0.000    1.750    0.000    6.000    0.000    7.000 
#    0.000    0.000    0.000    0.750    0.000    5.250 
#    0.000    0.000    0.000    0.000    0.000    0.000 
#
# Total GULP energy -178823.077932 kJ/mol
# GULP energy per Si atom -5588.221185 kJ/mol
# Density = 1.730068 g / cm^3
# Si number density = 17.340150 Si / 1000 Ang^3
#
#
#
# Elastic Constant Matrix: (Units=GPa)
#
#
# Indices 1 2 3 4 5 6 
#
# 1 74.4530 44.5340 52.1883 0.0000 -16.0645 0.0000
# 2 44.5340 75.8433 49.4796 0.0000 -6.2879 0.0000
# 3 52.1883 49.4796 123.8080 0.0000 -3.4087 0.0000
# 4 0.0000 0.0000 0.0000 30.5540 0.0000 -1.4162
# 5 -16.0645 -6.2879 -3.4087 0.0000 14.4976 0.0000
# 6 0.0000 0.0000 0.0000 -1.4162 0.0000 26.7710
#
#
#
# Elastic Compliance Matrix: (Units=1/GPa)
#
#
# Indices 1 2 3 4 5 6 
#
# 1 0.032065 -0.011011 -0.008323 0.000000 0.028798 0.000000
# 2 -0.011011 0.022169 -0.004317 0.000000 -0.003601 0.000000
# 3 -0.008323 -0.004317 0.013090 0.000000 -0.008017 0.000000
# 4 0.000000 0.000000 0.000000 0.032809 0.000000 0.001736
# 5 0.028798 -0.003601 -0.008017 0.000000 0.097441 0.000000
# 6 0.000000 0.000000 0.000000 0.001736 0.000000 0.037446
#
#
# Mechanical properties :
#
#
# Convention : Reuss Voigt Hill
#
# Bulk Modulus (GPa) = 49.94641 62.94534 56.44588
# Shear Modulus (GPa) = 17.30128 22.89135 20.09631
#
# Velocity S-wave (km/s) = 3.16216 3.63731 3.40802
# Velocity P-wave (km/s) = 6.49606 7.34977 6.93606
#
# Compressibility (1/GPa) = 0.02002146
#
# Stress axis : x y z
#
# Youngs Moduli (GPa) = 31.18651 45.10901 76.39350
#
# Poissons Ratio (x) = 0.49668 0.63583
# Poissons Ratio (y) = 0.34338 0.32982
# Poissons Ratio (z) = 0.25957 0.19476
#
# Static dielectric constant tensor:
#      x y z
#    x 1.562530 0.000000 -0.012770 
#    y 0.000000 1.574310 0.000000 
#    z -0.012770 0.000000 1.595470 
# 
# From -- ./inp_files/248996.got.cif
#   From: 2010.05.17/outbox.cif.g08.bks.cpg/sg12_125_cif.got.tgz:248996.got - 2010.06.03 13:09:07.
