data_PCOD9195166
_publ_section_title
;
Structure prediction by ZEFSAII (Michael W. Deem and Ramdas Pophale) SiO2 
 PCOD9195166
Probable space group: C 2/M
;
_chemical_formula_sum "Si O2"
_cell_formula_units_Z 64
_cell_length_a 25.469807
_cell_length_b 9.070267
_cell_length_c 18.101035
_cell_angle_alpha 90.000000
_cell_angle_beta 103.101279
_cell_angle_gamma 90.000000
_cell_volume 4072.819079
_symmetry_space_group_name_H-M "C 2/M"
_symmetry_group_IT_number 12
_symmetry_cell_setting 'monoclinic'
loop_
_space_group_symop_operation_xyz
x,y,z
-x,y,-z
-x,-y,-z
x,-y,z
1/2+x,1/2+y,z
1/2-x,1/2+y,-z
1/2-x,1/2-y,-z
1/2+x,1/2-y,z
loop_
_atom_site_type_symbol
_atom_site_label
_atom_site_fract_x
_atom_site_fract_y
_atom_site_fract_z
Si Si1 0.716011 0.675940 0.666234
Si Si2 0.508327 0.323128 0.916302
Si Si3 0.201418 0.675965 0.816277
Si Si4 0.868201 0.176823 0.081050
Si Si5 0.595254 0.823449 0.181408
Si Si6 0.338291 0.823701 0.654013
Si Si7 0.307842 0.676185 0.502378
Si Si8 0.177773 0.177209 0.092952
O O1 0.714055 0.500000 0.678591
O O2 0.697380 0.760445 0.732598
O O3 0.778774 0.713158 0.668014
O O4 0.682261 0.708681 0.580877
O O5 0.501089 0.500000 0.908005
O O6 0.569046 0.286868 0.911617
O O7 0.463131 0.242326 0.854267
O O8 0.500000 0.284671 0.000000
O O9 0.197076 0.500000 0.813913
O O10 0.157924 0.744343 0.857560
O O11 0.261167 0.714827 0.865876
O O12 0.864006 0.000000 0.088659
O O13 0.836419 0.217075 0.995768
O O14 0.618187 0.785987 0.269839
O O15 0.636501 0.756125 0.134808
O O16 0.594950 0.000000 0.174631
O O17 0.345255 0.741944 0.578269
O O18 0.338398 0.000000 0.641701
O O19 0.303725 0.500000 0.508477
O O20 0.250000 0.750000 0.500000
O O21 0.170664 0.000000 0.097833
#
# Coordination Sequence:
#
# PCOD9195166 Si02
#       8
#     8   8   8   8   8   8   8   8
#     4   9  17  31  47  67 100 135 165 196 241 300
#     4  10  20  37  56  72  95 130 172 211 252 304
#     4  11  22  32  49  76 102 130 170 212 246 294
#     4  10  21  37  54  68  95 136 170 209 255 297
#     4  11  21  32  51  77 103 132 166 211 256 293
#     4   9  18  31  46  70 102 133 165 201 246 298
#     4   9  17  28  45  69  98 132 166 201 241 293
#     4  10  20  35  51  71  99 134 172 206 248 301
#
# _framework density 15.713932
#
# number of rings (size 3 to 8) (size 9 to 14) (size 15 to 20)
#    0.000    2.125    2.500    2.250    0.000    5.250 
#    0.000    0.000    0.000    0.000    0.000    0.875 
#    0.000    7.000    0.000    0.000    0.000    0.000 
#
# Total GULP energy -178487.886036 kJ/mol
# GULP energy per Si atom -5577.746439 kJ/mol
# Density = 1.567817 g / cm^3
# Si number density = 15.713932 Si / 1000 Ang^3
#
#
#
# Elastic Constant Matrix: (Units=GPa)
#
#
# Indices 1 2 3 4 5 6 
#
# 1 73.3807 37.7230 66.9652 0.0000 -12.2093 0.0000
# 2 37.7230 35.7350 61.2760 0.0000 -5.1240 0.0000
# 3 66.9652 61.2760 166.3802 0.0000 -3.2033 0.0000
# 4 0.0000 0.0000 0.0000 30.1461 0.0000 -0.9806
# 5 -12.2093 -5.1240 -3.2033 0.0000 15.9365 0.0000
# 6 0.0000 0.0000 0.0000 -0.9806 0.0000 22.1614
#
#
#
# Elastic Compliance Matrix: (Units=1/GPa)
#
#
# Indices 1 2 3 4 5 6 
#
# 1 0.033187 -0.028176 -0.002676 0.000000 0.015828 0.000000
# 2 -0.028176 0.105970 -0.027554 0.000000 0.006948 0.000000
# 3 -0.002676 -0.027554 0.017091 0.000000 -0.007474 0.000000
# 4 0.000000 0.000000 0.000000 0.033220 0.000000 0.001470
# 5 0.015828 0.006948 -0.007474 0.000000 0.075607 0.000000
# 6 0.000000 0.000000 0.000000 0.001470 0.000000 0.045189
#
#
# Mechanical properties :
#
#
# Convention : Reuss Voigt Hill
#
# Bulk Modulus (GPa) = 25.35590 67.49158 46.42374
# Shear Modulus (GPa) = 11.35793 20.95091 16.15442
#
# Velocity S-wave (km/s) = 2.69140 3.65536 3.20977
# Velocity P-wave (km/s) = 5.08224 7.80121 6.58362
#
# Compressibility (1/GPa) = 0.03943856
#
# Stress axis : x y z
#
# Youngs Moduli (GPa) = 30.13203 9.43659 58.50977
#
# Poissons Ratio (x) = 0.26588 0.15656
# Poissons Ratio (y) = 0.84899 1.61217
# Poissons Ratio (z) = 0.08063 0.26001
#
# Static dielectric constant tensor:
#      x y z
#    x 1.495380 0.000000 0.015200 
#    y 0.000000 1.520870 0.000000 
#    z 0.015200 0.000000 1.537400 
# 
# From -- ./inp_files/287736.got.cif
#   From: 2010.05.17/outbox.cif.g08.bks.cpg/sg12_144_cif.got.tgz:287736.got - 2010.06.03 13:09:07.
