data_PCOD9195774
_publ_section_title
;
Structure prediction by ZEFSAII (Michael W. Deem and Ramdas Pophale) SiO2 
 PCOD9195774
Probable space group: C 2/M
;
_chemical_formula_sum "Si O2"
_cell_formula_units_Z 64
_cell_length_a 30.418915
_cell_length_b 7.785154
_cell_length_c 24.602543
_cell_angle_alpha 90.000000
_cell_angle_beta 30.707544
_cell_angle_gamma 90.000000
_cell_volume 2975.222672
_symmetry_space_group_name_H-M "C 2/M"
_symmetry_group_IT_number 12
_symmetry_cell_setting 'monoclinic'
loop_
_space_group_symop_operation_xyz
x,y,z
-x,y,-z
-x,-y,-z
x,-y,z
1/2+x,1/2+y,z
1/2-x,1/2+y,-z
1/2-x,1/2-y,-z
1/2+x,1/2-y,z
loop_
_atom_site_type_symbol
_atom_site_label
_atom_site_fract_x
_atom_site_fract_y
_atom_site_fract_z
Si Si1 0.764023 0.202912 0.728797
Si Si2 0.269521 0.294697 0.417936
Si Si3 0.877785 0.204015 0.510534
Si Si4 0.232422 0.788839 0.150464
Si Si5 0.041864 0.197113 0.800558
Si Si6 0.421007 0.697110 0.113567
Si Si7 0.061834 0.795402 0.271701
Si Si8 0.877906 0.694895 0.912802
O O1 0.838425 0.274269 0.609360
O O2 0.755414 0.269270 0.799924
O O3 0.672514 0.224197 0.795774
O O4 0.781208 0.000000 0.715988
O O5 0.274036 0.500000 0.403910
O O6 0.250000 0.250000 0.500000
O O7 0.197338 0.226828 0.454111
O O8 0.365411 0.223920 0.309558
O O9 0.967926 0.273545 0.390057
O O10 0.889679 0.000000 0.505937
O O11 0.138468 0.735699 0.229431
O O12 0.238046 0.000000 0.144622
O O13 0.302271 0.727641 0.031190
O O14 0.045197 0.188558 0.861420
O O15 0.962528 0.296345 0.860149
O O16 0.036728 0.000000 0.784336
O O17 0.411614 0.500000 0.103290
O O18 0.500000 0.787489 0.000000
O O19 0.092936 0.766276 0.176639
O O20 0.056631 0.000000 0.283192
O O21 0.851189 0.500000 0.929896
#
# Coordination Sequence:
#
# PCOD9195774 Si02
#       8
#     8   8   8   8   8   8   8   8
#     4  10  20  36  58  84 115 147 187 236 282 333
#     4  11  22  36  55  78 111 149 185 228 276 330
#     4  10  21  36  57  85 113 147 191 234 279 336
#     4   9  20  38  59  84 113 147 187 236 290 339
#     4  10  21  36  53  78 110 147 182 215 270 334
#     4  10  20  35  55  80 111 147 186 224 270 334
#     4  10  21  39  60  81 112 151 189 233 287 342
#     4  11  22  36  57  86 115 144 188 239 286 337
#
# _framework density 21.510994
#
# number of rings (size 3 to 8) (size 9 to 14) (size 15 to 20)
#    0.000    1.875    1.250    2.625    0.000    5.750 
#    0.000    4.375    0.000    0.000    0.000    2.625 
#    0.000    0.000    0.000    0.000    0.000    0.000 
#
# Total GULP energy -178452.029633 kJ/mol
# GULP energy per Si atom -5576.625926 kJ/mol
# Density = 2.146203 g / cm^3
# Si number density = 21.510994 Si / 1000 Ang^3
#
#
#
# Elastic Constant Matrix: (Units=GPa)
#
#
# Indices 1 2 3 4 5 6 
#
# 1 89.8912 -5.8348 40.0213 -0.0038 4.8999 0.0161
# 2 -5.8348 29.8263 5.2941 0.0209 1.6821 0.0010
# 3 40.0213 5.2941 173.4756 -0.0104 8.2028 0.0220
# 4 -0.0038 0.0209 -0.0104 14.8284 -0.0051 -6.5130
# 5 4.8999 1.6821 8.2028 -0.0051 31.2779 0.0058
# 6 0.0161 0.0010 0.0220 -6.5130 0.0058 57.5399
#
#
#
# Elastic Compliance Matrix: (Units=1/GPa)
#
#
# Indices 1 2 3 4 5 6 
#
# 1 0.012720 0.003092 -0.002964 -0.000005 -0.001382 -0.000003
# 2 0.003092 0.034537 -0.001678 -0.000053 -0.001902 -0.000007
# 3 -0.002964 -0.001678 0.006554 0.000005 -0.001164 -0.000001
# 4 -0.000005 -0.000053 0.000005 0.070966 0.000012 0.008033
# 5 -0.001382 -0.001902 -0.001164 0.000012 0.032596 -0.000001
# 6 -0.000003 -0.000007 -0.000001 0.008033 -0.000001 0.018288
#
#
# Mechanical properties :
#
#
# Convention : Reuss Voigt Hill
#
# Bulk Modulus (GPa) = 19.71823 41.35048 30.53435
# Shear Modulus (GPa) = 25.55393 37.64343 31.59868
#
# Velocity S-wave (km/s) = 3.45040 4.18779 3.83685
# Velocity P-wave (km/s) = 5.00601 6.53056 5.81843
#
# Compressibility (1/GPa) = 0.05071449
#
# Stress axis : x y z
#
# Youngs Moduli (GPa) = 78.61607 28.95408 152.56787
#
# Poissons Ratio (x) = -0.08954 0.45215
# Poissons Ratio (y) = -0.24311 0.25593
# Poissons Ratio (z) = 0.23299 0.04857
#
# Static dielectric constant tensor:
#      x y z
#    x 1.720380 0.000000 0.001340 
#    y 0.000000 1.833120 0.000010 
#    z 0.001340 0.000010 1.797530 
# 
# From -- ./inp_files/353290.got.cif
#   From: 2010.05.17/outbox.cif.g08.bks.cpg/sg12_177_cif.got.tgz:353290.got - 2010.06.03 13:09:07.
