data_PCOD9195760
_publ_section_title
;
Structure prediction by ZEFSAII (Michael W. Deem and Ramdas Pophale) SiO2 
 PCOD9195760
Probable space group: C 2/M
;
_chemical_formula_sum "Si O2"
_cell_formula_units_Z 32
_cell_length_a 14.437659
_cell_length_b 8.650084
_cell_length_c 16.293532
_cell_angle_alpha 90.000000
_cell_angle_beta 61.574200
_cell_angle_gamma 90.000000
_cell_volume 1789.516673
_symmetry_space_group_name_H-M "C 2/M"
_symmetry_group_IT_number 12
_symmetry_cell_setting 'monoclinic'
loop_
_space_group_symop_operation_xyz
x,y,z
-x,y,-z
-x,-y,-z
x,-y,z
1/2+x,1/2+y,z
1/2-x,1/2+y,-z
1/2-x,1/2-y,-z
1/2+x,1/2-y,z
loop_
_atom_site_type_symbol
_atom_site_label
_atom_site_fract_x
_atom_site_fract_y
_atom_site_fract_z
Si Si1 0.331304 0.816026 0.347548
Si Si2 0.148063 0.314935 0.997221
Si Si3 0.923851 0.184123 0.142232
Si Si4 0.899607 0.185961 0.488421
O O1 0.372935 0.731141 0.249681
O O2 0.209445 0.776911 0.418917
O O3 0.394849 0.765465 0.401857
O O4 0.339265 0.000000 0.332435
O O5 0.148167 0.500000 0.997897
O O6 0.140946 0.254790 0.906702
O O7 0.250000 0.250000 0.000000
O O8 0.041404 0.252973 0.084689
O O9 0.928768 0.000000 0.131201
O O10 0.000000 0.231208 0.500000
O O11 0.902283 0.000000 0.475461
#
# Coordination Sequence:
#
# PCOD9195760 Si02
#       4
#     8   8   8   8
#     4  10  20  35  55  80 110 143 182 229 279 329
#     4  11  22  39  60  84 113 145 184 229 279 332
#     4  11  22  38  58  82 113 149 188 230 277 327
#     4   9  19  36  56  78 107 143 183 227 276 330
#
# _framework density 17.881920999999998
#
# number of rings (size 3 to 8) (size 9 to 14) (size 15 to 20)
#    0.000    1.750    0.000    6.750    0.000    3.500 
#    0.000    7.500    0.000    0.000    0.000    0.000 
#    0.000    0.000    0.000    0.000    0.000    0.000 
#
# Total GULP energy -89398.918575 kJ/mol
# GULP energy per Si atom -5587.432411 kJ/mol
# Density = 1.784122 g / cm^3
# Si number density = 17.881921 Si / 1000 Ang^3
#
#
#
# Elastic Constant Matrix: (Units=GPa)
#
#
# Indices 1 2 3 4 5 6 
#
# 1 172.8422 67.3776 67.7259 0.0000 18.5937 0.0000
# 2 67.3776 144.3194 70.4873 0.0000 9.1295 0.0000
# 3 67.7259 70.4873 134.4419 0.0000 15.5318 0.0000
# 4 0.0000 0.0000 0.0000 34.4537 0.0000 5.0014
# 5 18.5937 9.1295 15.5318 0.0000 6.9879 0.0000
# 6 0.0000 0.0000 0.0000 5.0014 0.0000 30.6836
#
#
#
# Elastic Compliance Matrix: (Units=1/GPa)
#
#
# Indices 1 2 3 4 5 6 
#
# 1 0.009251 -0.002574 -0.001151 0.000000 -0.018695 0.000000
# 2 -0.002574 0.010047 -0.004367 0.000000 0.003430 0.000000
# 3 -0.001151 -0.004367 0.012506 0.000000 -0.019029 0.000000
# 4 0.000000 0.000000 0.000000 0.029728 0.000000 -0.004846
# 5 -0.018695 0.003430 -0.019029 0.000000 0.230662 0.000000
# 6 0.000000 0.000000 0.000000 -0.004846 0.000000 0.033381
#
#
# Mechanical properties :
#
#
# Convention : Reuss Voigt Hill
#
# Bulk Modulus (GPa) = 64.02240 95.86503 79.94371
# Shear Modulus (GPa) = 14.41066 30.82589 22.61828
#
# Velocity S-wave (km/s) = 2.84188 4.15644 3.56036
# Velocity P-wave (km/s) = 6.83000 8.76134 7.85525
#
# Compressibility (1/GPa) = 0.01561953
#
# Stress axis : x y z
#
# Youngs Moduli (GPa) = 108.09370 99.53397 79.96247
#
# Poissons Ratio (x) = 0.25624 0.09203
# Poissons Ratio (y) = 0.27827 0.34919
# Poissons Ratio (z) = 0.12440 0.43466
#
# Static dielectric constant tensor:
#      x y z
#    x 1.588880 0.000000 -0.005490 
#    y 0.000000 1.600560 0.000000 
#    z -0.005490 0.000000 1.582610 
# 
# From -- ./inp_files/186144.got.cif
#   From: 2010.05.17/outbox.cif.g08.bks.cpg/sg12_94_cif.got.tgz:186144.got - 2010.06.03 13:09:07.
