data_PCOD9195476
_publ_section_title
;
Structure prediction by ZEFSAII (Michael W. Deem and Ramdas Pophale) SiO2 
 PCOD9195476
Probable space group: C 2/M
;
_chemical_formula_sum "Si O2"
_cell_formula_units_Z 40
_cell_length_a 27.749034
_cell_length_b 9.943910
_cell_length_c 26.391455
_cell_angle_alpha 90.000000
_cell_angle_beta 162.003864
_cell_angle_gamma 90.000000
_cell_volume 2249.886454
_symmetry_space_group_name_H-M "C 2/M"
_symmetry_group_IT_number 12
_symmetry_cell_setting 'monoclinic'
loop_
_space_group_symop_operation_xyz
x,y,z
-x,y,-z
-x,-y,-z
x,-y,z
1/2+x,1/2+y,z
1/2-x,1/2+y,-z
1/2-x,1/2-y,-z
1/2+x,1/2-y,z
loop_
_atom_site_type_symbol
_atom_site_label
_atom_site_fract_x
_atom_site_fract_y
_atom_site_fract_z
Si Si1 0.687135 0.000000 0.352118
Si Si2 0.810764 0.500000 0.529526
Si Si3 0.310760 0.000000 0.091999
Si Si4 0.812778 0.000000 0.753987
Si Si5 0.812776 0.284766 0.176709
Si Si6 0.812857 0.500000 0.977840
Si Si7 0.812768 0.715233 0.448837
Si Si8 0.312768 0.500000 0.871558
O O1 0.747540 0.135338 0.386576
O O2 0.744281 0.000000 0.467899
O O3 0.499996 0.000000 0.165055
O O4 0.762544 0.630363 0.448697
O O5 0.000002 0.500000 0.719805
O O6 0.262544 0.130362 0.076393
O O7 0.255714 0.000000 0.979332
O O8 0.747937 0.129344 0.659297
O O9 0.766790 0.000000 0.766790
O O10 0.000006 0.000000 0.938036
O O11 0.747549 0.135338 0.108513
O O12 0.752075 0.370656 0.163436
O O13 0.000004 0.282602 0.364903
#
# Coordination Sequence:
#
# PCOD9195476 Si02
#       8
#     4   4   4   4   8   4   8   4
#     4  11  20  32  51  78 113 147 178 214 259 304
#     4   8  17  32  51  76 107 145 182 214 251 304
#     4   8  17  32  51  76 107 145 182 214 251 304
#     4  10  21  39  61  81 101 130 171 218 268 321
#     4  10  20  35  54  79 109 140 178 218 259 309
#     4  11  20  32  51  78 113 147 178 214 259 304
#     4  10  20  35  54  79 109 140 178 218 259 309
#     4  10  21  39  61  81 101 130 171 218 268 321
#
# _framework density 17.778673999999999
#
# number of rings (size 3 to 8) (size 9 to 14) (size 15 to 20)
#    0.000    2.200    0.000    4.800    0.000    1.600 
#    0.000   11.000    0.000    6.000    0.000    0.000 
#    0.000    0.000    0.000    0.000    0.000    0.000 
#
# Total GULP energy -111666.614239 kJ/mol
# GULP energy per Si atom -5583.330712 kJ/mol
# Density = 1.773821 g / cm^3
# Si number density = 17.778674 Si / 1000 Ang^3
#
#
#
# Elastic Constant Matrix: (Units=GPa)
#
#
# Indices 1 2 3 4 5 6 
#
# 1 125.8717 83.0886 46.7325 -0.0009 -17.3957 -0.0002
# 2 83.0886 198.2969 56.2873 -0.0025 -14.4508 0.0003
# 3 46.7325 56.2873 71.4907 -0.0050 -11.9252 0.0000
# 4 -0.0009 -0.0025 -0.0050 21.2969 -0.0028 9.1854
# 5 -17.3957 -14.4508 -11.9252 -0.0028 26.3871 -0.0001
# 6 -0.0002 0.0003 0.0000 9.1854 -0.0001 4.2662
#
#
#
# Elastic Compliance Matrix: (Units=1/GPa)
#
#
# Indices 1 2 3 4 5 6 
#
# 1 0.012705 -0.003680 -0.004701 -0.000011 0.004236 0.000024
# 2 -0.003680 0.007605 -0.003560 0.000003 0.000130 -0.000007
# 3 -0.004701 -0.003560 0.020572 0.000065 0.004249 -0.000140
# 4 -0.000011 0.000003 0.000065 0.657906 0.000088 -1.416521
# 5 0.004236 0.000130 0.004249 0.000088 0.042681 -0.000189
# 6 0.000024 -0.000007 -0.000140 -1.416521 -0.000189 3.284277
#
#
# Mechanical properties :
#
#
# Convention : Reuss Voigt Hill
#
# Bulk Modulus (GPa) = 58.82517 85.31957 72.07237
# Shear Modulus (GPa) = 1.23296 24.36009 12.79652
#
# Velocity S-wave (km/s) = 0.83367 3.70562 2.68576
# Velocity P-wave (km/s) = 5.83832 8.14879 7.08833
#
# Compressibility (1/GPa) = 0.01699953
#
# Stress axis : x y z
#
# Youngs Moduli (GPa) = 78.71143 131.48984 48.60866
#
# Poissons Ratio (x) = 0.48394 0.22849
# Poissons Ratio (y) = 0.28969 0.17306
# Poissons Ratio (z) = 0.36999 0.46815
#
# Static dielectric constant tensor:
#      x y z
#    x 1.594870 0.000000 -0.000490 
#    y 0.000000 1.583080 0.000000 
#    z -0.000490 0.000000 1.593980 
# 
# From -- ./inp_files/370488.got.cif
#   From: 2010.05.17/outbox.cif.g08.bks.cpg/sg12_186_cif.got.tgz:370488.got - 2010.06.03 13:09:07.
