data_PCOD9195919
_publ_section_title
;
Structure prediction by ZEFSAII (Michael W. Deem and Ramdas Pophale) SiO2 
 PCOD9195919
Probable space group: C 2/M
;
_chemical_formula_sum "Si O2"
_cell_formula_units_Z 58
_cell_length_a 25.224933
_cell_length_b 12.554401
_cell_length_c 17.342749
_cell_angle_alpha 90.000000
_cell_angle_beta 30.106162
_cell_angle_gamma 90.000000
_cell_volume 2754.893130
_symmetry_space_group_name_H-M "C 2/M"
_symmetry_group_IT_number 12
_symmetry_cell_setting 'monoclinic'
loop_
_space_group_symop_operation_xyz
x,y,z
-x,y,-z
-x,-y,-z
x,-y,z
1/2+x,1/2+y,z
1/2-x,1/2+y,-z
1/2-x,1/2-y,-z
1/2+x,1/2-y,z
loop_
_atom_site_type_symbol
_atom_site_label
_atom_site_fract_x
_atom_site_fract_y
_atom_site_fract_z
Si Si1 0.500000 0.500000 0.500000
Si Si2 0.797194 0.374505 0.260393
Si Si3 0.443309 0.121483 0.654010
Si Si4 0.874641 0.617945 0.336758
Si Si5 0.833763 0.841277 0.796067
Si Si6 0.389928 0.824281 0.988819
Si Si7 0.416609 0.380226 0.856856
Si Si8 0.604748 0.743875 0.550927
O O1 0.425222 0.407024 0.636674
O O2 0.775908 0.500000 0.275452
O O3 0.837712 0.360189 0.296359
O O4 0.879703 0.336561 0.093037
O O5 0.689997 0.307173 0.387111
O O6 0.500000 0.117245 0.500000
O O7 0.355772 0.214401 0.759986
O O8 0.528984 0.169849 0.605978
O O9 0.410283 0.000000 0.715443
O O10 0.837463 0.500000 0.404131
O O11 0.841062 0.700124 0.444312
O O12 0.002344 0.622139 0.174606
O O13 0.718811 0.869707 0.908640
O O14 0.841331 0.865732 0.877512
O O15 0.396025 0.704442 0.949335
O O16 0.413042 0.500000 0.889122
O O17 0.530966 0.349920 0.676831
#
# Coordination Sequence:
#
# PCOD9195919 Si02
#       8
#     2   8   8   8   8   8   8   8
#     4  12  24  36  66 100 130 156 212 274 304 360
#     4  11  23  38  64  91 118 156 209 271 316 364
#     4  10  20  35  55  87 129 162 194 240 296 367
#     4  10  22  41  60  88 123 159 205 258 320 376
#     4  11  23  38  61  95 126 163 205 254 309 366
#     4  11  24  38  60  89 120 164 207 247 313 373
#     4  10  22  40  59  85 127 162 200 250 307 380
#     4  10  21  38  64  90 120 160 205 255 317 370
#
# _framework density 21.053447999999999
#
# number of rings (size 3 to 8) (size 9 to 14) (size 15 to 20)
#    0.000    1.517    1.379    3.310    3.862    1.655 
#    0.000    2.069    0.000    8.276    0.000    0.000 
#    0.000    0.000    0.000    0.000    0.000    0.000 
#
# Total GULP energy -161861.494928 kJ/mol
# GULP energy per Si atom -5581.430860 kJ/mol
# Density = 2.100553 g / cm^3
# Si number density = 21.053448 Si / 1000 Ang^3
#
#
#
# Elastic Constant Matrix: (Units=GPa)
#
#
# Indices 1 2 3 4 5 6 
#
# 1 51.7280 24.4474 -10.9225 0.0000 3.3097 0.0000
# 2 24.4474 131.9867 31.6459 0.0000 2.6188 0.0000
# 3 -10.9225 31.6459 64.9933 0.0000 8.0736 0.0000
# 4 0.0000 0.0000 0.0000 6.0523 0.0000 13.1332
# 5 3.3097 2.6188 8.0736 0.0000 27.8339 0.0000
# 6 0.0000 0.0000 0.0000 13.1332 0.0000 18.4607
#
#
#
# Elastic Compliance Matrix: (Units=1/GPa)
#
#
# Indices 1 2 3 4 5 6 
#
# 1 0.024178 -0.006224 0.007654 0.000000 -0.004510 0.000000
# 2 -0.006224 0.010185 -0.006202 0.000000 0.001581 0.000000
# 3 0.007654 -0.006202 0.020470 0.000000 -0.006264 0.000000
# 4 0.000000 0.000000 0.000000 -0.303881 0.000000 0.216184
# 5 -0.004510 0.001581 -0.006264 0.000000 0.038132 0.000000
# 6 0.000000 0.000000 0.000000 0.216184 0.000000 -0.099627
#
#
# Mechanical properties :
#
#
# Convention : Reuss Voigt Hill
#
# Bulk Modulus (GPa) = 22.07978 37.67218 29.87598
# Shear Modulus (GPa) = -17.48850 24.03854 3.27502
#
# Velocity S-wave (km/s) = -2.88526 3.38270 1.24858
# Velocity P-wave (km/s) = 0.76773 5.76102 4.03732
#
# Compressibility (1/GPa) = 0.04529031
#
# Stress axis : x y z
#
# Youngs Moduli (GPa) = 41.35949 98.18408 48.85131
#
# Poissons Ratio (x) = 0.61111 -0.37391
# Poissons Ratio (y) = 0.25743 0.30295
# Poissons Ratio (z) = -0.31657 0.60889
#
# Static dielectric constant tensor:
#      x y z
#    x 1.794000 0.000000 -0.028060 
#    y 0.000000 1.755580 0.000000 
#    z -0.028060 0.000000 1.739670 
# 
# From -- ./inp_files/293263.got.cif
#   From: 2010.05.17/outbox.cif.g08.bks.cpg/sg12_147_cif.got.tgz:293263.got - 2010.06.03 13:09:07.
