data_PCOD9195305
_publ_section_title
;
Structure prediction by ZEFSAII (Michael W. Deem and Ramdas Pophale) SiO2 
 PCOD9195305
Probable space group: C 2/M
;
_chemical_formula_sum "Si O2"
_cell_formula_units_Z 60
_cell_length_a 26.315166
_cell_length_b 27.378258
_cell_length_c 5.245178
_cell_angle_alpha 90.000000
_cell_angle_beta 59.830730
_cell_angle_gamma 90.000000
_cell_volume 3267.077919
_symmetry_space_group_name_H-M "C 2/M"
_symmetry_group_IT_number 12
_symmetry_cell_setting 'monoclinic'
loop_
_space_group_symop_operation_xyz
x,y,z
-x,y,-z
-x,-y,-z
x,-y,z
1/2+x,1/2+y,z
1/2-x,1/2+y,-z
1/2-x,1/2-y,-z
1/2+x,1/2-y,z
loop_
_atom_site_type_symbol
_atom_site_label
_atom_site_fract_x
_atom_site_fract_y
_atom_site_fract_z
Si Si1 0.345198 0.943393 0.832464
Si Si2 0.080487 0.944591 0.428908
Si Si3 0.266467 0.943007 0.536890
Si Si4 0.859218 0.091711 0.246036
Si Si5 0.571216 0.795617 0.820388
Si Si6 0.570910 0.854088 0.320871
Si Si7 0.433330 0.685885 0.053234
Si Si8 0.500000 0.635106 0.500000
O O1 0.303872 0.932098 0.694813
O O2 0.398623 0.905781 0.709933
O O3 0.364237 0.000000 0.760483
O O4 0.307413 0.938839 0.185737
O O5 0.128195 0.939320 0.531657
O O6 0.029817 0.904578 0.613257
O O7 0.059172 0.000000 0.480997
O O8 0.106507 0.930283 0.086313
O O9 0.209018 0.910158 0.650058
O O10 0.246833 0.000000 0.605592
O O11 0.886077 0.144857 0.241326
O O12 0.588579 0.817357 0.504367
O O13 0.588585 0.739940 0.834291
O O14 0.500000 0.794832 0.000000
O O15 0.589436 0.830939 0.004525
O O16 0.500000 0.858522 0.500000
O O17 0.500000 0.681532 0.000000
O O18 0.449066 0.671175 0.722877
#
# Coordination Sequence:
#
# PCOD9195305 Si02
#       8
#     8   8   8   8   8   8   8   4
#     4  10  21  37  61  84 112 143 174 216 264 327
#     4  11  21  33  48  72 106 145 181 234 289 324
#     4  10  20  36  56  80 106 147 191 223 264 317
#     4  11  22  35  55  77 106 146 196 238 269 321
#     4   9  20  32  57  79 113 147 176 222 262 329
#     4  10  20  37  57  90 113 139 172 209 272 330
#     4  10  20  35  53  78 109 144 193 233 285 317
#     4  10  21  32  48  74 108 140 185 232 276 344
#
# _framework density 18.365034000000001
#
# number of rings (size 3 to 8) (size 9 to 14) (size 15 to 20)
#    0.000    1.867    1.333    3.000    4.667    1.333 
#    0.000    2.000    0.000    9.600    0.000    0.000 
#    0.000    0.000    0.000    0.000    0.000    0.000 
#
# Total GULP energy -167258.593549 kJ/mol
# GULP energy per Si atom -5575.286452 kJ/mol
# Density = 1.832323 g / cm^3
# Si number density = 18.365034 Si / 1000 Ang^3
#
#
#
# Elastic Constant Matrix: (Units=GPa)
#
#
# Indices 1 2 3 4 5 6 
#
# 1 89.2997 69.6645 29.6839 0.0000 16.8387 0.0000
# 2 69.6645 132.2732 27.8062 0.0000 1.5257 0.0000
# 3 29.6839 27.8062 47.8017 0.0000 18.8050 0.0000
# 4 0.0000 0.0000 0.0000 3.4745 0.0000 0.6224
# 5 16.8387 1.5257 18.8050 0.0000 28.7037 0.0000
# 6 0.0000 0.0000 0.0000 0.6224 0.0000 26.1347
#
#
#
# Elastic Compliance Matrix: (Units=1/GPa)
#
#
# Indices 1 2 3 4 5 6 
#
# 1 0.023305 -0.011384 -0.003651 0.000000 -0.010675 0.000000
# 2 -0.011384 0.014494 -0.004966 0.000000 0.009161 0.000000
# 3 -0.003651 -0.004966 0.033854 0.000000 -0.019774 0.000000
# 4 0.000000 0.000000 0.000000 0.289041 0.000000 -0.006884
# 5 -0.010675 0.009161 -0.019774 0.000000 0.053569 0.000000
# 6 0.000000 0.000000 0.000000 -0.006884 0.000000 0.038427
#
#
# Mechanical properties :
#
#
# Convention : Reuss Voigt Hill
#
# Bulk Modulus (GPa) = 31.59287 58.18709 44.88998
# Shear Modulus (GPa) = 9.93557 21.14393 15.53975
#
# Velocity S-wave (km/s) = 2.32847 3.39678 2.91204
# Velocity P-wave (km/s) = 4.94663 6.86561 5.98355
#
# Compressibility (1/GPa) = 0.03165271
#
# Stress axis : x y z
#
# Youngs Moduli (GPa) = 42.90872 68.99501 29.53829
#
# Poissons Ratio (x) = 0.78541 0.10784
# Poissons Ratio (y) = 0.48846 0.14668
# Poissons Ratio (z) = 0.15665 0.34262
#
# Static dielectric constant tensor:
#      x y z
#    x 1.657530 0.000000 0.043050 
#    y 0.000000 1.624270 0.000000 
#    z 0.043050 0.000000 1.698630 
# 
# From -- ./inp_files/29606.got.cif
#   From: 2010.05.17/outbox.cif.g08.bks.cpg/sg12_15_cif.got.tgz:29606.got - 2010.06.03 13:09:07.
