data_PCOD9195065
_publ_section_title
;
Structure prediction by ZEFSAII (Michael W. Deem and Ramdas Pophale) SiO2 
 PCOD9195065
Probable space group: C 2/M
;
_chemical_formula_sum "Si O2"
_cell_formula_units_Z 48
_cell_length_a 10.447222
_cell_length_b 22.734864
_cell_length_c 9.381767
_cell_angle_alpha 90.000000
_cell_angle_beta 96.349270
_cell_angle_gamma 90.000000
_cell_volume 2214.653356
_symmetry_space_group_name_H-M "C 2/M"
_symmetry_group_IT_number 12
_symmetry_cell_setting 'monoclinic'
loop_
_space_group_symop_operation_xyz
x,y,z
-x,y,-z
-x,-y,-z
x,-y,z
1/2+x,1/2+y,z
1/2-x,1/2+y,-z
1/2-x,1/2-y,-z
1/2+x,1/2-y,z
loop_
_atom_site_type_symbol
_atom_site_label
_atom_site_fract_x
_atom_site_fract_y
_atom_site_fract_z
Si Si1 0.064744 0.863416 0.223387
Si Si2 0.214376 0.430051 0.913628
Si Si3 0.865145 0.741420 0.898844
Si Si4 0.235449 0.126969 0.792645
Si Si5 0.063521 0.566281 0.644380
Si Si6 0.173312 0.933291 0.488713
O O1 0.150917 0.904326 0.130425
O O2 0.119661 0.798597 0.199421
O O3 0.081227 0.891538 0.382991
O O4 0.912382 0.860794 0.178079
O O5 0.214293 0.500000 0.898652
O O6 0.093563 0.407085 0.802713
O O7 0.204749 0.412899 0.076224
O O8 0.819349 0.685847 0.801209
O O9 0.750000 0.750000 0.000000
O O10 0.000000 0.733035 0.000000
O O11 0.223911 0.095347 0.640033
O O12 0.004621 0.500000 0.651876
O O13 0.207086 0.560368 0.602781
O O14 0.000000 0.597492 0.500000
O O15 0.129561 0.000000 0.512284
#
# Coordination Sequence:
#
# PCOD9195065 Si02
#       6
#     8   8   8   8   8   8
#     4  11  22  42  66  91 131 177 223 275 335 397
#     4  10  20  34  60  95 128 171 222 271 335 405
#     4  12  24  46  71  98 131 175 229 290 339 394
#     4  12  24  39  65  99 133 169 217 286 336 394
#     4   8  16  34  56  78 120 174 214 255 313 391
#     4  10  23  41  63  98 139 174 217 276 341 406
#
# _framework density 21.673821
#
# number of rings (size 3 to 8) (size 9 to 14) (size 15 to 20)
#    0.000    1.500    3.333    3.000    0.000    6.000 
#    0.000    0.000    0.000    5.000    0.000    0.000 
#    0.000    0.000    0.000    0.000    0.000    0.000 
#
# Total GULP energy -133869.803642 kJ/mol
# GULP energy per Si atom -5577.908485 kJ/mol
# Density = 2.162449 g / cm^3
# Si number density = 21.673821 Si / 1000 Ang^3
#
#
#
# Elastic Constant Matrix: (Units=GPa)
#
#
# Indices 1 2 3 4 5 6 
#
# 1 72.3676 30.5340 27.2673 0.0000 15.2817 0.0000
# 2 30.5340 142.1120 81.0626 0.0000 12.6235 0.0000
# 3 27.2673 81.0626 187.4493 0.0000 20.7076 0.0000
# 4 0.0000 0.0000 0.0000 37.0848 0.0000 4.3102
# 5 15.2817 12.6235 20.7076 0.0000 37.4300 0.0000
# 6 0.0000 0.0000 0.0000 4.3102 0.0000 6.5950
#
#
#
# Elastic Compliance Matrix: (Units=1/GPa)
#
#
# Indices 1 2 3 4 5 6 
#
# 1 0.016324 -0.002672 -0.000620 0.000000 -0.005420 0.000000
# 2 -0.002672 0.009812 -0.003844 0.000000 -0.000091 0.000000
# 3 -0.000620 -0.003844 0.007366 0.000000 -0.002526 0.000000
# 4 0.000000 0.000000 0.000000 0.029182 0.000000 -0.019072
# 5 -0.005420 -0.000091 -0.002526 0.000000 0.030358 0.000000
# 6 0.000000 0.000000 0.000000 -0.019072 0.000000 0.164095
#
#
# Mechanical properties :
#
#
# Convention : Reuss Voigt Hill
#
# Bulk Modulus (GPa) = 52.00475 75.51743 63.76109
# Shear Modulus (GPa) = 17.99728 33.75962 25.87845
#
# Velocity S-wave (km/s) = 2.88474 3.95095 3.45917
# Velocity P-wave (km/s) = 5.92807 7.46537 6.74069
#
# Compressibility (1/GPa) = 0.01922901
#
# Stress axis : x y z
#
# Youngs Moduli (GPa) = 61.25923 101.91804 135.74975
#
# Poissons Ratio (x) = 0.27234 0.08420
# Poissons Ratio (y) = 0.16369 0.52187
# Poissons Ratio (z) = 0.03800 0.39181
#
# Static dielectric constant tensor:
#      x y z
#    x 1.854330 0.000000 0.023550 
#    y 0.000000 1.792010 0.000000 
#    z 0.023550 0.000000 1.842230 
# 
# From -- ./inp_files/51460.got.cif
#   From: 2010.05.17/outbox.cif.g08.bks.cpg/sg12_26_cif.got.tgz:51460.got - 2010.06.03 13:09:07.
