data_PCOD9195343
_publ_section_title
;
Structure prediction by ZEFSAII (Michael W. Deem and Ramdas Pophale) SiO2 
 PCOD9195343
Probable space group: C 2/M
;
_chemical_formula_sum "Si O2"
_cell_formula_units_Z 56
_cell_length_a 19.891140
_cell_length_b 17.498857
_cell_length_c 9.349937
_cell_angle_alpha 90.000000
_cell_angle_beta 128.302641
_cell_angle_gamma 90.000000
_cell_volume 2553.925054
_symmetry_space_group_name_H-M "C 2/M"
_symmetry_group_IT_number 12
_symmetry_cell_setting 'monoclinic'
loop_
_space_group_symop_operation_xyz
x,y,z
-x,y,-z
-x,-y,-z
x,-y,z
1/2+x,1/2+y,z
1/2-x,1/2+y,-z
1/2-x,1/2-y,-z
1/2+x,1/2-y,z
loop_
_atom_site_type_symbol
_atom_site_label
_atom_site_fract_x
_atom_site_fract_y
_atom_site_fract_z
Si Si1 0.778626 0.880904 0.864128
Si Si2 0.091332 0.647306 0.563106
Si Si3 0.912148 0.131457 0.802867
Si Si4 0.538030 0.792165 0.192314
Si Si5 0.251936 0.914919 0.874836
Si Si6 0.637528 0.229687 0.902705
Si Si7 0.581236 0.590181 0.515897
O O1 0.679975 0.897354 0.695927
O O2 0.836609 0.897843 0.804620
O O3 0.794546 0.923106 0.032972
O O4 0.798944 0.794095 0.951005
O O5 0.078165 0.664231 0.378581
O O6 0.112857 0.717553 0.702197
O O7 0.000000 0.615789 0.500000
O O8 0.900558 0.223374 0.773423
O O9 0.924867 0.100264 0.661212
O O10 0.000000 0.116625 0.000000
O O11 0.453728 0.752613 0.147687
O O12 0.500000 0.832758 0.000000
O O13 0.176391 0.880538 0.679111
O O14 0.280462 0.000000 0.865934
O O15 0.327180 0.853044 0.997181
O O16 0.500000 0.620891 0.500000
O O17 0.585673 0.500000 0.555412
#
# Coordination Sequence:
#
# PCOD9195343 Si02
#       7
#     8   8   8   8   8   8   8
#     4  11  21  37  59  91 117 156 200 250 316 354
#     4   9  20  33  54  80 115 155 192 240 297 356
#     4  11  22  35  55  88 123 156 198 247 304 353
#     4  10  20  35  53  84 122 147 188 248 301 351
#     4  10  22  39  60  85 116 157 205 250 297 363
#     4  10  20  38  58  86 116 153 198 249 302 357
#     4  10  23  39  57  83 120 167 206 240 295 368
#
# _framework density 21.927033000000002
#
# number of rings (size 3 to 8) (size 9 to 14) (size 15 to 20)
#    0.000    1.857    2.857    2.571    4.000    3.143 
#    0.000    0.000    0.000   27.857    0.000    0.000 
#    0.000    0.000    0.000    0.000    0.000    0.143 
#
# Total GULP energy -155918.186324 kJ/mol
# GULP energy per Si atom -5568.506654 kJ/mol
# Density = 2.187713 g / cm^3
# Si number density = 21.927033 Si / 1000 Ang^3
#
#
#
# Elastic Constant Matrix: (Units=GPa)
#
#
# Indices 1 2 3 4 5 6 
#
# 1 92.0395 -6.9463 26.0489 0.0000 -3.5434 0.0000
# 2 -6.9463 58.9397 -2.9033 0.0000 11.3246 0.0000
# 3 26.0489 -2.9033 154.0967 0.0000 -7.8067 0.0000
# 4 0.0000 0.0000 0.0000 -248.9712 0.0000 75.9891
# 5 -3.5434 11.3246 -7.8067 0.0000 33.3255 0.0000
# 6 0.0000 0.0000 0.0000 75.9891 0.0000 -26.4502
#
#
#
# Elastic Compliance Matrix: (Units=1/GPa)
#
#
# Indices 1 2 3 4 5 6 
#
# 1 0.011508 0.001191 -0.001904 0.000000 0.000373 0.000000
# 2 0.001191 0.018275 -0.000167 0.000000 -0.006123 0.000000
# 3 -0.001904 -0.000167 0.006882 0.000000 0.001467 0.000000
# 4 0.000000 0.000000 0.000000 -0.032614 0.000000 -0.093698
# 5 0.000373 -0.006123 0.001467 0.000000 0.032471 0.000000
# 6 0.000000 0.000000 0.000000 -0.093698 0.000000 -0.306994
#
#
# Mechanical properties :
#
#
# Convention : Reuss Voigt Hill
#
# Bulk Modulus (GPa) = 28.64940 37.49717 33.07328
# Shear Modulus (GPa) = -19.44948 -29.16074 -24.30511
#
# Velocity S-wave (km/s) = -2.98150 -3.65073 -3.33296
# Velocity P-wave (km/s) = 1.11431 0.79528 0.55191
#
# Compressibility (1/GPa) = 0.03490475
#
# Stress axis : x y z
#
# Youngs Moduli (GPa) = 86.89600 54.71954 145.29724
#
# Poissons Ratio (x) = -0.06516 0.27665
# Poissons Ratio (y) = -0.10348 0.02429
# Poissons Ratio (z) = 0.16545 0.00915
#
# Static dielectric constant tensor:
#      x y z
#    x 1.842810 0.000000 -0.005460 
#    y 0.000000 1.870910 0.000000 
#    z -0.005460 0.000000 1.829850 
# 
# From -- ./inp_files/89665.got.cif
#   From: 2010.05.17/outbox.cif.g08.bks.cpg/sg12_45_cif.got.tgz:89665.got - 2010.06.03 13:09:07.
