data_PCOD9195227
_publ_section_title
;
Structure prediction by ZEFSAII (Michael W. Deem and Ramdas Pophale) SiO2 
 PCOD9195227
Probable space group: C 2/M
;
_chemical_formula_sum "Si O2"
_cell_formula_units_Z 44
_cell_length_a 11.980208
_cell_length_b 26.790336
_cell_length_c 6.886826
_cell_angle_alpha 90.000000
_cell_angle_beta 65.214935
_cell_angle_gamma 90.000000
_cell_volume 2006.750239
_symmetry_space_group_name_H-M "C 2/M"
_symmetry_group_IT_number 12
_symmetry_cell_setting 'monoclinic'
loop_
_space_group_symop_operation_xyz
x,y,z
-x,y,-z
-x,-y,-z
x,-y,z
1/2+x,1/2+y,z
1/2-x,1/2+y,-z
1/2-x,1/2-y,-z
1/2+x,1/2-y,z
loop_
_atom_site_type_symbol
_atom_site_label
_atom_site_fract_x
_atom_site_fract_y
_atom_site_fract_z
Si Si1 0.000000 0.204313 0.000000
Si Si2 0.114409 0.557096 0.203522
Si Si3 0.107736 0.602799 0.800355
Si Si4 0.214986 0.144172 0.863639
Si Si5 0.644953 0.654977 0.354014
Si Si6 0.392428 0.236824 0.716863
O O1 0.898344 0.167710 0.171260
O O2 0.058142 0.239416 0.120284
O O3 0.124683 0.500000 0.253386
O O4 0.211337 0.594113 0.232571
O O5 0.973566 0.577077 0.306825
O O6 0.139701 0.563557 0.949860
O O7 0.231931 0.629973 0.644355
O O8 0.000000 0.634246 0.000000
O O9 0.307110 0.190341 0.813509
O O10 0.160048 0.138112 0.119059
O O11 0.500000 0.645268 0.500000
O O12 0.665119 0.714836 0.347663
O O13 0.500000 0.218603 0.500000
#
# Coordination Sequence:
#
# PCOD9195227 Si02
#       6
#     4   8   8   8   8   8
#     4  10  20  36  57  80 123 154 184 236 288 346
#     4   8  15  29  52  76 104 146 197 241 287 335
#     4   7  14  26  49  80 108 148 189 234 286 337
#     4  10  20  35  52  80 114 153 195 241 284 340
#     4   9  16  30  51  81 119 152 182 229 287 346
#     4  10  22  37  56  86 117 153 192 232 285 347
#
# _framework density 21.925998
#
# number of rings (size 3 to 8) (size 9 to 14) (size 15 to 20)
#    1.091    1.818    0.000    3.273    0.000    5.091 
#    1.636    5.909    0.000   14.182    0.000    0.000 
#    0.000    2.182    0.000    0.000    0.000    0.000 
#
# Total GULP energy -122511.819422 kJ/mol
# GULP energy per Si atom -5568.719065 kJ/mol
# Density = 2.187609 g / cm^3
# Si number density = 21.925998 Si / 1000 Ang^3
#
#
#
# Elastic Constant Matrix: (Units=GPa)
#
#
# Indices 1 2 3 4 5 6 
#
# 1 124.8714 96.6521 39.9443 0.0000 -25.7942 0.0000
# 2 96.6521 136.9092 49.6898 0.0000 -39.7163 0.0000
# 3 39.9443 49.6898 102.0003 0.0000 -37.8990 0.0000
# 4 0.0000 0.0000 0.0000 15.0236 0.0000 -11.9016
# 5 -25.7942 -39.7163 -37.8990 0.0000 42.9025 0.0000
# 6 0.0000 0.0000 0.0000 -11.9016 0.0000 22.2684
#
#
#
# Elastic Compliance Matrix: (Units=1/GPa)
#
#
# Indices 1 2 3 4 5 6 
#
# 1 0.017910 -0.012758 -0.001766 0.000000 -0.002602 0.000000
# 2 -0.012758 0.019394 -0.000939 0.000000 0.009454 0.000000
# 3 -0.001766 -0.000939 0.015236 0.000000 0.011528 0.000000
# 4 0.000000 0.000000 0.000000 0.115439 0.000000 0.061698
# 5 -0.002602 0.009454 0.011528 0.000000 0.040680 0.000000
# 6 0.000000 0.000000 0.000000 0.061698 0.000000 0.077882
#
#
# Mechanical properties :
#
#
# Convention : Reuss Voigt Hill
#
# Bulk Modulus (GPa) = 46.26350 81.81703 64.04027
# Shear Modulus (GPa) = 15.40015 27.87187 21.63601
#
# Velocity S-wave (km/s) = 2.65310 3.56923 3.14470
# Velocity P-wave (km/s) = 5.52548 7.37441 6.51586
#
# Compressibility (1/GPa) = 0.02161531
#
# Stress axis : x y z
#
# Youngs Moduli (GPa) = 55.83352 51.56239 65.63286
#
# Poissons Ratio (x) = 0.65783 0.11588
# Poissons Ratio (y) = 0.71232 0.06164
# Poissons Ratio (z) = 0.09858 0.04842
#
# Static dielectric constant tensor:
#      x y z
#    x 1.965880 0.000000 0.057050 
#    y 0.000000 1.754280 0.000000 
#    z 0.057050 0.000000 1.980320 
# 
# From -- ./inp_files/53700.got.cif
#   From: 2010.05.17/outbox.cif.g08.bks.cpg/sg12_27_cif.got.tgz:53700.got - 2010.06.03 13:09:07.
