data_PCOD9195413
_publ_section_title
;
Structure prediction by ZEFSAII (Michael W. Deem and Ramdas Pophale) SiO2 
 PCOD9195413
Probable space group: C 2/M
;
_chemical_formula_sum "Si O2"
_cell_formula_units_Z 64
_cell_length_a 10.824755
_cell_length_b 15.227237
_cell_length_c 23.170643
_cell_angle_alpha 90.000000
_cell_angle_beta 125.466061
_cell_angle_gamma 90.000000
_cell_volume 3110.618022
_symmetry_space_group_name_H-M "C 2/M"
_symmetry_group_IT_number 12
_symmetry_cell_setting 'monoclinic'
loop_
_space_group_symop_operation_xyz
x,y,z
-x,y,-z
-x,-y,-z
x,-y,z
1/2+x,1/2+y,z
1/2-x,1/2+y,-z
1/2-x,1/2-y,-z
1/2+x,1/2-y,z
loop_
_atom_site_type_symbol
_atom_site_label
_atom_site_fract_x
_atom_site_fract_y
_atom_site_fract_z
Si Si1 0.572419 0.605677 0.459737
Si Si2 0.377995 0.145604 0.298791
Si Si3 0.960770 0.894183 0.080525
Si Si4 0.742711 0.606114 0.078880
Si Si5 0.583578 0.106170 0.464579
Si Si6 0.540480 0.645559 0.228238
Si Si7 0.632361 0.644287 0.706548
Si Si8 0.468049 0.853225 0.775409
O O1 0.500000 0.638756 0.500000
O O2 0.581667 0.500000 0.466875
O O3 0.743449 0.638103 0.494845
O O4 0.465303 0.626606 0.376890
O O5 0.486054 0.131311 0.382484
O O6 0.210242 0.108855 0.265720
O O7 0.358462 0.250092 0.284382
O O8 0.455787 0.108957 0.262007
O O9 0.119880 0.865009 0.094195
O O10 0.952990 0.866367 0.144397
O O11 0.962171 0.000000 0.079608
O O12 0.826197 0.865273 0.001258
O O13 0.744096 0.500000 0.079744
O O14 0.909084 0.637056 0.140746
O O15 0.500000 0.137450 0.500000
O O16 0.588333 0.000000 0.468606
O O17 0.452869 0.609206 0.259861
O O18 0.555916 0.749823 0.242141
O O19 0.803100 0.609710 0.745313
#
# Coordination Sequence:
#
# PCOD9195413 Si02
#       8
#     8   8   8   8   8   8   8   8
#     4  10  21  37  53  72 102 138 174 215 265 322
#     4  10  20  35  54  77 104 138 180 222 260 314
#     4   9  18  34  57  83 108 139 181 225 266 311
#     4   9  18  34  57  83 108 138 183 227 259 309
#     4  10  21  35  53  78 104 132 174 227 272 312
#     4  10  20  35  54  79 112 142 174 221 271 317
#     4  10  22  35  52  79 108 140 176 216 268 321
#     4  10  20  35  54  79 110 142 180 220 260 318
#
# _framework density 20.57469
#
# number of rings (size 3 to 8) (size 9 to 14) (size 15 to 20)
#    0.000    2.250    1.250    2.250    0.000    3.500 
#    0.000    0.625    0.000    1.500    0.000    0.000 
#    0.000    0.000    0.000    0.000    0.000    0.000 
#
# Total GULP energy -178677.590817 kJ/mol
# GULP energy per Si atom -5583.674713 kJ/mol
# Density = 2.052786 g / cm^3
# Si number density = 20.574690 Si / 1000 Ang^3
#
#
#
# Elastic Constant Matrix: (Units=GPa)
#
#
# Indices 1 2 3 4 5 6 
#
# 1 210.7088 14.6123 119.1229 0.0000 1.4901 0.0000
# 2 14.6123 32.6817 -18.1623 0.0000 0.0742 0.0000
# 3 119.1229 -18.1623 158.3097 0.0000 0.3870 0.0000
# 4 0.0000 0.0000 0.0000 31.7937 0.0000 1.7665
# 5 1.4901 0.0742 0.3870 0.0000 37.5088 0.0000
# 6 0.0000 0.0000 0.0000 1.7665 0.0000 -6.3635
#
#
#
# Elastic Compliance Matrix: (Units=1/GPa)
#
#
# Indices 1 2 3 4 5 6 
#
# 1 0.010537 -0.009737 -0.009045 0.000000 -0.000306 0.000000
# 2 -0.009737 0.041680 0.012108 0.000000 0.000179 0.000000
# 3 -0.009045 0.012108 0.014511 0.000000 0.000186 0.000000
# 4 0.000000 0.000000 0.000000 0.030975 0.000000 0.008599
# 5 -0.000306 0.000179 0.000186 0.000000 0.026670 0.000000
# 6 0.000000 0.000000 0.000000 0.008599 0.000000 -0.154759
#
#
# Mechanical properties :
#
#
# Convention : Reuss Voigt Hill
#
# Bulk Modulus (GPa) = 18.73333 70.31622 44.52477
# Shear Modulus (GPa) = 6612.92341 31.66295 3322.29318
#
# Velocity S-wave (km/s) = 56.75459 3.92717 40.22752
# Velocity P-wave (km/s) = 65.60414 7.40364 46.68360
#
# Compressibility (1/GPa) = 0.05338080
#
# Stress axis : x y z
#
# Youngs Moduli (GPa) = 94.90558 23.99224 68.91124
#
# Poissons Ratio (x) = 0.23361 0.62330
# Poissons Ratio (y) = 0.92409 -0.83439
# Poissons Ratio (z) = 0.85841 -0.29050
#
# Static dielectric constant tensor:
#      x y z
#    x 1.756820 0.000000 -0.004560 
#    y 0.000000 1.738070 0.000000 
#    z -0.004560 0.000000 1.694440 
# 
# From -- ./inp_files/306235.got.cif
#   From: 2010.05.17/outbox.cif.g08.bks.cpg/sg12_154_cif.got.tgz:306235.got - 2010.06.03 13:09:07.
