data_PCOD9195813
_publ_section_title
;
Structure prediction by ZEFSAII (Michael W. Deem and Ramdas Pophale) SiO2 
 PCOD9195813
Probable space group: C 2/M
;
_chemical_formula_sum "Si O2"
_cell_formula_units_Z 56
_cell_length_a 16.148632
_cell_length_b 8.585438
_cell_length_c 16.957472
_cell_angle_alpha 90.000000
_cell_angle_beta 101.796602
_cell_angle_gamma 90.000000
_cell_volume 2301.381104
_symmetry_space_group_name_H-M "C 2/M"
_symmetry_group_IT_number 12
_symmetry_cell_setting 'monoclinic'
loop_
_space_group_symop_operation_xyz
x,y,z
-x,y,-z
-x,-y,-z
x,-y,z
1/2+x,1/2+y,z
1/2-x,1/2+y,-z
1/2-x,1/2-y,-z
1/2+x,1/2-y,z
loop_
_atom_site_type_symbol
_atom_site_label
_atom_site_fract_x
_atom_site_fract_y
_atom_site_fract_z
Si Si1 0.926830 0.319115 0.048526
Si Si2 0.138073 0.179455 0.814430
Si Si3 0.248282 0.813595 0.610083
Si Si4 0.868791 0.678394 0.769910
Si Si5 0.690101 0.676989 0.092869
Si Si6 0.481887 0.819745 0.331181
Si Si7 0.107540 0.183097 0.475171
O O1 0.934372 0.500000 0.073147
O O2 0.926303 0.215017 0.126174
O O3 0.840917 0.288194 0.983018
O O4 0.000000 0.282838 0.000000
O O5 0.218001 0.282490 0.855385
O O6 0.092744 0.223754 0.724112
O O7 0.162991 0.000000 0.818227
O O8 0.281322 0.795756 0.704878
O O9 0.153838 0.767074 0.565518
O O10 0.315334 0.717944 0.570733
O O11 0.257454 0.000000 0.594040
O O12 0.870151 0.500000 0.799967
O O13 0.870320 0.791719 0.843699
O O14 0.942128 0.691439 0.719287
O O15 0.684753 0.500000 0.064844
O O16 0.526346 0.763230 0.420431
O O17 0.457724 0.000000 0.333377
O O18 0.090038 0.000000 0.475484
#
# Coordination Sequence:
#
# PCOD9195813 Si02
#       7
#     8   8   8   8   8   8   8
#     4  11  24  43  66  90 117 147 179 221 273 325
#     4  12  25  41  61  84 113 148 187 229 274 328
#     4   8  15  27  45  72 108 146 183 229 282 331
#     4   9  18  34  55  80 112 149 187 229 279 331
#     4  12  25  40  59  84 115 149 187 229 274 327
#     4  10  20  35  55  81 114 149 186 231 282 333
#     4   9  15  25  45  75 108 143 185 230 278 330
#
# _framework density 24.333214000000002
#
# number of rings (size 3 to 8) (size 9 to 14) (size 15 to 20)
#    0.000    1.857    0.000    6.000    0.000    8.000 
#    0.000    0.000    0.000    0.857    0.000    6.000 
#    0.000    0.000    0.000    0.000    0.000    0.000 
#
# Total GULP energy -156700.641031 kJ/mol
# GULP energy per Si atom -5596.451465 kJ/mol
# Density = 2.427783 g / cm^3
# Si number density = 24.333214 Si / 1000 Ang^3
#
#
#
# Elastic Constant Matrix: (Units=GPa)
#
#
# Indices 1 2 3 4 5 6 
#
# 1 90.2521 -0.9334 13.2278 0.0000 14.4933 0.0000
# 2 -0.9334 33.8810 19.1348 0.0000 -2.4281 0.0000
# 3 13.2278 19.1348 118.5993 0.0000 16.5360 0.0000
# 4 0.0000 0.0000 0.0000 30.6614 0.0000 6.9117
# 5 14.4933 -2.4281 16.5360 0.0000 42.1832 0.0000
# 6 0.0000 0.0000 0.0000 6.9117 0.0000 16.1777
#
#
#
# Elastic Compliance Matrix: (Units=1/GPa)
#
#
# Indices 1 2 3 4 5 6 
#
# 1 0.011807 0.000568 -0.000897 0.000000 -0.003673 0.000000
# 2 0.000568 0.033203 -0.005987 0.000000 0.004063 0.000000
# 3 -0.000897 -0.005987 0.010052 0.000000 -0.003977 0.000000
# 4 0.000000 0.000000 0.000000 0.036090 0.000000 -0.015419
# 5 -0.003673 0.004063 -0.003977 0.000000 0.026761 0.000000
# 6 0.000000 0.000000 0.000000 -0.015419 0.000000 0.068401
#
#
# Mechanical properties :
#
#
# Convention : Reuss Voigt Hill
#
# Bulk Modulus (GPa) = 23.56690 33.95453 28.76071
# Shear Modulus (GPa) = 23.46444 31.89133 27.67789
#
# Velocity S-wave (km/s) = 3.10868 3.62416 3.37627
# Velocity P-wave (km/s) = 4.75303 5.61222 5.20040
#
# Compressibility (1/GPa) = 0.04243240
#
# Stress axis : x y z
#
# Youngs Moduli (GPa) = 84.69475 30.11771 99.48092
#
# Poissons Ratio (x) = -0.01712 0.08919
# Poissons Ratio (y) = -0.04814 0.59558
# Poissons Ratio (z) = 0.07593 0.18031
#
# Static dielectric constant tensor:
#      x y z
#    x 2.027760 0.000000 -0.014990 
#    y 0.000000 1.819910 0.000000 
#    z -0.014990 0.000000 1.946460 
# 
# From -- ./inp_files/275672.got.cif
#   From: 2010.05.17/outbox.cif.g08.bks.cpg/sg12_138_cif.got.tgz:275672.got - 2010.06.03 13:09:07.
