data_PCOD9195452
_publ_section_title
;
Structure prediction by ZEFSAII (Michael W. Deem and Ramdas Pophale) SiO2 
 PCOD9195452
Probable space group: C 2/M
;
_chemical_formula_sum "Si O2"
_cell_formula_units_Z 64
_cell_length_a 8.484050
_cell_length_b 26.334722
_cell_length_c 13.769957
_cell_angle_alpha 90.000000
_cell_angle_beta 72.056683
_cell_angle_gamma 90.000000
_cell_volume 2926.915832
_symmetry_space_group_name_H-M "C 2/M"
_symmetry_group_IT_number 12
_symmetry_cell_setting 'monoclinic'
loop_
_space_group_symop_operation_xyz
x,y,z
-x,y,-z
-x,-y,-z
x,-y,z
1/2+x,1/2+y,z
1/2-x,1/2+y,-z
1/2-x,1/2-y,-z
1/2+x,1/2-y,z
loop_
_atom_site_type_symbol
_atom_site_label
_atom_site_fract_x
_atom_site_fract_y
_atom_site_fract_z
Si Si1 0.752986 0.667075 0.112388
Si Si2 0.490467 0.911868 0.393030
Si Si3 0.649317 0.803699 0.329828
Si Si4 0.479154 0.303703 0.670168
Si Si5 0.222518 0.945364 0.171423
Si Si6 0.106077 0.554637 0.171426
Si Si7 0.365366 0.832923 0.887613
Si Si8 0.883502 0.911872 0.606969
O O1 0.622693 0.692382 0.209125
O O2 0.706146 0.607170 0.117656
O O3 0.937280 0.670727 0.125446
O O4 0.768187 0.686754 0.000002
O O5 0.500000 0.931761 0.500000
O O6 0.544579 0.852871 0.379894
O O7 0.597648 0.939239 0.289653
O O8 0.302969 0.915518 0.394058
O O9 0.565930 0.749998 0.368139
O O10 0.827571 0.806728 0.344849
O O11 0.668186 0.807612 0.209121
O O12 0.424494 0.352875 0.620098
O O13 0.415584 0.946028 0.168851
O O14 0.112709 0.939240 0.289649
O O15 0.188366 0.000000 0.131168
O O16 0.180486 0.500000 0.131174
O O17 0.176213 0.607172 0.117662
O O18 0.000000 0.931768 0.500000
#
# Coordination Sequence:
#
# PCOD9195452 Si02
#       8
#     8   8   8   8   8   8   8   8
#     4   9  18  33  53  78 108 140 175 215 258 306
#     4  10  20  35  54  78 107 138 174 214 257 307
#     4  11  22  37  56  77 103 135 172 215 262 311
#     4  11  22  37  56  77 103 135 172 215 262 311
#     4   8  15  29  50  77 108 140 174 213 255 301
#     4   8  15  29  50  77 108 140 174 213 255 301
#     4   9  18  33  53  78 108 140 175 215 258 306
#     4  10  20  35  54  78 107 138 174 214 257 307
#
# _framework density 21.866018
#
# number of rings (size 3 to 8) (size 9 to 14) (size 15 to 20)
#    0.000    2.500    0.000    4.500    0.000    2.500 
#    0.000    5.000    0.000   18.000    0.000    7.000 
#    0.000    0.000    0.000    0.000    0.000    0.000 
#
# Total GULP energy -178714.566351 kJ/mol
# GULP energy per Si atom -5584.830198 kJ/mol
# Density = 2.181625 g / cm^3
# Si number density = 21.866018 Si / 1000 Ang^3
#
#
#
# Elastic Constant Matrix: (Units=GPa)
#
#
# Indices 1 2 3 4 5 6 
#
# 1 22.3316 -14.7304 5.6515 0.0000 -1.2876 0.0000
# 2 -14.7304 91.1595 -16.4753 0.0000 0.1178 0.0000
# 3 5.6515 -16.4753 84.5927 0.0000 -2.8398 0.0000
# 4 0.0000 0.0000 0.0000 -11.4807 0.0000 1.5573
# 5 -1.2876 0.1178 -2.8398 0.0000 18.1495 0.0000
# 6 0.0000 0.0000 0.0000 1.5573 0.0000 11.9562
#
#
#
# Elastic Compliance Matrix: (Units=1/GPa)
#
#
# Indices 1 2 3 4 5 6 
#
# 1 0.050590 0.007856 -0.001740 0.000000 0.003266 0.000000
# 2 0.007856 0.012591 0.001954 0.000000 0.000781 0.000000
# 3 -0.001740 0.001954 0.012379 0.000000 0.001801 0.000000
# 4 0.000000 0.000000 0.000000 -0.085590 0.000000 0.011148
# 5 0.003266 0.000781 0.001801 0.000000 0.055606 0.000000
# 6 0.000000 0.000000 0.000000 0.011148 0.000000 0.082187
#
#
# Mechanical properties :
#
#
# Convention : Reuss Voigt Hill
#
# Bulk Modulus (GPa) = 10.90518 16.33060 13.61789
# Shear Modulus (GPa) = 35.16423 18.63421 26.89922
#
# Velocity S-wave (km/s) = 4.01455 2.92241 3.51120
# Velocity P-wave (km/s) = 5.14654 4.34419 4.76230
#
# Compressibility (1/GPa) = 0.09169951
#
# Stress axis : x y z
#
# Youngs Moduli (GPa) = 19.76664 79.41975 80.78493
#
# Poissons Ratio (x) = -0.62393 0.14058
# Poissons Ratio (y) = -0.15529 -0.15783
# Poissons Ratio (z) = 0.03440 -0.15516
#
# Static dielectric constant tensor:
#      x y z
#    x 1.744880 0.000000 -0.005030 
#    y 0.000000 1.780920 0.000000 
#    z -0.005030 0.000000 1.820550 
# 
# From -- ./inp_files/199836.got.cif
#   From: 2010.05.17/outbox.cif.g08.bks.cpg/sg12_100_cif.got.tgz:199836.got - 2010.06.03 13:09:07.
