data_PCOD9195115
_publ_section_title
;
Structure prediction by ZEFSAII (Michael W. Deem and Ramdas Pophale) SiO2 
 PCOD9195115
Probable space group: C 2/M
;
_chemical_formula_sum "Si O2"
_cell_formula_units_Z 34
_cell_length_a 16.665865
_cell_length_b 14.185604
_cell_length_c 7.348690
_cell_angle_alpha 90.000000
_cell_angle_beta 43.553211
_cell_angle_gamma 90.000000
_cell_volume 1197.078005
_symmetry_space_group_name_H-M "C 2/M"
_symmetry_group_IT_number 12
_symmetry_cell_setting 'monoclinic'
loop_
_space_group_symop_operation_xyz
x,y,z
-x,y,-z
-x,-y,-z
x,-y,z
1/2+x,1/2+y,z
1/2-x,1/2+y,-z
1/2-x,1/2-y,-z
1/2+x,1/2-y,z
loop_
_atom_site_type_symbol
_atom_site_label
_atom_site_fract_x
_atom_site_fract_y
_atom_site_fract_z
Si Si1 0.792342 0.858981 0.581271
Si Si2 0.000000 0.500000 0.000000
Si Si3 0.711670 0.866763 0.339517
Si Si4 0.543312 0.645724 0.227777
Si Si5 0.903811 0.629972 0.838130
O O1 0.716411 0.899226 0.540078
O O2 0.792329 0.746083 0.617677
O O3 0.925742 0.878640 0.313927
O O4 0.727437 0.890976 0.869186
O O5 0.977606 0.580048 0.873634
O O6 0.614821 0.891237 0.347205
O O7 0.837157 0.891854 0.048682
O O8 0.500000 0.617141 0.500000
O O9 0.567033 0.758748 0.197426
#
# Coordination Sequence:
#
# PCOD9195115 Si02
#       5
#     8   2   8   8   8
#     4  10  20  36  64  97 127 157 201 278 340 373
#     4  12  32  44  62  82 136 198 220 242 290 392
#     4  10  20  34  62  94 128 160 203 268 330 383
#     4  11  18  35  66 102 128 152 198 276 345 374
#     4  11  24  43  56  91 135 174 219 249 309 391
#
# _framework density 28.402494000000001
#
# number of rings (size 3 to 8) (size 9 to 14) (size 15 to 20)
#    0.000    1.412    4.706    2.118    9.882    0.000 
#    0.000    5.294    0.000    2.824    0.000    3.294 
#    0.000    0.000    0.000    0.000    0.000    0.000 
#
# Total GULP energy -94769.769330 kJ/mol
# GULP energy per Si atom -5574.692314 kJ/mol
# Density = 2.833785 g / cm^3
# Si number density = 28.402494 Si / 1000 Ang^3
#
#
#
# Elastic Constant Matrix: (Units=GPa)
#
#
# Indices 1 2 3 4 5 6 
#
# 1 291.7973 25.0456 99.0933 0.0000 23.2765 0.0000
# 2 25.0456 145.0911 -11.2752 0.0000 19.0911 0.0000
# 3 99.0933 -11.2752 141.3814 0.0000 10.8673 0.0000
# 4 0.0000 0.0000 0.0000 -80.3226 0.0000 48.0158
# 5 23.2765 19.0911 10.8673 0.0000 86.9794 0.0000
# 6 0.0000 0.0000 0.0000 48.0158 0.0000 97.6207
#
#
#
# Elastic Compliance Matrix: (Units=1/GPa)
#
#
# Indices 1 2 3 4 5 6 
#
# 1 0.004687 -0.000985 -0.003316 0.000000 -0.000624 0.000000
# 2 -0.000985 0.007372 0.001396 0.000000 -0.001529 0.000000
# 3 -0.003316 0.001396 0.009556 0.000000 -0.000613 0.000000
# 4 0.000000 0.000000 0.000000 -0.009621 0.000000 0.004732
# 5 -0.000624 -0.001529 -0.000613 0.000000 0.012076 0.000000
# 6 0.000000 0.000000 0.000000 0.004732 0.000000 0.007916
#
#
# Mechanical properties :
#
#
# Convention : Reuss Voigt Hill
#
# Bulk Modulus (GPa) = 63.27227 89.33304 76.30265
# Shear Modulus (GPa) = 116.10492 51.88256 83.99374
#
# Velocity S-wave (km/s) = 6.40056 4.27862 5.44397
# Velocity P-wave (km/s) = 8.77202 7.47861 8.15101
#
# Compressibility (1/GPa) = 0.01580471
#
# Stress axis : x y z
#
# Youngs Moduli (GPa) = 213.33728 135.65152 104.65074
#
# Poissons Ratio (x) = 0.13358 0.34702
# Poissons Ratio (y) = 0.21008 -0.14605
# Poissons Ratio (z) = 0.70742 -0.18932
#
# Static dielectric constant tensor:
#      x y z
#    x 2.325180 0.000000 -0.128700 
#    y 0.000000 2.221800 0.000000 
#    z -0.128700 0.000000 2.254690 
# 
# From -- ./inp_files/46560.got.cif
#   From: 2010.05.17/outbox.cif.g08.bks.cpg/sg12_24_cif.got.tgz:46560.got - 2010.06.03 13:09:07.
