data_PCOD9195389
_publ_section_title
;
Structure prediction by ZEFSAII (Michael W. Deem and Ramdas Pophale) SiO2 
 PCOD9195389
Probable space group: C 2/M
;
_chemical_formula_sum "Si O2"
_cell_formula_units_Z 64
_cell_length_a 19.604471
_cell_length_b 7.630235
_cell_length_c 20.857343
_cell_angle_alpha 90.000000
_cell_angle_beta 82.607769
_cell_angle_gamma 90.000000
_cell_volume 3094.050183
_symmetry_space_group_name_H-M "C 2/M"
_symmetry_group_IT_number 12
_symmetry_cell_setting 'monoclinic'
loop_
_space_group_symop_operation_xyz
x,y,z
-x,y,-z
-x,-y,-z
x,-y,z
1/2+x,1/2+y,z
1/2-x,1/2+y,-z
1/2-x,1/2-y,-z
1/2+x,1/2-y,z
loop_
_atom_site_type_symbol
_atom_site_label
_atom_site_fract_x
_atom_site_fract_y
_atom_site_fract_z
Si Si1 0.439506 0.214003 0.367089
Si Si2 0.584378 0.785670 0.407786
Si Si3 0.443700 0.215219 0.218102
Si Si4 0.830365 0.289624 0.479185
Si Si5 0.700653 0.791820 0.814058
Si Si6 0.088872 0.291044 0.158415
Si Si7 0.830184 0.288657 0.725839
Si Si8 0.718381 0.706876 0.072245
O O1 0.506384 0.268213 0.400632
O O2 0.447334 0.269135 0.292283
O O3 0.368514 0.270883 0.409544
O O4 0.440272 0.000000 0.366235
O O5 0.620914 0.726645 0.468459
O O6 0.633266 0.730155 0.343143
O O7 0.583027 0.000000 0.409693
O O8 0.373919 0.278659 0.193951
O O9 0.511097 0.273041 0.171129
O O10 0.442385 0.000000 0.218750
O O11 0.834473 0.500000 0.478518
O O12 0.750000 0.250000 0.500000
O O13 0.752234 0.764911 0.748364
O O14 0.737295 0.717141 0.873451
O O15 0.693136 0.000000 0.824432
O O16 0.085379 0.500000 0.165558
O O17 0.127559 0.223052 0.217399
O O18 0.138969 0.257013 0.092970
O O19 0.832782 0.500000 0.725544
O O20 0.720598 0.500000 0.078792
O O21 0.750000 0.750000 0.000000
#
# Coordination Sequence:
#
# PCOD9195389 Si02
#       8
#     8   8   8   8   8   8   8   8
#     4   9  16  29  50  73  95 129 173 211 247 295
#     4   9  16  29  48  71  97 126 169 214 249 292
#     4   9  16  29  50  76 102 127 163 209 253 294
#     4  10  21  33  48  71 100 132 169 214 259 301
#     4   9  19  32  49  75 105 130 159 202 246 290
#     4   9  16  30  53  77  99 126 163 205 245 289
#     4   9  16  28  48  72  96 127 164 203 247 295
#     4  10  20  35  54  76 103 135 168 198 235 288
#
# _framework density 20.68486
#
# number of rings (size 3 to 8) (size 9 to 14) (size 15 to 20)
#    0.000    2.750    1.250    0.750    1.750    2.000 
#    0.000    1.250    0.000    6.750    0.000    0.000 
#    0.000    0.000    0.000    0.000    0.000    0.000 
#
# Total GULP energy -178482.694580 kJ/mol
# GULP energy per Si atom -5577.584206 kJ/mol
# Density = 2.063778 g / cm^3
# Si number density = 20.684860 Si / 1000 Ang^3
#
#
#
# Elastic Constant Matrix: (Units=GPa)
#
#
# Indices 1 2 3 4 5 6 
#
# 1 193.8736 6.8758 69.0095 0.0000 -29.4289 0.0000
# 2 6.8758 36.3027 0.4057 0.0000 2.9140 0.0000
# 3 69.0095 0.4057 91.3427 0.0000 -30.2939 0.0000
# 4 0.0000 0.0000 0.0000 6.1774 0.0000 -7.3543
# 5 -29.4289 2.9140 -30.2939 0.0000 31.2704 0.0000
# 6 0.0000 0.0000 0.0000 -7.3543 0.0000 17.3328
#
#
#
# Elastic Compliance Matrix: (Units=1/GPa)
#
#
# Indices 1 2 3 4 5 6 
#
# 1 0.007239 -0.001516 -0.004650 0.000000 0.002449 0.000000
# 2 -0.001516 0.028201 -0.000479 0.000000 -0.004518 0.000000
# 3 -0.004650 -0.000479 0.019193 0.000000 0.014262 0.000000
# 4 0.000000 0.000000 0.000000 0.327124 0.000000 0.138798
# 5 0.002449 -0.004518 0.014262 0.000000 0.048522 0.000000
# 6 0.000000 0.000000 0.000000 0.138798 0.000000 0.116586
#
#
# Mechanical properties :
#
#
# Convention : Reuss Voigt Hill
#
# Bulk Modulus (GPa) = 24.18697 52.67789 38.43243
# Shear Modulus (GPa) = 8.71180 27.30464 18.00822
#
# Velocity S-wave (km/s) = 2.05446 3.63716 2.95379
# Velocity P-wave (km/s) = 4.16488 6.56969 5.50032
#
# Compressibility (1/GPa) = 0.04134458
#
# Stress axis : x y z
#
# Youngs Moduli (GPa) = 138.14821 35.45942 52.10253
#
# Poissons Ratio (x) = 0.05374 0.24227
# Poissons Ratio (y) = 0.20938 0.02494
# Poissons Ratio (z) = 0.64237 0.01697
#
# Static dielectric constant tensor:
#      x y z
#    x 1.741060 0.000000 0.012290 
#    y 0.000000 1.793820 0.000000 
#    z 0.012290 0.000000 1.695710 
# 
# From -- ./inp_files/314014.got.cif
#   From: 2010.05.17/outbox.cif.g08.bks.cpg/sg12_158_cif.got.tgz:314014.got - 2010.06.03 13:09:07.
