data_PCOD9195275
_publ_section_title
;
Structure prediction by ZEFSAII (Michael W. Deem and Ramdas Pophale) SiO2 
 PCOD9195275
Probable space group: C 2/M
;
_chemical_formula_sum "Si O2"
_cell_formula_units_Z 64
_cell_length_a 9.640090
_cell_length_b 23.242519
_cell_length_c 21.598126
_cell_angle_alpha 90.000000
_cell_angle_beta 47.471212
_cell_angle_gamma 90.000000
_cell_volume 3566.245077
_symmetry_space_group_name_H-M "C 2/M"
_symmetry_group_IT_number 12
_symmetry_cell_setting 'monoclinic'
loop_
_space_group_symop_operation_xyz
x,y,z
-x,y,-z
-x,-y,-z
x,-y,z
1/2+x,1/2+y,z
1/2-x,1/2+y,-z
1/2-x,1/2-y,-z
1/2+x,1/2-y,z
loop_
_atom_site_type_symbol
_atom_site_label
_atom_site_fract_x
_atom_site_fract_y
_atom_site_fract_z
Si Si1 0.975687 0.636303 0.883653
Si Si2 0.682744 0.233446 0.900962
Si Si3 0.095920 0.930909 0.661998
Si Si4 0.872636 0.146594 0.930886
Si Si5 0.644658 0.569439 0.508233
Si Si6 0.231331 0.066586 0.148281
Si Si7 0.424195 0.931208 0.660075
Si Si8 0.195892 0.647850 0.189234
O O1 0.956431 0.630683 0.816519
O O2 0.102168 0.685840 0.877455
O O3 0.064082 0.579243 0.886109
O O4 0.764999 0.649028 0.969743
O O5 0.835134 0.204618 0.901757
O O6 0.778071 0.283681 0.832109
O O7 0.500000 0.249192 0.000000
O O8 0.104693 0.908092 0.589522
O O9 0.286613 0.921870 0.643085
O O10 0.921720 0.909806 0.756113
O O11 0.072755 0.000000 0.664203
O O12 0.794936 0.098407 0.908093
O O13 0.084098 0.131369 0.884379
O O14 0.500000 0.591340 0.500000
O O15 0.621719 0.500000 0.517692
O O16 0.860147 0.578849 0.423859
O O17 0.195854 0.000000 0.150517
O O18 0.365219 0.885146 0.730098
O O19 0.403883 0.000000 0.684209
#
# Coordination Sequence:
#
# PCOD9195275 Si02
#       8
#     8   8   8   8   8   8   8   8
#     4  10  22  34  52  79 106 141 185 232 269 303
#     4   9  19  37  57  76 102 138 185 236 275 313
#     4   9  17  33  54  74 102 141 176 209 255 313
#     4  10  20  36  54  76 105 143 187 225 268 315
#     4   9  18  32  55  80 104 136 172 216 266 312
#     4  10  20  35  53  75 108 146 181 214 262 327
#     4  10  21  35  50  78 115 143 173 212 261 326
#     4  12  21  32  54  80 109 137 176 227 280 311
#
# _framework density 17.946047
#
# number of rings (size 3 to 8) (size 9 to 14) (size 15 to 20)
#    0.000    2.125    1.250    3.375    1.750    5.000 
#    0.000    0.000    0.000    4.125    0.000    3.500 
#    0.000    0.000    0.000    0.000    0.000    0.000 
#
# Total GULP energy -178222.876072 kJ/mol
# GULP energy per Si atom -5569.464877 kJ/mol
# Density = 1.790520 g / cm^3
# Si number density = 17.946047 Si / 1000 Ang^3
#
#
#
# Elastic Constant Matrix: (Units=GPa)
#
#
# Indices 1 2 3 4 5 6 
#
# 1 81.4041 2.2366 19.4344 0.0000 10.4724 0.0000
# 2 2.2366 43.4602 17.2691 0.0000 10.0195 0.0000
# 3 19.4344 17.2691 52.1175 0.0000 14.0721 0.0000
# 4 0.0000 0.0000 0.0000 20.8225 0.0000 3.4857
# 5 10.4724 10.0195 14.0721 0.0000 27.1771 0.0000
# 6 0.0000 0.0000 0.0000 3.4857 0.0000 6.1388
#
#
#
# Elastic Compliance Matrix: (Units=1/GPa)
#
#
# Indices 1 2 3 4 5 6 
#
# 1 0.013852 0.002049 -0.004882 0.000000 -0.003565 0.000000
# 2 0.002049 0.027692 -0.008103 0.000000 -0.006803 0.000000
# 3 -0.004882 -0.008103 0.026015 0.000000 -0.008602 0.000000
# 4 0.000000 0.000000 0.000000 0.053069 0.000000 -0.030134
# 5 -0.003565 -0.006803 -0.008602 0.000000 0.045132 0.000000
# 6 0.000000 0.000000 0.000000 -0.030134 0.000000 0.180009
#
#
# Mechanical properties :
#
#
# Convention : Reuss Voigt Hill
#
# Bulk Modulus (GPa) = 21.88732 28.31799 25.10265
# Shear Modulus (GPa) = 13.05923 20.03046 16.54485
#
# Velocity S-wave (km/s) = 2.70051 3.34451 3.03961
# Velocity P-wave (km/s) = 4.68469 5.54329 5.13198
#
# Compressibility (1/GPa) = 0.04568856
#
# Stress axis : x y z
#
# Youngs Moduli (GPa) = 72.19061 36.11104 38.43891
#
# Poissons Ratio (x) = -0.07399 0.18764
# Poissons Ratio (y) = -0.14791 0.31147
# Poissons Ratio (z) = 0.35241 0.29261
#
# Static dielectric constant tensor:
#      x y z
#    x 1.630960 0.000000 0.000350 
#    y 0.000000 1.631810 0.000000 
#    z 0.000350 0.000000 1.618710 
# 
# From -- ./inp_files/302312.got.cif
#   From: 2010.05.17/outbox.cif.g08.bks.cpg/sg12_152_cif.got.tgz:302312.got - 2010.06.03 13:09:07.
