data_PCOD9195169
_publ_section_title
;
Structure prediction by ZEFSAII (Michael W. Deem and Ramdas Pophale) SiO2 
 PCOD9195169
Probable space group: C 2/M
;
_chemical_formula_sum "Si O2"
_cell_formula_units_Z 56
_cell_length_a 10.083093
_cell_length_b 28.745818
_cell_length_c 11.551926
_cell_angle_alpha 90.000000
_cell_angle_beta 76.915636
_cell_angle_gamma 90.000000
_cell_volume 3261.359296
_symmetry_space_group_name_H-M "C 2/M"
_symmetry_group_IT_number 12
_symmetry_cell_setting 'monoclinic'
loop_
_space_group_symop_operation_xyz
x,y,z
-x,y,-z
-x,-y,-z
x,-y,z
1/2+x,1/2+y,z
1/2-x,1/2+y,-z
1/2-x,1/2-y,-z
1/2+x,1/2-y,z
loop_
_atom_site_type_symbol
_atom_site_label
_atom_site_fract_x
_atom_site_fract_y
_atom_site_fract_z
Si Si1 0.562770 0.860624 0.652532
Si Si2 0.549495 0.794680 0.860869
Si Si3 0.244960 0.949177 0.433714
Si Si4 0.977672 0.949269 0.322995
Si Si5 0.485384 0.351866 0.364227
Si Si6 0.652863 0.265293 0.255418
Si Si7 0.182153 0.682106 0.418576
O O1 0.556550 0.842127 0.783773
O O2 0.650140 0.907390 0.612716
O O3 0.638039 0.821187 0.560398
O O4 0.410568 0.857129 0.628495
O O5 0.445990 0.759933 0.816183
O O6 0.697860 0.771569 0.826252
O O7 0.500000 0.803143 0.000000
O O8 0.159039 0.946066 0.570286
O O9 0.118788 0.950602 0.368514
O O10 0.313628 0.000000 0.416821
O O11 0.988090 0.896485 0.278254
O O12 0.970409 0.000000 0.264019
O O13 0.597807 0.315029 0.306264
O O14 0.339282 0.328811 0.379202
O O15 0.653920 0.231090 0.365429
O O16 0.000000 0.863842 0.500000
#
# Coordination Sequence:
#
# PCOD9195169 Si02
#       7
#     8   8   8   8   8   8   8
#     4  10  20  35  51  72 108 139 170 209 268 306
#     4  11  23  38  54  73 102 140 177 218 259 306
#     4   9  15  28  48  73 103 137 171 208 255 313
#     4   9  16  27  46  75 108 137 169 210 252 313
#     4  12  20  30  54  76 106 138 175 207 266 311
#     4  11  23  36  55  76 105 139 178 215 258 314
#     4  10  21  35  48  80 109 133 172 220 252 318
#
# _framework density 17.170755
#
# number of rings (size 3 to 8) (size 9 to 14) (size 15 to 20)
#    0.000    1.714    4.286    3.000    4.000    1.143 
#    0.000    2.143    0.000    0.429    0.000    0.000 
#    0.000    0.571    0.000    0.429    0.000    0.000 
#
# Total GULP energy -155909.123192 kJ/mol
# GULP energy per Si atom -5568.182971 kJ/mol
# Density = 1.713167 g / cm^3
# Si number density = 17.170755 Si / 1000 Ang^3
#
#
#
# Elastic Constant Matrix: (Units=GPa)
#
#
# Indices 1 2 3 4 5 6 
#
# 1 75.9258 21.1014 25.7851 0.0000 -15.1781 0.0000
# 2 21.1014 111.3385 46.6347 0.0000 -3.5016 0.0000
# 3 25.7851 46.6347 83.7125 0.0000 -4.0166 0.0000
# 4 0.0000 0.0000 0.0000 10.1551 0.0000 -12.3615
# 5 -15.1781 -3.5016 -4.0166 0.0000 13.9858 0.0000
# 6 0.0000 0.0000 0.0000 -12.3615 0.0000 24.0704
#
#
#
# Elastic Compliance Matrix: (Units=1/GPa)
#
#
# Indices 1 2 3 4 5 6 
#
# 1 0.018676 -0.001196 -0.004186 0.000000 0.018767 0.000000
# 2 -0.001196 0.011808 -0.006216 0.000000 -0.000127 0.000000
# 3 -0.004186 -0.006216 0.016634 0.000000 -0.001322 0.000000
# 4 0.000000 0.000000 0.000000 0.262689 0.000000 0.134906
# 5 0.018767 -0.000127 -0.001322 0.000000 0.091457 0.000000
# 6 0.000000 0.000000 0.000000 0.134906 0.000000 0.110826
#
#
# Mechanical properties :
#
#
# Convention : Reuss Voigt Hill
#
# Bulk Modulus (GPa) = 41.80057 50.89102 46.34579
# Shear Modulus (GPa) = 9.20370 21.47263 15.33816
#
# Velocity S-wave (km/s) = 2.31770 3.54013 2.99201
# Velocity P-wave (km/s) = 5.61776 6.81267 6.24387
#
# Compressibility (1/GPa) = 0.02392312
#
# Stress axis : x y z
#
# Youngs Moduli (GPa) = 53.54352 84.69022 60.11740
#
# Poissons Ratio (x) = 0.10130 0.25165
# Poissons Ratio (y) = 0.06405 0.37366
# Poissons Ratio (z) = 0.22413 0.52639
#
# Static dielectric constant tensor:
#      x y z
#    x 1.620780 0.000000 0.009010 
#    y 0.000000 1.654150 0.000000 
#    z 0.009010 0.000000 1.568070 
# 
# From -- ./inp_files/136573.got.cif
#   From: 2010.05.17/outbox.cif.g08.bks.cpg/sg12_69_cif.got.tgz:136573.got - 2010.06.03 13:09:07.
