data_PCOD9195756
_publ_section_title
;
Structure prediction by ZEFSAII (Michael W. Deem and Ramdas Pophale) SiO2 
 PCOD9195756
Probable space group: C 2/M
;
_chemical_formula_sum "Si O2"
_cell_formula_units_Z 40
_cell_length_a 30.869152
_cell_length_b 8.319712
_cell_length_c 28.431019
_cell_angle_alpha 90.000000
_cell_angle_beta 165.353820
_cell_angle_gamma 90.000000
_cell_volume 1846.235407
_symmetry_space_group_name_H-M "C 2/M"
_symmetry_group_IT_number 12
_symmetry_cell_setting 'monoclinic'
loop_
_space_group_symop_operation_xyz
x,y,z
-x,y,-z
-x,-y,-z
x,-y,z
1/2+x,1/2+y,z
1/2-x,1/2+y,-z
1/2-x,1/2-y,-z
1/2+x,1/2-y,z
loop_
_atom_site_type_symbol
_atom_site_label
_atom_site_fract_x
_atom_site_fract_y
_atom_site_fract_z
Si Si1 0.860450 0.673944 0.394574
Si Si2 0.181131 0.500000 0.230774
Si Si3 0.118563 0.816306 0.900659
Si Si4 0.125185 0.744834 0.749980
Si Si5 0.348875 0.000000 0.939370
Si Si6 0.398778 0.500000 0.556556
Si Si7 0.930992 0.500000 0.732762
O O1 0.770267 0.500000 0.294316
O O2 0.972680 0.665849 0.560461
O O3 0.000000 0.687792 0.500000
O O4 0.743220 0.832829 0.272805
O O5 0.018308 0.500000 0.963835
O O6 0.285630 0.500000 0.389957
O O7 0.223785 0.830076 0.060531
O O8 0.062619 0.000000 0.831052
O O9 0.250000 0.750000 0.000000
O O10 0.982533 0.669390 0.762641
O O11 0.223137 0.849706 0.813262
O O12 0.024340 0.850496 0.682652
O O13 0.458074 0.000000 0.102458
O O14 0.265078 0.500000 0.457797
#
# Coordination Sequence:
#
# PCOD9195756 Si02
#       7
#     8   4   8   8   4   4   4
#     4  10  20  35  55  80 110 143 179 220 265 315
#     4   9  17  33  55  81 108 142 180 218 266 312
#     4  11  21  35  58  79 105 142 179 218 265 319
#     4   9  18  35  57  79 105 143 181 216 267 320
#     4   8  16  32  57  80 106 144 176 221 267 312
#     4   8  16  33  59  78 108 143 174 222 267 311
#     4   9  18  36  54  81 111 137 178 221 266 315
#
# _framework density 21.665707999999999
#
# number of rings (size 3 to 8) (size 9 to 14) (size 15 to 20)
#    0.000    2.600    1.000    2.100    0.000    0.000 
#    0.000   21.000    0.000    2.400    0.000    0.000 
#    0.000    0.000    0.000    0.000    0.000    0.000 
#
# Total GULP energy -111413.375092 kJ/mol
# GULP energy per Si atom -5570.668755 kJ/mol
# Density = 2.161640 g / cm^3
# Si number density = 21.665708 Si / 1000 Ang^3
#
#
#
# Elastic Constant Matrix: (Units=GPa)
#
#
# Indices 1 2 3 4 5 6 
#
# 1 84.9255 62.1765 28.2350 -0.0061 26.3147 -0.0051
# 2 62.1765 221.7754 66.5841 0.0035 43.8863 -0.0025
# 3 28.2350 66.5841 90.3678 -0.0116 22.3004 -0.0188
# 4 -0.0061 0.0035 -0.0116 -3.8313 -0.0057 -9.2977
# 5 26.3147 43.8863 22.3004 -0.0057 58.8772 -0.0066
# 6 -0.0051 -0.0025 -0.0188 -9.2977 -0.0066 13.1095
#
#
#
# Elastic Compliance Matrix: (Units=1/GPa)
#
#
# Indices 1 2 3 4 5 6 
#
# 1 0.015907 -0.003152 -0.001625 -0.000007 -0.004145 -0.000004
# 2 -0.003152 0.006930 -0.003524 0.000015 -0.002422 0.000004
# 3 -0.001625 -0.003524 0.014718 -0.000032 -0.002222 -0.000004
# 4 -0.000007 0.000015 -0.000032 -0.095918 -0.000013 -0.068028
# 5 -0.004145 -0.002422 -0.002222 -0.000013 0.021484 -0.000003
# 6 -0.000004 0.000004 -0.000004 -0.068028 -0.000003 0.028032
#
#
# Mechanical properties :
#
#
# Convention : Reuss Voigt Hill
#
# Bulk Modulus (GPa) = 47.72235 79.00664 63.36449
# Shear Modulus (GPa) = 339.23626 29.63596 184.43611
#
# Velocity S-wave (km/s) = 12.52667 3.70249 9.23650
# Velocity P-wave (km/s) = 15.20848 7.40428 11.96079
#
# Compressibility (1/GPa) = 0.02095454
#
# Stress axis : x y z
#
# Youngs Moduli (GPa) = 62.86553 144.30348 67.94331
#
# Poissons Ratio (x) = 0.45478 0.11042
# Poissons Ratio (y) = 0.19812 0.23940
# Poissons Ratio (z) = 0.10216 0.50846
#
# Static dielectric constant tensor:
#      x y z
#    x 1.809340 0.000000 -0.056270 
#    y 0.000000 1.833690 0.000000 
#    z -0.056270 0.000000 1.769480 
# 
# From -- ./inp_files/368953.got.cif
#   From: 2010.05.17/outbox.cif.g08.bks.cpg/sg12_185_cif.got.tgz:368953.got - 2010.06.03 13:09:07.
