data_PCOD9195105
_publ_section_title
;
Structure prediction by ZEFSAII (Michael W. Deem and Ramdas Pophale) SiO2 
 PCOD9195105
Probable space group: C 2/M
;
_chemical_formula_sum "Si O2"
_cell_formula_units_Z 56
_cell_length_a 9.114532
_cell_length_b 24.175505
_cell_length_c 15.707945
_cell_angle_alpha 90.000000
_cell_angle_beta 57.413901
_cell_angle_gamma 90.000000
_cell_volume 2916.366081
_symmetry_space_group_name_H-M "C 2/M"
_symmetry_group_IT_number 12
_symmetry_cell_setting 'monoclinic'
loop_
_space_group_symop_operation_xyz
x,y,z
-x,y,-z
-x,-y,-z
x,-y,z
1/2+x,1/2+y,z
1/2-x,1/2+y,-z
1/2-x,1/2-y,-z
1/2+x,1/2-y,z
loop_
_atom_site_type_symbol
_atom_site_label
_atom_site_fract_x
_atom_site_fract_y
_atom_site_fract_z
Si Si1 0.307241 0.659365 0.542570
Si Si2 0.811799 0.401113 0.104761
Si Si3 0.391595 0.500000 0.909134
Si Si4 0.282152 0.282703 0.375012
Si Si5 0.369733 0.214961 0.753688
Si Si6 0.537224 0.106613 0.755159
Si Si7 0.697897 0.784627 0.934580
Si Si8 0.714275 0.000000 0.152625
O O1 0.500000 0.637075 0.500000
O O2 0.304436 0.722515 0.580091
O O3 0.166296 0.621368 0.635473
O O4 0.269679 0.673659 0.455557
O O5 0.678318 0.448026 0.120834
O O6 0.853267 0.398476 0.192157
O O7 0.718820 0.344329 0.103420
O O8 0.000000 0.412408 0.000000
O O9 0.600365 0.500000 0.855906
O O10 0.285747 0.500000 0.032563
O O11 0.479270 0.261322 0.300227
O O12 0.188896 0.304849 0.320305
O O13 0.427286 0.163521 0.792825
O O14 0.215215 0.246560 0.847051
O O15 0.407439 0.053955 0.791010
O O16 0.500000 0.800786 0.000000
O O17 0.750000 0.750000 0.000000
#
# Coordination Sequence:
#
# PCOD9195105 Si02
#       8
#     8   8   4   8   8   8   8   4
#     4  10  20  38  62  96 122 168 215 273 316 384
#     4  11  21  41  64  95 123 175 213 260 313 391
#     4  11  24  43  76  90 124 168 229 266 316 383
#     4  10  20  34  62  88 131 162 223 257 307 382
#     4  11  21  38  59  95 127 183 207 264 320 389
#     4  11  24  41  67  91 131 162 218 270 330 377
#     4  11  23  36  54  90 141 170 203 253 323 389
#     4  11  25  46  64 102 121 162 216 285 323 389
#
# _framework density 19.201979000000001
#
# number of rings (size 3 to 8) (size 9 to 14) (size 15 to 20)
#    0.000    1.286    2.857    4.929    0.000    2.286 
#    0.000    0.357    0.000    1.714    0.000    0.000 
#    0.000    0.000    0.000    0.000    0.000    0.000 
#
# Total GULP energy -156117.835973 kJ/mol
# GULP energy per Si atom -5575.636999 kJ/mol
# Density = 1.915827 g / cm^3
# Si number density = 19.201979 Si / 1000 Ang^3
#
#
#
# Elastic Constant Matrix: (Units=GPa)
#
#
# Indices 1 2 3 4 5 6 
#
# 1 115.1285 65.4131 40.8448 0.0000 23.5132 0.0000
# 2 65.4131 130.4182 48.6926 0.0000 7.0067 0.0000
# 3 40.8448 48.6926 74.2353 0.0000 2.1134 0.0000
# 4 0.0000 0.0000 0.0000 20.6882 0.0000 2.1092
# 5 23.5132 7.0067 2.1134 0.0000 33.6360 0.0000
# 6 0.0000 0.0000 0.0000 2.1092 0.0000 28.3486
#
#
#
# Elastic Compliance Matrix: (Units=1/GPa)
#
#
# Indices 1 2 3 4 5 6 
#
# 1 0.015313 -0.005476 -0.004569 0.000000 -0.009277 0.000000
# 2 -0.005476 0.012211 -0.005042 0.000000 0.001601 0.000000
# 3 -0.004569 -0.005042 0.019205 0.000000 0.003038 0.000000
# 4 0.000000 0.000000 0.000000 0.048706 0.000000 -0.003624
# 5 -0.009277 0.001601 0.003038 0.000000 0.035690 0.000000
# 6 0.000000 0.000000 0.000000 -0.003624 0.000000 0.035545
#
#
# Mechanical properties :
#
#
# Convention : Reuss Voigt Hill
#
# Bulk Modulus (GPa) = 60.40668 69.96478 65.18573
# Shear Modulus (GPa) = 24.70806 27.52333 26.11569
#
# Velocity S-wave (km/s) = 3.59101 3.79008 3.69189
# Velocity P-wave (km/s) = 6.98002 7.46112 7.22458
#
# Compressibility (1/GPa) = 0.01655446
#
# Stress axis : x y z
#
# Youngs Moduli (GPa) = 65.30386 81.89589 52.06877
#
# Poissons Ratio (x) = 0.44847 0.23792
# Poissons Ratio (y) = 0.35761 0.26252
# Poissons Ratio (z) = 0.29840 0.41291
#
# Static dielectric constant tensor:
#      x y z
#    x 1.668030 0.000000 -0.019010 
#    y 0.000000 1.579930 0.000000 
#    z -0.019010 0.000000 1.724120 
# 
# From -- ./inp_files/258883.got.cif
#   From: 2010.05.17/outbox.cif.g08.bks.cpg/sg12_130_cif.got.tgz:258883.got - 2010.06.03 13:09:07.
