data_PCOD9195834
_publ_section_title
;
Structure prediction by ZEFSAII (Michael W. Deem and Ramdas Pophale) SiO2 
 PCOD9195834
Probable space group: C 2/M
;
_chemical_formula_sum "Si O2"
_cell_formula_units_Z 64
_cell_length_a 15.477059
_cell_length_b 8.409542
_cell_length_c 26.385878
_cell_angle_alpha 90.000000
_cell_angle_beta 72.863012
_cell_angle_gamma 90.000000
_cell_volume 3281.782796
_symmetry_space_group_name_H-M "C 2/M"
_symmetry_group_IT_number 12
_symmetry_cell_setting 'monoclinic'
loop_
_space_group_symop_operation_xyz
x,y,z
-x,y,-z
-x,-y,-z
x,-y,z
1/2+x,1/2+y,z
1/2-x,1/2+y,-z
1/2-x,1/2-y,-z
1/2+x,1/2-y,z
loop_
_atom_site_type_symbol
_atom_site_label
_atom_site_fract_x
_atom_site_fract_y
_atom_site_fract_z
Si Si1 0.800056 0.694089 0.829033
Si Si2 0.007890 0.690562 0.244822
Si Si3 0.096098 0.809604 0.835227
Si Si4 0.927790 0.316232 0.057098
Si Si5 0.251071 0.309762 0.442042
Si Si6 0.556959 0.307454 0.635256
Si Si7 0.254833 0.820307 0.943445
Si Si8 0.440589 0.692062 0.558775
O O1 0.798802 0.500000 0.831313
O O2 0.888200 0.743272 0.782840
O O3 0.702170 0.740160 0.823209
O O4 0.807865 0.752312 0.886256
O O5 0.005820 0.500000 0.241965
O O6 0.945823 0.759003 0.210715
O O7 0.973062 0.743926 0.305421
O O8 0.042826 0.726890 0.891113
O O9 0.091287 0.000000 0.841228
O O10 0.895373 0.500000 0.061933
O O11 0.847491 0.194786 0.058875
O O12 0.000000 0.301366 0.000000
O O13 0.252585 0.500000 0.443051
O O14 0.250000 0.250000 0.500000
O O15 0.342407 0.255372 0.398322
O O16 0.160712 0.252531 0.430123
O O17 0.556467 0.500000 0.636962
O O18 0.489047 0.256900 0.602114
O O19 0.286610 0.000000 0.943956
O O20 0.250000 0.750000 0.000000
O O21 0.500000 0.744557 0.500000
O O22 0.439351 0.500000 0.558115
#
# Coordination Sequence:
#
# PCOD9195834 Si02
#       8
#     8   8   8   8   8   8   8   8
#     4   8  19  39  59  79 113 154 190 239 298 352
#     4  11  23  40  63  88 116 157 205 247 292 357
#     4  10  21  40  62  85 116 155 197 247 305 363
#     4  10  21  36  55  82 116 152 191 242 300 359
#     4  11  22  38  62  91 125 163 203 247 301 357
#     4  10  23  42  60  86 125 162 198 245 299 354
#     4  10  20  35  55  82 114 149 191 240 299 362
#     4  10  20  39  63  89 125 164 199 245 304 355
#
# _framework density 19.501595999999999
#
# number of rings (size 3 to 8) (size 9 to 14) (size 15 to 20)
#    0.000    2.000    1.250    2.625    1.750    3.750 
#    0.000   10.625    0.000    0.000    0.000    0.000 
#    0.000    0.000    0.000    0.000    0.000    0.000 
#
# Total GULP energy -178589.690343 kJ/mol
# GULP energy per Si atom -5580.927823 kJ/mol
# Density = 1.945721 g / cm^3
# Si number density = 19.501596 Si / 1000 Ang^3
#
#
#
# Elastic Constant Matrix: (Units=GPa)
#
#
# Indices 1 2 3 4 5 6 
#
# 1 131.2378 23.2475 90.5089 0.0000 -1.4120 0.0000
# 2 23.2475 29.4791 34.0221 0.0000 -1.7308 0.0000
# 3 90.5089 34.0221 194.0044 0.0000 -2.5690 0.0000
# 4 0.0000 0.0000 0.0000 28.0199 0.0000 1.0858
# 5 -1.4120 -1.7308 -2.5690 0.0000 36.2084 0.0000
# 6 0.0000 0.0000 0.0000 1.0858 0.0000 26.9178
#
#
#
# Elastic Compliance Matrix: (Units=1/GPa)
#
#
# Indices 1 2 3 4 5 6 
#
# 1 0.011534 -0.003621 -0.004747 0.000000 -0.000060 0.000000
# 2 -0.003621 0.043749 -0.005963 0.000000 0.001527 0.000000
# 3 -0.004747 -0.005963 0.008416 0.000000 0.000127 0.000000
# 4 0.000000 0.000000 0.000000 0.035745 0.000000 -0.001442
# 5 -0.000060 0.001527 0.000127 0.000000 0.027698 0.000000
# 6 0.000000 0.000000 0.000000 -0.001442 0.000000 0.037208
#
#
# Mechanical properties :
#
#
# Convention : Reuss Voigt Hill
#
# Bulk Modulus (GPa) = 28.53994 72.25315 50.39655
# Shear Modulus (GPa) = 24.42705 32.02541 28.22623
#
# Velocity S-wave (km/s) = 3.54300 4.05680 3.80857
# Velocity P-wave (km/s) = 5.60389 7.68595 6.72597
#
# Compressibility (1/GPa) = 0.03503861
#
# Stress axis : x y z
#
# Youngs Moduli (GPa) = 86.69834 22.85758 118.81583
#
# Poissons Ratio (x) = 0.08277 0.56400
# Poissons Ratio (y) = 0.31395 0.70845
# Poissons Ratio (z) = 0.41154 0.13629
#
# Static dielectric constant tensor:
#      x y z
#    x 1.681110 0.000000 -0.002000 
#    y 0.000000 1.690110 0.000000 
#    z -0.002000 0.000000 1.683960 
# 
# From -- ./inp_files/359802.got.cif
#   From: 2010.05.17/outbox.cif.g08.bks.cpg/sg12_180_cif.got.tgz:359802.got - 2010.06.03 13:09:07.
