data_PCOD9195426
_publ_section_title
;
Structure prediction by ZEFSAII (Michael W. Deem and Ramdas Pophale) SiO2 
 PCOD9195426
Probable space group: C 2/M
;
_chemical_formula_sum "Si O2"
_cell_formula_units_Z 56
_cell_length_a 17.606187
_cell_length_b 13.044458
_cell_length_c 12.027343
_cell_angle_alpha 90.000000
_cell_angle_beta 107.504532
_cell_angle_gamma 90.000000
_cell_volume 2634.327191
_symmetry_space_group_name_H-M "C 2/M"
_symmetry_group_IT_number 12
_symmetry_cell_setting 'monoclinic'
loop_
_space_group_symop_operation_xyz
x,y,z
-x,y,-z
-x,-y,-z
x,-y,z
1/2+x,1/2+y,z
1/2-x,1/2+y,-z
1/2-x,1/2-y,-z
1/2+x,1/2-y,z
loop_
_atom_site_type_symbol
_atom_site_label
_atom_site_fract_x
_atom_site_fract_y
_atom_site_fract_z
Si Si1 0.491779 0.381916 0.363440
Si Si2 0.067059 0.614876 0.206028
Si Si3 0.257034 0.321826 0.783873
Si Si4 0.413897 0.295670 0.966143
Si Si5 0.756448 0.381718 0.676690
Si Si6 0.169076 0.122215 0.414411
Si Si7 0.592627 0.795765 0.792237
O O1 0.500000 0.382548 0.500000
O O2 0.475724 0.500000 0.321622
O O3 0.577751 0.345441 0.354865
O O4 0.427374 0.300467 0.296097
O O5 0.064958 0.500000 0.157081
O O6 0.073000 0.700434 0.112999
O O7 0.149296 0.621209 0.311589
O O8 0.986759 0.635617 0.238014
O O9 0.334843 0.352143 0.888243
O O10 0.250126 0.197267 0.775367
O O11 0.276608 0.351680 0.666212
O O12 0.171750 0.355148 0.790633
O O13 0.500000 0.351738 0.000000
O O14 0.397254 0.251703 0.080561
O O15 0.735972 0.500000 0.694165
O O16 0.704873 0.345664 0.548641
O O17 0.164513 0.000000 0.421102
#
# Coordination Sequence:
#
# PCOD9195426 Si02
#       7
#     8   8   8   8   8   8   8
#     4  10  21  38  59  81 106 140 184 227 265 313
#     4   9  19  36  58  81 107 143 184 223 263 312
#     4  11  21  34  54  79 110 141 171 215 272 323
#     4   9  19  36  56  77 103 137 180 222 260 307
#     4   9  18  34  56  78 101 136 183 225 259 304
#     4  10  20  35  54  77 107 142 178 216 263 318
#     4  11  22  34  54  82 111 139 174 221 271 321
#
# _framework density 21.2578
#
# number of rings (size 3 to 8) (size 9 to 14) (size 15 to 20)
#    0.000    2.143    0.000    4.286    0.000    6.000 
#    0.000    0.714    0.000   14.143    0.000    0.000 
#    0.000    0.000    0.000    0.000    0.000    0.000 
#
# Total GULP energy -156259.624446 kJ/mol
# GULP energy per Si atom -5580.700873 kJ/mol
# Density = 2.120942 g / cm^3
# Si number density = 21.257800 Si / 1000 Ang^3
#
#
#
# Elastic Constant Matrix: (Units=GPa)
#
#
# Indices 1 2 3 4 5 6 
#
# 1 145.2494 -5.0147 21.0999 0.0000 14.0154 0.0000
# 2 -5.0147 24.8320 -0.8317 0.0000 10.8604 0.0000
# 3 21.0999 -0.8317 54.9072 0.0000 15.4947 0.0000
# 4 0.0000 0.0000 0.0000 7.9054 0.0000 1.8034
# 5 14.0154 10.8604 15.4947 0.0000 36.7869 0.0000
# 6 0.0000 0.0000 0.0000 1.8034 0.0000 11.7772
#
#
#
# Elastic Compliance Matrix: (Units=1/GPa)
#
#
# Indices 1 2 3 4 5 6 
#
# 1 0.007548 0.002676 -0.002072 0.000000 -0.002793 0.000000
# 2 0.002676 0.048519 0.004581 0.000000 -0.017273 0.000000
# 3 -0.002072 0.004581 0.021832 0.000000 -0.009759 0.000000
# 4 0.000000 0.000000 0.000000 0.131075 0.000000 -0.020071
# 5 -0.002793 -0.017273 -0.009759 0.000000 0.037458 0.000000
# 6 0.000000 0.000000 0.000000 -0.020071 0.000000 0.087983
#
#
# Mechanical properties :
#
#
# Convention : Reuss Voigt Hill
#
# Bulk Modulus (GPa) = 11.32887 28.38840 19.85864
# Shear Modulus (GPa) = 14.14562 25.27623 19.71093
#
# Velocity S-wave (km/s) = 2.58240 3.45198 3.04835
# Velocity P-wave (km/s) = 3.77260 5.41032 4.66391
#
# Compressibility (1/GPa) = 0.08827003
#
# Stress axis : x y z
#
# Youngs Moduli (GPa) = 132.49310 20.61044 45.80434
#
# Poissons Ratio (x) = -0.05516 0.09489
# Poissons Ratio (y) = -0.35460 -0.20983
# Poissons Ratio (z) = 0.27448 -0.09442
#
# Static dielectric constant tensor:
#      x y z
#    x 1.844390 0.000000 0.047020 
#    y 0.000000 1.795280 0.000000 
#    z 0.047020 0.000000 1.754330 
# 
# From -- ./inp_files/155983.got.cif
#   From: 2010.05.17/outbox.cif.g08.bks.cpg/sg12_78_cif.got.tgz:155983.got - 2010.06.03 13:09:07.
