data_PCOD9195739
_publ_section_title
;
Structure prediction by ZEFSAII (Michael W. Deem and Ramdas Pophale) SiO2 
 PCOD9195739
Probable space group: C 2/M
;
_chemical_formula_sum "Si O2"
_cell_formula_units_Z 56
_cell_length_a 14.599913
_cell_length_b 8.669108
_cell_length_c 27.737632
_cell_angle_alpha 90.000000
_cell_angle_beta 60.477257
_cell_angle_gamma 90.000000
_cell_volume 3054.873710
_symmetry_space_group_name_H-M "C 2/M"
_symmetry_group_IT_number 12
_symmetry_cell_setting 'monoclinic'
loop_
_space_group_symop_operation_xyz
x,y,z
-x,y,-z
-x,-y,-z
x,-y,z
1/2+x,1/2+y,z
1/2-x,1/2+y,-z
1/2-x,1/2-y,-z
1/2+x,1/2-y,z
loop_
_atom_site_type_symbol
_atom_site_label
_atom_site_fract_x
_atom_site_fract_y
_atom_site_fract_z
Si Si1 0.724708 0.317045 0.764586
Si Si2 0.500504 0.185330 0.845847
Si Si3 0.866853 0.182233 0.645031
Si Si4 0.562184 0.812554 0.937061
Si Si5 0.294082 0.314610 0.848149
Si Si6 0.179858 0.681916 0.445973
Si Si7 0.403870 0.316358 0.436565
O O1 0.717474 0.500000 0.771619
O O2 0.607334 0.246905 0.793702
O O3 0.791037 0.272484 0.700479
O O4 0.781360 0.246490 0.797035
O O5 0.509660 0.233099 0.899841
O O6 0.396574 0.249552 0.847670
O O7 0.500449 0.000000 0.843875
O O8 0.842409 0.222326 0.595998
O O9 0.989866 0.224662 0.618953
O O10 0.854481 0.000000 0.656906
O O11 0.685002 0.767603 0.902952
O O12 0.560337 0.000000 0.938657
O O13 0.500000 0.755754 0.000000
O O14 0.298584 0.500000 0.845916
O O15 0.169015 0.500000 0.438911
O O16 0.298781 0.713549 0.433363
O O17 0.106925 0.729081 0.509932
O O18 0.407519 0.500000 0.445863
#
# Coordination Sequence:
#
# PCOD9195739 Si02
#       7
#     8   8   8   8   8   8   8
#     4  11  23  39  57  79 108 141 185 235 280 328
#     4  10  20  36  58  82 111 148 187 226 274 328
#     4  11  22  37  56  78 107 141 178 220 274 333
#     4   8  16  32  54  82 116 150 185 226 269 318
#     4  10  20  36  58  82 112 149 186 226 275 326
#     4  10  20  35  55  80 108 138 177 221 265 319
#     4   9  20  37  55  76 106 142 174 212 267 327
#
# _framework density 18.331365000000002
#
# number of rings (size 3 to 8) (size 9 to 14) (size 15 to 20)
#    0.000    2.143    0.000    4.286    0.000    5.143 
#    0.000    4.286    0.000   14.571    0.000    0.000 
#    0.000    0.000    0.000    0.000    0.000    0.000 
#
# Total GULP energy -156343.224902 kJ/mol
# GULP energy per Si atom -5583.686604 kJ/mol
# Density = 1.828964 g / cm^3
# Si number density = 18.331365 Si / 1000 Ang^3
#
#
#
# Elastic Constant Matrix: (Units=GPa)
#
#
# Indices 1 2 3 4 5 6 
#
# 1 120.8674 37.1867 34.6332 0.0000 -4.2822 0.0000
# 2 37.1867 61.4060 19.8675 0.0000 -3.9467 0.0000
# 3 34.6332 19.8675 70.5774 0.0000 -17.1480 0.0000
# 4 0.0000 0.0000 0.0000 21.2047 0.0000 1.7809
# 5 -4.2822 -3.9467 -17.1480 0.0000 11.1480 0.0000
# 6 0.0000 0.0000 0.0000 1.7809 0.0000 27.9278
#
#
#
# Elastic Compliance Matrix: (Units=1/GPa)
#
#
# Indices 1 2 3 4 5 6 
#
# 1 0.011310 -0.005465 -0.005470 0.000000 -0.006005 0.000000
# 2 -0.005465 0.020593 -0.002960 0.000000 0.000638 0.000000
# 3 -0.005470 -0.002960 0.027020 0.000000 0.038413 0.000000
# 4 0.000000 0.000000 0.000000 0.047413 0.000000 -0.003023
# 5 -0.006005 0.000638 0.038413 0.000000 0.146708 0.000000
# 6 0.000000 0.000000 0.000000 -0.003023 0.000000 0.035999
#
#
# Mechanical properties :
#
#
# Convention : Reuss Voigt Hill
#
# Bulk Modulus (GPa) = 32.12222 48.46952 40.29587
# Shear Modulus (GPa) = 15.28059 22.80033 19.04046
#
# Velocity S-wave (km/s) = 2.89030 3.53056 3.22636
# Velocity P-wave (km/s) = 5.35720 6.56643 5.99240
#
# Compressibility (1/GPa) = 0.03113110
#
# Stress axis : x y z
#
# Youngs Moduli (GPa) = 88.41989 48.55929 37.01012
#
# Poissons Ratio (x) = 0.26538 0.20246
# Poissons Ratio (y) = 0.48322 0.10956
# Poissons Ratio (z) = 0.48370 0.14375
#
# Static dielectric constant tensor:
#      x y z
#    x 1.624980 0.000000 -0.012530 
#    y 0.000000 1.614260 0.000000 
#    z -0.012530 0.000000 1.608680 
# 
# From -- ./inp_files/337839.got.cif
#   From: 2010.05.17/outbox.cif.g08.bks.cpg/sg12_169_cif.got.tgz:337839.got - 2010.06.03 13:09:07.
