data_PCOD9195319
_publ_section_title
;
Structure prediction by ZEFSAII (Michael W. Deem and Ramdas Pophale) SiO2 
 PCOD9195319
Probable space group: C 2/M
;
_chemical_formula_sum "Si O2"
_cell_formula_units_Z 52
_cell_length_a 28.802108
_cell_length_b 20.083322
_cell_length_c 15.469506
_cell_angle_alpha 90.000000
_cell_angle_beta 161.376469
_cell_angle_gamma 90.000000
_cell_volume 2857.598343
_symmetry_space_group_name_H-M "C 2/M"
_symmetry_group_IT_number 12
_symmetry_cell_setting 'monoclinic'
loop_
_space_group_symop_operation_xyz
x,y,z
-x,y,-z
-x,-y,-z
x,-y,z
1/2+x,1/2+y,z
1/2-x,1/2+y,-z
1/2-x,1/2-y,-z
1/2+x,1/2-y,z
loop_
_atom_site_type_symbol
_atom_site_label
_atom_site_fract_x
_atom_site_fract_y
_atom_site_fract_z
Si Si1 0.862982 0.713164 0.509843
Si Si2 0.480806 0.708993 0.067678
Si Si3 0.273429 0.673123 0.061850
Si Si4 0.072285 0.160261 0.490395
Si Si5 0.154656 0.571190 0.597892
Si Si6 0.995808 0.923352 0.790524
Si Si7 0.000000 0.399596 0.500000
O O1 0.919815 0.767021 0.540370
O O2 0.897746 0.637654 0.543426
O O3 0.929805 0.737925 0.717976
O O4 0.688441 0.717342 0.206603
O O5 0.528433 0.634051 0.180355
O O6 0.500000 0.717955 0.000000
O O7 0.416204 0.651494 0.260561
O O8 0.308278 0.659026 0.223471
O O9 0.250000 0.750000 0.000000
O O10 0.128953 0.639854 0.773173
O O11 0.082161 0.105140 0.432916
O O12 0.126067 0.500000 0.502507
O O13 0.081110 0.567977 0.561898
O O14 0.329461 0.577230 0.916734
O O15 0.955446 0.000000 0.739429
#
# Coordination Sequence:
#
# PCOD9195319 Si02
#       7
#     8   8   8   8   8   8   4
#     4  10  21  36  60  82 111 144 181 226 275 330
#     4  10  21  37  61  89 111 137 175 228 285 335
#     4  11  21  32  51  80 115 147 189 233 267 313
#     4  10  21  36  53  79 112 150 188 226 271 316
#     4  10  20  35  53  79 112 149 188 226 271 318
#     4   9  19  38  58  79 111 146 185 225 271 333
#     4  12  21  32  54  78 112 148 193 232 265 310
#
# _framework density 18.197099999999999
#
# number of rings (size 3 to 8) (size 9 to 14) (size 15 to 20)
#    0.000    1.846    1.538    3.462    6.462    0.308 
#    0.000    3.077    0.000    0.462    0.000    0.000 
#    0.000    0.000    0.000    0.000    0.000    0.000 
#
# Total GULP energy -144971.299891 kJ/mol
# GULP energy per Si atom -5575.819227 kJ/mol
# Density = 1.815568 g / cm^3
# Si number density = 18.197100 Si / 1000 Ang^3
#
#
#
# Elastic Constant Matrix: (Units=GPa)
#
#
# Indices 1 2 3 4 5 6 
#
# 1 64.6409 40.6802 20.0853 0.0000 -35.5772 0.0000
# 2 40.6802 144.6693 40.6709 0.0000 -30.3633 0.0000
# 3 20.0853 40.6709 84.0602 0.0000 -31.1390 0.0000
# 4 0.0000 0.0000 0.0000 20.4956 0.0000 -5.4969
# 5 -35.5772 -30.3633 -31.1390 0.0000 31.1839 0.0000
# 6 0.0000 0.0000 0.0000 -5.4969 0.0000 14.0551
#
#
#
# Elastic Compliance Matrix: (Units=1/GPa)
#
#
# Indices 1 2 3 4 5 6 
#
# 1 0.053122 -0.004255 0.016318 0.000000 0.072758 0.000000
# 2 -0.004255 0.009184 -0.003035 0.000000 0.001058 0.000000
# 3 0.016318 -0.003035 0.024230 0.000000 0.039857 0.000000
# 4 0.000000 0.000000 0.000000 0.054508 0.000000 0.021318
# 5 0.072758 0.001058 0.039857 0.000000 0.155905 0.000000
# 6 0.000000 0.000000 0.000000 0.021318 0.000000 0.079486
#
#
# Mechanical properties :
#
#
# Convention : Reuss Voigt Hill
#
# Bulk Modulus (GPa) = 9.56096 55.13812 32.34954
# Shear Modulus (GPa) = 12.71478 25.94252 19.32865
#
# Velocity S-wave (km/s) = 2.64621 3.77986 3.26265
# Velocity P-wave (km/s) = 3.82127 7.02966 5.65766
#
# Compressibility (1/GPa) = 0.10459206
#
# Stress axis : x y z
#
# Youngs Moduli (GPa) = 18.82467 108.88637 41.27079
#
# Poissons Ratio (x) = 0.46326 -0.67344
# Poissons Ratio (y) = 0.08009 0.12526
# Poissons Ratio (z) = -0.30718 0.33048
#
# Static dielectric constant tensor:
#      x y z
#    x 1.624400 0.000000 0.021320 
#    y 0.000000 1.580780 0.000000 
#    z 0.021320 0.000000 1.662540 
# 
# From -- ./inp_files/247236.got.cif
#   From: 2010.05.17/outbox.cif.g08.bks.cpg/sg12_124_cif.got.tgz:247236.got - 2010.06.03 13:09:07.
