data_PCOD9195717
_publ_section_title
;
Structure prediction by ZEFSAII (Michael W. Deem and Ramdas Pophale) SiO2 
 PCOD9195717
Probable space group: C 2/M
;
_chemical_formula_sum "Si O2"
_cell_formula_units_Z 48
_cell_length_a 19.714565
_cell_length_b 8.719670
_cell_length_c 15.935913
_cell_angle_alpha 90.000000
_cell_angle_beta 102.079077
_cell_angle_gamma 90.000000
_cell_volume 2678.802865
_symmetry_space_group_name_H-M "C 2/M"
_symmetry_group_IT_number 12
_symmetry_cell_setting 'monoclinic'
loop_
_space_group_symop_operation_xyz
x,y,z
-x,y,-z
-x,-y,-z
x,-y,z
1/2+x,1/2+y,z
1/2-x,1/2+y,-z
1/2-x,1/2-y,-z
1/2+x,1/2-y,z
loop_
_atom_site_type_symbol
_atom_site_label
_atom_site_fract_x
_atom_site_fract_y
_atom_site_fract_z
Si Si1 0.806823 0.683505 0.778269
Si Si2 0.530021 0.316330 0.598598
Si Si3 0.581190 0.316510 0.861746
Si Si4 0.340953 0.182764 0.279363
Si Si5 0.815756 0.183972 0.966679
Si Si6 0.546357 0.816541 0.260889
O O1 0.798649 0.500000 0.777522
O O2 0.736571 0.758865 0.726129
O O3 0.817842 0.743097 0.875660
O O4 0.875115 0.722233 0.742634
O O5 0.500000 0.275478 0.500000
O O6 0.536774 0.500000 0.605679
O O7 0.604276 0.240879 0.637593
O O8 0.479598 0.258898 0.659624
O O9 0.576315 0.500000 0.851728
O O10 0.631629 0.253503 0.801503
O O11 0.506769 0.242716 0.824094
O O12 0.616365 0.281448 0.959789
O O13 0.342897 0.000000 0.273830
O O14 0.808924 0.000000 0.958269
O O15 0.750000 0.250000 0.000000
O O16 0.539591 0.000000 0.265745
#
# Coordination Sequence:
#
# PCOD9195717 Si02
#       6
#     8   8   8   8   8   8
#     4  11  23  38  55  80 116 152 189 235 282 327
#     4  10  21  39  64  89 113 143 179 224 278 338
#     4  10  20  35  55  79 111 149 190 236 279 327
#     4  11  21  34  58  85 111 147 188 229 277 333
#     4  11  22  34  54  81 111 151 195 239 279 324
#     4  10  22  38  58  83 113 149 186 231 283 331
#
# _framework density 17.918451000000001
#
# number of rings (size 3 to 8) (size 9 to 14) (size 15 to 20)
#    0.000    1.500    1.667    6.000    0.000    6.667 
#    0.000    4.167    0.000    0.000    0.000    0.000 
#    0.000    0.000    0.000    0.000    0.000    0.000 
#
# Total GULP energy -134110.659452 kJ/mol
# GULP energy per Si atom -5587.944144 kJ/mol
# Density = 1.787767 g / cm^3
# Si number density = 17.918451 Si / 1000 Ang^3
#
#
#
# Elastic Constant Matrix: (Units=GPa)
#
#
# Indices 1 2 3 4 5 6 
#
# 1 144.0715 44.4601 58.4144 0.0000 13.2403 0.0000
# 2 44.4601 57.2850 31.4990 0.0000 8.0976 0.0000
# 3 58.4144 31.4990 101.5697 0.0000 22.5662 0.0000
# 4 0.0000 0.0000 0.0000 27.3752 0.0000 1.3225
# 5 13.2403 8.0976 22.5662 0.0000 20.6934 0.0000
# 6 0.0000 0.0000 0.0000 1.3225 0.0000 31.3407
#
#
#
# Elastic Compliance Matrix: (Units=1/GPa)
#
#
# Indices 1 2 3 4 5 6 
#
# 1 0.010432 -0.005789 -0.004256 0.000000 0.000231 0.000000
# 2 -0.005789 0.024292 -0.003847 0.000000 -0.001606 0.000000
# 3 -0.004256 -0.003847 0.016558 0.000000 -0.013829 0.000000
# 4 0.000000 0.000000 0.000000 0.036604 0.000000 -0.001545
# 5 0.000231 -0.001606 -0.013829 0.000000 0.063885 0.000000
# 6 0.000000 0.000000 0.000000 -0.001545 0.000000 0.031973
#
#
# Mechanical properties :
#
#
# Convention : Reuss Voigt Hill
#
# Bulk Modulus (GPa) = 42.55589 63.51923 53.03756
# Shear Modulus (GPa) = 22.79356 27.11871 24.95614
#
# Velocity S-wave (km/s) = 3.57048 3.89453 3.73602
# Velocity P-wave (km/s) = 6.38742 7.46654 6.94796
#
# Compressibility (1/GPa) = 0.02349851
#
# Stress axis : x y z
#
# Youngs Moduli (GPa) = 95.86259 41.16570 60.39237
#
# Poissons Ratio (x) = 0.23831 0.25700
# Poissons Ratio (y) = 0.55494 0.23235
# Poissons Ratio (z) = 0.40795 0.15838
#
# Static dielectric constant tensor:
#      x y z
#    x 1.611730 0.000000 0.016280 
#    y 0.000000 1.600110 0.000000 
#    z 0.016280 0.000000 1.590410 
# 
# From -- ./inp_files/221726.got.cif
#   From: 2010.05.17/outbox.cif.g08.bks.cpg/sg12_111_cif.got.tgz:221726.got - 2010.06.03 13:09:07.
